MODEL 1
REMARK VINA RESULT:     -13.2      0.000      0.000
REMARK SMILES Cc1cc(C)c(S(=O)(=O)Nc2ccc(N3CC[NH+](C)CC3)c(C(=O)NCCCNC(=O)c3ccc(-c4c5nc(c(-c6ccc(S(=O)(=O)[O-])cc6)c6ccc([nH]6)c(-c6ccc(S(=O)(=O)[O-])cc6)c6nc(c(-c7ccc(S(=O)(=O)[O-])cc7)c7ccc4[nH]7)C=C6)C=C5)cc3)c2)c(C)c1
REMARK SMILES IDX 27 1 26 2 25 3 23 4 24 5 22 7 11 8 12 9 92 10 13 11 14 12
REMARK SMILES IDX 10 13 7 15 8 16 9 17 6 18 1 19 2 20 3 21 95 22 4 23 93 24
REMARK SMILES IDX 5 25 94 26 15 27 16 28 21 29 17 30 20 31 18 32 19 33 28 35
REMARK SMILES IDX 29 36 30 37 31 39 32 40 33 41 91 42 34 43 90 44 35 45 36 46
REMARK SMILES IDX 37 47 84 48 38 49 89 50 83 51 85 52 39 53 88 54 82 55 81 56
REMARK SMILES IDX 40 58 70 59 51 60 69 61 52 62 55 63 68 64 86 65 53 66 54 67
REMARK SMILES IDX 67 69 87 70 56 71 41 72 42 73 50 74 43 75 49 76 44 77 45 78
REMARK SMILES IDX 46 79 47 80 48 81 71 82 72 83 80 84 73 85 79 86 74 87 75 88
REMARK SMILES IDX 76 89 77 90 78 91 57 92 58 93 66 94 59 95 65 96 60 97 61 98
REMARK SMILES IDX 62 99 63 100 64 101
REMARK H PARENT 25 6 10 14 18 34 29 38 85 57 55 68
REMARK Flexibility Score: inf
ROOT
ATOM      1  C   UNL A   1      34.150  28.816  27.222  1.00  0.00     0.042 C 
ENDROOT
BRANCH   1   2
ATOM      2  C   UNL A   1      33.405  29.795  26.317  1.00  0.00     0.118 C 
BRANCH   2   3
ATOM      3  N   UNL A   1      33.695  29.540  24.922  1.00  0.00    -0.352 N 
ATOM      4  C   UNL A   1      33.244  28.613  24.015  1.00  0.00     0.253 C 
ATOM      5  O   UNL A   1      33.857  28.604  22.947  1.00  0.00    -0.269 OA
ATOM      6  H   UNL A   1      34.355  30.163  24.543  1.00  0.00     0.163 HD
BRANCH   4   7
ATOM      7  C   UNL A   1      32.105  27.666  24.274  1.00  0.00     0.065 A 
ATOM      8  C   UNL A   1      31.237  25.715  25.442  1.00  0.00     0.050 A 
ATOM      9  C   UNL A   1      30.009  25.873  24.815  1.00  0.00     0.029 A 
ATOM     10  C   UNL A   1      32.311  26.502  25.039  1.00  0.00     0.042 A 
ATOM     11  C   UNL A   1      29.793  26.979  24.003  1.00  0.00     0.029 A 
ATOM     12  C   UNL A   1      30.789  27.955  23.815  1.00  0.00     0.050 A 
BRANCH   8  13
ATOM     13  N   UNL A   1      31.260  24.843  26.560  1.00  0.00    -0.280 N 
ATOM     14  H   UNL A   1      31.082  25.252  27.438  1.00  0.00     0.180 HD
BRANCH  13  15
ATOM     15  S   UNL A   1      31.555  23.198  26.558  1.00  0.00     0.262 S 
ATOM     16  O   UNL A   1      30.423  22.586  25.879  1.00  0.00    -0.201 OA
ATOM     17  O   UNL A   1      31.872  22.876  27.927  1.00  0.00    -0.201 OA
BRANCH  15  18
ATOM     18  C   UNL A   1      33.019  22.762  25.593  1.00  0.00     0.093 A 
ATOM     19  C   UNL A   1      36.574  22.931  23.121  1.00  0.00     0.044 C 
ATOM     20  C   UNL A   1      35.340  22.813  23.965  1.00  0.00    -0.051 A 
ATOM     21  C   UNL A   1      34.077  22.931  23.391  1.00  0.00     0.008 A 
ATOM     22  C   UNL A   1      35.422  22.509  25.324  1.00  0.00     0.008 A 
ATOM     23  C   UNL A   1      32.911  22.904  24.182  1.00  0.00    -0.030 A 
ATOM     24  C   UNL A   1      34.273  22.430  26.146  1.00  0.00    -0.030 A 
ATOM     25  C   UNL A   1      31.608  22.940  23.421  1.00  0.00     0.046 C 
ATOM     26  C   UNL A   1      34.523  21.948  27.542  1.00  0.00     0.046 C 
ENDBRANCH  15  18
ENDBRANCH  13  15
ENDBRANCH   8  13
BRANCH  12  27
ATOM     27  N   UNL A   1      30.387  29.197  23.353  1.00  0.00    -0.360 N 
ATOM     28  C   UNL A   1      30.296  30.365  24.239  1.00  0.00     0.178 C 
ATOM     29  C   UNL A   1      30.579  29.543  21.938  1.00  0.00     0.178 C 
ATOM     30  C   UNL A   1      29.138  31.270  23.748  1.00  0.00     0.283 C 
ATOM     31  C   UNL A   1      29.451  30.488  21.474  1.00  0.00     0.283 C 
ATOM     32  N   UNL A   1      29.303  31.689  22.326  1.00  0.00    -0.334 N 
ATOM     33  C   UNL A   1      28.148  32.471  21.890  1.00  0.00     0.332 C 
ATOM     34  H   UNL A   1      30.138  32.271  22.245  1.00  0.00     0.347 HD
ENDBRANCH  12  27
ENDBRANCH   4   7
ENDBRANCH   2   3
ENDBRANCH   1   2
BRANCH   1  35
ATOM     35  C   UNL A   1      35.510  29.337  27.671  1.00  0.00     0.118 C 
BRANCH  35  36
ATOM     36  N   UNL A   1      35.464  29.882  29.018  1.00  0.00    -0.352 N 
ATOM     37  C   UNL A   1      36.466  29.966  29.952  1.00  0.00     0.251 C 
ATOM     38  H   UNL A   1      34.592  30.243  29.300  1.00  0.00     0.163 HD
ATOM     39  O   UNL A   1      36.188  30.270  31.109  1.00  0.00    -0.269 OA
BRANCH  37  40
ATOM     40  C   UNL A   1      37.868  29.679  29.571  1.00  0.00     0.039 A 
ATOM     41  C   UNL A   1      38.243  29.828  28.233  1.00  0.00     0.014 A 
ATOM     42  C   UNL A   1      38.797  29.225  30.513  1.00  0.00     0.014 A 
ATOM     43  C   UNL A   1      39.555  29.550  27.845  1.00  0.00     0.010 A 
ATOM     44  C   UNL A   1      40.121  29.013  30.136  1.00  0.00     0.010 A 
ATOM     45  C   UNL A   1      40.509  29.152  28.796  1.00  0.00    -0.014 A 
BRANCH  45  46
ATOM     46  C   UNL A   1      41.901  28.831  28.395  1.00  0.00     0.031 A 
ATOM     47  C   UNL A   1      42.253  27.434  27.960  1.00  0.00     0.074 A 
ATOM     48  C   UNL A   1      42.855  29.778  28.469  1.00  0.00     0.049 A 
ATOM     49  N   UNL A   1      43.417  26.946  27.613  1.00  0.00    -0.248 NA
ATOM     50  C   UNL A   1      41.159  26.449  27.940  1.00  0.00     0.031 C 
ATOM     51  C   UNL A   1      42.652  31.155  28.926  1.00  0.00     0.029 A 
ATOM     52  N   UNL A   1      44.192  29.722  28.165  1.00  0.00    -0.354 N 
ATOM     53  C   UNL A   1      43.202  25.596  27.367  1.00  0.00     0.074 A 
ATOM     54  C   UNL A   1      41.806  25.332  27.638  1.00  0.00     0.031 C 
ATOM     55  C   UNL A   1      43.816  31.819  28.847  1.00  0.00     0.029 A 
ATOM     56  C   UNL A   1      44.851  30.913  28.359  1.00  0.00     0.049 A 
ATOM     57  H   UNL A   1      44.637  28.908  27.838  1.00  0.00     0.167 HD
ATOM     58  C   UNL A   1      44.082  24.659  26.937  1.00  0.00     0.031 A 
ATOM     59  C   UNL A   1      46.142  31.239  28.159  1.00  0.00     0.031 A 
ATOM     60  C   UNL A   1      45.461  24.929  26.632  1.00  0.00     0.049 A 
ATOM     61  C   UNL A   1      47.086  30.202  27.620  1.00  0.00     0.074 A 
ATOM     62  C   UNL A   1      46.419  24.066  26.130  1.00  0.00     0.029 A 
ATOM     63  N   UNL A   1      46.076  26.162  26.792  1.00  0.00    -0.354 N 
ATOM     64  N   UNL A   1      46.851  28.943  27.337  1.00  0.00    -0.248 NA
ATOM     65  C   UNL A   1      48.465  30.635  27.355  1.00  0.00     0.031 C 
ATOM     66  C   UNL A   1      47.622  24.773  26.007  1.00  0.00     0.029 A 
ATOM     67  C   UNL A   1      47.401  26.083  26.402  1.00  0.00     0.049 A 
ATOM     68  H   UNL A   1      45.635  26.974  27.132  1.00  0.00     0.167 HD
ATOM     69  C   UNL A   1      48.048  28.437  26.842  1.00  0.00     0.074 A 
ATOM     70  C   UNL A   1      49.000  29.530  26.852  1.00  0.00     0.031 C 
ATOM     71  C   UNL A   1      48.332  27.182  26.416  1.00  0.00     0.031 A 
BRANCH  58  72
ATOM     72  C   UNL A   1      43.568  23.255  26.777  1.00  0.00    -0.014 A 
ATOM     73  C   UNL A   1      43.106  22.521  27.886  1.00  0.00     0.010 A 
ATOM     74  C   UNL A   1      43.546  22.659  25.504  1.00  0.00     0.010 A 
ATOM     75  C   UNL A   1      42.680  21.199  27.731  1.00  0.00     0.020 A 
ATOM     76  C   UNL A   1      43.098  21.344  25.342  1.00  0.00     0.020 A 
ATOM     77  C   UNL A   1      42.690  20.615  26.462  1.00  0.00     0.054 A 
BRANCH  77  78
ATOM     78  S   UNL A   1      42.137  18.896  26.283  1.00  0.00     0.124 S 
ATOM     79  O   UNL A   1      42.269  18.397  27.650  1.00  0.00    -0.237 OA
ATOM     80  O   UNL A   1      40.767  19.044  25.799  1.00  0.00    -0.237 OA
ATOM     81  O   UNL A   1      43.077  18.330  25.318  1.00  0.00    -0.744 OA
ENDBRANCH  77  78
ENDBRANCH  58  72
BRANCH  59  82
ATOM     82  C   UNL A   1      46.602  32.626  28.433  1.00  0.00    -0.014 A 
ATOM     83  C   UNL A   1      47.099  32.968  29.702  1.00  0.00     0.010 A 
ATOM     84  C   UNL A   1      46.577  33.599  27.419  1.00  0.00     0.010 A 
ATOM     85  C   UNL A   1      47.555  34.265  29.957  1.00  0.00     0.020 A 
ATOM     86  C   UNL A   1      47.050  34.892  27.665  1.00  0.00     0.020 A 
ATOM     87  C   UNL A   1      47.528  35.218  28.936  1.00  0.00     0.054 A 
BRANCH  87  88
ATOM     88  S   UNL A   1      48.186  36.877  29.266  1.00  0.00     0.124 S 
ATOM     89  O   UNL A   1      47.800  37.085  30.658  1.00  0.00    -0.237 OA
ATOM     90  O   UNL A   1      49.617  36.708  29.025  1.00  0.00    -0.237 OA
ATOM     91  O   UNL A   1      47.495  37.717  28.289  1.00  0.00    -0.744 OA
ENDBRANCH  87  88
ENDBRANCH  59  82
BRANCH  71  92
ATOM     92  C   UNL A   1      49.720  26.931  25.901  1.00  0.00    -0.014 A 
ATOM     93  C   UNL A   1      50.037  27.128  24.546  1.00  0.00     0.010 A 
ATOM     94  C   UNL A   1      50.730  26.534  26.794  1.00  0.00     0.010 A 
ATOM     95  C   UNL A   1      51.336  26.903  24.086  1.00  0.00     0.020 A 
ATOM     96  C   UNL A   1      52.036  26.327  26.342  1.00  0.00     0.020 A 
ATOM     97  C   UNL A   1      52.327  26.498  24.987  1.00  0.00     0.054 A 
BRANCH  97  98
ATOM     98  S   UNL A   1      54.018  26.248  24.380  1.00  0.00     0.124 S 
ATOM     99  O   UNL A   1      54.285  24.871  24.785  1.00  0.00    -0.237 OA
ATOM    100  O   UNL A   1      53.883  26.465  22.942  1.00  0.00    -0.237 OA
ATOM    101  O   UNL A   1      54.790  27.268  25.086  1.00  0.00    -0.744 OA
ENDBRANCH  97  98
ENDBRANCH  71  92
ENDBRANCH  45  46
ENDBRANCH  37  40
ENDBRANCH  35  36
ENDBRANCH   1  35
TORSDOF 17
ENDMDL
MODEL 2
REMARK VINA RESULT:     -13.2      3.082      8.435
REMARK SMILES Cc1cc(C)c(S(=O)(=O)Nc2ccc(N3CC[NH+](C)CC3)c(C(=O)NCCCNC(=O)c3ccc(-c4c5nc(c(-c6ccc(S(=O)(=O)[O-])cc6)c6ccc([nH]6)c(-c6ccc(S(=O)(=O)[O-])cc6)c6nc(c(-c7ccc(S(=O)(=O)[O-])cc7)c7ccc4[nH]7)C=C6)C=C5)cc3)c2)c(C)c1
REMARK SMILES IDX 27 1 26 2 25 3 23 4 24 5 22 7 11 8 12 9 92 10 13 11 14 12
REMARK SMILES IDX 10 13 7 15 8 16 9 17 6 18 1 19 2 20 3 21 95 22 4 23 93 24
REMARK SMILES IDX 5 25 94 26 15 27 16 28 21 29 17 30 20 31 18 32 19 33 28 35
REMARK SMILES IDX 29 36 30 37 31 39 32 40 33 41 91 42 34 43 90 44 35 45 36 46
REMARK SMILES IDX 37 47 84 48 38 49 89 50 83 51 85 52 39 53 88 54 82 55 81 56
REMARK SMILES IDX 40 58 70 59 51 60 69 61 52 62 55 63 68 64 86 65 53 66 54 67
REMARK SMILES IDX 67 69 87 70 56 71 41 72 42 73 50 74 43 75 49 76 44 77 45 78
REMARK SMILES IDX 46 79 47 80 48 81 71 82 72 83 80 84 73 85 79 86 74 87 75 88
REMARK SMILES IDX 76 89 77 90 78 91 57 92 58 93 66 94 59 95 65 96 60 97 61 98
REMARK SMILES IDX 62 99 63 100 64 101
REMARK H PARENT 25 6 10 14 18 34 29 38 85 57 55 68
REMARK Flexibility Score: inf
ROOT
ATOM      1  C   UNL A   1      34.038  28.095  25.720  1.00  0.00     0.042 C 
ENDROOT
BRANCH   1   2
ATOM      2  C   UNL A   1      33.677  29.276  24.821  1.00  0.00     0.118 C 
BRANCH   2   3
ATOM      3  N   UNL A   1      33.772  28.915  23.423  1.00  0.00    -0.352 N 
ATOM      4  C   UNL A   1      33.156  27.965  22.646  1.00  0.00     0.253 C 
ATOM      5  O   UNL A   1      33.626  27.847  21.514  1.00  0.00    -0.269 OA
ATOM      6  H   UNL A   1      34.414  29.467  22.922  1.00  0.00     0.163 HD
BRANCH   4   7
ATOM      7  C   UNL A   1      32.005  27.114  23.110  1.00  0.00     0.065 A 
ATOM      8  C   UNL A   1      31.217  25.096  24.219  1.00  0.00     0.050 A 
ATOM      9  C   UNL A   1      29.900  25.488  24.019  1.00  0.00     0.029 A 
ATOM     10  C   UNL A   1      32.240  25.821  23.617  1.00  0.00     0.042 A 
ATOM     11  C   UNL A   1      29.635  26.733  23.462  1.00  0.00     0.029 A 
ATOM     12  C   UNL A   1      30.673  27.615  23.112  1.00  0.00     0.050 A 
BRANCH   8  13
ATOM     13  N   UNL A   1      31.421  24.048  25.153  1.00  0.00    -0.280 N 
ATOM     14  H   UNL A   1      31.353  24.292  26.104  1.00  0.00     0.180 HD
BRANCH  13  15
ATOM     15  S   UNL A   1      31.764  22.447  24.822  1.00  0.00     0.262 S 
ATOM     16  O   UNL A   1      31.627  22.295  23.381  1.00  0.00    -0.201 OA
ATOM     17  O   UNL A   1      30.942  21.695  25.737  1.00  0.00    -0.201 OA
BRANCH  15  18
ATOM     18  C   UNL A   1      33.473  22.012  25.216  1.00  0.00     0.093 A 
ATOM     19  C   UNL A   1      37.659  20.928  24.939  1.00  0.00     0.044 C 
ATOM     20  C   UNL A   1      36.211  21.286  25.094  1.00  0.00    -0.051 A 
ATOM     21  C   UNL A   1      35.221  20.326  24.906  1.00  0.00     0.008 A 
ATOM     22  C   UNL A   1      35.824  22.563  25.499  1.00  0.00     0.008 A 
ATOM     23  C   UNL A   1      33.854  20.665  24.967  1.00  0.00    -0.030 A 
ATOM     24  C   UNL A   1      34.462  22.934  25.615  1.00  0.00    -0.030 A 
ATOM     25  C   UNL A   1      32.892  19.508  24.847  1.00  0.00     0.046 C 
ATOM     26  C   UNL A   1      34.220  24.289  26.204  1.00  0.00     0.046 C 
ENDBRANCH  15  18
ENDBRANCH  13  15
ENDBRANCH   8  13
BRANCH  12  27
ATOM     27  N   UNL A   1      30.351  28.954  22.961  1.00  0.00    -0.360 N 
ATOM     28  C   UNL A   1      30.411  29.900  24.082  1.00  0.00     0.178 C 
ATOM     29  C   UNL A   1      30.488  29.589  21.643  1.00  0.00     0.178 C 
ATOM     30  C   UNL A   1      29.306  30.969  23.887  1.00  0.00     0.283 C 
ATOM     31  C   UNL A   1      29.418  30.689  21.480  1.00  0.00     0.283 C 
ATOM     32  N   UNL A   1      29.423  31.680  22.581  1.00  0.00    -0.334 N 
ATOM     33  C   UNL A   1      28.314  32.617  22.412  1.00  0.00     0.332 C 
ATOM     34  H   UNL A   1      30.297  32.206  22.564  1.00  0.00     0.347 HD
ENDBRANCH  12  27
ENDBRANCH   4   7
ENDBRANCH   2   3
ENDBRANCH   1   2
BRANCH   1  35
ATOM     35  C   UNL A   1      33.699  28.338  27.186  1.00  0.00     0.118 C 
BRANCH  35  36
ATOM     36  N   UNL A   1      33.552  29.754  27.481  1.00  0.00    -0.352 N 
ATOM     37  C   UNL A   1      34.434  30.604  28.099  1.00  0.00     0.251 C 
ATOM     38  H   UNL A   1      32.702  30.161  27.196  1.00  0.00     0.163 HD
ATOM     39  O   UNL A   1      34.054  31.719  28.446  1.00  0.00    -0.269 OA
BRANCH  37  40
ATOM     40  C   UNL A   1      35.828  30.176  28.360  1.00  0.00     0.039 A 
ATOM     41  C   UNL A   1      36.162  29.728  29.641  1.00  0.00     0.014 A 
ATOM     42  C   UNL A   1      36.809  30.253  27.366  1.00  0.00     0.014 A 
ATOM     43  C   UNL A   1      37.472  29.330  29.917  1.00  0.00     0.010 A 
ATOM     44  C   UNL A   1      38.098  29.794  27.625  1.00  0.00     0.010 A 
ATOM     45  C   UNL A   1      38.449  29.349  28.908  1.00  0.00    -0.014 A 
BRANCH  45  46
ATOM     46  C   UNL A   1      39.850  28.952  29.192  1.00  0.00     0.031 A 
ATOM     47  C   UNL A   1      40.789  29.930  29.846  1.00  0.00     0.074 A 
ATOM     48  C   UNL A   1      40.292  27.736  28.818  1.00  0.00     0.049 A 
ATOM     49  N   UNL A   1      42.056  29.788  30.138  1.00  0.00    -0.248 NA
ATOM     50  C   UNL A   1      40.238  31.251  30.191  1.00  0.00     0.031 C 
ATOM     51  C   UNL A   1      39.494  26.718  28.129  1.00  0.00     0.029 A 
ATOM     52  N   UNL A   1      41.524  27.152  28.964  1.00  0.00    -0.354 N 
ATOM     53  C   UNL A   1      42.460  31.007  30.668  1.00  0.00     0.074 A 
ATOM     54  C   UNL A   1      41.315  31.889  30.625  1.00  0.00     0.031 C 
ATOM     55  C   UNL A   1      40.252  25.626  27.934  1.00  0.00     0.029 A 
ATOM     56  C   UNL A   1      41.590  25.873  28.462  1.00  0.00     0.049 A 
ATOM     57  H   UNL A   1      42.289  27.604  29.387  1.00  0.00     0.167 HD
ATOM     58  C   UNL A   1      43.672  31.359  31.163  1.00  0.00     0.031 A 
ATOM     59  C   UNL A   1      42.613  24.997  28.436  1.00  0.00     0.031 A 
ATOM     60  C   UNL A   1      44.800  30.472  31.240  1.00  0.00     0.049 A 
ATOM     61  C   UNL A   1      43.929  25.386  29.049  1.00  0.00     0.074 A 
ATOM     62  C   UNL A   1      46.051  30.710  31.781  1.00  0.00     0.029 A 
ATOM     63  N   UNL A   1      44.809  29.168  30.769  1.00  0.00    -0.354 N 
ATOM     64  N   UNL A   1      44.275  26.525  29.600  1.00  0.00    -0.248 NA
ATOM     65  C   UNL A   1      44.984  24.364  29.055  1.00  0.00     0.031 C 
ATOM     66  C   UNL A   1      46.825  29.556  31.616  1.00  0.00     0.029 A 
ATOM     67  C   UNL A   1      46.044  28.589  31.003  1.00  0.00     0.049 A 
ATOM     68  H   UNL A   1      44.049  28.719  30.332  1.00  0.00     0.167 HD
ATOM     69  C   UNL A   1      45.584  26.351  30.035  1.00  0.00     0.074 A 
ATOM     70  C   UNL A   1      45.961  24.994  29.696  1.00  0.00     0.031 C 
ATOM     71  C   UNL A   1      46.399  27.236  30.661  1.00  0.00     0.031 A 
BRANCH  58  72
ATOM     72  C   UNL A   1      43.828  32.772  31.656  1.00  0.00    -0.014 A 
ATOM     73  C   UNL A   1      43.504  33.118  32.981  1.00  0.00     0.010 A 
ATOM     74  C   UNL A   1      44.306  33.768  30.785  1.00  0.00     0.010 A 
ATOM     75  C   UNL A   1      43.605  34.444  33.411  1.00  0.00     0.020 A 
ATOM     76  C   UNL A   1      44.430  35.091  31.219  1.00  0.00     0.020 A 
ATOM     77  C   UNL A   1      44.056  35.424  32.523  1.00  0.00     0.054 A 
BRANCH  77  78
ATOM     78  S   UNL A   1      44.175  37.140  33.100  1.00  0.00     0.124 S 
ATOM     79  O   UNL A   1      43.901  37.886  31.874  1.00  0.00    -0.237 OA
ATOM     80  O   UNL A   1      43.136  37.213  34.124  1.00  0.00    -0.237 OA
ATOM     81  O   UNL A   1      45.545  37.242  33.599  1.00  0.00    -0.744 OA
ENDBRANCH  77  78
ENDBRANCH  58  72
BRANCH  59  82
ATOM     82  C   UNL A   1      42.413  23.650  27.842  1.00  0.00    -0.014 A 
ATOM     83  C   UNL A   1      42.838  23.386  26.529  1.00  0.00     0.010 A 
ATOM     84  C   UNL A   1      41.829  22.618  28.596  1.00  0.00     0.010 A 
ATOM     85  C   UNL A   1      42.673  22.113  25.975  1.00  0.00     0.020 A 
ATOM     86  C   UNL A   1      41.680  21.338  28.052  1.00  0.00     0.020 A 
ATOM     87  C   UNL A   1      42.096  21.097  26.741  1.00  0.00     0.054 A 
BRANCH  87  88
ATOM     88  S   UNL A   1      41.951  19.434  26.029  1.00  0.00     0.124 S 
ATOM     89  O   UNL A   1      42.774  19.545  24.829  1.00  0.00    -0.237 OA
ATOM     90  O   UNL A   1      42.489  18.583  27.088  1.00  0.00    -0.237 OA
ATOM     91  O   UNL A   1      40.515  19.288  25.796  1.00  0.00    -0.744 OA
ENDBRANCH  87  88
ENDBRANCH  59  82
BRANCH  71  92
ATOM     92  C   UNL A   1      47.769  26.753  31.043  1.00  0.00    -0.014 A 
ATOM     93  C   UNL A   1      48.829  26.777  30.119  1.00  0.00     0.010 A 
ATOM     94  C   UNL A   1      48.008  26.311  32.355  1.00  0.00     0.010 A 
ATOM     95  C   UNL A   1      50.100  26.338  30.495  1.00  0.00     0.020 A 
ATOM     96  C   UNL A   1      49.283  25.889  32.740  1.00  0.00     0.020 A 
ATOM     97  C   UNL A   1      50.318  25.891  31.803  1.00  0.00     0.054 A 
BRANCH  97  98
ATOM     98  S   UNL A   1      51.984  25.361  32.285  1.00  0.00     0.124 S 
ATOM     99  O   UNL A   1      51.890  23.910  32.154  1.00  0.00    -0.237 OA
ATOM    100  O   UNL A   1      52.835  26.027  31.301  1.00  0.00    -0.237 OA
ATOM    101  O   UNL A   1      52.121  25.858  33.652  1.00  0.00    -0.744 OA
ENDBRANCH  97  98
ENDBRANCH  71  92
ENDBRANCH  45  46
ENDBRANCH  37  40
ENDBRANCH  35  36
ENDBRANCH   1  35
TORSDOF 17
ENDMDL
MODEL 3
REMARK VINA RESULT:     -11.8      5.132      9.033
REMARK SMILES Cc1cc(C)c(S(=O)(=O)Nc2ccc(N3CC[NH+](C)CC3)c(C(=O)NCCCNC(=O)c3ccc(-c4c5nc(c(-c6ccc(S(=O)(=O)[O-])cc6)c6ccc([nH]6)c(-c6ccc(S(=O)(=O)[O-])cc6)c6nc(c(-c7ccc(S(=O)(=O)[O-])cc7)c7ccc4[nH]7)C=C6)C=C5)cc3)c2)c(C)c1
REMARK SMILES IDX 27 1 26 2 25 3 23 4 24 5 22 7 11 8 12 9 92 10 13 11 14 12
REMARK SMILES IDX 10 13 7 15 8 16 9 17 6 18 1 19 2 20 3 21 95 22 4 23 93 24
REMARK SMILES IDX 5 25 94 26 15 27 16 28 21 29 17 30 20 31 18 32 19 33 28 35
REMARK SMILES IDX 29 36 30 37 31 39 32 40 33 41 91 42 34 43 90 44 35 45 36 46
REMARK SMILES IDX 37 47 84 48 38 49 89 50 83 51 85 52 39 53 88 54 82 55 81 56
REMARK SMILES IDX 40 58 70 59 51 60 69 61 52 62 55 63 68 64 86 65 53 66 54 67
REMARK SMILES IDX 67 69 87 70 56 71 41 72 42 73 50 74 43 75 49 76 44 77 45 78
REMARK SMILES IDX 46 79 47 80 48 81 71 82 72 83 80 84 73 85 79 86 74 87 75 88
REMARK SMILES IDX 76 89 77 90 78 91 57 92 58 93 66 94 59 95 65 96 60 97 61 98
REMARK SMILES IDX 62 99 63 100 64 101
REMARK H PARENT 25 6 10 14 18 34 29 38 85 57 55 68
REMARK Flexibility Score: inf
ROOT
ATOM      1  C   UNL A   1      34.505  29.093  26.295  1.00  0.00     0.042 C 
ENDROOT
BRANCH   1   2
ATOM      2  C   UNL A   1      33.198  29.337  25.542  1.00  0.00     0.118 C 
BRANCH   2   3
ATOM      3  N   UNL A   1      33.365  29.114  24.122  1.00  0.00    -0.352 N 
ATOM      4  C   UNL A   1      32.739  28.299  23.212  1.00  0.00     0.253 C 
ATOM      5  O   UNL A   1      33.278  28.261  22.105  1.00  0.00    -0.269 OA
ATOM      6  H   UNL A   1      34.078  29.663  23.724  1.00  0.00     0.163 HD
BRANCH   4   7
ATOM      7  C   UNL A   1      31.502  27.497  23.509  1.00  0.00     0.065 A 
ATOM      8  C   UNL A   1      30.480  25.542  24.536  1.00  0.00     0.050 A 
ATOM      9  C   UNL A   1      29.226  25.963  24.115  1.00  0.00     0.029 A 
ATOM     10  C   UNL A   1      31.610  26.217  24.086  1.00  0.00     0.042 A 
ATOM     11  C   UNL A   1      29.094  27.195  23.487  1.00  0.00     0.029 A 
ATOM     12  C   UNL A   1      30.204  28.035  23.282  1.00  0.00     0.050 A 
BRANCH   8  13
ATOM     13  N   UNL A   1      30.497  24.521  25.521  1.00  0.00    -0.280 N 
ATOM     14  H   UNL A   1      29.625  24.137  25.767  1.00  0.00     0.180 HD
BRANCH  13  15
ATOM     15  S   UNL A   1      31.830  23.896  26.311  1.00  0.00     0.262 S 
ATOM     16  O   UNL A   1      31.358  23.458  27.615  1.00  0.00    -0.201 OA
ATOM     17  O   UNL A   1      32.847  24.912  26.184  1.00  0.00    -0.201 OA
BRANCH  15  18
ATOM     18  C   UNL A   1      32.491  22.427  25.492  1.00  0.00     0.093 A 
ATOM     19  C   UNL A   1      33.260  18.345  24.257  1.00  0.00     0.044 C 
ATOM     20  C   UNL A   1      33.046  19.775  24.659  1.00  0.00    -0.051 A 
ATOM     21  C   UNL A   1      33.564  20.257  25.858  1.00  0.00     0.008 A 
ATOM     22  C   UNL A   1      32.392  20.671  23.814  1.00  0.00     0.008 A 
ATOM     23  C   UNL A   1      33.303  21.573  26.288  1.00  0.00    -0.030 A 
ATOM     24  C   UNL A   1      32.147  22.014  24.189  1.00  0.00    -0.030 A 
ATOM     25  C   UNL A   1      34.011  21.996  27.553  1.00  0.00     0.046 C 
ATOM     26  C   UNL A   1      31.570  22.880  23.111  1.00  0.00     0.046 C 
ENDBRANCH  15  18
ENDBRANCH  13  15
ENDBRANCH   8  13
BRANCH  12  27
ATOM     27  N   UNL A   1      29.955  29.376  23.042  1.00  0.00    -0.360 N 
ATOM     28  C   UNL A   1      30.082  30.392  24.094  1.00  0.00     0.178 C 
ATOM     29  C   UNL A   1      30.108  29.910  21.682  1.00  0.00     0.178 C 
ATOM     30  C   UNL A   1      29.036  31.506  23.836  1.00  0.00     0.283 C 
ATOM     31  C   UNL A   1      29.100  31.056  21.454  1.00  0.00     0.283 C 
ATOM     32  N   UNL A   1      29.174  32.118  22.482  1.00  0.00    -0.334 N 
ATOM     33  C   UNL A   1      28.117  33.102  22.260  1.00  0.00     0.332 C 
ATOM     34  H   UNL A   1      30.077  32.591  22.420  1.00  0.00     0.347 HD
ENDBRANCH  12  27
ENDBRANCH   4   7
ENDBRANCH   2   3
ENDBRANCH   1   2
BRANCH   1  35
ATOM     35  C   UNL A   1      34.393  29.373  27.789  1.00  0.00     0.118 C 
BRANCH  35  36
ATOM     36  N   UNL A   1      34.251  30.794  28.065  1.00  0.00    -0.352 N 
ATOM     37  C   UNL A   1      35.004  31.593  28.888  1.00  0.00     0.251 C 
ATOM     38  H   UNL A   1      33.513  31.246  27.596  1.00  0.00     0.163 HD
ATOM     39  O   UNL A   1      34.609  32.725  29.155  1.00  0.00    -0.269 OA
BRANCH  37  40
ATOM     40  C   UNL A   1      36.274  31.091  29.461  1.00  0.00     0.039 A 
ATOM     41  C   UNL A   1      37.479  31.597  28.966  1.00  0.00     0.014 A 
ATOM     42  C   UNL A   1      36.283  30.100  30.447  1.00  0.00     0.014 A 
ATOM     43  C   UNL A   1      38.691  31.131  29.480  1.00  0.00     0.010 A 
ATOM     44  C   UNL A   1      37.490  29.684  31.004  1.00  0.00     0.010 A 
ATOM     45  C   UNL A   1      38.706  30.179  30.512  1.00  0.00    -0.014 A 
BRANCH  45  46
ATOM     46  C   UNL A   1      39.986  29.657  31.052  1.00  0.00     0.031 A 
ATOM     47  C   UNL A   1      40.591  30.279  32.281  1.00  0.00     0.074 A 
ATOM     48  C   UNL A   1      40.628  28.661  30.412  1.00  0.00     0.049 A 
ATOM     49  N   UNL A   1      41.718  29.994  32.882  1.00  0.00    -0.248 NA
ATOM     50  C   UNL A   1      39.844  31.386  32.902  1.00  0.00     0.031 C 
ATOM     51  C   UNL A   1      40.171  28.010  29.181  1.00  0.00     0.029 A 
ATOM     52  N   UNL A   1      41.806  28.025  30.708  1.00  0.00    -0.354 N 
ATOM     53  C   UNL A   1      41.832  30.904  33.925  1.00  0.00     0.074 A 
ATOM     54  C   UNL A   1      40.678  31.774  33.857  1.00  0.00     0.031 C 
ATOM     55  C   UNL A   1      41.048  27.051  28.842  1.00  0.00     0.029 A 
ATOM     56  C   UNL A   1      42.136  27.033  29.814  1.00  0.00     0.049 A 
ATOM     57  H   UNL A   1      42.363  28.255  31.486  1.00  0.00     0.167 HD
ATOM     58  C   UNL A   1      42.800  31.000  34.868  1.00  0.00     0.031 A 
ATOM     59  C   UNL A   1      43.193  26.199  29.786  1.00  0.00     0.031 A 
ATOM     60  C   UNL A   1      43.928  30.113  34.959  1.00  0.00     0.049 A 
ATOM     61  C   UNL A   1      44.221  26.281  30.879  1.00  0.00     0.074 A 
ATOM     62  C   UNL A   1      44.930  30.085  35.912  1.00  0.00     0.029 A 
ATOM     63  N   UNL A   1      44.196  29.088  34.065  1.00  0.00    -0.354 N 
ATOM     64  N   UNL A   1      44.281  27.111  31.893  1.00  0.00    -0.248 NA
ATOM     65  C   UNL A   1      45.314  25.299  30.835  1.00  0.00     0.031 C 
ATOM     66  C   UNL A   1      45.819  29.055  35.582  1.00  0.00     0.029 A 
ATOM     67  C   UNL A   1      45.350  28.422  34.441  1.00  0.00     0.049 A 
ATOM     68  H   UNL A   1      43.647  28.865  33.278  1.00  0.00     0.167 HD
ATOM     69  C   UNL A   1      45.407  26.740  32.618  1.00  0.00     0.074 A 
ATOM     70  C   UNL A   1      45.990  25.603  31.935  1.00  0.00     0.031 C 
ATOM     71  C   UNL A   1      45.912  27.291  33.749  1.00  0.00     0.031 A 
BRANCH  58  72
ATOM     72  C   UNL A   1      42.672  32.112  35.874  1.00  0.00    -0.014 A 
ATOM     73  C   UNL A   1      43.254  33.372  35.640  1.00  0.00     0.010 A 
ATOM     74  C   UNL A   1      41.962  31.896  37.068  1.00  0.00     0.010 A 
ATOM     75  C   UNL A   1      43.172  34.379  36.605  1.00  0.00     0.020 A 
ATOM     76  C   UNL A   1      41.859  32.910  38.026  1.00  0.00     0.020 A 
ATOM     77  C   UNL A   1      42.485  34.137  37.798  1.00  0.00     0.054 A 
BRANCH  77  78
ATOM     78  S   UNL A   1      42.394  35.456  39.040  1.00  0.00     0.124 S 
ATOM     79  O   UNL A   1      41.224  35.054  39.817  1.00  0.00    -0.237 OA
ATOM     80  O   UNL A   1      43.676  35.341  39.732  1.00  0.00    -0.237 OA
ATOM     81  O   UNL A   1      42.228  36.669  38.243  1.00  0.00    -0.744 OA
ENDBRANCH  77  78
ENDBRANCH  58  72
BRANCH  59  82
ATOM     82  C   UNL A   1      43.304  25.188  28.703  1.00  0.00    -0.014 A 
ATOM     83  C   UNL A   1      42.625  23.962  28.808  1.00  0.00     0.010 A 
ATOM     84  C   UNL A   1      44.060  25.458  27.549  1.00  0.00     0.010 A 
ATOM     85  C   UNL A   1      42.708  23.018  27.780  1.00  0.00     0.020 A 
ATOM     86  C   UNL A   1      44.129  24.525  26.511  1.00  0.00     0.020 A 
ATOM     87  C   UNL A   1      43.459  23.306  26.638  1.00  0.00     0.054 A 
BRANCH  87  88
ATOM     88  S   UNL A   1      43.501  22.095  25.286  1.00  0.00     0.124 S 
ATOM     89  O   UNL A   1      43.324  22.945  24.112  1.00  0.00    -0.237 OA
ATOM     90  O   UNL A   1      44.824  21.493  25.436  1.00  0.00    -0.237 OA
ATOM     91  O   UNL A   1      42.383  21.205  25.592  1.00  0.00    -0.744 OA
ENDBRANCH  87  88
ENDBRANCH  59  82
BRANCH  71  92
ATOM     92  C   UNL A   1      47.140  26.653  34.333  1.00  0.00    -0.014 A 
ATOM     93  C   UNL A   1      47.039  25.598  35.257  1.00  0.00     0.010 A 
ATOM     94  C   UNL A   1      48.411  27.088  33.919  1.00  0.00     0.010 A 
ATOM     95  C   UNL A   1      48.192  25.007  35.779  1.00  0.00     0.020 A 
ATOM     96  C   UNL A   1      49.566  26.486  34.425  1.00  0.00     0.020 A 
ATOM     97  C   UNL A   1      49.449  25.459  35.363  1.00  0.00     0.054 A 
BRANCH  97  98
ATOM     98  S   UNL A   1      50.935  24.654  36.023  1.00  0.00     0.124 S 
ATOM     99  O   UNL A   1      50.610  24.535  37.441  1.00  0.00    -0.237 OA
ATOM    100  O   UNL A   1      50.980  23.396  35.281  1.00  0.00    -0.237 OA
ATOM    101  O   UNL A   1      52.006  25.595  35.704  1.00  0.00    -0.744 OA
ENDBRANCH  97  98
ENDBRANCH  71  92
ENDBRANCH  45  46
ENDBRANCH  37  40
ENDBRANCH  35  36
ENDBRANCH   1  35
TORSDOF 17
ENDMDL
