MODEL 1
REMARK VINA RESULT:     -11.7      0.000      0.000
REMARK SMILES COc1cccc([C@@H]2CC(c3cccc(C)c3)=NN2C(=O)CCC(=O)NCCCNC(=O)c2ccc(-c3c4nc(c(-c5ccc(S(=O)(=O)[O-])cc5)c5ccc([nH]5)c(-c5ccc(S(=O)(=O)[O-])cc5)c5nc(c(-c6ccc(S(=O)(=O)[O-])cc6)c6ccc3[nH]6)C=C5)C=C4)cc2)c1
REMARK SMILES IDX 27 1 26 2 24 3 25 4 23 6 22 7 20 8 21 9 19 10 8 11 9 12
REMARK SMILES IDX 10 13 18 14 7 15 3 16 4 17 93 18 5 19 6 20 2 21 1 22 11 23
REMARK SMILES IDX 12 24 17 25 13 26 15 27 14 28 16 29 28 30 29 31 30 32 31 33
REMARK SMILES IDX 32 35 33 36 34 37 92 38 35 39 91 40 36 41 37 42 38 43 85 44
REMARK SMILES IDX 39 45 90 46 84 47 86 48 40 49 89 50 83 51 82 52 41 54 71 55
REMARK SMILES IDX 52 56 70 57 53 58 56 59 69 60 87 61 54 62 55 63 68 65 88 66
REMARK SMILES IDX 57 67 42 68 43 69 51 70 44 71 50 72 45 73 46 74 47 75 48 76
REMARK SMILES IDX 49 77 72 78 73 79 81 80 74 81 80 82 75 83 76 84 77 85 78 86
REMARK SMILES IDX 79 87 58 88 59 89 67 90 60 91 66 92 61 93 62 94 63 95 64 96
REMARK SMILES IDX 65 97
REMARK H PARENT 26 5 30 34 86 53 56 64
REMARK Flexibility Score: inf
ROOT
ATOM      1  C   UNL A   1      31.836  29.094  26.555  1.00  0.00     0.117 C 
ENDROOT
BRANCH   1   2
ATOM      2  N   UNL A   1      31.989  29.202  25.108  1.00  0.00    -0.356 N 
ATOM      3  C   UNL A   1      31.953  28.254  24.121  1.00  0.00     0.220 C 
ATOM      4  O   UNL A   1      31.802  28.615  22.949  1.00  0.00    -0.275 OA
ATOM      5  H   UNL A   1      32.146  30.118  24.784  1.00  0.00     0.163 HD
BRANCH   3   6
ATOM      6  C   UNL A   1      32.221  26.794  24.421  1.00  0.00     0.110 C 
BRANCH   6   7
ATOM      7  C   UNL A   1      33.703  26.461  24.606  1.00  0.00     0.112 C 
BRANCH   7   8
ATOM      8  C   UNL A   1      33.952  25.130  25.272  1.00  0.00     0.243 C 
ATOM      9  O   UNL A   1      33.255  24.813  26.240  1.00  0.00    -0.273 OA
BRANCH   8  10
ATOM     10  N   UNL A   1      35.015  24.371  24.804  1.00  0.00    -0.225 N 
ATOM     11  C   UNL A   1      35.132  23.620  23.558  1.00  0.00     0.147 C 
ATOM     12  C   UNL A   1      36.447  22.838  23.668  1.00  0.00     0.091 C 
ATOM     13  C   UNL A   1      36.850  23.305  25.016  1.00  0.00     0.071 C 
ATOM     14  N   UNL A   1      36.022  24.080  25.633  1.00  0.00    -0.174 NA
BRANCH  11  15
ATOM     15  C   UNL A   1      33.876  22.792  23.451  1.00  0.00    -0.019 A 
ATOM     16  C   UNL A   1      32.921  20.667  24.093  1.00  0.00     0.119 A 
ATOM     17  C   UNL A   1      32.108  20.699  22.960  1.00  0.00     0.046 A 
ATOM     18  C   UNL A   1      33.787  21.723  24.336  1.00  0.00     0.052 A 
ATOM     19  C   UNL A   1      32.142  21.796  22.093  1.00  0.00     0.004 A 
ATOM     20  C   UNL A   1      33.017  22.851  22.343  1.00  0.00     0.006 A 
BRANCH  16  21
ATOM     21  O   UNL A   1      32.875  19.545  24.877  1.00  0.00    -0.497 OA
ATOM     22  C   UNL A   1      33.628  18.440  24.373  1.00  0.00     0.278 C 
ENDBRANCH  16  21
ENDBRANCH  11  15
BRANCH  13  23
ATOM     23  C   UNL A   1      37.944  22.760  25.790  1.00  0.00    -0.002 A 
ATOM     24  C   UNL A   1      38.402  23.994  26.930  1.00  0.00     0.010 A 
ATOM     25  C   UNL A   1      38.786  21.210  25.592  1.00  0.00     0.013 A 
ATOM     26  C   UNL A   1      39.806  23.709  27.936  1.00  0.00     0.001 A 
ATOM     27  C   UNL A   1      40.212  20.763  26.574  1.00  0.00    -0.050 A 
ATOM     28  C   UNL A   1      40.788  21.951  27.827  1.00  0.00     0.003 A 
ATOM     29  C   UNL A   1      41.085  19.641  26.082  1.00  0.00     0.044 C 
ENDBRANCH  13  23
ENDBRANCH   8  10
ENDBRANCH   7   8
ENDBRANCH   6   7
ENDBRANCH   3   6
ENDBRANCH   1   2
BRANCH   1  30
ATOM     30  C   UNL A   1      33.009  28.740  27.496  1.00  0.00     0.042 C 
BRANCH  30  31
ATOM     31  C   UNL A   1      34.412  29.352  27.387  1.00  0.00     0.118 C 
BRANCH  31  32
ATOM     32  N   UNL A   1      34.635  30.566  28.132  1.00  0.00    -0.352 N 
ATOM     33  C   UNL A   1      35.677  30.936  28.953  1.00  0.00     0.251 C 
ATOM     34  H   UNL A   1      33.925  31.241  28.041  1.00  0.00     0.163 HD
ATOM     35  O   UNL A   1      35.487  31.935  29.650  1.00  0.00    -0.269 OA
BRANCH  33  36
ATOM     36  C   UNL A   1      36.966  30.055  29.118  1.00  0.00     0.039 A 
ATOM     37  C   UNL A   1      37.770  30.231  27.506  1.00  0.00     0.014 A 
ATOM     38  C   UNL A   1      37.777  28.711  30.397  1.00  0.00     0.014 A 
ATOM     39  C   UNL A   1      39.229  29.297  27.169  1.00  0.00     0.010 A 
ATOM     40  C   UNL A   1      39.290  27.867  29.928  1.00  0.00     0.010 A 
ATOM     41  C   UNL A   1      40.010  28.221  28.348  1.00  0.00    -0.014 A 
BRANCH  41  42
ATOM     42  C   UNL A   1      41.522  28.020  28.242  1.00  0.00     0.031 A 
ATOM     43  C   UNL A   1      42.406  29.146  28.715  1.00  0.00     0.074 A 
ATOM     44  C   UNL A   1      42.107  26.971  27.590  1.00  0.00     0.049 A 
ATOM     45  N   UNL A   1      43.703  29.276  28.629  1.00  0.00    -0.248 NA
ATOM     46  C   UNL A   1      41.732  30.315  29.306  1.00  0.00     0.031 C 
ATOM     47  C   UNL A   1      41.431  25.855  26.910  1.00  0.00     0.029 A 
ATOM     48  N   UNL A   1      43.445  26.661  27.376  1.00  0.00    -0.354 N 
ATOM     49  C   UNL A   1      43.977  30.541  29.131  1.00  0.00     0.074 A 
ATOM     50  C   UNL A   1      42.715  31.196  29.362  1.00  0.00     0.031 C 
ATOM     51  C   UNL A   1      42.331  24.977  26.434  1.00  0.00     0.029 A 
ATOM     52  C   UNL A   1      43.671  25.450  26.732  1.00  0.00     0.049 A 
ATOM     53  H   UNL A   1      44.178  27.255  27.659  1.00  0.00     0.167 HD
ATOM     54  C   UNL A   1      45.164  31.085  29.474  1.00  0.00     0.031 A 
ATOM     55  C   UNL A   1      44.809  24.780  26.429  1.00  0.00     0.031 A 
ATOM     56  C   UNL A   1      46.420  30.418  29.315  1.00  0.00     0.049 A 
ATOM     57  C   UNL A   1      46.127  25.404  26.825  1.00  0.00     0.074 A 
ATOM     58  C   UNL A   1      47.674  30.847  29.708  1.00  0.00     0.029 A 
ATOM     59  N   UNL A   1      46.582  29.180  28.716  1.00  0.00    -0.354 N 
ATOM     60  N   UNL A   1      46.345  26.546  27.432  1.00  0.00    -0.248 NA
ATOM     61  C   UNL A   1      47.351  24.649  26.511  1.00  0.00     0.031 C 
ATOM     62  C   UNL A   1      48.605  29.905  29.270  1.00  0.00     0.029 A 
ATOM     63  C   UNL A   1      47.921  28.845  28.693  1.00  0.00     0.049 A 
ATOM     64  H   UNL A   1      45.852  28.623  28.359  1.00  0.00     0.167 HD
ATOM     65  C   UNL A   1      47.723  26.627  27.605  1.00  0.00     0.074 A 
ATOM     66  C   UNL A   1      48.287  25.410  27.062  1.00  0.00     0.031 C 
ATOM     67  C   UNL A   1      48.458  27.620  28.162  1.00  0.00     0.031 A 
BRANCH  54  68
ATOM     68  C   UNL A   1      45.140  32.454  30.095  1.00  0.00    -0.014 A 
ATOM     69  C   UNL A   1      45.062  33.615  29.300  1.00  0.00     0.010 A 
ATOM     70  C   UNL A   1      45.171  32.581  31.493  1.00  0.00     0.010 A 
ATOM     71  C   UNL A   1      45.054  34.877  29.890  1.00  0.00     0.020 A 
ATOM     72  C   UNL A   1      45.117  33.841  32.090  1.00  0.00     0.020 A 
ATOM     73  C   UNL A   1      45.066  34.980  31.284  1.00  0.00     0.054 A 
BRANCH  73  74
ATOM     74  S   UNL A   1      44.958  36.630  32.024  1.00  0.00     0.124 S 
ATOM     75  O   UNL A   1      44.541  36.322  33.390  1.00  0.00    -0.237 OA
ATOM     76  O   UNL A   1      46.322  37.128  31.882  1.00  0.00    -0.237 OA
ATOM     77  O   UNL A   1      43.958  37.312  31.207  1.00  0.00    -0.744 OA
ENDBRANCH  73  74
ENDBRANCH  54  68
BRANCH  55  78
ATOM     78  C   UNL A   1      44.799  23.434  25.744  1.00  0.00    -0.014 A 
ATOM     79  C   UNL A   1      44.231  22.298  26.361  1.00  0.00     0.010 A 
ATOM     80  C   UNL A   1      45.427  23.255  24.497  1.00  0.00     0.010 A 
ATOM     81  C   UNL A   1      44.324  21.024  25.773  1.00  0.00     0.020 A 
ATOM     82  C   UNL A   1      45.487  21.992  23.885  1.00  0.00     0.020 A 
ATOM     83  C   UNL A   1      44.948  20.880  24.533  1.00  0.00     0.054 A 
BRANCH  83  84
ATOM     84  S   UNL A   1      45.028  19.230  23.769  1.00  0.00     0.124 S 
ATOM     85  O   UNL A   1      46.453  18.925  23.837  1.00  0.00    -0.237 OA
ATOM     86  O   UNL A   1      44.169  18.438  24.646  1.00  0.00    -0.237 OA
ATOM     87  O   UNL A   1      44.500  19.448  22.424  1.00  0.00    -0.744 OA
ENDBRANCH  83  84
ENDBRANCH  55  78
BRANCH  67  88
ATOM     88  C   UNL A   1      49.944  27.419  28.272  1.00  0.00    -0.014 A 
ATOM     89  C   UNL A   1      50.818  27.792  27.237  1.00  0.00     0.010 A 
ATOM     90  C   UNL A   1      50.475  26.929  29.480  1.00  0.00     0.010 A 
ATOM     91  C   UNL A   1      52.196  27.642  27.396  1.00  0.00     0.020 A 
ATOM     92  C   UNL A   1      51.854  26.822  29.659  1.00  0.00     0.020 A 
ATOM     93  C   UNL A   1      52.705  27.166  28.609  1.00  0.00     0.054 A 
BRANCH  93  94
ATOM     94  S   UNL A   1      54.501  27.035  28.805  1.00  0.00     0.124 S 
ATOM     95  O   UNL A   1      54.983  28.063  27.887  1.00  0.00    -0.237 OA
ATOM     96  O   UNL A   1      54.686  27.322  30.225  1.00  0.00    -0.237 OA
ATOM     97  O   UNL A   1      54.795  25.660  28.408  1.00  0.00    -0.744 OA
ENDBRANCH  93  94
ENDBRANCH  67  88
ENDBRANCH  41  42
ENDBRANCH  33  36
ENDBRANCH  31  32
ENDBRANCH  30  31
ENDBRANCH   1  30
TORSDOF 19
ENDMDL
MODEL 2
REMARK VINA RESULT:     -11.1      2.572      9.519
REMARK SMILES COc1cccc([C@@H]2CC(c3cccc(C)c3)=NN2C(=O)CCC(=O)NCCCNC(=O)c2ccc(-c3c4nc(c(-c5ccc(S(=O)(=O)[O-])cc5)c5ccc([nH]5)c(-c5ccc(S(=O)(=O)[O-])cc5)c5nc(c(-c6ccc(S(=O)(=O)[O-])cc6)c6ccc3[nH]6)C=C5)C=C4)cc2)c1
REMARK SMILES IDX 27 1 26 2 24 3 25 4 23 6 22 7 20 8 21 9 19 10 8 11 9 12
REMARK SMILES IDX 10 13 18 14 7 15 3 16 4 17 93 18 5 19 6 20 2 21 1 22 11 23
REMARK SMILES IDX 12 24 17 25 13 26 15 27 14 28 16 29 28 30 29 31 30 32 31 33
REMARK SMILES IDX 32 35 33 36 34 37 92 38 35 39 91 40 36 41 37 42 38 43 85 44
REMARK SMILES IDX 39 45 90 46 84 47 86 48 40 49 89 50 83 51 82 52 41 54 71 55
REMARK SMILES IDX 52 56 70 57 53 58 56 59 69 60 87 61 54 62 55 63 68 65 88 66
REMARK SMILES IDX 57 67 42 68 43 69 51 70 44 71 50 72 45 73 46 74 47 75 48 76
REMARK SMILES IDX 49 77 72 78 73 79 81 80 74 81 80 82 75 83 76 84 77 85 78 86
REMARK SMILES IDX 79 87 58 88 59 89 67 90 60 91 66 92 61 93 62 94 63 95 64 96
REMARK SMILES IDX 65 97
REMARK H PARENT 26 5 30 34 86 53 56 64
REMARK Flexibility Score: inf
ROOT
ATOM      1  C   UNL A   1      36.048  22.174  25.848  1.00  0.00     0.117 C 
ENDROOT
BRANCH   1   2
ATOM      2  N   UNL A   1      34.756  21.496  25.814  1.00  0.00    -0.356 N 
ATOM      3  C   UNL A   1      33.601  21.783  25.138  1.00  0.00     0.220 C 
ATOM      4  O   UNL A   1      32.740  20.904  25.024  1.00  0.00    -0.275 OA
ATOM      5  H   UNL A   1      34.707  20.690  26.377  1.00  0.00     0.163 HD
BRANCH   3   6
ATOM      6  C   UNL A   1      33.305  23.183  24.643  1.00  0.00     0.110 C 
BRANCH   6   7
ATOM      7  C   UNL A   1      33.344  24.249  25.739  1.00  0.00     0.112 C 
BRANCH   7   8
ATOM      8  C   UNL A   1      33.512  25.656  25.218  1.00  0.00     0.243 C 
ATOM      9  O   UNL A   1      34.101  25.824  24.147  1.00  0.00    -0.273 OA
BRANCH   8  10
ATOM     10  N   UNL A   1      33.062  26.692  26.023  1.00  0.00    -0.225 N 
ATOM     11  C   UNL A   1      31.701  27.002  26.450  1.00  0.00     0.147 C 
ATOM     12  C   UNL A   1      31.790  28.355  27.170  1.00  0.00     0.091 C 
ATOM     13  C   UNL A   1      33.248  28.575  27.008  1.00  0.00     0.071 C 
ATOM     14  N   UNL A   1      33.896  27.692  26.324  1.00  0.00    -0.174 NA
BRANCH  11  15
ATOM     15  C   UNL A   1      30.856  26.972  25.202  1.00  0.00    -0.019 A 
ATOM     16  C   UNL A   1      29.981  28.380  23.443  1.00  0.00     0.119 A 
ATOM     17  C   UNL A   1      28.888  27.523  23.312  1.00  0.00     0.046 A 
ATOM     18  C   UNL A   1      30.963  28.086  24.378  1.00  0.00     0.052 A 
ATOM     19  C   UNL A   1      28.796  26.366  24.090  1.00  0.00     0.004 A 
ATOM     20  C   UNL A   1      29.785  26.080  25.028  1.00  0.00     0.006 A 
BRANCH  16  21
ATOM     21  O   UNL A   1      29.990  29.521  22.685  1.00  0.00    -0.497 OA
ATOM     22  C   UNL A   1      29.061  30.520  23.109  1.00  0.00     0.278 C 
ENDBRANCH  16  21
ENDBRANCH  11  15
BRANCH  13  23
ATOM     23  C   UNL A   1      33.939  29.808  27.314  1.00  0.00    -0.002 A 
ATOM     24  C   UNL A   1      35.602  29.381  27.605  1.00  0.00     0.010 A 
ATOM     25  C   UNL A   1      33.272  31.443  27.501  1.00  0.00     0.013 A 
ATOM     26  C   UNL A   1      36.695  30.636  28.148  1.00  0.00     0.001 A 
ATOM     27  C   UNL A   1      34.275  32.833  28.012  1.00  0.00    -0.050 A 
ATOM     28  C   UNL A   1      36.042  32.536  28.327  1.00  0.00     0.003 A 
ATOM     29  C   UNL A   1      33.572  34.061  28.523  1.00  0.00     0.044 C 
ENDBRANCH  13  23
ENDBRANCH   8  10
ENDBRANCH   7   8
ENDBRANCH   6   7
ENDBRANCH   3   6
ENDBRANCH   1   2
BRANCH   1  30
ATOM     30  C   UNL A   1      37.316  21.591  25.185  1.00  0.00     0.042 C 
BRANCH  30  31
ATOM     31  C   UNL A   1      38.721  21.677  25.797  1.00  0.00     0.118 C 
BRANCH  31  32
ATOM     32  N   UNL A   1      39.514  20.474  25.739  1.00  0.00    -0.352 N 
ATOM     33  C   UNL A   1      40.814  20.238  26.127  1.00  0.00     0.251 C 
ATOM     34  H   UNL A   1      39.051  19.693  25.360  1.00  0.00     0.163 HD
ATOM     35  O   UNL A   1      41.309  19.178  25.738  1.00  0.00    -0.269 OA
BRANCH  33  36
ATOM     36  C   UNL A   1      41.673  21.316  26.877  1.00  0.00     0.039 A 
ATOM     37  C   UNL A   1      42.326  22.314  25.515  1.00  0.00     0.014 A 
ATOM     38  C   UNL A   1      42.394  21.720  28.727  1.00  0.00     0.014 A 
ATOM     39  C   UNL A   1      43.475  23.605  25.872  1.00  0.00     0.010 A 
ATOM     40  C   UNL A   1      43.527  23.096  28.938  1.00  0.00     0.010 A 
ATOM     41  C   UNL A   1      43.998  24.039  27.514  1.00  0.00    -0.014 A 
BRANCH  41  42
ATOM     42  C   UNL A   1      44.398  25.491  27.777  1.00  0.00     0.031 A 
ATOM     43  C   UNL A   1      45.810  25.895  27.435  1.00  0.00     0.074 A 
ATOM     44  C   UNL A   1      43.619  26.385  28.458  1.00  0.00     0.049 A 
ATOM     45  N   UNL A   1      46.431  27.021  27.665  1.00  0.00    -0.248 NA
ATOM     46  C   UNL A   1      46.660  24.867  26.809  1.00  0.00     0.031 C 
ATOM     47  C   UNL A   1      42.283  26.150  29.028  1.00  0.00     0.029 A 
ATOM     48  N   UNL A   1      43.843  27.711  28.806  1.00  0.00    -0.354 N 
ATOM     49  C   UNL A   1      47.734  26.814  27.232  1.00  0.00     0.074 A 
ATOM     50  C   UNL A   1      47.857  25.422  26.885  1.00  0.00     0.031 C 
ATOM     51  C   UNL A   1      41.797  27.278  29.573  1.00  0.00     0.029 A 
ATOM     52  C   UNL A   1      42.776  28.341  29.436  1.00  0.00     0.049 A 
ATOM     53  H   UNL A   1      44.694  28.171  28.621  1.00  0.00     0.167 HD
ATOM     54  C   UNL A   1      48.721  27.714  27.035  1.00  0.00     0.031 A 
ATOM     55  C   UNL A   1      42.585  29.620  29.840  1.00  0.00     0.031 A 
ATOM     56  C   UNL A   1      48.590  29.112  27.310  1.00  0.00     0.049 A 
ATOM     57  C   UNL A   1      43.701  30.612  29.608  1.00  0.00     0.074 A 
ATOM     58  C   UNL A   1      49.501  30.122  27.067  1.00  0.00     0.029 A 
ATOM     59  N   UNL A   1      47.476  29.697  27.887  1.00  0.00    -0.354 N 
ATOM     60  N   UNL A   1      44.877  30.412  29.061  1.00  0.00    -0.248 NA
ATOM     61  C   UNL A   1      43.465  32.003  30.030  1.00  0.00     0.031 C 
ATOM     62  C   UNL A   1      48.970  31.308  27.576  1.00  0.00     0.029 A 
ATOM     63  C   UNL A   1      47.691  31.052  28.045  1.00  0.00     0.049 A 
ATOM     64  H   UNL A   1      46.654  29.220  28.146  1.00  0.00     0.167 HD
ATOM     65  C   UNL A   1      45.502  31.654  29.040  1.00  0.00     0.074 A 
ATOM     66  C   UNL A   1      44.568  32.605  29.605  1.00  0.00     0.031 C 
ATOM     67  C   UNL A   1      46.739  31.982  28.595  1.00  0.00     0.031 A 
BRANCH  54  68
ATOM     68  C   UNL A   1      50.011  27.203  26.455  1.00  0.00    -0.014 A 
ATOM     69  C   UNL A   1      51.055  26.749  27.285  1.00  0.00     0.010 A 
ATOM     70  C   UNL A   1      50.172  27.155  25.061  1.00  0.00     0.010 A 
ATOM     71  C   UNL A   1      52.250  26.292  26.732  1.00  0.00     0.020 A 
ATOM     72  C   UNL A   1      51.349  26.656  24.502  1.00  0.00     0.020 A 
ATOM     73  C   UNL A   1      52.382  26.234  25.342  1.00  0.00     0.054 A 
BRANCH  73  74
ATOM     74  S   UNL A   1      53.909  25.545  24.652  1.00  0.00     0.124 S 
ATOM     75  O   UNL A   1      53.916  26.112  23.305  1.00  0.00    -0.237 OA
ATOM     76  O   UNL A   1      54.927  26.069  25.558  1.00  0.00    -0.237 OA
ATOM     77  O   UNL A   1      53.700  24.102  24.719  1.00  0.00    -0.744 OA
ENDBRANCH  73  74
ENDBRANCH  54  68
BRANCH  55  78
ATOM     78  C   UNL A   1      41.299  30.084  30.481  1.00  0.00    -0.014 A 
ATOM     79  C   UNL A   1      41.114  30.033  31.881  1.00  0.00     0.010 A 
ATOM     80  C   UNL A   1      40.213  30.509  29.694  1.00  0.00     0.010 A 
ATOM     81  C   UNL A   1      39.878  30.357  32.466  1.00  0.00     0.020 A 
ATOM     82  C   UNL A   1      38.987  30.873  30.276  1.00  0.00     0.020 A 
ATOM     83  C   UNL A   1      38.821  30.780  31.659  1.00  0.00     0.054 A 
BRANCH  83  84
ATOM     84  S   UNL A   1      37.238  31.230  32.437  1.00  0.00     0.124 S 
ATOM     85  O   UNL A   1      36.928  32.504  31.795  1.00  0.00    -0.237 OA
ATOM     86  O   UNL A   1      36.378  30.109  32.066  1.00  0.00    -0.237 OA
ATOM     87  O   UNL A   1      37.565  31.311  33.858  1.00  0.00    -0.744 OA
ENDBRANCH  83  84
ENDBRANCH  55  78
BRANCH  67  88
ATOM     88  C   UNL A   1      47.144  33.429  28.640  1.00  0.00    -0.014 A 
ATOM     89  C   UNL A   1      46.873  34.304  27.575  1.00  0.00     0.010 A 
ATOM     90  C   UNL A   1      47.729  33.935  29.816  1.00  0.00     0.010 A 
ATOM     91  C   UNL A   1      47.213  35.654  27.673  1.00  0.00     0.020 A 
ATOM     92  C   UNL A   1      48.028  35.292  29.935  1.00  0.00     0.020 A 
ATOM     93  C   UNL A   1      47.781  36.140  28.856  1.00  0.00     0.054 A 
BRANCH  93  94
ATOM     94  S   UNL A   1      48.162  37.907  28.974  1.00  0.00     0.124 S 
ATOM     95  O   UNL A   1      48.527  38.231  27.598  1.00  0.00    -0.237 OA
ATOM     96  O   UNL A   1      46.899  38.473  29.440  1.00  0.00    -0.237 OA
ATOM     97  O   UNL A   1      49.258  37.963  29.938  1.00  0.00    -0.744 OA
ENDBRANCH  93  94
ENDBRANCH  67  88
ENDBRANCH  41  42
ENDBRANCH  33  36
ENDBRANCH  31  32
ENDBRANCH  30  31
ENDBRANCH   1  30
TORSDOF 19
ENDMDL
MODEL 3
REMARK VINA RESULT:     -11.1      4.119      8.728
REMARK SMILES COc1cccc([C@@H]2CC(c3cccc(C)c3)=NN2C(=O)CCC(=O)NCCCNC(=O)c2ccc(-c3c4nc(c(-c5ccc(S(=O)(=O)[O-])cc5)c5ccc([nH]5)c(-c5ccc(S(=O)(=O)[O-])cc5)c5nc(c(-c6ccc(S(=O)(=O)[O-])cc6)c6ccc3[nH]6)C=C5)C=C4)cc2)c1
REMARK SMILES IDX 27 1 26 2 24 3 25 4 23 6 22 7 20 8 21 9 19 10 8 11 9 12
REMARK SMILES IDX 10 13 18 14 7 15 3 16 4 17 93 18 5 19 6 20 2 21 1 22 11 23
REMARK SMILES IDX 12 24 17 25 13 26 15 27 14 28 16 29 28 30 29 31 30 32 31 33
REMARK SMILES IDX 32 35 33 36 34 37 92 38 35 39 91 40 36 41 37 42 38 43 85 44
REMARK SMILES IDX 39 45 90 46 84 47 86 48 40 49 89 50 83 51 82 52 41 54 71 55
REMARK SMILES IDX 52 56 70 57 53 58 56 59 69 60 87 61 54 62 55 63 68 65 88 66
REMARK SMILES IDX 57 67 42 68 43 69 51 70 44 71 50 72 45 73 46 74 47 75 48 76
REMARK SMILES IDX 49 77 72 78 73 79 81 80 74 81 80 82 75 83 76 84 77 85 78 86
REMARK SMILES IDX 79 87 58 88 59 89 67 90 60 91 66 92 61 93 62 94 63 95 64 96
REMARK SMILES IDX 65 97
REMARK H PARENT 26 5 30 34 86 53 56 64
REMARK Flexibility Score: inf
ROOT
ATOM      1  C   UNL A   1      35.213  34.840  33.181  1.00  0.00     0.117 C 
ENDROOT
BRANCH   1   2
ATOM      2  N   UNL A   1      35.647  33.913  34.221  1.00  0.00    -0.356 N 
ATOM      3  C   UNL A   1      36.735  33.086  34.301  1.00  0.00     0.220 C 
ATOM      4  O   UNL A   1      37.058  32.624  35.400  1.00  0.00    -0.275 OA
ATOM      5  H   UNL A   1      35.052  33.875  35.005  1.00  0.00     0.163 HD
BRANCH   3   6
ATOM      6  C   UNL A   1      37.468  32.627  33.056  1.00  0.00     0.110 C 
BRANCH   6   7
ATOM      7  C   UNL A   1      38.522  31.551  33.319  1.00  0.00     0.112 C 
BRANCH   7   8
ATOM      8  C   UNL A   1      39.871  32.100  33.713  1.00  0.00     0.243 C 
ATOM      9  O   UNL A   1      40.242  33.169  33.220  1.00  0.00    -0.273 OA
BRANCH   8  10
ATOM     10  N   UNL A   1      40.658  31.322  34.550  1.00  0.00    -0.225 N 
ATOM     11  C   UNL A   1      40.854  31.430  35.992  1.00  0.00     0.147 C 
ATOM     12  C   UNL A   1      41.963  30.426  36.336  1.00  0.00     0.091 C 
ATOM     13  C   UNL A   1      42.207  29.915  34.965  1.00  0.00     0.071 C 
ATOM     14  N   UNL A   1      41.533  30.468  34.011  1.00  0.00    -0.174 NA
BRANCH  11  15
ATOM     15  C   UNL A   1      41.166  32.880  36.263  1.00  0.00    -0.019 A 
ATOM     16  C   UNL A   1      42.912  34.349  37.060  1.00  0.00     0.119 A 
ATOM     17  C   UNL A   1      41.942  35.241  37.516  1.00  0.00     0.046 A 
ATOM     18  C   UNL A   1      42.514  33.183  36.422  1.00  0.00     0.052 A 
ATOM     19  C   UNL A   1      40.584  34.980  37.309  1.00  0.00     0.004 A 
ATOM     20  C   UNL A   1      40.192  33.805  36.671  1.00  0.00     0.006 A 
BRANCH  16  21
ATOM     21  O   UNL A   1      44.222  34.639  37.334  1.00  0.00    -0.497 OA
ATOM     22  C   UNL A   1      45.087  34.594  36.198  1.00  0.00     0.278 C 
ENDBRANCH  16  21
ENDBRANCH  11  15
BRANCH  13  23
ATOM     23  C   UNL A   1      43.306  29.057  34.583  1.00  0.00    -0.002 A 
ATOM     24  C   UNL A   1      42.645  27.455  34.417  1.00  0.00     0.010 A 
ATOM     25  C   UNL A   1      45.029  29.457  34.423  1.00  0.00     0.013 A 
ATOM     26  C   UNL A   1      43.749  26.134  34.098  1.00  0.00     0.001 A 
ATOM     27  C   UNL A   1      46.269  28.220  34.062  1.00  0.00    -0.050 A 
ATOM     28  C   UNL A   1      45.715  26.501  33.837  1.00  0.00     0.003 A 
ATOM     29  C   UNL A   1      47.708  28.562  34.336  1.00  0.00     0.044 C 
ENDBRANCH  13  23
ENDBRANCH   8  10
ENDBRANCH   7   8
ENDBRANCH   6   7
ENDBRANCH   3   6
ENDBRANCH   1   2
BRANCH   1  30
ATOM     30  C   UNL A   1      34.435  34.385  31.926  1.00  0.00     0.042 C 
BRANCH  30  31
ATOM     31  C   UNL A   1      35.081  34.153  30.554  1.00  0.00     0.118 C 
BRANCH  31  32
ATOM     32  N   UNL A   1      34.271  33.468  29.578  1.00  0.00    -0.352 N 
ATOM     33  C   UNL A   1      34.436  32.239  28.978  1.00  0.00     0.251 C 
ATOM     34  H   UNL A   1      33.467  33.959  29.292  1.00  0.00     0.163 HD
ATOM     35  O   UNL A   1      33.717  32.013  28.003  1.00  0.00    -0.269 OA
BRANCH  33  36
ATOM     36  C   UNL A   1      35.579  31.250  29.399  1.00  0.00     0.039 A 
ATOM     37  C   UNL A   1      36.508  31.046  27.859  1.00  0.00     0.014 A 
ATOM     38  C   UNL A   1      36.113  30.057  30.947  1.00  0.00     0.014 A 
ATOM     39  C   UNL A   1      37.847  29.896  27.811  1.00  0.00     0.010 A 
ATOM     40  C   UNL A   1      37.526  28.967  30.760  1.00  0.00     0.010 A 
ATOM     41  C   UNL A   1      38.393  28.953  29.214  1.00  0.00    -0.014 A 
BRANCH  41  42
ATOM     42  C   UNL A   1      39.868  28.555  29.279  1.00  0.00     0.031 A 
ATOM     43  C   UNL A   1      40.848  29.598  29.751  1.00  0.00     0.074 A 
ATOM     44  C   UNL A   1      40.363  27.386  28.773  1.00  0.00     0.049 A 
ATOM     45  N   UNL A   1      42.154  29.555  29.787  1.00  0.00    -0.248 NA
ATOM     46  C   UNL A   1      40.286  30.891  30.177  1.00  0.00     0.031 C 
ATOM     47  C   UNL A   1      39.608  26.307  28.117  1.00  0.00     0.029 A 
ATOM     48  N   UNL A   1      41.662  26.891  28.721  1.00  0.00    -0.354 N 
ATOM     49  C   UNL A   1      42.548  30.816  30.215  1.00  0.00     0.074 A 
ATOM     50  C   UNL A   1      41.370  31.642  30.265  1.00  0.00     0.031 C 
ATOM     51  C   UNL A   1      40.421  25.283  27.804  1.00  0.00     0.029 A 
ATOM     52  C   UNL A   1      41.781  25.609  28.200  1.00  0.00     0.049 A 
ATOM     53  H   UNL A   1      42.438  27.411  29.031  1.00  0.00     0.167 HD
ATOM     54  C   UNL A   1      43.761  31.234  30.634  1.00  0.00     0.031 A 
ATOM     55  C   UNL A   1      42.841  24.776  28.068  1.00  0.00     0.031 A 
ATOM     56  C   UNL A   1      44.926  30.403  30.656  1.00  0.00     0.049 A 
ATOM     57  C   UNL A   1      44.189  25.261  28.546  1.00  0.00     0.074 A 
ATOM     58  C   UNL A   1      46.184  30.704  31.141  1.00  0.00     0.029 A 
ATOM     59  N   UNL A   1      44.973  29.106  30.174  1.00  0.00    -0.354 N 
ATOM     60  N   UNL A   1      44.503  26.417  29.081  1.00  0.00    -0.248 NA
ATOM     61  C   UNL A   1      45.325  24.333  28.418  1.00  0.00     0.031 C 
ATOM     62  C   UNL A   1      47.017  29.616  30.874  1.00  0.00     0.029 A 
ATOM     63  C   UNL A   1      46.252  28.604  30.314  1.00  0.00     0.049 A 
ATOM     64  H   UNL A   1      44.211  28.615  29.790  1.00  0.00     0.167 HD
ATOM     65  C   UNL A   1      45.857  26.339  29.387  1.00  0.00     0.074 A 
ATOM     66  C   UNL A   1      46.300  25.016  29.001  1.00  0.00     0.031 C 
ATOM     67  C   UNL A   1      46.665  27.277  29.937  1.00  0.00     0.031 A 
BRANCH  54  68
ATOM     68  C   UNL A   1      43.864  32.646  31.142  1.00  0.00    -0.014 A 
ATOM     69  C   UNL A   1      43.515  32.972  32.467  1.00  0.00     0.010 A 
ATOM     70  C   UNL A   1      44.339  33.656  30.289  1.00  0.00     0.010 A 
ATOM     71  C   UNL A   1      43.603  34.287  32.919  1.00  0.00     0.020 A 
ATOM     72  C   UNL A   1      44.472  34.966  30.750  1.00  0.00     0.020 A 
ATOM     73  C   UNL A   1      44.096  35.274  32.060  1.00  0.00     0.054 A 
BRANCH  73  74
ATOM     74  S   UNL A   1      44.290  36.955  32.704  1.00  0.00     0.124 S 
ATOM     75  O   UNL A   1      45.652  36.923  33.231  1.00  0.00    -0.237 OA
ATOM     76  O   UNL A   1      44.098  37.773  31.510  1.00  0.00    -0.237 OA
ATOM     77  O   UNL A   1      43.236  37.065  33.709  1.00  0.00    -0.744 OA
ENDBRANCH  73  74
ENDBRANCH  54  68
BRANCH  55  78
ATOM     78  C   UNL A   1      42.713  23.386  27.491  1.00  0.00    -0.014 A 
ATOM     79  C   UNL A   1      42.090  22.344  28.213  1.00  0.00     0.010 A 
ATOM     80  C   UNL A   1      43.281  23.066  26.244  1.00  0.00     0.010 A 
ATOM     81  C   UNL A   1      42.072  21.025  27.725  1.00  0.00     0.020 A 
ATOM     82  C   UNL A   1      43.232  21.759  25.732  1.00  0.00     0.020 A 
ATOM     83  C   UNL A   1      42.640  20.742  26.482  1.00  0.00     0.054 A 
BRANCH  83  84
ATOM     84  S   UNL A   1      42.577  19.037  25.849  1.00  0.00     0.124 S 
ATOM     85  O   UNL A   1      41.148  18.838  25.634  1.00  0.00    -0.237 OA
ATOM     86  O   UNL A   1      43.392  19.122  24.640  1.00  0.00    -0.237 OA
ATOM     87  O   UNL A   1      43.161  18.247  26.930  1.00  0.00    -0.744 OA
ENDBRANCH  83  84
ENDBRANCH  55  78
BRANCH  67  88
ATOM     88  C   UNL A   1      48.095  26.902  30.214  1.00  0.00    -0.014 A 
ATOM     89  C   UNL A   1      49.122  27.182  29.297  1.00  0.00     0.010 A 
ATOM     90  C   UNL A   1      48.420  26.336  31.462  1.00  0.00     0.010 A 
ATOM     91  C   UNL A   1      50.445  26.870  29.611  1.00  0.00     0.020 A 
ATOM     92  C   UNL A   1      49.746  26.066  31.797  1.00  0.00     0.020 A 
ATOM     93  C   UNL A   1      50.749  26.321  30.862  1.00  0.00     0.054 A 
BRANCH  93  94
ATOM     94  S   UNL A   1      52.482  25.976  31.261  1.00  0.00     0.124 S 
ATOM     95  O   UNL A   1      53.129  26.129  29.961  1.00  0.00    -0.237 OA
ATOM     96  O   UNL A   1      52.792  27.011  32.244  1.00  0.00    -0.237 OA
ATOM     97  O   UNL A   1      52.454  24.613  31.785  1.00  0.00    -0.744 OA
ENDBRANCH  93  94
ENDBRANCH  67  88
ENDBRANCH  41  42
ENDBRANCH  33  36
ENDBRANCH  31  32
ENDBRANCH  30  31
ENDBRANCH   1  30
TORSDOF 19
ENDMDL
