MODEL 1
REMARK VINA RESULT:     -11.6      0.000      0.000
REMARK SMILES O=C(NCCCNC(=O)[C@H]1CC[C@H]2CCCC[C@@H]2[N@H+]1C[C@@H]1CCCCO1)c1ccc(-c2c3nc(c(-c4ccc(S(=O)(=O)[O-])cc4)c4ccc([nH]4)c(-c4ccc(S(=O)(=O)[O-])cc4)c4nc(c(-c5ccc(S(=O)(=O)[O-])cc5)c5ccc2[nH]5)C=C4)C=C3)cc1
REMARK SMILES IDX 4 1 3 2 1 3 2 4 27 6 28 7 86 8 29 9 85 10 30 11 31 12 32 13
REMARK SMILES IDX 79 14 33 15 84 16 78 17 80 18 34 19 83 20 77 21 76 22 35 24
REMARK SMILES IDX 65 25 46 26 64 27 47 28 50 29 63 30 81 31 48 32 49 33 62 35
REMARK SMILES IDX 82 36 51 37 36 38 37 39 45 40 38 41 44 42 39 43 40 44 41 45
REMARK SMILES IDX 42 46 43 47 66 48 67 49 75 50 68 51 74 52 69 53 70 54 71 55
REMARK SMILES IDX 72 56 73 57 52 58 53 59 61 60 54 61 60 62 55 63 56 64 57 65
REMARK SMILES IDX 58 66 59 67 5 68 6 69 7 70 8 71 9 73 10 74 11 75 19 76 12 77
REMARK SMILES IDX 18 78 13 80 17 81 14 82 16 83 15 84 20 85 21 86 22 87 26 88
REMARK SMILES IDX 23 89 25 90 24 91
REMARK H PARENT 3 5 80 23 50 34 7 72 19 79
REMARK Flexibility Score: inf
ROOT
ATOM      1  C   UNL A   1      34.015  28.579  26.601  1.00  0.00     0.118 C 
ENDROOT
BRANCH   1   2
ATOM      2  N   UNL A   1      33.797  29.920  27.131  1.00  0.00    -0.352 N 
ATOM      3  O   UNL A   1      34.133  31.639  28.553  1.00  0.00    -0.269 OA
ATOM      4  C   UNL A   1      34.576  30.633  28.007  1.00  0.00     0.251 C 
ATOM      5  H   UNL A   1      32.981  30.374  26.819  1.00  0.00     0.163 HD
BRANCH   4   6
ATOM      6  C   UNL A   1      35.947  30.166  28.283  1.00  0.00     0.039 A 
ATOM      7  C   UNL A   1      36.929  30.292  27.296  1.00  0.00     0.014 A 
ATOM      8  C   UNL A   1      36.255  29.599  29.521  1.00  0.00     0.014 A 
ATOM      9  C   UNL A   1      38.175  29.720  27.487  1.00  0.00     0.010 A 
ATOM     10  C   UNL A   1      37.549  29.133  29.758  1.00  0.00     0.010 A 
ATOM     11  C   UNL A   1      38.512  29.186  28.739  1.00  0.00    -0.014 A 
BRANCH  11  12
ATOM     12  C   UNL A   1      39.928  28.845  28.998  1.00  0.00     0.031 A 
ATOM     13  C   UNL A   1      40.509  27.528  28.581  1.00  0.00     0.074 A 
ATOM     14  C   UNL A   1      40.679  29.768  29.635  1.00  0.00     0.049 A 
ATOM     15  N   UNL A   1      41.720  27.076  28.775  1.00  0.00    -0.248 NA
ATOM     16  C   UNL A   1      39.626  26.593  27.864  1.00  0.00     0.031 C 
ATOM     17  C   UNL A   1      40.195  31.077  30.093  1.00  0.00     0.029 A 
ATOM     18  N   UNL A   1      41.997  29.760  30.002  1.00  0.00    -0.354 N 
ATOM     19  C   UNL A   1      41.739  25.795  28.237  1.00  0.00     0.074 A 
ATOM     20  C   UNL A   1      40.418  25.539  27.707  1.00  0.00     0.031 C 
ATOM     21  C   UNL A   1      41.208  31.756  30.646  1.00  0.00     0.029 A 
ATOM     22  C   UNL A   1      42.386  30.902  30.662  1.00  0.00     0.049 A 
ATOM     23  H   UNL A   1      42.606  29.010  29.813  1.00  0.00     0.167 HD
ATOM     24  C   UNL A   1      42.772  24.922  28.202  1.00  0.00     0.031 A 
ATOM     25  C   UNL A   1      43.548  31.214  31.261  1.00  0.00     0.031 A 
ATOM     26  C   UNL A   1      44.083  25.207  28.725  1.00  0.00     0.049 A 
ATOM     27  C   UNL A   1      44.656  30.206  31.235  1.00  0.00     0.074 A 
ATOM     28  C   UNL A   1      45.217  24.416  28.673  1.00  0.00     0.029 A 
ATOM     29  N   UNL A   1      44.432  26.362  29.410  1.00  0.00    -0.354 N 
ATOM     30  N   UNL A   1      44.678  29.028  30.657  1.00  0.00    -0.248 NA
ATOM     31  C   UNL A   1      45.889  30.558  31.948  1.00  0.00     0.031 C 
ATOM     32  C   UNL A   1      46.233  25.065  29.382  1.00  0.00     0.029 A 
ATOM     33  C   UNL A   1      45.749  26.283  29.828  1.00  0.00     0.049 A 
ATOM     34  H   UNL A   1      43.831  27.125  29.574  1.00  0.00     0.167 HD
ATOM     35  C   UNL A   1      45.929  28.497  30.938  1.00  0.00     0.074 A 
ATOM     36  C   UNL A   1      46.645  29.496  31.708  1.00  0.00     0.031 C 
ATOM     37  C   UNL A   1      46.435  27.288  30.600  1.00  0.00     0.031 A 
BRANCH  24  38
ATOM     38  C   UNL A   1      42.535  23.557  27.615  1.00  0.00    -0.014 A 
ATOM     39  C   UNL A   1      42.895  23.256  26.290  1.00  0.00     0.010 A 
ATOM     40  C   UNL A   1      42.045  22.527  28.441  1.00  0.00     0.010 A 
ATOM     41  C   UNL A   1      42.760  21.953  25.801  1.00  0.00     0.020 A 
ATOM     42  C   UNL A   1      41.927  21.220  27.962  1.00  0.00     0.020 A 
ATOM     43  C   UNL A   1      42.281  20.942  26.641  1.00  0.00     0.054 A 
BRANCH  43  44
ATOM     44  S   UNL A   1      42.181  19.247  25.998  1.00  0.00     0.124 S 
ATOM     45  O   UNL A   1      43.038  19.323  24.818  1.00  0.00    -0.237 OA
ATOM     46  O   UNL A   1      42.706  18.454  27.105  1.00  0.00    -0.237 OA
ATOM     47  O   UNL A   1      40.758  19.063  25.723  1.00  0.00    -0.744 OA
ENDBRANCH  43  44
ENDBRANCH  24  38
BRANCH  25  48
ATOM     48  C   UNL A   1      43.682  32.500  31.995  1.00  0.00    -0.014 A 
ATOM     49  C   UNL A   1      43.401  32.581  33.367  1.00  0.00     0.010 A 
ATOM     50  C   UNL A   1      44.108  33.656  31.313  1.00  0.00     0.010 A 
ATOM     51  C   UNL A   1      43.516  33.801  34.039  1.00  0.00     0.020 A 
ATOM     52  C   UNL A   1      44.257  34.868  31.987  1.00  0.00     0.020 A 
ATOM     53  C   UNL A   1      43.939  34.937  33.343  1.00  0.00     0.054 A 
BRANCH  53  54
ATOM     54  S   UNL A   1      44.103  36.507  34.238  1.00  0.00     0.124 S 
ATOM     55  O   UNL A   1      45.089  37.214  33.427  1.00  0.00    -0.237 OA
ATOM     56  O   UNL A   1      42.745  37.041  34.194  1.00  0.00    -0.237 OA
ATOM     57  O   UNL A   1      44.560  36.096  35.565  1.00  0.00    -0.744 OA
ENDBRANCH  53  54
ENDBRANCH  25  48
BRANCH  37  58
ATOM     58  C   UNL A   1      47.831  26.981  31.062  1.00  0.00    -0.014 A 
ATOM     59  C   UNL A   1      48.942  27.381  30.300  1.00  0.00     0.010 A 
ATOM     60  C   UNL A   1      48.033  26.337  32.296  1.00  0.00     0.010 A 
ATOM     61  C   UNL A   1      50.236  27.127  30.758  1.00  0.00     0.020 A 
ATOM     62  C   UNL A   1      49.326  26.107  32.769  1.00  0.00     0.020 A 
ATOM     63  C   UNL A   1      50.420  26.495  31.993  1.00  0.00     0.054 A 
BRANCH  63  64
ATOM     64  S   UNL A   1      52.110  26.237  32.595  1.00  0.00     0.124 S 
ATOM     65  O   UNL A   1      51.925  26.280  34.043  1.00  0.00    -0.237 OA
ATOM     66  O   UNL A   1      52.451  24.929  32.042  1.00  0.00    -0.237 OA
ATOM     67  O   UNL A   1      52.854  27.361  32.029  1.00  0.00    -0.744 OA
ENDBRANCH  63  64
ENDBRANCH  37  58
ENDBRANCH  11  12
ENDBRANCH   4   6
ENDBRANCH   1   2
BRANCH   1  68
ATOM     68  C   UNL A   1      32.713  27.830  26.414  1.00  0.00     0.042 C 
BRANCH  68  69
ATOM     69  C   UNL A   1      32.935  26.353  26.169  1.00  0.00     0.118 C 
BRANCH  69  70
ATOM     70  N   UNL A   1      31.881  25.537  26.745  1.00  0.00    -0.351 N 
ATOM     71  C   UNL A   1      31.751  24.173  26.786  1.00  0.00     0.278 C 
ATOM     72  H   UNL A   1      31.149  26.041  27.170  1.00  0.00     0.163 HD
ATOM     73  O   UNL A   1      30.701  23.739  27.259  1.00  0.00    -0.268 OA
BRANCH  71  74
ATOM     74  C   UNL A   1      32.931  23.318  26.275  1.00  0.00     0.274 C 
ATOM     75  C   UNL A   1      32.905  21.910  26.886  1.00  0.00     0.076 C 
ATOM     76  N   UNL A   1      33.137  23.288  24.816  1.00  0.00    -0.320 N 
ATOM     77  C   UNL A   1      33.867  20.934  26.212  1.00  0.00     0.016 C 
ATOM     78  C   UNL A   1      34.389  22.634  24.419  1.00  0.00     0.187 C 
ATOM     79  H   UNL A   1      33.217  24.295  24.671  1.00  0.00     0.349 HD
ATOM     80  C   UNL A   1      34.969  21.703  25.510  1.00  0.00     0.048 C 
ATOM     81  C   UNL A   1      35.506  23.649  24.094  1.00  0.00     0.065 C 
ATOM     82  C   UNL A   1      36.039  20.828  24.865  1.00  0.00     0.010 C 
ATOM     83  C   UNL A   1      36.762  22.927  23.576  1.00  0.00     0.006 C 
ATOM     84  C   UNL A   1      37.200  21.719  24.418  1.00  0.00     0.001 C 
BRANCH  76  85
ATOM     85  C   UNL A   1      32.019  23.108  23.871  1.00  0.00     0.295 C 
BRANCH  85  86
ATOM     86  C   UNL A   1      31.356  24.145  22.886  1.00  0.00     0.173 C 
ATOM     87  C   UNL A   1      32.185  25.217  22.175  1.00  0.00     0.038 C 
ATOM     88  O   UNL A   1      30.035  24.564  23.237  1.00  0.00    -0.372 OA
ATOM     89  C   UNL A   1      31.942  26.671  22.570  1.00  0.00     0.005 C 
ATOM     90  C   UNL A   1      29.906  25.818  23.872  1.00  0.00     0.161 C 
ATOM     91  C   UNL A   1      30.556  26.966  23.114  1.00  0.00     0.029 C 
ENDBRANCH  85  86
ENDBRANCH  76  85
ENDBRANCH  71  74
ENDBRANCH  69  70
ENDBRANCH  68  69
ENDBRANCH   1  68
TORSDOF 15
ENDMDL
MODEL 2
REMARK VINA RESULT:     -11.3      1.236      2.837
REMARK SMILES O=C(NCCCNC(=O)[C@H]1CC[C@H]2CCCC[C@@H]2[N@H+]1C[C@@H]1CCCCO1)c1ccc(-c2c3nc(c(-c4ccc(S(=O)(=O)[O-])cc4)c4ccc([nH]4)c(-c4ccc(S(=O)(=O)[O-])cc4)c4nc(c(-c5ccc(S(=O)(=O)[O-])cc5)c5ccc2[nH]5)C=C4)C=C3)cc1
REMARK SMILES IDX 4 1 3 2 1 3 2 4 27 6 28 7 86 8 29 9 85 10 30 11 31 12 32 13
REMARK SMILES IDX 79 14 33 15 84 16 78 17 80 18 34 19 83 20 77 21 76 22 35 24
REMARK SMILES IDX 65 25 46 26 64 27 47 28 50 29 63 30 81 31 48 32 49 33 62 35
REMARK SMILES IDX 82 36 51 37 36 38 37 39 45 40 38 41 44 42 39 43 40 44 41 45
REMARK SMILES IDX 42 46 43 47 66 48 67 49 75 50 68 51 74 52 69 53 70 54 71 55
REMARK SMILES IDX 72 56 73 57 52 58 53 59 61 60 54 61 60 62 55 63 56 64 57 65
REMARK SMILES IDX 58 66 59 67 5 68 6 69 7 70 8 71 9 73 10 74 11 75 19 76 12 77
REMARK SMILES IDX 18 78 13 80 17 81 14 82 16 83 15 84 20 85 21 86 22 87 26 88
REMARK SMILES IDX 23 89 25 90 24 91
REMARK H PARENT 3 5 80 23 50 34 7 72 19 79
REMARK Flexibility Score: inf
ROOT
ATOM      1  C   UNL A   1      33.786  28.567  27.199  1.00  0.00     0.118 C 
ENDROOT
BRANCH   1   2
ATOM      2  N   UNL A   1      33.645  29.970  27.568  1.00  0.00    -0.352 N 
ATOM      3  O   UNL A   1      34.137  31.843  28.725  1.00  0.00    -0.269 OA
ATOM      4  C   UNL A   1      34.510  30.762  28.280  1.00  0.00     0.251 C 
ATOM      5  H   UNL A   1      32.816  30.408  27.266  1.00  0.00     0.163 HD
BRANCH   4   6
ATOM      6  C   UNL A   1      35.888  30.287  28.504  1.00  0.00     0.039 A 
ATOM      7  C   UNL A   1      36.845  30.452  27.497  1.00  0.00     0.014 A 
ATOM      8  C   UNL A   1      36.228  29.676  29.712  1.00  0.00     0.014 A 
ATOM      9  C   UNL A   1      38.096  29.876  27.636  1.00  0.00     0.010 A 
ATOM     10  C   UNL A   1      37.527  29.203  29.899  1.00  0.00     0.010 A 
ATOM     11  C   UNL A   1      38.465  29.296  28.858  1.00  0.00    -0.014 A 
BRANCH  11  12
ATOM     12  C   UNL A   1      39.887  28.948  29.069  1.00  0.00     0.031 A 
ATOM     13  C   UNL A   1      40.445  27.626  28.639  1.00  0.00     0.074 A 
ATOM     14  C   UNL A   1      40.665  29.870  29.674  1.00  0.00     0.049 A 
ATOM     15  N   UNL A   1      41.660  27.168  28.792  1.00  0.00    -0.248 NA
ATOM     16  C   UNL A   1      39.532  26.692  27.958  1.00  0.00     0.031 C 
ATOM     17  C   UNL A   1      40.205  31.185  30.141  1.00  0.00     0.029 A 
ATOM     18  N   UNL A   1      41.995  29.857  29.994  1.00  0.00    -0.354 N 
ATOM     19  C   UNL A   1      41.653  25.884  28.261  1.00  0.00     0.074 A 
ATOM     20  C   UNL A   1      40.313  25.633  27.779  1.00  0.00     0.031 C 
ATOM     21  C   UNL A   1      41.241  31.860  30.655  1.00  0.00     0.029 A 
ATOM     22  C   UNL A   1      42.413  31.000  30.633  1.00  0.00     0.049 A 
ATOM     23  H   UNL A   1      42.593  29.102  29.788  1.00  0.00     0.167 HD
ATOM     24  C   UNL A   1      42.679  25.005  28.194  1.00  0.00     0.031 A 
ATOM     25  C   UNL A   1      43.598  31.308  31.189  1.00  0.00     0.031 A 
ATOM     26  C   UNL A   1      44.010  25.285  28.669  1.00  0.00     0.049 A 
ATOM     27  C   UNL A   1      44.699  30.294  31.129  1.00  0.00     0.074 A 
ATOM     28  C   UNL A   1      45.137  24.487  28.580  1.00  0.00     0.029 A 
ATOM     29  N   UNL A   1      44.388  26.442  29.334  1.00  0.00    -0.354 N 
ATOM     30  N   UNL A   1      44.693  29.113  30.558  1.00  0.00    -0.248 NA
ATOM     31  C   UNL A   1      45.958  30.642  31.797  1.00  0.00     0.031 C 
ATOM     32  C   UNL A   1      46.181  25.134  29.249  1.00  0.00     0.029 A 
ATOM     33  C   UNL A   1      45.719  26.358  29.706  1.00  0.00     0.049 A 
ATOM     34  H   UNL A   1      43.798  27.209  29.516  1.00  0.00     0.167 HD
ATOM     35  C   UNL A   1      45.951  28.576  30.797  1.00  0.00     0.074 A 
ATOM     36  C   UNL A   1      46.699  29.575  31.536  1.00  0.00     0.031 C 
ATOM     37  C   UNL A   1      46.438  27.362  30.448  1.00  0.00     0.031 A 
BRANCH  24  38
ATOM     38  C   UNL A   1      42.414  23.638  27.623  1.00  0.00    -0.014 A 
ATOM     39  C   UNL A   1      42.684  23.341  26.276  1.00  0.00     0.010 A 
ATOM     40  C   UNL A   1      41.992  22.603  28.480  1.00  0.00     0.010 A 
ATOM     41  C   UNL A   1      42.526  22.037  25.795  1.00  0.00     0.020 A 
ATOM     42  C   UNL A   1      41.852  21.296  28.008  1.00  0.00     0.020 A 
ATOM     43  C   UNL A   1      42.116  21.022  26.665  1.00  0.00     0.054 A 
BRANCH  43  44
ATOM     44  S   UNL A   1      41.986  19.327  26.029  1.00  0.00     0.124 S 
ATOM     45  O   UNL A   1      42.489  18.544  27.155  1.00  0.00    -0.237 OA
ATOM     46  O   UNL A   1      40.556  19.194  25.762  1.00  0.00    -0.237 OA
ATOM     47  O   UNL A   1      42.840  19.333  24.845  1.00  0.00    -0.744 OA
ENDBRANCH  43  44
ENDBRANCH  24  38
BRANCH  25  48
ATOM     48  C   UNL A   1      43.765  32.597  31.911  1.00  0.00    -0.014 A 
ATOM     49  C   UNL A   1      44.192  33.752  31.238  1.00  0.00     0.010 A 
ATOM     50  C   UNL A   1      43.482  32.672  33.289  1.00  0.00     0.010 A 
ATOM     51  C   UNL A   1      44.360  34.952  31.934  1.00  0.00     0.020 A 
ATOM     52  C   UNL A   1      43.616  33.875  33.981  1.00  0.00     0.020 A 
ATOM     53  C   UNL A   1      44.074  35.004  33.302  1.00  0.00     0.054 A 
BRANCH  53  54
ATOM     54  S   UNL A   1      44.277  36.577  34.184  1.00  0.00     0.124 S 
ATOM     55  O   UNL A   1      43.513  36.338  35.404  1.00  0.00    -0.237 OA
ATOM     56  O   UNL A   1      45.725  36.664  34.349  1.00  0.00    -0.237 OA
ATOM     57  O   UNL A   1      43.702  37.558  33.265  1.00  0.00    -0.744 OA
ENDBRANCH  53  54
ENDBRANCH  25  48
BRANCH  37  58
ATOM     58  C   UNL A   1      47.848  27.049  30.862  1.00  0.00    -0.014 A 
ATOM     59  C   UNL A   1      48.935  27.464  30.073  1.00  0.00     0.010 A 
ATOM     60  C   UNL A   1      48.088  26.386  32.078  1.00  0.00     0.010 A 
ATOM     61  C   UNL A   1      50.242  27.204  30.487  1.00  0.00     0.020 A 
ATOM     62  C   UNL A   1      49.395  26.151  32.508  1.00  0.00     0.020 A 
ATOM     63  C   UNL A   1      50.464  26.552  31.705  1.00  0.00     0.054 A 
BRANCH  63  64
ATOM     64  S   UNL A   1      52.172  26.287  32.250  1.00  0.00     0.124 S 
ATOM     65  O   UNL A   1      52.509  27.584  32.832  1.00  0.00    -0.237 OA
ATOM     66  O   UNL A   1      52.037  25.187  33.202  1.00  0.00    -0.237 OA
ATOM     67  O   UNL A   1      52.882  25.954  31.017  1.00  0.00    -0.744 OA
ENDBRANCH  63  64
ENDBRANCH  37  58
ENDBRANCH  11  12
ENDBRANCH   4   6
ENDBRANCH   1   2
BRANCH   1  68
ATOM     68  C   UNL A   1      34.232  28.405  25.762  1.00  0.00     0.042 C 
BRANCH  68  69
ATOM     69  C   UNL A   1      33.124  28.727  24.781  1.00  0.00     0.118 C 
BRANCH  69  70
ATOM     70  N   UNL A   1      33.465  28.338  23.424  1.00  0.00    -0.351 N 
ATOM     71  C   UNL A   1      33.339  27.123  22.802  1.00  0.00     0.278 C 
ATOM     72  H   UNL A   1      33.843  29.056  22.867  1.00  0.00     0.163 HD
ATOM     73  O   UNL A   1      33.796  27.043  21.663  1.00  0.00    -0.268 OA
BRANCH  71  74
ATOM     74  C   UNL A   1      32.615  25.991  23.564  1.00  0.00     0.274 C 
ATOM     75  C   UNL A   1      31.373  25.510  22.801  1.00  0.00     0.076 C 
ATOM     76  N   UNL A   1      33.453  24.871  24.027  1.00  0.00    -0.320 N 
ATOM     77  C   UNL A   1      30.781  24.215  23.352  1.00  0.00     0.016 C 
ATOM     78  C   UNL A   1      32.744  23.945  24.918  1.00  0.00     0.187 C 
ATOM     79  H   UNL A   1      34.122  25.419  24.568  1.00  0.00     0.349 HD
ATOM     80  C   UNL A   1      31.204  24.032  24.797  1.00  0.00     0.048 C 
ATOM     81  C   UNL A   1      33.065  24.198  26.407  1.00  0.00     0.065 C 
ATOM     82  C   UNL A   1      30.605  22.807  25.481  1.00  0.00     0.010 C 
ATOM     83  C   UNL A   1      32.391  23.138  27.296  1.00  0.00     0.006 C 
ATOM     84  C   UNL A   1      30.910  22.882  26.979  1.00  0.00     0.001 C 
BRANCH  76  85
ATOM     85  C   UNL A   1      34.467  24.242  23.161  1.00  0.00     0.295 C 
BRANCH  85  86
ATOM     86  C   UNL A   1      35.466  23.062  23.473  1.00  0.00     0.173 C 
ATOM     87  C   UNL A   1      34.993  21.765  24.134  1.00  0.00     0.038 C 
ATOM     88  O   UNL A   1      36.786  23.463  23.848  1.00  0.00    -0.372 OA
ATOM     89  C   UNL A   1      35.489  21.475  25.547  1.00  0.00     0.005 C 
ATOM     90  C   UNL A   1      37.096  23.446  25.225  1.00  0.00     0.161 C 
ATOM     91  C   UNL A   1      36.820  22.114  25.906  1.00  0.00     0.029 C 
ENDBRANCH  85  86
ENDBRANCH  76  85
ENDBRANCH  71  74
ENDBRANCH  69  70
ENDBRANCH  68  69
ENDBRANCH   1  68
TORSDOF 15
ENDMDL
MODEL 3
REMARK VINA RESULT:     -11.3      3.726      9.075
REMARK SMILES O=C(NCCCNC(=O)[C@H]1CC[C@H]2CCCC[C@@H]2[N@H+]1C[C@@H]1CCCCO1)c1ccc(-c2c3nc(c(-c4ccc(S(=O)(=O)[O-])cc4)c4ccc([nH]4)c(-c4ccc(S(=O)(=O)[O-])cc4)c4nc(c(-c5ccc(S(=O)(=O)[O-])cc5)c5ccc2[nH]5)C=C4)C=C3)cc1
REMARK SMILES IDX 4 1 3 2 1 3 2 4 27 6 28 7 86 8 29 9 85 10 30 11 31 12 32 13
REMARK SMILES IDX 79 14 33 15 84 16 78 17 80 18 34 19 83 20 77 21 76 22 35 24
REMARK SMILES IDX 65 25 46 26 64 27 47 28 50 29 63 30 81 31 48 32 49 33 62 35
REMARK SMILES IDX 82 36 51 37 36 38 37 39 45 40 38 41 44 42 39 43 40 44 41 45
REMARK SMILES IDX 42 46 43 47 66 48 67 49 75 50 68 51 74 52 69 53 70 54 71 55
REMARK SMILES IDX 72 56 73 57 52 58 53 59 61 60 54 61 60 62 55 63 56 64 57 65
REMARK SMILES IDX 58 66 59 67 5 68 6 69 7 70 8 71 9 73 10 74 11 75 19 76 12 77
REMARK SMILES IDX 18 78 13 80 17 81 14 82 16 83 15 84 20 85 21 86 22 87 26 88
REMARK SMILES IDX 23 89 25 90 24 91
REMARK H PARENT 3 5 80 23 50 34 7 72 19 79
REMARK Flexibility Score: inf
ROOT
ATOM      1  C   UNL A   1      39.207  20.320  25.771  1.00  0.00     0.118 C 
ENDROOT
BRANCH   1   2
ATOM      2  N   UNL A   1      40.196  19.266  25.965  1.00  0.00    -0.352 N 
ATOM      3  O   UNL A   1      42.277  18.397  26.029  1.00  0.00    -0.269 OA
ATOM      4  C   UNL A   1      41.553  19.383  26.132  1.00  0.00     0.251 C 
ATOM      5  H   UNL A   1      39.842  18.348  25.978  1.00  0.00     0.163 HD
BRANCH   4   6
ATOM      6  C   UNL A   1      42.122  20.711  26.428  1.00  0.00     0.039 A 
ATOM      7  C   UNL A   1      42.509  21.544  25.374  1.00  0.00     0.014 A 
ATOM      8  C   UNL A   1      42.273  21.125  27.752  1.00  0.00     0.014 A 
ATOM      9  C   UNL A   1      43.182  22.724  25.642  1.00  0.00     0.010 A 
ATOM     10  C   UNL A   1      42.840  22.371  28.019  1.00  0.00     0.010 A 
ATOM     11  C   UNL A   1      43.304  23.173  26.964  1.00  0.00    -0.014 A 
BRANCH  11  12
ATOM     12  C   UNL A   1      43.768  24.559  27.195  1.00  0.00     0.031 A 
ATOM     13  C   UNL A   1      42.814  25.656  27.557  1.00  0.00     0.074 A 
ATOM     14  C   UNL A   1      45.088  24.799  27.058  1.00  0.00     0.049 A 
ATOM     15  N   UNL A   1      43.070  26.924  27.752  1.00  0.00    -0.248 NA
ATOM     16  C   UNL A   1      41.394  25.298  27.715  1.00  0.00     0.031 C 
ATOM     17  C   UNL A   1      46.094  23.792  26.694  1.00  0.00     0.029 A 
ATOM     18  N   UNL A   1      45.816  25.947  27.214  1.00  0.00    -0.354 N 
ATOM     19  C   UNL A   1      41.846  27.522  28.021  1.00  0.00     0.074 A 
ATOM     20  C   UNL A   1      40.843  26.480  27.967  1.00  0.00     0.031 C 
ATOM     21  C   UNL A   1      47.307  24.359  26.688  1.00  0.00     0.029 A 
ATOM     22  C   UNL A   1      47.157  25.780  26.961  1.00  0.00     0.049 A 
ATOM     23  H   UNL A   1      45.418  26.807  27.480  1.00  0.00     0.167 HD
ATOM     24  C   UNL A   1      41.595  28.826  28.283  1.00  0.00     0.031 A 
ATOM     25  C   UNL A   1      48.156  26.679  26.904  1.00  0.00     0.031 A 
ATOM     26  C   UNL A   1      42.614  29.842  28.346  1.00  0.00     0.049 A 
ATOM     27  C   UNL A   1      47.833  28.119  27.162  1.00  0.00     0.074 A 
ATOM     28  C   UNL A   1      42.471  31.178  28.676  1.00  0.00     0.029 A 
ATOM     29  N   UNL A   1      43.955  29.641  28.058  1.00  0.00    -0.354 N 
ATOM     30  N   UNL A   1      46.680  28.654  27.487  1.00  0.00    -0.248 NA
ATOM     31  C   UNL A   1      48.936  29.078  27.034  1.00  0.00     0.031 C 
ATOM     32  C   UNL A   1      43.715  31.799  28.525  1.00  0.00     0.029 A 
ATOM     33  C   UNL A   1      44.643  30.839  28.154  1.00  0.00     0.049 A 
ATOM     34  H   UNL A   1      44.359  28.776  27.820  1.00  0.00     0.167 HD
ATOM     35  C   UNL A   1      46.920  30.016  27.603  1.00  0.00     0.074 A 
ATOM     36  C   UNL A   1      48.333  30.217  27.346  1.00  0.00     0.031 C 
ATOM     37  C   UNL A   1      46.048  31.013  27.885  1.00  0.00     0.031 A 
BRANCH  24  38
ATOM     38  C   UNL A   1      40.167  29.254  28.488  1.00  0.00    -0.014 A 
ATOM     39  C   UNL A   1      39.706  29.696  29.739  1.00  0.00     0.010 A 
ATOM     40  C   UNL A   1      39.302  29.318  27.378  1.00  0.00     0.010 A 
ATOM     41  C   UNL A   1      38.403  30.185  29.879  1.00  0.00     0.020 A 
ATOM     42  C   UNL A   1      38.006  29.823  27.509  1.00  0.00     0.020 A 
ATOM     43  C   UNL A   1      37.562  30.250  28.762  1.00  0.00     0.054 A 
BRANCH  43  44
ATOM     44  S   UNL A   1      35.901  30.953  28.960  1.00  0.00     0.124 S 
ATOM     45  O   UNL A   1      35.804  31.089  30.411  1.00  0.00    -0.237 OA
ATOM     46  O   UNL A   1      35.993  32.206  28.217  1.00  0.00    -0.237 OA
ATOM     47  O   UNL A   1      35.024  29.945  28.370  1.00  0.00    -0.744 OA
ENDBRANCH  43  44
ENDBRANCH  24  38
BRANCH  25  48
ATOM     48  C   UNL A   1      49.523  26.245  26.514  1.00  0.00    -0.014 A 
ATOM     49  C   UNL A   1      50.403  25.694  27.458  1.00  0.00     0.010 A 
ATOM     50  C   UNL A   1      49.945  26.374  25.176  1.00  0.00     0.010 A 
ATOM     51  C   UNL A   1      51.690  25.305  27.079  1.00  0.00     0.020 A 
ATOM     52  C   UNL A   1      51.217  25.957  24.786  1.00  0.00     0.020 A 
ATOM     53  C   UNL A   1      52.090  25.443  25.745  1.00  0.00     0.054 A 
BRANCH  53  54
ATOM     54  S   UNL A   1      53.758  24.913  25.268  1.00  0.00     0.124 S 
ATOM     55  O   UNL A   1      54.532  25.249  26.459  1.00  0.00    -0.237 OA
ATOM     56  O   UNL A   1      53.578  23.488  25.010  1.00  0.00    -0.237 OA
ATOM     57  O   UNL A   1      54.047  25.721  24.085  1.00  0.00    -0.744 OA
ENDBRANCH  53  54
ENDBRANCH  25  48
BRANCH  37  58
ATOM     58  C   UNL A   1      46.600  32.409  27.930  1.00  0.00    -0.014 A 
ATOM     59  C   UNL A   1      47.142  32.927  29.119  1.00  0.00     0.010 A 
ATOM     60  C   UNL A   1      46.629  33.187  26.759  1.00  0.00     0.010 A 
ATOM     61  C   UNL A   1      47.690  34.211  29.140  1.00  0.00     0.020 A 
ATOM     62  C   UNL A   1      47.201  34.460  26.771  1.00  0.00     0.020 A 
ATOM     63  C   UNL A   1      47.720  34.968  27.964  1.00  0.00     0.054 A 
BRANCH  63  64
ATOM     64  S   UNL A   1      48.497  36.605  28.004  1.00  0.00     0.124 S 
ATOM     65  O   UNL A   1      49.790  36.311  28.616  1.00  0.00    -0.237 OA
ATOM     66  O   UNL A   1      48.539  36.974  26.591  1.00  0.00    -0.237 OA
ATOM     67  O   UNL A   1      47.586  37.401  28.824  1.00  0.00    -0.744 OA
ENDBRANCH  63  64
ENDBRANCH  37  58
ENDBRANCH  11  12
ENDBRANCH   4   6
ENDBRANCH   1   2
BRANCH   1  68
ATOM     68  C   UNL A   1      37.966  19.805  25.073  1.00  0.00     0.042 C 
BRANCH  68  69
ATOM     69  C   UNL A   1      36.865  20.842  25.027  1.00  0.00     0.118 C 
BRANCH  69  70
ATOM     70  N   UNL A   1      37.079  21.822  23.976  1.00  0.00    -0.351 N 
ATOM     71  C   UNL A   1      36.299  22.883  23.596  1.00  0.00     0.278 C 
ATOM     72  H   UNL A   1      37.909  21.706  23.460  1.00  0.00     0.163 HD
ATOM     73  O   UNL A   1      36.672  23.506  22.603  1.00  0.00    -0.268 OA
BRANCH  71  74
ATOM     74  C   UNL A   1      35.060  23.217  24.456  1.00  0.00     0.274 C 
ATOM     75  C   UNL A   1      35.299  24.464  25.319  1.00  0.00     0.076 C 
ATOM     76  N   UNL A   1      33.766  23.266  23.752  1.00  0.00    -0.320 N 
ATOM     77  C   UNL A   1      34.030  25.008  25.971  1.00  0.00     0.016 C 
ATOM     78  C   UNL A   1      32.616  23.379  24.658  1.00  0.00     0.187 C 
ATOM     79  H   UNL A   1      33.795  22.328  23.352  1.00  0.00     0.349 HD
ATOM     80  C   UNL A   1      32.989  23.909  26.062  1.00  0.00     0.048 C 
ATOM     81  C   UNL A   1      31.917  22.022  24.891  1.00  0.00     0.065 C 
ATOM     82  C   UNL A   1      31.701  24.315  26.771  1.00  0.00     0.010 C 
ATOM     83  C   UNL A   1      30.654  22.204  25.753  1.00  0.00     0.006 C 
ATOM     84  C   UNL A   1      30.855  23.063  27.010  1.00  0.00     0.001 C 
BRANCH  76  85
ATOM     85  C   UNL A   1      33.604  23.956  22.459  1.00  0.00     0.295 C 
BRANCH  85  86
ATOM     86  C   UNL A   1      33.026  25.390  22.148  1.00  0.00     0.173 C 
ATOM     87  C   UNL A   1      33.655  26.653  22.740  1.00  0.00     0.038 C 
ATOM     88  O   UNL A   1      31.605  25.457  22.000  1.00  0.00    -0.372 OA
ATOM     89  C   UNL A   1      32.833  27.435  23.760  1.00  0.00     0.005 C 
ATOM     90  C   UNL A   1      30.866  25.928  23.106  1.00  0.00     0.161 C 
ATOM     91  C   UNL A   1      31.328  27.280  23.629  1.00  0.00     0.029 C 
ENDBRANCH  85  86
ENDBRANCH  76  85
ENDBRANCH  71  74
ENDBRANCH  69  70
ENDBRANCH  68  69
ENDBRANCH   1  68
TORSDOF 15
ENDMDL
