MODEL 1
REMARK VINA RESULT:      -8.0      0.000      0.000
REMARK SMILES CCCC[C@@H](Sc1nc(OCCC2CCCCC2)cc(OCCC2CCCCC2)n1)C(=O)NCCCNC(=O)c1ccc(-c2c3nc(c(-c4ccc(S(=O)(=O)[O-])cc4)c4ccc([nH]4)c(-c4ccc(S(=O)(=O)[O-])cc4)c4nc(c(-c5ccc(S(=O)(=O)[O-])cc5)c5ccc2[nH]5)C=C4)C=C3)cc1
REMARK SMILES IDX 31 1 32 2 33 3 5 5 4 6 3 7 2 8 1 9 6 10 7 11 8 12 30 13 9 14
REMARK SMILES IDX 20 15 19 16 10 17 11 18 12 19 13 20 14 21 18 22 15 23 17 24
REMARK SMILES IDX 16 25 21 26 22 27 23 28 24 29 25 30 29 31 26 32 28 33 27 34
REMARK SMILES IDX 34 35 35 36 36 37 37 38 38 39 39 41 40 42 41 43 99 44 42 45
REMARK SMILES IDX 98 46 43 47 44 48 45 49 92 50 46 51 97 52 91 53 93 54 47 55
REMARK SMILES IDX 96 56 90 57 89 58 48 60 78 61 59 62 77 63 60 64 63 65 76 66
REMARK SMILES IDX 94 67 61 68 62 69 75 71 95 72 64 73 49 74 50 75 58 76 51 77
REMARK SMILES IDX 57 78 52 79 53 80 54 81 55 82 56 83 79 84 80 85 88 86 81 87
REMARK SMILES IDX 87 88 82 89 83 90 84 91 85 92 86 93 65 94 66 95 74 96 67 97
REMARK SMILES IDX 73 98 68 99 69 100 70 101 71 102 72 103
REMARK H PARENT 33 4 37 40 93 59 63 70
REMARK Flexibility Score: inf
ROOT
ATOM      1  C   UNL A   1      45.364  41.293  26.064  1.00  0.00     0.233 C 
ATOM      2  O   UNL A   1      46.477  40.813  25.841  1.00  0.00    -0.274 OA
ATOM      3  N   UNL A   1      44.284  40.447  26.149  1.00  0.00    -0.355 N 
ATOM      4  H   UNL A   1      44.475  39.497  25.975  1.00  0.00     0.163 HD
ENDROOT
BRANCH   1   5
ATOM      5  C   UNL A   1      45.150  42.812  26.202  1.00  0.00     0.144 C 
BRANCH   5   6
ATOM      6  C   UNL A   1      45.271  43.099  27.734  1.00  0.00     0.025 C 
BRANCH   6   7
ATOM      7  C   UNL A   1      46.489  42.707  28.581  1.00  0.00     0.001 C 
BRANCH   7   8
ATOM      8  C   UNL A   1      46.256  41.949  29.886  1.00  0.00    -0.003 C 
ATOM      9  C   UNL A   1      47.541  41.536  30.578  1.00  0.00     0.004 C 
ENDBRANCH   7   8
ENDBRANCH   6   7
ENDBRANCH   5   6
BRANCH   5  10
ATOM     10  S   UNL A   1      46.316  43.490  24.851  1.00  0.00    -0.073 SA
BRANCH  10  11
ATOM     11  C   UNL A   1      45.697  42.753  23.398  1.00  0.00     0.195 A 
ATOM     12  N   UNL A   1      46.598  42.588  22.437  1.00  0.00    -0.187 NA
ATOM     13  N   UNL A   1      44.372  42.553  23.277  1.00  0.00    -0.187 NA
ATOM     14  C   UNL A   1      46.150  42.460  21.205  1.00  0.00     0.221 A 
ATOM     15  C   UNL A   1      43.959  42.369  22.027  1.00  0.00     0.221 A 
ATOM     16  C   UNL A   1      44.816  42.499  20.972  1.00  0.00     0.136 A 
BRANCH  14  17
ATOM     17  O   UNL A   1      47.133  42.219  20.298  1.00  0.00    -0.477 OA
BRANCH  17  18
ATOM     18  C   UNL A   1      48.093  43.206  19.968  1.00  0.00     0.231 C 
BRANCH  18  19
ATOM     19  C   UNL A   1      47.562  44.328  19.055  1.00  0.00     0.045 C 
BRANCH  19  20
ATOM     20  C   UNL A   1      46.743  45.451  19.715  1.00  0.00    -0.008 C 
ATOM     21  C   UNL A   1      47.595  46.647  20.127  1.00  0.00     0.004 C 
ATOM     22  C   UNL A   1      45.643  45.983  18.781  1.00  0.00     0.004 C 
ATOM     23  C   UNL A   1      46.779  47.638  20.940  1.00  0.00     0.000 C 
ATOM     24  C   UNL A   1      44.807  47.074  19.465  1.00  0.00     0.000 C 
ATOM     25  C   UNL A   1      45.647  48.189  20.091  1.00  0.00     0.000 C 
ENDBRANCH  19  20
ENDBRANCH  18  19
ENDBRANCH  17  18
ENDBRANCH  14  17
BRANCH  15  26
ATOM     26  O   UNL A   1      42.617  42.118  21.787  1.00  0.00    -0.477 OA
BRANCH  26  27
ATOM     27  C   UNL A   1      42.210  42.455  20.440  1.00  0.00     0.231 C 
BRANCH  27  28
ATOM     28  C   UNL A   1      41.805  43.943  20.192  1.00  0.00     0.045 C 
BRANCH  28  29
ATOM     29  C   UNL A   1      42.184  44.575  18.843  1.00  0.00    -0.008 C 
ATOM     30  C   UNL A   1      42.501  43.590  17.707  1.00  0.00     0.004 C 
ATOM     31  C   UNL A   1      41.102  45.471  18.220  1.00  0.00     0.004 C 
ATOM     32  C   UNL A   1      43.397  44.361  16.731  1.00  0.00     0.000 C 
ATOM     33  C   UNL A   1      41.668  46.229  16.998  1.00  0.00     0.000 C 
ATOM     34  C   UNL A   1      42.546  45.411  16.035  1.00  0.00     0.000 C 
ENDBRANCH  28  29
ENDBRANCH  27  28
ENDBRANCH  26  27
ENDBRANCH  15  26
ENDBRANCH  10  11
ENDBRANCH   5  10
ENDBRANCH   1   5
BRANCH   3  35
ATOM     35  C   UNL A   1      42.893  40.762  26.461  1.00  0.00     0.117 C 
BRANCH  35  36
ATOM     36  C   UNL A   1      42.012  39.530  26.497  1.00  0.00     0.042 C 
BRANCH  36  37
ATOM     37  C   UNL A   1      42.622  38.422  27.323  1.00  0.00     0.118 C 
BRANCH  37  38
ATOM     38  N   UNL A   1      41.629  37.426  27.711  1.00  0.00    -0.352 N 
ATOM     39  C   UNL A   1      41.696  36.062  27.632  1.00  0.00     0.251 C 
ATOM     40  H   UNL A   1      40.791  37.787  28.082  1.00  0.00     0.163 HD
ATOM     41  O   UNL A   1      40.669  35.387  27.770  1.00  0.00    -0.269 OA
BRANCH  39  42
ATOM     42  C   UNL A   1      42.989  35.412  27.370  1.00  0.00     0.039 A 
ATOM     43  C   UNL A   1      43.845  35.132  28.436  1.00  0.00     0.014 A 
ATOM     44  C   UNL A   1      43.345  35.061  26.064  1.00  0.00     0.014 A 
ATOM     45  C   UNL A   1      45.035  34.447  28.194  1.00  0.00     0.010 A 
ATOM     46  C   UNL A   1      44.469  34.281  25.843  1.00  0.00     0.010 A 
ATOM     47  C   UNL A   1      45.337  33.986  26.902  1.00  0.00    -0.014 A 
BRANCH  47  48
ATOM     48  C   UNL A   1      46.571  33.215  26.624  1.00  0.00     0.031 A 
ATOM     49  C   UNL A   1      46.535  31.711  26.661  1.00  0.00     0.074 A 
ATOM     50  C   UNL A   1      47.729  33.868  26.408  1.00  0.00     0.049 A 
ATOM     51  N   UNL A   1      47.516  30.860  26.509  1.00  0.00    -0.248 NA
ATOM     52  C   UNL A   1      45.232  31.080  26.935  1.00  0.00     0.031 C 
ATOM     53  C   UNL A   1      47.894  35.325  26.398  1.00  0.00     0.029 A 
ATOM     54  N   UNL A   1      48.990  33.390  26.159  1.00  0.00    -0.354 N 
ATOM     55  C   UNL A   1      46.954  29.602  26.687  1.00  0.00     0.074 A 
ATOM     56  C   UNL A   1      45.561  29.800  27.018  1.00  0.00     0.031 C 
ATOM     57  C   UNL A   1      49.174  35.619  26.121  1.00  0.00     0.029 A 
ATOM     58  C   UNL A   1      49.929  34.378  25.979  1.00  0.00     0.049 A 
ATOM     59  H   UNL A   1      49.203  32.430  26.112  1.00  0.00     0.167 HD
ATOM     60  C   UNL A   1      47.540  28.388  26.563  1.00  0.00     0.031 A 
ATOM     61  C   UNL A   1      51.250  34.293  25.736  1.00  0.00     0.031 A 
ATOM     62  C   UNL A   1      48.922  28.199  26.218  1.00  0.00     0.049 A 
ATOM     63  C   UNL A   1      51.880  32.934  25.606  1.00  0.00     0.074 A 
ATOM     64  C   UNL A   1      49.601  27.014  26.007  1.00  0.00     0.029 A 
ATOM     65  N   UNL A   1      49.837  29.225  26.031  1.00  0.00    -0.354 N 
ATOM     66  N   UNL A   1      51.317  31.753  25.709  1.00  0.00    -0.248 NA
ATOM     67  C   UNL A   1      53.318  32.894  25.312  1.00  0.00     0.031 C 
ATOM     68  C   UNL A   1      50.941  27.321  25.749  1.00  0.00     0.029 A 
ATOM     69  C   UNL A   1      51.082  28.699  25.733  1.00  0.00     0.049 A 
ATOM     70  H   UNL A   1      49.631  30.186  26.100  1.00  0.00     0.167 HD
ATOM     71  C   UNL A   1      52.328  30.830  25.467  1.00  0.00     0.074 A 
ATOM     72  C   UNL A   1      53.531  31.590  25.196  1.00  0.00     0.031 C 
ATOM     73  C   UNL A   1      52.268  29.475  25.468  1.00  0.00     0.031 A 
BRANCH  60  74
ATOM     74  C   UNL A   1      46.683  27.173  26.806  1.00  0.00    -0.014 A 
ATOM     75  C   UNL A   1      46.542  26.627  28.096  1.00  0.00     0.010 A 
ATOM     76  C   UNL A   1      45.980  26.588  25.737  1.00  0.00     0.010 A 
ATOM     77  C   UNL A   1      45.749  25.495  28.303  1.00  0.00     0.020 A 
ATOM     78  C   UNL A   1      45.161  25.475  25.946  1.00  0.00     0.020 A 
ATOM     79  C   UNL A   1      45.064  24.925  27.226  1.00  0.00     0.054 A 
BRANCH  79  80
ATOM     80  S   UNL A   1      44.022  23.473  27.530  1.00  0.00     0.124 S 
ATOM     81  O   UNL A   1      42.685  24.003  27.278  1.00  0.00    -0.237 OA
ATOM     82  O   UNL A   1      44.514  22.515  26.542  1.00  0.00    -0.237 OA
ATOM     83  O   UNL A   1      44.304  23.128  28.921  1.00  0.00    -0.744 OA
ENDBRANCH  79  80
ENDBRANCH  60  74
BRANCH  61  84
ATOM     84  C   UNL A   1      52.058  35.534  25.579  1.00  0.00    -0.014 A 
ATOM     85  C   UNL A   1      52.260  36.100  24.309  1.00  0.00     0.010 A 
ATOM     86  C   UNL A   1      52.618  36.165  26.706  1.00  0.00     0.010 A 
ATOM     87  C   UNL A   1      53.021  37.264  24.164  1.00  0.00     0.020 A 
ATOM     88  C   UNL A   1      53.355  37.345  26.568  1.00  0.00     0.020 A 
ATOM     89  C   UNL A   1      53.563  37.880  25.296  1.00  0.00     0.054 A 
BRANCH  89  90
ATOM     90  S   UNL A   1      54.508  39.415  25.088  1.00  0.00     0.124 S 
ATOM     91  O   UNL A   1      54.243  40.107  26.345  1.00  0.00    -0.237 OA
ATOM     92  O   UNL A   1      55.873  38.923  24.910  1.00  0.00    -0.237 OA
ATOM     93  O   UNL A   1      53.914  40.024  23.899  1.00  0.00    -0.744 OA
ENDBRANCH  89  90
ENDBRANCH  61  84
BRANCH  73  94
ATOM     94  C   UNL A   1      53.528  28.726  25.130  1.00  0.00    -0.014 A 
ATOM     95  C   UNL A   1      54.411  28.292  26.134  1.00  0.00     0.010 A 
ATOM     96  C   UNL A   1      53.802  28.402  23.788  1.00  0.00     0.010 A 
ATOM     97  C   UNL A   1      55.563  27.575  25.798  1.00  0.00     0.020 A 
ATOM     98  C   UNL A   1      54.935  27.658  23.452  1.00  0.00     0.020 A 
ATOM     99  C   UNL A   1      55.816  27.262  24.459  1.00  0.00     0.054 A 
BRANCH  99 100
ATOM    100  S   UNL A   1      57.293  26.291  24.055  1.00  0.00     0.124 S 
ATOM    101  O   UNL A   1      57.289  26.325  22.595  1.00  0.00    -0.237 OA
ATOM    102  O   UNL A   1      58.363  27.051  24.698  1.00  0.00    -0.237 OA
ATOM    103  O   UNL A   1      57.023  24.984  24.649  1.00  0.00    -0.744 OA
ENDBRANCH  99 100
ENDBRANCH  73  94
ENDBRANCH  47  48
ENDBRANCH  39  42
ENDBRANCH  37  38
ENDBRANCH  36  37
ENDBRANCH  35  36
ENDBRANCH   3  35
TORSDOF 26
ENDMDL
MODEL 2
REMARK VINA RESULT:      -7.7      3.830      9.882
REMARK SMILES CCCC[C@@H](Sc1nc(OCCC2CCCCC2)cc(OCCC2CCCCC2)n1)C(=O)NCCCNC(=O)c1ccc(-c2c3nc(c(-c4ccc(S(=O)(=O)[O-])cc4)c4ccc([nH]4)c(-c4ccc(S(=O)(=O)[O-])cc4)c4nc(c(-c5ccc(S(=O)(=O)[O-])cc5)c5ccc2[nH]5)C=C4)C=C3)cc1
REMARK SMILES IDX 31 1 32 2 33 3 5 5 4 6 3 7 2 8 1 9 6 10 7 11 8 12 30 13 9 14
REMARK SMILES IDX 20 15 19 16 10 17 11 18 12 19 13 20 14 21 18 22 15 23 17 24
REMARK SMILES IDX 16 25 21 26 22 27 23 28 24 29 25 30 29 31 26 32 28 33 27 34
REMARK SMILES IDX 34 35 35 36 36 37 37 38 38 39 39 41 40 42 41 43 99 44 42 45
REMARK SMILES IDX 98 46 43 47 44 48 45 49 92 50 46 51 97 52 91 53 93 54 47 55
REMARK SMILES IDX 96 56 90 57 89 58 48 60 78 61 59 62 77 63 60 64 63 65 76 66
REMARK SMILES IDX 94 67 61 68 62 69 75 71 95 72 64 73 49 74 50 75 58 76 51 77
REMARK SMILES IDX 57 78 52 79 53 80 54 81 55 82 56 83 79 84 80 85 88 86 81 87
REMARK SMILES IDX 87 88 82 89 83 90 84 91 85 92 86 93 65 94 66 95 74 96 67 97
REMARK SMILES IDX 73 98 68 99 69 100 70 101 71 102 72 103
REMARK H PARENT 33 4 37 40 93 59 63 70
REMARK Flexibility Score: inf
ROOT
ATOM      1  C   UNL A   1      46.785  42.262  30.755  1.00  0.00     0.233 C 
ATOM      2  O   UNL A   1      47.374  43.002  31.544  1.00  0.00    -0.274 OA
ATOM      3  N   UNL A   1      47.052  40.913  30.789  1.00  0.00    -0.355 N 
ATOM      4  H   UNL A   1      47.747  40.635  31.428  1.00  0.00     0.163 HD
ENDROOT
BRANCH   1   5
ATOM      5  C   UNL A   1      45.800  42.813  29.707  1.00  0.00     0.144 C 
BRANCH   5   6
ATOM      6  C   UNL A   1      44.514  43.180  30.516  1.00  0.00     0.025 C 
BRANCH   6   7
ATOM      7  C   UNL A   1      43.736  42.178  31.380  1.00  0.00     0.001 C 
BRANCH   7   8
ATOM      8  C   UNL A   1      43.554  42.483  32.865  1.00  0.00    -0.003 C 
ATOM      9  C   UNL A   1      43.561  41.243  33.737  1.00  0.00     0.004 C 
ENDBRANCH   7   8
ENDBRANCH   6   7
ENDBRANCH   5   6
BRANCH   5  10
ATOM     10  S   UNL A   1      46.902  44.048  28.754  1.00  0.00    -0.073 SA
BRANCH  10  11
ATOM     11  C   UNL A   1      46.683  43.563  27.095  1.00  0.00     0.195 A 
ATOM     12  N   UNL A   1      46.650  42.249  26.904  1.00  0.00    -0.187 NA
ATOM     13  N   UNL A   1      46.722  44.497  26.127  1.00  0.00    -0.187 NA
ATOM     14  C   UNL A   1      46.925  41.807  25.694  1.00  0.00     0.221 A 
ATOM     15  C   UNL A   1      46.943  44.013  24.909  1.00  0.00     0.221 A 
ATOM     16  C   UNL A   1      47.223  42.691  24.712  1.00  0.00     0.136 A 
BRANCH  14  17
ATOM     17  O   UNL A   1      46.792  40.460  25.571  1.00  0.00    -0.477 OA
BRANCH  17  18
ATOM     18  C   UNL A   1      46.823  39.608  26.702  1.00  0.00     0.231 C 
BRANCH  18  19
ATOM     19  C   UNL A   1      47.070  38.123  26.371  1.00  0.00     0.045 C 
BRANCH  19  20
ATOM     20  C   UNL A   1      48.520  37.612  26.442  1.00  0.00    -0.008 C 
ATOM     21  C   UNL A   1      49.064  37.175  25.086  1.00  0.00     0.004 C 
ATOM     22  C   UNL A   1      49.479  38.682  26.987  1.00  0.00     0.004 C 
ATOM     23  C   UNL A   1      50.419  36.505  25.237  1.00  0.00     0.000 C 
ATOM     24  C   UNL A   1      50.914  38.148  27.092  1.00  0.00     0.000 C 
ATOM     25  C   UNL A   1      51.421  37.496  25.804  1.00  0.00     0.000 C 
ENDBRANCH  19  20
ENDBRANCH  18  19
ENDBRANCH  17  18
ENDBRANCH  14  17
BRANCH  15  26
ATOM     26  O   UNL A   1      46.969  44.883  23.829  1.00  0.00    -0.477 OA
BRANCH  26  27
ATOM     27  C   UNL A   1      46.601  44.248  22.582  1.00  0.00     0.231 C 
BRANCH  27  28
ATOM     28  C   UNL A   1      45.303  44.777  21.894  1.00  0.00     0.045 C 
BRANCH  28  29
ATOM     29  C   UNL A   1      43.971  44.098  22.253  1.00  0.00    -0.008 C 
ATOM     30  C   UNL A   1      43.151  43.563  21.069  1.00  0.00     0.004 C 
ATOM     31  C   UNL A   1      44.097  42.864  23.161  1.00  0.00     0.004 C 
ATOM     32  C   UNL A   1      41.700  43.512  21.562  1.00  0.00     0.000 C 
ATOM     33  C   UNL A   1      42.702  42.405  23.643  1.00  0.00     0.000 C 
ATOM     34  C   UNL A   1      41.586  42.390  22.583  1.00  0.00     0.000 C 
ENDBRANCH  28  29
ENDBRANCH  27  28
ENDBRANCH  26  27
ENDBRANCH  15  26
ENDBRANCH  10  11
ENDBRANCH   5  10
ENDBRANCH   1   5
BRANCH   3  35
ATOM     35  C   UNL A   1      46.447  39.838  30.010  1.00  0.00     0.117 C 
BRANCH  35  36
ATOM     36  C   UNL A   1      45.901  38.725  30.880  1.00  0.00     0.042 C 
BRANCH  36  37
ATOM     37  C   UNL A   1      46.506  37.385  30.531  1.00  0.00     0.118 C 
BRANCH  37  38
ATOM     38  N   UNL A   1      47.945  37.483  30.307  1.00  0.00    -0.352 N 
ATOM     39  C   UNL A   1      48.855  36.485  30.093  1.00  0.00     0.251 C 
ATOM     40  H   UNL A   1      48.312  38.396  30.310  1.00  0.00     0.163 HD
ATOM     41  O   UNL A   1      50.065  36.728  30.173  1.00  0.00    -0.269 OA
BRANCH  39  42
ATOM     42  C   UNL A   1      48.386  35.125  29.782  1.00  0.00     0.039 A 
ATOM     43  C   UNL A   1      48.443  34.138  30.766  1.00  0.00     0.014 A 
ATOM     44  C   UNL A   1      47.869  34.835  28.516  1.00  0.00     0.014 A 
ATOM     45  C   UNL A   1      47.927  32.871  30.493  1.00  0.00     0.010 A 
ATOM     46  C   UNL A   1      47.255  33.615  28.287  1.00  0.00     0.010 A 
ATOM     47  C   UNL A   1      47.298  32.613  29.264  1.00  0.00    -0.014 A 
BRANCH  47  48
ATOM     48  C   UNL A   1      46.699  31.292  28.964  1.00  0.00     0.031 A 
ATOM     49  C   UNL A   1      47.520  30.242  28.266  1.00  0.00     0.074 A 
ATOM     50  C   UNL A   1      45.403  31.067  29.257  1.00  0.00     0.049 A 
ATOM     51  N   UNL A   1      47.161  29.052  27.860  1.00  0.00    -0.248 NA
ATOM     52  C   UNL A   1      48.919  30.584  27.956  1.00  0.00     0.031 C 
ATOM     53  C   UNL A   1      44.495  32.029  29.889  1.00  0.00     0.029 A 
ATOM     54  N   UNL A   1      44.623  29.957  29.058  1.00  0.00    -0.354 N 
ATOM     55  C   UNL A   1      48.279  28.515  27.233  1.00  0.00     0.074 A 
ATOM     56  C   UNL A   1      49.309  29.529  27.257  1.00  0.00     0.031 C 
ATOM     57  C   UNL A   1      43.293  31.454  30.055  1.00  0.00     0.029 A 
ATOM     58  C   UNL A   1      43.331  30.104  29.503  1.00  0.00     0.049 A 
ATOM     59  H   UNL A   1      44.956  29.132  28.635  1.00  0.00     0.167 HD
ATOM     60  C   UNL A   1      48.442  27.279  26.705  1.00  0.00     0.031 A 
ATOM     61  C   UNL A   1      42.291  29.249  29.464  1.00  0.00     0.031 A 
ATOM     62  C   UNL A   1      47.418  26.271  26.700  1.00  0.00     0.049 A 
ATOM     63  C   UNL A   1      42.495  27.883  28.870  1.00  0.00     0.074 A 
ATOM     64  C   UNL A   1      47.497  24.968  26.245  1.00  0.00     0.029 A 
ATOM     65  N   UNL A   1      46.127  26.454  27.173  1.00  0.00    -0.354 N 
ATOM     66  N   UNL A   1      43.581  27.368  28.343  1.00  0.00    -0.248 NA
ATOM     67  C   UNL A   1      41.339  26.978  28.876  1.00  0.00     0.031 C 
ATOM     68  C   UNL A   1      46.236  24.380  26.392  1.00  0.00     0.029 A 
ATOM     69  C   UNL A   1      45.391  25.296  26.998  1.00  0.00     0.049 A 
ATOM     70  H   UNL A   1      45.784  27.286  27.574  1.00  0.00     0.167 HD
ATOM     71  C   UNL A   1      43.246  26.069  27.979  1.00  0.00     0.074 A 
ATOM     72  C   UNL A   1      41.862  25.873  28.362  1.00  0.00     0.031 C 
ATOM     73  C   UNL A   1      44.012  25.122  27.384  1.00  0.00     0.031 A 
BRANCH  60  74
ATOM     74  C   UNL A   1      49.778  26.956  26.089  1.00  0.00    -0.014 A 
ATOM     75  C   UNL A   1      50.761  26.251  26.808  1.00  0.00     0.010 A 
ATOM     76  C   UNL A   1      50.043  27.331  24.759  1.00  0.00     0.010 A 
ATOM     77  C   UNL A   1      51.998  25.965  26.225  1.00  0.00     0.020 A 
ATOM     78  C   UNL A   1      51.268  27.019  24.161  1.00  0.00     0.020 A 
ATOM     79  C   UNL A   1      52.244  26.352  24.905  1.00  0.00     0.054 A 
BRANCH  79  80
ATOM     80  S   UNL A   1      53.849  25.945  24.165  1.00  0.00     0.124 S 
ATOM     81  O   UNL A   1      54.074  24.589  24.660  1.00  0.00    -0.237 OA
ATOM     82  O   UNL A   1      53.577  26.052  22.733  1.00  0.00    -0.237 OA
ATOM     83  O   UNL A   1      54.748  26.962  24.703  1.00  0.00    -0.744 OA
ENDBRANCH  79  80
ENDBRANCH  60  74
BRANCH  61  84
ATOM     84  C   UNL A   1      40.973  29.656  30.024  1.00  0.00    -0.014 A 
ATOM     85  C   UNL A   1      40.047  30.358  29.233  1.00  0.00     0.010 A 
ATOM     86  C   UNL A   1      40.631  29.328  31.349  1.00  0.00     0.010 A 
ATOM     87  C   UNL A   1      38.811  30.742  29.762  1.00  0.00     0.020 A 
ATOM     88  C   UNL A   1      39.384  29.685  31.872  1.00  0.00     0.020 A 
ATOM     89  C   UNL A   1      38.487  30.401  31.078  1.00  0.00     0.054 A 
BRANCH  89  90
ATOM     90  S   UNL A   1      36.858  30.869  31.727  1.00  0.00     0.124 S 
ATOM     91  O   UNL A   1      37.082  32.248  32.146  1.00  0.00    -0.237 OA
ATOM     92  O   UNL A   1      35.992  30.692  30.563  1.00  0.00    -0.237 OA
ATOM     93  O   UNL A   1      36.635  29.912  32.810  1.00  0.00    -0.744 OA
ENDBRANCH  89  90
ENDBRANCH  61  84
BRANCH  73  94
ATOM     94  C   UNL A   1      43.386  23.776  27.142  1.00  0.00    -0.014 A 
ATOM     95  C   UNL A   1      43.044  22.927  28.209  1.00  0.00     0.010 A 
ATOM     96  C   UNL A   1      43.083  23.381  25.825  1.00  0.00     0.010 A 
ATOM     97  C   UNL A   1      42.438  21.692  27.961  1.00  0.00     0.020 A 
ATOM     98  C   UNL A   1      42.449  22.161  25.576  1.00  0.00     0.020 A 
ATOM     99  C   UNL A   1      42.144  21.318  26.646  1.00  0.00     0.054 A 
BRANCH  99 100
ATOM    100  S   UNL A   1      41.318  19.730  26.355  1.00  0.00     0.124 S 
ATOM    101  O   UNL A   1      41.486  19.061  27.642  1.00  0.00    -0.237 OA
ATOM    102  O   UNL A   1      39.951  20.135  26.031  1.00  0.00    -0.237 OA
ATOM    103  O   UNL A   1      42.068  19.147  25.246  1.00  0.00    -0.744 OA
ENDBRANCH  99 100
ENDBRANCH  73  94
ENDBRANCH  47  48
ENDBRANCH  39  42
ENDBRANCH  37  38
ENDBRANCH  36  37
ENDBRANCH  35  36
ENDBRANCH   3  35
TORSDOF 26
ENDMDL
MODEL 3
REMARK VINA RESULT:      -7.4     10.840     19.974
REMARK SMILES CCCC[C@@H](Sc1nc(OCCC2CCCCC2)cc(OCCC2CCCCC2)n1)C(=O)NCCCNC(=O)c1ccc(-c2c3nc(c(-c4ccc(S(=O)(=O)[O-])cc4)c4ccc([nH]4)c(-c4ccc(S(=O)(=O)[O-])cc4)c4nc(c(-c5ccc(S(=O)(=O)[O-])cc5)c5ccc2[nH]5)C=C4)C=C3)cc1
REMARK SMILES IDX 31 1 32 2 33 3 5 5 4 6 3 7 2 8 1 9 6 10 7 11 8 12 30 13 9 14
REMARK SMILES IDX 20 15 19 16 10 17 11 18 12 19 13 20 14 21 18 22 15 23 17 24
REMARK SMILES IDX 16 25 21 26 22 27 23 28 24 29 25 30 29 31 26 32 28 33 27 34
REMARK SMILES IDX 34 35 35 36 36 37 37 38 38 39 39 41 40 42 41 43 99 44 42 45
REMARK SMILES IDX 98 46 43 47 44 48 45 49 92 50 46 51 97 52 91 53 93 54 47 55
REMARK SMILES IDX 96 56 90 57 89 58 48 60 78 61 59 62 77 63 60 64 63 65 76 66
REMARK SMILES IDX 94 67 61 68 62 69 75 71 95 72 64 73 49 74 50 75 58 76 51 77
REMARK SMILES IDX 57 78 52 79 53 80 54 81 55 82 56 83 79 84 80 85 88 86 81 87
REMARK SMILES IDX 87 88 82 89 83 90 84 91 85 92 86 93 65 94 66 95 74 96 67 97
REMARK SMILES IDX 73 98 68 99 69 100 70 101 71 102 72 103
REMARK H PARENT 33 4 37 40 93 59 63 70
REMARK Flexibility Score: inf
ROOT
ATOM      1  C   UNL A   1      39.665  28.798  27.890  1.00  0.00     0.233 C 
ATOM      2  O   UNL A   1      40.258  28.984  26.826  1.00  0.00    -0.274 OA
ATOM      3  N   UNL A   1      38.468  29.442  28.101  1.00  0.00    -0.355 N 
ATOM      4  H   UNL A   1      38.187  30.058  27.387  1.00  0.00     0.163 HD
ENDROOT
BRANCH   1   5
ATOM      5  C   UNL A   1      40.250  27.903  28.999  1.00  0.00     0.144 C 
BRANCH   5   6
ATOM      6  C   UNL A   1      39.470  26.554  28.883  1.00  0.00     0.025 C 
BRANCH   6   7
ATOM      7  C   UNL A   1      39.184  25.847  27.550  1.00  0.00     0.001 C 
BRANCH   7   8
ATOM      8  C   UNL A   1      39.503  24.358  27.432  1.00  0.00    -0.003 C 
ATOM      9  C   UNL A   1      38.599  23.626  26.459  1.00  0.00     0.004 C 
ENDBRANCH   7   8
ENDBRANCH   6   7
ENDBRANCH   5   6
BRANCH   5  10
ATOM     10  S   UNL A   1      42.127  28.128  28.725  1.00  0.00    -0.073 SA
BRANCH  10  11
ATOM     11  C   UNL A   1      42.606  26.597  28.047  1.00  0.00     0.195 A 
ATOM     12  N   UNL A   1      42.621  25.590  28.912  1.00  0.00    -0.187 NA
ATOM     13  N   UNL A   1      43.070  26.555  26.784  1.00  0.00    -0.187 NA
ATOM     14  C   UNL A   1      43.364  24.545  28.612  1.00  0.00     0.221 A 
ATOM     15  C   UNL A   1      43.767  25.460  26.494  1.00  0.00     0.221 A 
ATOM     16  C   UNL A   1      44.067  24.537  27.454  1.00  0.00     0.136 A 
BRANCH  14  17
ATOM     17  O   UNL A   1      43.259  23.534  29.513  1.00  0.00    -0.477 OA
BRANCH  17  18
ATOM     18  C   UNL A   1      44.237  23.335  30.518  1.00  0.00     0.231 C 
BRANCH  18  19
ATOM     19  C   UNL A   1      44.506  24.572  31.397  1.00  0.00     0.045 C 
BRANCH  19  20
ATOM     20  C   UNL A   1      44.404  24.393  32.923  1.00  0.00    -0.008 C 
ATOM     21  C   UNL A   1      43.559  23.189  33.326  1.00  0.00     0.004 C 
ATOM     22  C   UNL A   1      45.785  24.211  33.572  1.00  0.00     0.004 C 
ATOM     23  C   UNL A   1      43.331  23.167  34.828  1.00  0.00     0.000 C 
ATOM     24  C   UNL A   1      45.674  24.075  35.097  1.00  0.00     0.000 C 
ATOM     25  C   UNL A   1      44.661  23.019  35.546  1.00  0.00     0.000 C 
ENDBRANCH  19  20
ENDBRANCH  18  19
ENDBRANCH  17  18
ENDBRANCH  14  17
BRANCH  15  26
ATOM     26  O   UNL A   1      44.263  25.294  25.210  1.00  0.00    -0.477 OA
BRANCH  26  27
ATOM     27  C   UNL A   1      45.011  24.065  25.047  1.00  0.00     0.231 C 
BRANCH  27  28
ATOM     28  C   UNL A   1      44.361  22.978  24.133  1.00  0.00     0.045 C 
BRANCH  28  29
ATOM     29  C   UNL A   1      44.753  21.511  24.373  1.00  0.00    -0.008 C 
ATOM     30  C   UNL A   1      46.147  21.280  24.976  1.00  0.00     0.004 C 
ATOM     31  C   UNL A   1      43.836  20.745  25.340  1.00  0.00     0.004 C 
ATOM     32  C   UNL A   1      46.543  19.858  24.565  1.00  0.00     0.000 C 
ATOM     33  C   UNL A   1      44.180  19.238  25.329  1.00  0.00     0.000 C 
ATOM     34  C   UNL A   1      45.676  18.880  25.344  1.00  0.00     0.000 C 
ENDBRANCH  28  29
ENDBRANCH  27  28
ENDBRANCH  26  27
ENDBRANCH  15  26
ENDBRANCH  10  11
ENDBRANCH   5  10
ENDBRANCH   1   5
BRANCH   3  35
ATOM     35  C   UNL A   1      37.558  29.338  29.237  1.00  0.00     0.117 C 
BRANCH  35  36
ATOM     36  C   UNL A   1      37.453  30.631  30.019  1.00  0.00     0.042 C 
BRANCH  36  37
ATOM     37  C   UNL A   1      36.634  30.466  31.279  1.00  0.00     0.118 C 
BRANCH  37  38
ATOM     38  N   UNL A   1      35.432  31.292  31.255  1.00  0.00    -0.352 N 
ATOM     39  C   UNL A   1      35.015  32.237  32.152  1.00  0.00     0.251 C 
ATOM     40  H   UNL A   1      34.836  31.149  30.484  1.00  0.00     0.163 HD
ATOM     41  O   UNL A   1      33.853  32.658  32.106  1.00  0.00    -0.269 OA
BRANCH  39  42
ATOM     42  C   UNL A   1      35.951  32.734  33.173  1.00  0.00     0.039 A 
ATOM     43  C   UNL A   1      35.738  33.987  33.747  1.00  0.00     0.014 A 
ATOM     44  C   UNL A   1      37.033  31.945  33.575  1.00  0.00     0.014 A 
ATOM     45  C   UNL A   1      36.582  34.423  34.768  1.00  0.00     0.010 A 
ATOM     46  C   UNL A   1      37.797  32.329  34.665  1.00  0.00     0.010 A 
ATOM     47  C   UNL A   1      37.594  33.581  35.258  1.00  0.00    -0.014 A 
BRANCH  47  48
ATOM     48  C   UNL A   1      38.476  33.998  36.373  1.00  0.00     0.031 A 
ATOM     49  C   UNL A   1      39.769  34.708  36.076  1.00  0.00     0.074 A 
ATOM     50  C   UNL A   1      38.144  33.676  37.638  1.00  0.00     0.049 A 
ATOM     51  N   UNL A   1      40.703  35.096  36.904  1.00  0.00    -0.248 NA
ATOM     52  C   UNL A   1      40.066  34.992  34.661  1.00  0.00     0.031 C 
ATOM     53  C   UNL A   1      36.939  32.946  38.042  1.00  0.00     0.029 A 
ATOM     54  N   UNL A   1      38.795  33.921  38.820  1.00  0.00    -0.354 N 
ATOM     55  C   UNL A   1      41.702  35.650  36.112  1.00  0.00     0.074 A 
ATOM     56  C   UNL A   1      41.289  35.493  34.736  1.00  0.00     0.031 C 
ATOM     57  C   UNL A   1      36.922  32.833  39.379  1.00  0.00     0.029 A 
ATOM     58  C   UNL A   1      38.132  33.440  39.925  1.00  0.00     0.049 A 
ATOM     59  H   UNL A   1      39.655  34.396  38.874  1.00  0.00     0.167 HD
ATOM     60  C   UNL A   1      42.850  36.256  36.497  1.00  0.00     0.031 A 
ATOM     61  C   UNL A   1      38.466  33.477  41.228  1.00  0.00     0.031 A 
ATOM     62  C   UNL A   1      43.244  36.421  37.869  1.00  0.00     0.049 A 
ATOM     63  C   UNL A   1      39.747  34.152  41.632  1.00  0.00     0.074 A 
ATOM     64  C   UNL A   1      44.356  37.072  38.371  1.00  0.00     0.029 A 
ATOM     65  N   UNL A   1      42.539  35.931  38.959  1.00  0.00    -0.354 N 
ATOM     66  N   UNL A   1      40.647  34.732  40.873  1.00  0.00    -0.248 NA
ATOM     67  C   UNL A   1      40.052  34.190  43.068  1.00  0.00     0.031 C 
ATOM     68  C   UNL A   1      44.353  36.927  39.762  1.00  0.00     0.029 A 
ATOM     69  C   UNL A   1      43.205  36.243  40.131  1.00  0.00     0.049 A 
ATOM     70  H   UNL A   1      41.690  35.435  38.906  1.00  0.00     0.167 HD
ATOM     71  C   UNL A   1      41.612  35.228  41.741  1.00  0.00     0.074 A 
ATOM     72  C   UNL A   1      41.177  34.894  43.083  1.00  0.00     0.031 C 
ATOM     73  C   UNL A   1      42.755  35.900  41.457  1.00  0.00     0.031 A 
BRANCH  60  74
ATOM     74  C   UNL A   1      43.757  36.780  35.415  1.00  0.00    -0.014 A 
ATOM     75  C   UNL A   1      43.607  38.084  34.906  1.00  0.00     0.010 A 
ATOM     76  C   UNL A   1      44.798  35.972  34.924  1.00  0.00     0.010 A 
ATOM     77  C   UNL A   1      44.453  38.553  33.898  1.00  0.00     0.020 A 
ATOM     78  C   UNL A   1      45.666  36.448  33.937  1.00  0.00     0.020 A 
ATOM     79  C   UNL A   1      45.476  37.731  33.418  1.00  0.00     0.054 A 
BRANCH  79  80
ATOM     80  S   UNL A   1      46.574  38.376  32.127  1.00  0.00     0.124 S 
ATOM     81  O   UNL A   1      47.357  39.366  32.864  1.00  0.00    -0.237 OA
ATOM     82  O   UNL A   1      47.308  37.184  31.707  1.00  0.00    -0.237 OA
ATOM     83  O   UNL A   1      45.657  38.922  31.131  1.00  0.00    -0.744 OA
ENDBRANCH  79  80
ENDBRANCH  60  74
BRANCH  61  84
ATOM     84  C   UNL A   1      37.560  32.874  42.244  1.00  0.00    -0.014 A 
ATOM     85  C   UNL A   1      37.664  31.512  42.576  1.00  0.00     0.010 A 
ATOM     86  C   UNL A   1      36.597  33.665  42.899  1.00  0.00     0.010 A 
ATOM     87  C   UNL A   1      36.811  30.946  43.529  1.00  0.00     0.020 A 
ATOM     88  C   UNL A   1      35.762  33.109  43.873  1.00  0.00     0.020 A 
ATOM     89  C   UNL A   1      35.866  31.750  44.172  1.00  0.00     0.054 A 
BRANCH  89  90
ATOM     90  S   UNL A   1      34.802  31.005  45.439  1.00  0.00     0.124 S 
ATOM     91  O   UNL A   1      35.774  30.361  46.314  1.00  0.00    -0.237 OA
ATOM     92  O   UNL A   1      34.117  32.168  45.999  1.00  0.00    -0.237 OA
ATOM     93  O   UNL A   1      33.946  30.098  44.675  1.00  0.00    -0.744 OA
ENDBRANCH  89  90
ENDBRANCH  61  84
BRANCH  73  94
ATOM     94  C   UNL A   1      43.599  36.353  42.618  1.00  0.00    -0.014 A 
ATOM     95  C   UNL A   1      43.416  37.617  43.203  1.00  0.00     0.010 A 
ATOM     96  C   UNL A   1      44.550  35.473  43.166  1.00  0.00     0.010 A 
ATOM     97  C   UNL A   1      44.193  38.006  44.298  1.00  0.00     0.020 A 
ATOM     98  C   UNL A   1      45.307  35.846  44.279  1.00  0.00     0.020 A 
ATOM     99  C   UNL A   1      45.133  37.117  44.829  1.00  0.00     0.054 A 
BRANCH  99 100
ATOM    100  S   UNL A   1      46.097  37.629  46.277  1.00  0.00     0.124 S 
ATOM    101  O   UNL A   1      45.268  37.149  47.378  1.00  0.00    -0.237 OA
ATOM    102  O   UNL A   1      47.362  36.922  46.087  1.00  0.00    -0.237 OA
ATOM    103  O   UNL A   1      46.177  39.081  46.144  1.00  0.00    -0.744 OA
ENDBRANCH  99 100
ENDBRANCH  73  94
ENDBRANCH  47  48
ENDBRANCH  39  42
ENDBRANCH  37  38
ENDBRANCH  36  37
ENDBRANCH  35  36
ENDBRANCH   3  35
TORSDOF 26
ENDMDL
