MODEL 1
REMARK VINA RESULT:     -14.7      0.000      0.000
REMARK SMILES Cc1cccc(CC(=O)N2CCC3(CCC(=O)N([C@H](C)C(=O)NCCCNC(=O)c4ccc(-c5c6nc(c(-c7ccc(S(=O)(=O)[O-])cc7)c7ccc([nH]7)c(-c7ccc(S(=O)(=O)[O-])cc7)c7nc(c(-c8ccc(S(=O)(=O)[O-])cc8)c8ccc5[nH]8)C=C7)C=C6)cc4)C3)CC2)c1
REMARK SMILES IDX 25 1 24 2 23 3 21 4 22 5 19 7 20 8 18 9 8 10 9 11 10 12
REMARK SMILES IDX 11 13 92 14 12 15 91 16 13 17 14 18 90 19 15 20 16 21 17 22
REMARK SMILES IDX 7 23 6 24 1 25 2 26 3 27 93 28 4 29 5 30 26 31 27 32 28 33
REMARK SMILES IDX 29 35 30 36 31 37 89 38 32 39 88 40 33 41 34 42 35 43 82 44
REMARK SMILES IDX 36 45 87 46 81 47 83 48 37 49 86 50 80 51 79 52 38 54 68 55
REMARK SMILES IDX 49 56 67 57 50 58 53 59 66 60 84 61 51 62 52 63 65 65 85 66
REMARK SMILES IDX 54 67 39 68 40 69 48 70 41 71 47 72 42 73 43 74 44 75 45 76
REMARK SMILES IDX 46 77 69 78 70 79 78 80 71 81 77 82 72 83 73 84 74 85 75 86
REMARK SMILES IDX 76 87 55 88 56 89 64 90 57 91 63 92 58 93 59 94 60 95 61 96
REMARK SMILES IDX 62 97
REMARK H PARENT 23 6 27 34 83 53 53 64
REMARK Flexibility Score: inf
ROOT
ATOM      1  C   UNL A   1      37.213  23.873  26.482  1.00  0.00     0.042 C 
ENDROOT
BRANCH   1   2
ATOM      2  C   UNL A   1      36.095  23.258  25.666  1.00  0.00     0.117 C 
BRANCH   2   3
ATOM      3  N   UNL A   1      36.348  21.874  25.295  1.00  0.00    -0.354 N 
ATOM      4  C   UNL A   1      35.518  20.789  25.352  1.00  0.00     0.242 C 
ATOM      5  O   UNL A   1      35.898  19.726  24.850  1.00  0.00    -0.273 OA
ATOM      6  H   UNL A   1      37.253  21.692  24.950  1.00  0.00     0.163 HD
BRANCH   4   7
ATOM      7  C   UNL A   1      34.166  20.838  26.114  1.00  0.00     0.171 C 
ATOM      8  C   UNL A   1      34.284  21.644  27.410  1.00  0.00     0.042 C 
BRANCH   7   9
ATOM      9  N   UNL A   1      32.935  21.168  25.368  1.00  0.00    -0.330 N 
ATOM     10  C   UNL A   1      31.966  27.245  23.176  1.00  0.00     0.226 C 
ATOM     11  O   UNL A   1      32.910  27.833  22.634  1.00  0.00    -0.275 OA
ATOM     12  N   UNL A   1      31.838  25.868  23.072  1.00  0.00    -0.342 N 
ATOM     13  C   UNL A   1      32.995  25.050  22.708  1.00  0.00     0.120 C 
ATOM     14  C   UNL A   1      30.630  25.090  23.289  1.00  0.00     0.120 C 
ATOM     15  C   UNL A   1      33.254  23.984  23.790  1.00  0.00     0.030 C 
ATOM     16  C   UNL A   1      30.832  24.191  24.493  1.00  0.00     0.030 C 
ATOM     17  C   UNL A   1      31.985  23.190  24.229  1.00  0.00    -0.008 C 
ATOM     18  C   UNL A   1      31.504  22.201  23.129  1.00  0.00     0.019 C 
ATOM     19  C   UNL A   1      32.271  22.439  25.555  1.00  0.00     0.127 C 
ATOM     20  C   UNL A   1      32.287  20.910  23.083  1.00  0.00     0.101 C 
ATOM     21  C   UNL A   1      32.362  20.304  24.459  1.00  0.00     0.223 C 
ATOM     22  O   UNL A   1      32.057  19.147  24.701  1.00  0.00    -0.275 OA
BRANCH  10  23
ATOM     23  C   UNL A   1      31.086  28.039  24.145  1.00  0.00     0.135 C 
BRANCH  23  24
ATOM     24  C   UNL A   1      29.882  28.773  23.614  1.00  0.00    -0.038 A 
ATOM     25  C   UNL A   1      28.697  32.392  23.334  1.00  0.00     0.044 C 
ATOM     26  C   UNL A   1      28.726  30.896  23.253  1.00  0.00    -0.051 A 
ATOM     27  C   UNL A   1      27.574  30.188  22.894  1.00  0.00     0.003 A 
ATOM     28  C   UNL A   1      29.883  30.182  23.586  1.00  0.00     0.007 A 
ATOM     29  C   UNL A   1      27.579  28.791  22.866  1.00  0.00     0.001 A 
ATOM     30  C   UNL A   1      28.728  28.084  23.221  1.00  0.00     0.004 A 
ENDBRANCH  23  24
ENDBRANCH  10  23
ENDBRANCH   7   9
ENDBRANCH   4   7
ENDBRANCH   2   3
ENDBRANCH   1   2
BRANCH   1  31
ATOM     31  C   UNL A   1      38.540  23.784  25.758  1.00  0.00     0.118 C 
BRANCH  31  32
ATOM     32  N   UNL A   1      39.656  23.406  26.624  1.00  0.00    -0.352 N 
ATOM     33  C   UNL A   1      40.339  24.230  27.515  1.00  0.00     0.251 C 
ATOM     34  H   UNL A   1      39.956  22.470  26.571  1.00  0.00     0.163 HD
ATOM     35  O   UNL A   1      41.330  23.886  28.106  1.00  0.00    -0.269 OA
BRANCH  33  36
ATOM     36  C   UNL A   1      39.723  25.558  27.744  1.00  0.00     0.039 A 
ATOM     37  C   UNL A   1      40.162  26.605  26.930  1.00  0.00     0.014 A 
ATOM     38  C   UNL A   1      39.098  25.793  28.964  1.00  0.00     0.014 A 
ATOM     39  C   UNL A   1      40.164  27.899  27.440  1.00  0.00     0.010 A 
ATOM     40  C   UNL A   1      39.214  27.058  29.510  1.00  0.00     0.010 A 
ATOM     41  C   UNL A   1      39.796  28.100  28.769  1.00  0.00    -0.014 A 
BRANCH  41  42
ATOM     42  C   UNL A   1      40.042  29.341  29.497  1.00  0.00     0.031 A 
ATOM     43  C   UNL A   1      39.071  30.454  29.375  1.00  0.00     0.074 A 
ATOM     44  C   UNL A   1      41.109  29.490  30.319  1.00  0.00     0.049 A 
ATOM     45  N   UNL A   1      39.334  31.676  29.696  1.00  0.00    -0.248 NA
ATOM     46  C   UNL A   1      37.739  30.297  28.785  1.00  0.00     0.031 C 
ATOM     47  C   UNL A   1      41.289  30.531  31.332  1.00  0.00     0.029 A 
ATOM     48  N   UNL A   1      42.363  28.880  30.252  1.00  0.00    -0.354 N 
ATOM     49  C   UNL A   1      38.143  32.354  29.708  1.00  0.00     0.074 A 
ATOM     50  C   UNL A   1      37.224  31.513  28.983  1.00  0.00     0.031 C 
ATOM     51  C   UNL A   1      42.602  30.702  31.544  1.00  0.00     0.029 A 
ATOM     52  C   UNL A   1      43.303  29.876  30.580  1.00  0.00     0.049 A 
ATOM     53  H   UNL A   1      42.551  27.942  30.021  1.00  0.00     0.167 HD
ATOM     54  C   UNL A   1      38.021  33.473  30.471  1.00  0.00     0.031 A 
ATOM     55  C   UNL A   1      44.294  30.303  29.742  1.00  0.00     0.031 A 
ATOM     56  C   UNL A   1      39.319  34.006  30.890  1.00  0.00     0.049 A 
ATOM     57  C   UNL A   1      44.240  31.794  29.434  1.00  0.00     0.074 A 
ATOM     58  C   UNL A   1      39.960  34.230  32.095  1.00  0.00     0.029 A 
ATOM     59  N   UNL A   1      40.274  34.225  29.908  1.00  0.00    -0.354 N 
ATOM     60  N   UNL A   1      43.386  32.632  29.956  1.00  0.00    -0.248 NA
ATOM     61  C   UNL A   1      45.079  32.431  28.415  1.00  0.00     0.031 C 
ATOM     62  C   UNL A   1      41.322  34.569  31.816  1.00  0.00     0.029 A 
ATOM     63  C   UNL A   1      41.493  34.584  30.445  1.00  0.00     0.049 A 
ATOM     64  H   UNL A   1      40.103  34.137  28.943  1.00  0.00     0.167 HD
ATOM     65  C   UNL A   1      43.469  33.837  29.306  1.00  0.00     0.074 A 
ATOM     66  C   UNL A   1      44.564  33.673  28.368  1.00  0.00     0.031 C 
ATOM     67  C   UNL A   1      42.589  34.858  29.527  1.00  0.00     0.031 A 
BRANCH  54  68
ATOM     68  C   UNL A   1      36.690  33.990  30.973  1.00  0.00    -0.014 A 
ATOM     69  C   UNL A   1      35.592  34.089  30.096  1.00  0.00     0.010 A 
ATOM     70  C   UNL A   1      36.494  34.516  32.269  1.00  0.00     0.010 A 
ATOM     71  C   UNL A   1      34.382  34.693  30.486  1.00  0.00     0.020 A 
ATOM     72  C   UNL A   1      35.283  35.081  32.685  1.00  0.00     0.020 A 
ATOM     73  C   UNL A   1      34.238  35.190  31.781  1.00  0.00     0.054 A 
BRANCH  73  74
ATOM     74  S   UNL A   1      32.703  36.014  32.273  1.00  0.00     0.124 S 
ATOM     75  O   UNL A   1      31.854  34.887  32.649  1.00  0.00    -0.237 OA
ATOM     76  O   UNL A   1      33.136  36.876  33.368  1.00  0.00    -0.237 OA
ATOM     77  O   UNL A   1      32.287  36.721  31.061  1.00  0.00    -0.744 OA
ENDBRANCH  73  74
ENDBRANCH  54  68
BRANCH  55  78
ATOM     78  C   UNL A   1      44.780  29.250  28.806  1.00  0.00    -0.014 A 
ATOM     79  C   UNL A   1      44.094  29.109  27.579  1.00  0.00     0.010 A 
ATOM     80  C   UNL A   1      46.087  28.747  28.918  1.00  0.00     0.010 A 
ATOM     81  C   UNL A   1      44.764  28.653  26.442  1.00  0.00     0.020 A 
ATOM     82  C   UNL A   1      46.755  28.276  27.780  1.00  0.00     0.020 A 
ATOM     83  C   UNL A   1      46.111  28.304  26.540  1.00  0.00     0.054 A 
BRANCH  83  84
ATOM     84  S   UNL A   1      47.059  28.107  25.000  1.00  0.00     0.124 S 
ATOM     85  O   UNL A   1      46.682  26.766  24.565  1.00  0.00    -0.237 OA
ATOM     86  O   UNL A   1      46.545  29.209  24.188  1.00  0.00    -0.237 OA
ATOM     87  O   UNL A   1      48.442  28.258  25.440  1.00  0.00    -0.744 OA
ENDBRANCH  83  84
ENDBRANCH  55  78
BRANCH  67  88
ATOM     88  C   UNL A   1      42.630  36.192  28.822  1.00  0.00    -0.014 A 
ATOM     89  C   UNL A   1      42.079  36.404  27.548  1.00  0.00     0.010 A 
ATOM     90  C   UNL A   1      43.357  37.264  29.393  1.00  0.00     0.010 A 
ATOM     91  C   UNL A   1      42.204  37.643  26.900  1.00  0.00     0.020 A 
ATOM     92  C   UNL A   1      43.504  38.496  28.748  1.00  0.00     0.020 A 
ATOM     93  C   UNL A   1      42.913  38.683  27.507  1.00  0.00     0.054 A 
BRANCH  93  94
ATOM     94  S   UNL A   1      43.107  40.258  26.633  1.00  0.00     0.124 S 
ATOM     95  O   UNL A   1      43.353  41.200  27.724  1.00  0.00    -0.237 OA
ATOM     96  O   UNL A   1      44.252  39.986  25.768  1.00  0.00    -0.237 OA
ATOM     97  O   UNL A   1      41.831  40.435  25.942  1.00  0.00    -0.744 OA
ENDBRANCH  93  94
ENDBRANCH  67  88
ENDBRANCH  41  42
ENDBRANCH  33  36
ENDBRANCH  31  32
ENDBRANCH   1  31
TORSDOF 16
ENDMDL
MODEL 2
REMARK VINA RESULT:     -14.6      1.318      2.124
REMARK SMILES Cc1cccc(CC(=O)N2CCC3(CCC(=O)N([C@H](C)C(=O)NCCCNC(=O)c4ccc(-c5c6nc(c(-c7ccc(S(=O)(=O)[O-])cc7)c7ccc([nH]7)c(-c7ccc(S(=O)(=O)[O-])cc7)c7nc(c(-c8ccc(S(=O)(=O)[O-])cc8)c8ccc5[nH]8)C=C7)C=C6)cc4)C3)CC2)c1
REMARK SMILES IDX 25 1 24 2 23 3 21 4 22 5 19 7 20 8 18 9 8 10 9 11 10 12
REMARK SMILES IDX 11 13 92 14 12 15 91 16 13 17 14 18 90 19 15 20 16 21 17 22
REMARK SMILES IDX 7 23 6 24 1 25 2 26 3 27 93 28 4 29 5 30 26 31 27 32 28 33
REMARK SMILES IDX 29 35 30 36 31 37 89 38 32 39 88 40 33 41 34 42 35 43 82 44
REMARK SMILES IDX 36 45 87 46 81 47 83 48 37 49 86 50 80 51 79 52 38 54 68 55
REMARK SMILES IDX 49 56 67 57 50 58 53 59 66 60 84 61 51 62 52 63 65 65 85 66
REMARK SMILES IDX 54 67 39 68 40 69 48 70 41 71 47 72 42 73 43 74 44 75 45 76
REMARK SMILES IDX 46 77 69 78 70 79 78 80 71 81 77 82 72 83 73 84 74 85 75 86
REMARK SMILES IDX 76 87 55 88 56 89 64 90 57 91 63 92 58 93 59 94 60 95 61 96
REMARK SMILES IDX 62 97
REMARK H PARENT 23 6 27 34 83 53 53 64
REMARK Flexibility Score: inf
ROOT
ATOM      1  C   UNL A   1      36.982  22.439  26.200  1.00  0.00     0.042 C 
ENDROOT
BRANCH   1   2
ATOM      2  C   UNL A   1      36.943  21.573  24.959  1.00  0.00     0.117 C 
BRANCH   2   3
ATOM      3  N   UNL A   1      36.119  20.384  25.112  1.00  0.00    -0.354 N 
ATOM      4  C   UNL A   1      34.804  20.186  24.791  1.00  0.00     0.242 C 
ATOM      5  O   UNL A   1      34.339  19.044  24.879  1.00  0.00    -0.273 OA
ATOM      6  H   UNL A   1      36.576  19.606  25.506  1.00  0.00     0.163 HD
BRANCH   4   7
ATOM      7  C   UNL A   1      33.869  21.368  24.421  1.00  0.00     0.171 C 
ATOM      8  C   UNL A   1      32.617  20.883  23.687  1.00  0.00     0.042 C 
BRANCH   7   9
ATOM      9  N   UNL A   1      33.549  22.377  25.452  1.00  0.00    -0.330 N 
ATOM     10  C   UNL A   1      30.314  27.812  23.816  1.00  0.00     0.226 C 
ATOM     11  O   UNL A   1      29.337  27.711  23.063  1.00  0.00    -0.275 OA
ATOM     12  N   UNL A   1      30.632  26.792  24.700  1.00  0.00    -0.342 N 
ATOM     13  C   UNL A   1      30.113  25.442  24.480  1.00  0.00     0.120 C 
ATOM     14  C   UNL A   1      31.461  26.901  25.889  1.00  0.00     0.120 C 
ATOM     15  C   UNL A   1      31.274  24.434  24.394  1.00  0.00     0.030 C 
ATOM     16  C   UNL A   1      32.708  26.059  25.700  1.00  0.00     0.030 C 
ATOM     17  C   UNL A   1      32.328  24.566  25.536  1.00  0.00    -0.008 C 
ATOM     18  C   UNL A   1      31.775  24.072  26.903  1.00  0.00     0.019 C 
ATOM     19  C   UNL A   1      33.615  23.791  25.153  1.00  0.00     0.127 C 
ATOM     20  C   UNL A   1      31.798  22.569  27.065  1.00  0.00     0.101 C 
ATOM     21  C   UNL A   1      33.166  22.037  26.732  1.00  0.00     0.223 C 
ATOM     22  O   UNL A   1      33.799  21.299  27.470  1.00  0.00    -0.275 OA
BRANCH  10  23
ATOM     23  C   UNL A   1      31.284  28.974  23.584  1.00  0.00     0.135 C 
BRANCH  23  24
ATOM     24  C   UNL A   1      31.810  29.743  24.768  1.00  0.00    -0.038 A 
ATOM     25  C   UNL A   1      34.773  29.526  27.166  1.00  0.00     0.044 C 
ATOM     26  C   UNL A   1      33.500  29.979  26.517  1.00  0.00    -0.051 A 
ATOM     27  C   UNL A   1      32.706  30.955  27.129  1.00  0.00     0.003 A 
ATOM     28  C   UNL A   1      33.057  29.397  25.324  1.00  0.00     0.007 A 
ATOM     29  C   UNL A   1      31.493  31.344  26.557  1.00  0.00     0.001 A 
ATOM     30  C   UNL A   1      31.045  30.745  25.379  1.00  0.00     0.004 A 
ENDBRANCH  23  24
ENDBRANCH  10  23
ENDBRANCH   7   9
ENDBRANCH   4   7
ENDBRANCH   2   3
ENDBRANCH   1   2
BRANCH   1  31
ATOM     31  C   UNL A   1      38.062  23.495  26.104  1.00  0.00     0.118 C 
BRANCH  31  32
ATOM     32  N   UNL A   1      39.280  23.157  26.839  1.00  0.00    -0.352 N 
ATOM     33  C   UNL A   1      40.090  24.030  27.563  1.00  0.00     0.251 C 
ATOM     34  H   UNL A   1      39.558  22.213  26.821  1.00  0.00     0.163 HD
ATOM     35  O   UNL A   1      41.147  23.707  28.041  1.00  0.00    -0.269 OA
BRANCH  33  36
ATOM     36  C   UNL A   1      39.529  25.386  27.767  1.00  0.00     0.039 A 
ATOM     37  C   UNL A   1      40.047  26.408  26.967  1.00  0.00     0.014 A 
ATOM     38  C   UNL A   1      38.873  25.655  28.963  1.00  0.00     0.014 A 
ATOM     39  C   UNL A   1      40.091  27.702  27.474  1.00  0.00     0.010 A 
ATOM     40  C   UNL A   1      39.028  26.914  29.510  1.00  0.00     0.010 A 
ATOM     41  C   UNL A   1      39.685  27.925  28.789  1.00  0.00    -0.014 A 
BRANCH  41  42
ATOM     42  C   UNL A   1      39.963  29.156  29.523  1.00  0.00     0.031 A 
ATOM     43  C   UNL A   1      39.025  30.296  29.401  1.00  0.00     0.074 A 
ATOM     44  C   UNL A   1      41.030  29.271  30.350  1.00  0.00     0.049 A 
ATOM     45  N   UNL A   1      39.321  31.509  29.728  1.00  0.00    -0.248 NA
ATOM     46  C   UNL A   1      37.692  30.180  28.805  1.00  0.00     0.031 C 
ATOM     47  C   UNL A   1      41.235  30.302  31.369  1.00  0.00     0.029 A 
ATOM     48  N   UNL A   1      42.266  28.626  30.286  1.00  0.00    -0.354 N 
ATOM     49  C   UNL A   1      38.149  32.220  29.738  1.00  0.00     0.074 A 
ATOM     50  C   UNL A   1      37.211  31.409  29.005  1.00  0.00     0.031 C 
ATOM     51  C   UNL A   1      42.551  30.435  31.587  1.00  0.00     0.029 A 
ATOM     52  C   UNL A   1      43.233  29.594  30.623  1.00  0.00     0.049 A 
ATOM     53  H   UNL A   1      42.429  27.684  30.053  1.00  0.00     0.167 HD
ATOM     54  C   UNL A   1      38.056  33.340  30.505  1.00  0.00     0.031 A 
ATOM     55  C   UNL A   1      44.239  29.996  29.791  1.00  0.00     0.031 A 
ATOM     56  C   UNL A   1      39.367  33.834  30.932  1.00  0.00     0.049 A 
ATOM     57  C   UNL A   1      44.229  31.489  29.489  1.00  0.00     0.074 A 
ATOM     58  C   UNL A   1      40.009  34.035  32.141  1.00  0.00     0.029 A 
ATOM     59  N   UNL A   1      40.332  34.030  29.955  1.00  0.00    -0.354 N 
ATOM     60  N   UNL A   1      43.398  32.349  30.010  1.00  0.00    -0.248 NA
ATOM     61  C   UNL A   1      45.091  32.106  28.477  1.00  0.00     0.031 C 
ATOM     62  C   UNL A   1      41.380  34.336  31.869  1.00  0.00     0.029 A 
ATOM     63  C   UNL A   1      41.558  34.351  30.499  1.00  0.00     0.049 A 
ATOM     64  H   UNL A   1      40.163  33.950  28.989  1.00  0.00     0.167 HD
ATOM     65  C   UNL A   1      43.518  33.553  29.366  1.00  0.00     0.074 A 
ATOM     66  C   UNL A   1      44.612  33.362  28.432  1.00  0.00     0.031 C 
ATOM     67  C   UNL A   1      42.665  34.598  29.587  1.00  0.00     0.031 A 
BRANCH  54  68
ATOM     68  C   UNL A   1      36.738  33.893  31.003  1.00  0.00    -0.014 A 
ATOM     69  C   UNL A   1      35.621  33.941  30.146  1.00  0.00     0.010 A 
ATOM     70  C   UNL A   1      36.572  34.499  32.268  1.00  0.00     0.010 A 
ATOM     71  C   UNL A   1      34.422  34.572  30.525  1.00  0.00     0.020 A 
ATOM     72  C   UNL A   1      35.373  35.093  32.675  1.00  0.00     0.020 A 
ATOM     73  C   UNL A   1      34.308  35.151  31.789  1.00  0.00     0.054 A 
BRANCH  73  74
ATOM     74  S   UNL A   1      32.786  36.010  32.262  1.00  0.00     0.124 S 
ATOM     75  O   UNL A   1      31.905  34.902  32.621  1.00  0.00    -0.237 OA
ATOM     76  O   UNL A   1      33.224  36.856  33.368  1.00  0.00    -0.237 OA
ATOM     77  O   UNL A   1      32.406  36.732  31.048  1.00  0.00    -0.744 OA
ENDBRANCH  73  74
ENDBRANCH  54  68
BRANCH  55  78
ATOM     78  C   UNL A   1      44.700  28.933  28.853  1.00  0.00    -0.014 A 
ATOM     79  C   UNL A   1      44.005  28.805  27.630  1.00  0.00     0.010 A 
ATOM     80  C   UNL A   1      45.997  28.404  28.958  1.00  0.00     0.010 A 
ATOM     81  C   UNL A   1      44.659  28.336  26.489  1.00  0.00     0.020 A 
ATOM     82  C   UNL A   1      46.650  27.920  27.816  1.00  0.00     0.020 A 
ATOM     83  C   UNL A   1      45.999  27.960  26.580  1.00  0.00     0.054 A 
BRANCH  83  84
ATOM     84  S   UNL A   1      46.935  27.744  25.035  1.00  0.00     0.124 S 
ATOM     85  O   UNL A   1      46.379  26.506  24.498  1.00  0.00    -0.237 OA
ATOM     86  O   UNL A   1      46.597  28.965  24.306  1.00  0.00    -0.237 OA
ATOM     87  O   UNL A   1      48.319  27.663  25.493  1.00  0.00    -0.744 OA
ENDBRANCH  83  84
ENDBRANCH  55  78
BRANCH  67  88
ATOM     88  C   UNL A   1      42.748  35.933  28.888  1.00  0.00    -0.014 A 
ATOM     89  C   UNL A   1      43.167  37.109  29.529  1.00  0.00     0.010 A 
ATOM     90  C   UNL A   1      42.274  36.060  27.560  1.00  0.00     0.010 A 
ATOM     91  C   UNL A   1      43.159  38.343  28.859  1.00  0.00     0.020 A 
ATOM     92  C   UNL A   1      42.244  37.287  26.890  1.00  0.00     0.020 A 
ATOM     93  C   UNL A   1      42.702  38.423  27.541  1.00  0.00     0.054 A 
BRANCH  93  94
ATOM     94  S   UNL A   1      42.652  40.033  26.711  1.00  0.00     0.124 S 
ATOM     95  O   UNL A   1      41.310  40.051  26.131  1.00  0.00    -0.237 OA
ATOM     96  O   UNL A   1      42.868  40.954  27.823  1.00  0.00    -0.237 OA
ATOM     97  O   UNL A   1      43.742  39.960  25.740  1.00  0.00    -0.744 OA
ENDBRANCH  93  94
ENDBRANCH  67  88
ENDBRANCH  41  42
ENDBRANCH  33  36
ENDBRANCH  31  32
ENDBRANCH   1  31
TORSDOF 16
ENDMDL
MODEL 3
REMARK VINA RESULT:     -14.0      2.143      3.149
REMARK SMILES Cc1cccc(CC(=O)N2CCC3(CCC(=O)N([C@H](C)C(=O)NCCCNC(=O)c4ccc(-c5c6nc(c(-c7ccc(S(=O)(=O)[O-])cc7)c7ccc([nH]7)c(-c7ccc(S(=O)(=O)[O-])cc7)c7nc(c(-c8ccc(S(=O)(=O)[O-])cc8)c8ccc5[nH]8)C=C7)C=C6)cc4)C3)CC2)c1
REMARK SMILES IDX 25 1 24 2 23 3 21 4 22 5 19 7 20 8 18 9 8 10 9 11 10 12
REMARK SMILES IDX 11 13 92 14 12 15 91 16 13 17 14 18 90 19 15 20 16 21 17 22
REMARK SMILES IDX 7 23 6 24 1 25 2 26 3 27 93 28 4 29 5 30 26 31 27 32 28 33
REMARK SMILES IDX 29 35 30 36 31 37 89 38 32 39 88 40 33 41 34 42 35 43 82 44
REMARK SMILES IDX 36 45 87 46 81 47 83 48 37 49 86 50 80 51 79 52 38 54 68 55
REMARK SMILES IDX 49 56 67 57 50 58 53 59 66 60 84 61 51 62 52 63 65 65 85 66
REMARK SMILES IDX 54 67 39 68 40 69 48 70 41 71 47 72 42 73 43 74 44 75 45 76
REMARK SMILES IDX 46 77 69 78 70 79 78 80 71 81 77 82 72 83 73 84 74 85 75 86
REMARK SMILES IDX 76 87 55 88 56 89 64 90 57 91 63 92 58 93 59 94 60 95 61 96
REMARK SMILES IDX 62 97
REMARK H PARENT 23 6 27 34 83 53 53 64
REMARK Flexibility Score: inf
ROOT
ATOM      1  C   UNL A   1      36.730  22.095  25.877  1.00  0.00     0.042 C 
ENDROOT
BRANCH   1   2
ATOM      2  C   UNL A   1      36.747  21.042  24.790  1.00  0.00     0.117 C 
BRANCH   2   3
ATOM      3  N   UNL A   1      35.764  19.989  24.993  1.00  0.00    -0.354 N 
ATOM      4  C   UNL A   1      34.423  19.982  24.722  1.00  0.00     0.242 C 
ATOM      5  O   UNL A   1      33.800  18.922  24.846  1.00  0.00    -0.273 OA
ATOM      6  H   UNL A   1      36.116  19.156  25.384  1.00  0.00     0.163 HD
BRANCH   4   7
ATOM      7  C   UNL A   1      33.659  21.285  24.364  1.00  0.00     0.171 C 
ATOM      8  C   UNL A   1      32.397  20.987  23.549  1.00  0.00     0.042 C 
BRANCH   7   9
ATOM      9  N   UNL A   1      33.409  22.282  25.424  1.00  0.00    -0.330 N 
ATOM     10  C   UNL A   1      30.471  27.934  23.973  1.00  0.00     0.226 C 
ATOM     11  O   UNL A   1      29.481  27.909  23.230  1.00  0.00    -0.275 OA
ATOM     12  N   UNL A   1      30.741  26.874  24.826  1.00  0.00    -0.342 N 
ATOM     13  C   UNL A   1      30.143  25.563  24.577  1.00  0.00     0.120 C 
ATOM     14  C   UNL A   1      31.589  26.905  26.005  1.00  0.00     0.120 C 
ATOM     15  C   UNL A   1      31.243  24.493  24.450  1.00  0.00     0.030 C 
ATOM     16  C   UNL A   1      32.783  25.999  25.778  1.00  0.00     0.030 C 
ATOM     17  C   UNL A   1      32.317  24.535  25.581  1.00  0.00    -0.008 C 
ATOM     18  C   UNL A   1      31.752  24.036  26.943  1.00  0.00     0.019 C 
ATOM     19  C   UNL A   1      33.552  23.698  25.161  1.00  0.00     0.127 C 
ATOM     20  C   UNL A   1      31.692  22.531  27.065  1.00  0.00     0.101 C 
ATOM     21  C   UNL A   1      33.023  21.931  26.700  1.00  0.00     0.223 C 
ATOM     22  O   UNL A   1      33.621  21.139  27.410  1.00  0.00    -0.275 OA
BRANCH  10  23
ATOM     23  C   UNL A   1      31.503  29.045  23.758  1.00  0.00     0.135 C 
BRANCH  23  24
ATOM     24  C   UNL A   1      32.057  29.777  24.952  1.00  0.00    -0.038 A 
ATOM     25  C   UNL A   1      35.130  29.552  27.207  1.00  0.00     0.044 C 
ATOM     26  C   UNL A   1      33.816  29.990  26.635  1.00  0.00    -0.051 A 
ATOM     27  C   UNL A   1      33.020  30.911  27.325  1.00  0.00     0.003 A 
ATOM     28  C   UNL A   1      33.338  29.448  25.436  1.00  0.00     0.007 A 
ATOM     29  C   UNL A   1      31.771  31.286  26.825  1.00  0.00     0.001 A 
ATOM     30  C   UNL A   1      31.290  30.725  25.641  1.00  0.00     0.004 A 
ENDBRANCH  23  24
ENDBRANCH  10  23
ENDBRANCH   7   9
ENDBRANCH   4   7
ENDBRANCH   2   3
ENDBRANCH   1   2
BRANCH   1  31
ATOM     31  C   UNL A   1      37.870  23.078  25.713  1.00  0.00     0.118 C 
BRANCH  31  32
ATOM     32  N   UNL A   1      39.170  22.540  26.109  1.00  0.00    -0.352 N 
ATOM     33  C   UNL A   1      40.266  23.261  26.579  1.00  0.00     0.251 C 
ATOM     34  H   UNL A   1      39.284  21.565  26.035  1.00  0.00     0.163 HD
ATOM     35  O   UNL A   1      41.348  22.769  26.768  1.00  0.00    -0.269 OA
BRANCH  33  36
ATOM     36  C   UNL A   1      39.994  24.682  26.899  1.00  0.00     0.039 A 
ATOM     37  C   UNL A   1      40.661  25.639  26.129  1.00  0.00     0.014 A 
ATOM     38  C   UNL A   1      39.466  24.987  28.148  1.00  0.00     0.014 A 
ATOM     39  C   UNL A   1      40.985  26.861  26.709  1.00  0.00     0.010 A 
ATOM     40  C   UNL A   1      39.893  26.151  28.758  1.00  0.00     0.010 A 
ATOM     41  C   UNL A   1      40.699  27.064  28.058  1.00  0.00    -0.014 A 
BRANCH  41  42
ATOM     42  C   UNL A   1      41.251  28.163  28.845  1.00  0.00     0.031 A 
ATOM     43  C   UNL A   1      40.398  29.338  29.141  1.00  0.00     0.074 A 
ATOM     44  C   UNL A   1      42.506  28.121  29.351  1.00  0.00     0.049 A 
ATOM     45  N   UNL A   1      40.856  30.479  29.533  1.00  0.00    -0.248 NA
ATOM     46  C   UNL A   1      38.948  29.352  28.928  1.00  0.00     0.031 C 
ATOM     47  C   UNL A   1      43.051  28.983  30.402  1.00  0.00     0.029 A 
ATOM     48  N   UNL A   1      43.631  27.454  28.862  1.00  0.00    -0.354 N 
ATOM     49  C   UNL A   1      39.783  31.217  29.962  1.00  0.00     0.074 A 
ATOM     50  C   UNL A   1      38.627  30.553  29.416  1.00  0.00     0.031 C 
ATOM     51  C   UNL A   1      44.383  29.041  30.263  1.00  0.00     0.029 A 
ATOM     52  C   UNL A   1      44.719  28.331  29.044  1.00  0.00     0.049 A 
ATOM     53  H   UNL A   1      43.658  26.553  28.468  1.00  0.00     0.167 HD
ATOM     54  C   UNL A   1      39.979  32.213  30.869  1.00  0.00     0.031 A 
ATOM     55  C   UNL A   1      45.489  28.821  28.028  1.00  0.00     0.031 A 
ATOM     56  C   UNL A   1      41.388  32.596  30.978  1.00  0.00     0.049 A 
ATOM     57  C   UNL A   1      45.504  30.342  27.944  1.00  0.00     0.074 A 
ATOM     58  C   UNL A   1      42.345  32.596  31.977  1.00  0.00     0.029 A 
ATOM     59  N   UNL A   1      42.066  32.906  29.807  1.00  0.00    -0.354 N 
ATOM     60  N   UNL A   1      44.906  31.140  28.785  1.00  0.00    -0.248 NA
ATOM     61  C   UNL A   1      46.102  31.075  26.824  1.00  0.00     0.031 C 
ATOM     62  C   UNL A   1      43.611  32.892  31.380  1.00  0.00     0.029 A 
ATOM     63  C   UNL A   1      43.413  33.104  30.029  1.00  0.00     0.049 A 
ATOM     64  H   UNL A   1      41.638  32.976  28.924  1.00  0.00     0.167 HD
ATOM     65  C   UNL A   1      44.933  32.423  28.301  1.00  0.00     0.074 A 
ATOM     66  C   UNL A   1      45.718  32.338  27.083  1.00  0.00     0.031 C 
ATOM     67  C   UNL A   1      44.248  33.449  28.887  1.00  0.00     0.031 A 
BRANCH  54  68
ATOM     68  C   UNL A   1      38.887  32.726  31.782  1.00  0.00    -0.014 A 
ATOM     69  C   UNL A   1      38.077  31.821  32.495  1.00  0.00     0.010 A 
ATOM     70  C   UNL A   1      38.525  34.088  31.880  1.00  0.00     0.010 A 
ATOM     71  C   UNL A   1      36.966  32.250  33.244  1.00  0.00     0.020 A 
ATOM     72  C   UNL A   1      37.449  34.534  32.654  1.00  0.00     0.020 A 
ATOM     73  C   UNL A   1      36.656  33.608  33.313  1.00  0.00     0.054 A 
BRANCH  73  74
ATOM     74  S   UNL A   1      35.197  34.161  34.232  1.00  0.00     0.124 S 
ATOM     75  O   UNL A   1      35.582  33.892  35.614  1.00  0.00    -0.237 OA
ATOM     76  O   UNL A   1      35.099  35.570  33.863  1.00  0.00    -0.237 OA
ATOM     77  O   UNL A   1      34.122  33.314  33.715  1.00  0.00    -0.744 OA
ENDBRANCH  73  74
ENDBRANCH  54  68
BRANCH  55  78
ATOM     78  C   UNL A   1      45.603  27.895  26.865  1.00  0.00    -0.014 A 
ATOM     79  C   UNL A   1      46.574  26.872  26.947  1.00  0.00     0.010 A 
ATOM     80  C   UNL A   1      44.538  27.753  25.961  1.00  0.00     0.010 A 
ATOM     81  C   UNL A   1      46.380  25.657  26.286  1.00  0.00     0.020 A 
ATOM     82  C   UNL A   1      44.350  26.539  25.286  1.00  0.00     0.020 A 
ATOM     83  C   UNL A   1      45.233  25.479  25.514  1.00  0.00     0.054 A 
BRANCH  83  84
ATOM     84  S   UNL A   1      44.798  23.788  25.002  1.00  0.00     0.124 S 
ATOM     85  O   UNL A   1      45.729  23.540  23.906  1.00  0.00    -0.237 OA
ATOM     86  O   UNL A   1      45.041  23.032  26.230  1.00  0.00    -0.237 OA
ATOM     87  O   UNL A   1      43.395  23.907  24.618  1.00  0.00    -0.744 OA
ENDBRANCH  83  84
ENDBRANCH  55  78
BRANCH  67  88
ATOM     88  C   UNL A   1      44.233  34.870  28.378  1.00  0.00    -0.014 A 
ATOM     89  C   UNL A   1      45.227  35.808  28.697  1.00  0.00     0.010 A 
ATOM     90  C   UNL A   1      43.118  35.341  27.644  1.00  0.00     0.010 A 
ATOM     91  C   UNL A   1      45.135  37.140  28.261  1.00  0.00     0.020 A 
ATOM     92  C   UNL A   1      43.007  36.668  27.221  1.00  0.00     0.020 A 
ATOM     93  C   UNL A   1      44.026  37.560  27.521  1.00  0.00     0.054 A 
BRANCH  93  94
ATOM     94  S   UNL A   1      43.901  39.294  27.009  1.00  0.00     0.124 S 
ATOM     95  O   UNL A   1      43.973  40.007  28.284  1.00  0.00    -0.237 OA
ATOM     96  O   UNL A   1      45.068  39.439  26.143  1.00  0.00    -0.237 OA
ATOM     97  O   UNL A   1      42.608  39.367  26.333  1.00  0.00    -0.744 OA
ENDBRANCH  93  94
ENDBRANCH  67  88
ENDBRANCH  41  42
ENDBRANCH  33  36
ENDBRANCH  31  32
ENDBRANCH   1  31
TORSDOF 16
ENDMDL
