MODEL 1
REMARK VINA RESULT:     -11.2      0.000      0.000
REMARK SMILES C[N@H+]1CCO[C@@H](COc2ccc(C(=O)NCCCNC(=O)c3ccc(-c4c5nc(c(-c6ccc(S(=O)(=O)[O-])cc6)c6ccc([nH]6)c(-c6ccc(S(=O)(=O)[O-])cc6)c6nc(c(-c7ccc(S(=O)(=O)[O-])cc7)c7ccc4[nH]7)C=C6)C=C5)cc3)cc2N)C1
REMARK SMILES IDX 17 1 16 2 15 3 13 4 14 5 12 7 9 8 10 9 83 10 11 11 82 12
REMARK SMILES IDX 8 13 7 14 6 15 1 16 2 17 3 18 85 19 4 21 5 22 84 23 18 26
REMARK SMILES IDX 19 27 20 28 21 30 22 31 23 32 81 33 24 34 80 35 25 36 26 37
REMARK SMILES IDX 27 38 74 39 28 40 79 41 73 42 75 43 29 44 78 45 72 46 71 47
REMARK SMILES IDX 30 49 60 50 41 51 59 52 42 53 45 54 58 55 76 56 43 57 44 58
REMARK SMILES IDX 57 60 77 61 46 62 31 63 32 64 40 65 33 66 39 67 34 68 35 69
REMARK SMILES IDX 36 70 37 71 38 72 61 73 62 74 70 75 63 76 69 77 64 78 65 79
REMARK SMILES IDX 66 80 67 81 68 82 47 83 48 84 56 85 49 86 55 87 50 88 51 89
REMARK SMILES IDX 52 90 53 91 54 92
REMARK H PARENT 15 6 2 20 84 24 84 25 19 29 75 48 45 59
REMARK Flexibility Score: inf
ROOT
ATOM      1  C   UNL A   1      32.327  27.540  27.008  1.00  0.00     0.042 C 
ENDROOT
BRANCH   1   2
ATOM      2  C   UNL A   1      32.089  26.348  26.083  1.00  0.00     0.118 C 
BRANCH   2   3
ATOM      3  N   UNL A   1      31.042  25.460  26.575  1.00  0.00    -0.352 N 
ATOM      4  C   UNL A   1      30.988  24.089  26.636  1.00  0.00     0.251 C 
ATOM      5  O   UNL A   1      30.089  23.552  27.286  1.00  0.00    -0.269 OA
ATOM      6  H   UNL A   1      30.242  25.919  26.921  1.00  0.00     0.163 HD
BRANCH   4   7
ATOM      7  C   UNL A   1      32.017  23.239  25.992  1.00  0.00     0.042 A 
ATOM      8  C   UNL A   1      33.799  21.433  24.862  1.00  0.00     0.142 A 
ATOM      9  C   UNL A   1      32.596  21.704  24.211  1.00  0.00     0.049 A 
ATOM     10  C   UNL A   1      34.205  22.181  25.979  1.00  0.00     0.075 A 
ATOM     11  C   UNL A   1      31.701  22.611  24.781  1.00  0.00     0.018 A 
ATOM     12  C   UNL A   1      33.290  23.066  26.548  1.00  0.00     0.043 A 
BRANCH   8  13
ATOM     13  O   UNL A   1      34.628  20.436  24.416  1.00  0.00    -0.488 OA
BRANCH  13  14
ATOM     14  C   UNL A   1      34.293  19.149  24.977  1.00  0.00     0.267 C 
BRANCH  14  15
ATOM     15  C   UNL A   1      33.402  18.277  24.062  1.00  0.00     0.210 C 
ATOM     16  C   UNL A   1      35.288  15.909  25.283  1.00  0.00     0.332 C 
ATOM     17  N   UNL A   1      34.187  15.828  24.334  1.00  0.00    -0.333 N 
ATOM     18  C   UNL A   1      32.892  15.585  24.988  1.00  0.00     0.290 C 
ATOM     19  C   UNL A   1      34.059  17.008  23.458  1.00  0.00     0.298 C 
ATOM     20  H   UNL A   1      34.431  15.026  23.751  1.00  0.00     0.348 HD
ATOM     21  C   UNL A   1      32.299  16.841  25.647  1.00  0.00     0.222 C 
ATOM     22  O   UNL A   1      32.163  17.926  24.726  1.00  0.00    -0.363 OA
ENDBRANCH  14  15
ENDBRANCH  13  14
ENDBRANCH   8  13
BRANCH  10  23
ATOM     23  N   UNL A   1      35.390  21.881  26.650  1.00  0.00    -0.396 N 
ATOM     24  H   UNL A   1      35.411  21.881  27.634  1.00  0.00     0.156 HD
ATOM     25  H   UNL A   1      36.205  21.671  26.140  1.00  0.00     0.156 HD
ENDBRANCH  10  23
ENDBRANCH   4   7
ENDBRANCH   2   3
ENDBRANCH   1   2
BRANCH   1  26
ATOM     26  C   UNL A   1      33.580  28.347  26.687  1.00  0.00     0.118 C 
BRANCH  26  27
ATOM     27  N   UNL A   1      33.441  29.756  27.025  1.00  0.00    -0.352 N 
ATOM     28  C   UNL A   1      34.281  30.582  27.728  1.00  0.00     0.251 C 
ATOM     29  H   UNL A   1      32.616  30.182  26.698  1.00  0.00     0.163 HD
ATOM     30  O   UNL A   1      33.877  31.703  28.057  1.00  0.00    -0.269 OA
BRANCH  28  31
ATOM     31  C   UNL A   1      35.646  30.155  28.114  1.00  0.00     0.039 A 
ATOM     32  C   UNL A   1      36.665  30.208  27.157  1.00  0.00     0.014 A 
ATOM     33  C   UNL A   1      35.925  29.655  29.390  1.00  0.00     0.014 A 
ATOM     34  C   UNL A   1      37.965  29.816  27.492  1.00  0.00     0.010 A 
ATOM     35  C   UNL A   1      37.237  29.337  29.746  1.00  0.00     0.010 A 
ATOM     36  C   UNL A   1      38.269  29.404  28.800  1.00  0.00    -0.014 A 
BRANCH  36  37
ATOM     37  C   UNL A   1      39.654  29.022  29.190  1.00  0.00     0.031 A 
ATOM     38  C   UNL A   1      40.540  30.010  29.902  1.00  0.00     0.074 A 
ATOM     39  C   UNL A   1      40.135  27.807  28.857  1.00  0.00     0.049 A 
ATOM     40  N   UNL A   1      41.794  29.888  30.260  1.00  0.00    -0.248 NA
ATOM     41  C   UNL A   1      39.946  31.315  30.239  1.00  0.00     0.031 C 
ATOM     42  C   UNL A   1      39.391  26.767  28.142  1.00  0.00     0.029 A 
ATOM     43  N   UNL A   1      41.369  27.244  29.069  1.00  0.00    -0.354 N 
ATOM     44  C   UNL A   1      42.142  31.101  30.845  1.00  0.00     0.074 A 
ATOM     45  C   UNL A   1      40.984  31.962  30.750  1.00  0.00     0.031 C 
ATOM     46  C   UNL A   1      40.174  25.685  28.001  1.00  0.00     0.029 A 
ATOM     47  C   UNL A   1      41.487  25.966  28.572  1.00  0.00     0.049 A 
ATOM     48  H   UNL A   1      42.102  27.710  29.534  1.00  0.00     0.167 HD
ATOM     49  C   UNL A   1      43.312  31.460  31.428  1.00  0.00     0.031 A 
ATOM     50  C   UNL A   1      42.534  25.118  28.569  1.00  0.00     0.031 A 
ATOM     51  C   UNL A   1      44.461  30.600  31.532  1.00  0.00     0.049 A 
ATOM     52  C   UNL A   1      43.830  25.547  29.204  1.00  0.00     0.074 A 
ATOM     53  C   UNL A   1      45.678  30.858  32.139  1.00  0.00     0.029 A 
ATOM     54  N   UNL A   1      44.535  29.313  31.021  1.00  0.00    -0.354 N 
ATOM     55  N   UNL A   1      44.123  26.682  29.792  1.00  0.00    -0.248 NA
ATOM     56  C   UNL A   1      44.931  24.575  29.184  1.00  0.00     0.031 C 
ATOM     57  C   UNL A   1      46.503  29.744  31.953  1.00  0.00     0.029 A 
ATOM     58  C   UNL A   1      45.782  28.770  31.283  1.00  0.00     0.049 A 
ATOM     59  H   UNL A   1      43.808  28.853  30.541  1.00  0.00     0.167 HD
ATOM     60  C   UNL A   1      45.432  26.547  30.243  1.00  0.00     0.074 A 
ATOM     61  C   UNL A   1      45.868  25.218  29.868  1.00  0.00     0.031 C 
ATOM     62  C   UNL A   1      46.201  27.444  30.909  1.00  0.00     0.031 A 
BRANCH  49  63
ATOM     63  C   UNL A   1      43.406  32.853  31.998  1.00  0.00    -0.014 A 
ATOM     64  C   UNL A   1      43.769  33.944  31.188  1.00  0.00     0.010 A 
ATOM     65  C   UNL A   1      43.090  33.081  33.350  1.00  0.00     0.010 A 
ATOM     66  C   UNL A   1      43.861  35.229  31.730  1.00  0.00     0.020 A 
ATOM     67  C   UNL A   1      43.151  34.370  33.888  1.00  0.00     0.020 A 
ATOM     68  C   UNL A   1      43.555  35.433  33.078  1.00  0.00     0.054 A 
BRANCH  68  69
ATOM     69  S   UNL A   1      43.666  37.115  33.749  1.00  0.00     0.124 S 
ATOM     70  O   UNL A   1      44.742  36.978  34.727  1.00  0.00    -0.237 OA
ATOM     71  O   UNL A   1      43.989  37.910  32.568  1.00  0.00    -0.237 OA
ATOM     72  O   UNL A   1      42.339  37.353  34.312  1.00  0.00    -0.744 OA
ENDBRANCH  68  69
ENDBRANCH  49  63
BRANCH  50  73
ATOM     73  C   UNL A   1      42.398  23.767  27.957  1.00  0.00    -0.014 A 
ATOM     74  C   UNL A   1      42.046  22.659  28.747  1.00  0.00     0.010 A 
ATOM     75  C   UNL A   1      42.618  23.581  26.579  1.00  0.00     0.010 A 
ATOM     76  C   UNL A   1      41.937  21.387  28.177  1.00  0.00     0.020 A 
ATOM     77  C   UNL A   1      42.482  22.317  26.001  1.00  0.00     0.020 A 
ATOM     78  C   UNL A   1      42.155  21.224  26.806  1.00  0.00     0.054 A 
BRANCH  78  79
ATOM     79  S   UNL A   1      41.965  19.573  26.080  1.00  0.00     0.124 S 
ATOM     80  O   UNL A   1      42.416  18.709  27.167  1.00  0.00    -0.237 OA
ATOM     81  O   UNL A   1      40.536  19.521  25.782  1.00  0.00    -0.237 OA
ATOM     82  O   UNL A   1      42.837  19.613  24.908  1.00  0.00    -0.744 OA
ENDBRANCH  78  79
ENDBRANCH  50  73
BRANCH  62  83
ATOM     83  C   UNL A   1      47.581  27.003  31.319  1.00  0.00    -0.014 A 
ATOM     84  C   UNL A   1      47.816  26.394  32.564  1.00  0.00     0.010 A 
ATOM     85  C   UNL A   1      48.650  27.152  30.416  1.00  0.00     0.010 A 
ATOM     86  C   UNL A   1      49.102  25.972  32.912  1.00  0.00     0.020 A 
ATOM     87  C   UNL A   1      49.932  26.706  30.749  1.00  0.00     0.020 A 
ATOM     88  C   UNL A   1      50.153  26.131  32.002  1.00  0.00     0.054 A 
BRANCH  88  89
ATOM     89  S   UNL A   1      51.803  25.535  32.458  1.00  0.00     0.124 S 
ATOM     90  O   UNL A   1      52.670  26.414  31.677  1.00  0.00    -0.237 OA
ATOM     91  O   UNL A   1      51.832  25.746  33.904  1.00  0.00    -0.237 OA
ATOM     92  O   UNL A   1      51.795  24.135  32.039  1.00  0.00    -0.744 OA
ENDBRANCH  88  89
ENDBRANCH  62  83
ENDBRANCH  36  37
ENDBRANCH  28  31
ENDBRANCH  26  27
ENDBRANCH   1  26
TORSDOF 17
ENDMDL
MODEL 2
REMARK VINA RESULT:     -11.0      3.413      4.628
REMARK SMILES C[N@H+]1CCO[C@@H](COc2ccc(C(=O)NCCCNC(=O)c3ccc(-c4c5nc(c(-c6ccc(S(=O)(=O)[O-])cc6)c6ccc([nH]6)c(-c6ccc(S(=O)(=O)[O-])cc6)c6nc(c(-c7ccc(S(=O)(=O)[O-])cc7)c7ccc4[nH]7)C=C6)C=C5)cc3)cc2N)C1
REMARK SMILES IDX 17 1 16 2 15 3 13 4 14 5 12 7 9 8 10 9 83 10 11 11 82 12
REMARK SMILES IDX 8 13 7 14 6 15 1 16 2 17 3 18 85 19 4 21 5 22 84 23 18 26
REMARK SMILES IDX 19 27 20 28 21 30 22 31 23 32 81 33 24 34 80 35 25 36 26 37
REMARK SMILES IDX 27 38 74 39 28 40 79 41 73 42 75 43 29 44 78 45 72 46 71 47
REMARK SMILES IDX 30 49 60 50 41 51 59 52 42 53 45 54 58 55 76 56 43 57 44 58
REMARK SMILES IDX 57 60 77 61 46 62 31 63 32 64 40 65 33 66 39 67 34 68 35 69
REMARK SMILES IDX 36 70 37 71 38 72 61 73 62 74 70 75 63 76 69 77 64 78 65 79
REMARK SMILES IDX 66 80 67 81 68 82 47 83 48 84 56 85 49 86 55 87 50 88 51 89
REMARK SMILES IDX 52 90 53 91 54 92
REMARK H PARENT 15 6 2 20 84 24 84 25 19 29 75 48 45 59
REMARK Flexibility Score: inf
ROOT
ATOM      1  C   UNL A   1      34.027  29.882  26.895  1.00  0.00     0.042 C 
ENDROOT
BRANCH   1   2
ATOM      2  C   UNL A   1      33.753  29.104  25.609  1.00  0.00     0.118 C 
BRANCH   2   3
ATOM      3  N   UNL A   1      32.568  29.585  24.907  1.00  0.00    -0.352 N 
ATOM      4  C   UNL A   1      31.467  28.908  24.444  1.00  0.00     0.251 C 
ATOM      5  O   UNL A   1      30.484  29.548  24.064  1.00  0.00    -0.269 OA
ATOM      6  H   UNL A   1      32.557  30.555  24.738  1.00  0.00     0.163 HD
BRANCH   4   7
ATOM      7  C   UNL A   1      31.403  27.427  24.448  1.00  0.00     0.042 A 
ATOM      8  C   UNL A   1      31.094  24.673  24.264  1.00  0.00     0.142 A 
ATOM      9  C   UNL A   1      31.792  25.351  23.264  1.00  0.00     0.049 A 
ATOM     10  C   UNL A   1      30.699  25.325  25.443  1.00  0.00     0.075 A 
ATOM     11  C   UNL A   1      31.946  26.735  23.358  1.00  0.00     0.018 A 
ATOM     12  C   UNL A   1      30.839  26.711  25.509  1.00  0.00     0.043 A 
BRANCH   8  13
ATOM     13  O   UNL A   1      30.789  23.343  24.127  1.00  0.00    -0.488 OA
BRANCH  13  14
ATOM     14  C   UNL A   1      31.958  22.500  24.211  1.00  0.00     0.267 C 
BRANCH  14  15
ATOM     15  C   UNL A   1      31.941  21.519  25.406  1.00  0.00     0.210 C 
ATOM     16  C   UNL A   1      35.171  21.665  24.956  1.00  0.00     0.332 C 
ATOM     17  N   UNL A   1      34.400  20.920  25.941  1.00  0.00    -0.333 N 
ATOM     18  C   UNL A   1      34.209  21.667  27.194  1.00  0.00     0.290 C 
ATOM     19  C   UNL A   1      33.081  20.468  25.457  1.00  0.00     0.298 C 
ATOM     20  H   UNL A   1      34.971  20.094  26.120  1.00  0.00     0.348 HD
ATOM     21  C   UNL A   1      33.129  22.756  27.094  1.00  0.00     0.222 C 
ATOM     22  O   UNL A   1      31.869  22.235  26.663  1.00  0.00    -0.363 OA
ENDBRANCH  14  15
ENDBRANCH  13  14
ENDBRANCH   8  13
BRANCH  10  23
ATOM     23  N   UNL A   1      29.967  24.654  26.422  1.00  0.00    -0.396 N 
ATOM     24  H   UNL A   1      29.012  24.462  26.276  1.00  0.00     0.156 HD
ATOM     25  H   UNL A   1      30.404  24.374  27.258  1.00  0.00     0.156 HD
ENDBRANCH  10  23
ENDBRANCH   4   7
ENDBRANCH   2   3
ENDBRANCH   1   2
BRANCH   1  26
ATOM     26  C   UNL A   1      35.287  29.452  27.637  1.00  0.00     0.118 C 
BRANCH  26  27
ATOM     27  N   UNL A   1      35.307  29.909  29.018  1.00  0.00    -0.352 N 
ATOM     28  C   UNL A   1      36.331  29.911  29.932  1.00  0.00     0.251 C 
ATOM     29  H   UNL A   1      34.455  30.275  29.347  1.00  0.00     0.163 HD
ATOM     30  O   UNL A   1      36.075  30.177  31.112  1.00  0.00    -0.269 OA
BRANCH  28  31
ATOM     31  C   UNL A   1      37.722  29.582  29.541  1.00  0.00     0.039 A 
ATOM     32  C   UNL A   1      38.625  29.186  30.534  1.00  0.00     0.014 A 
ATOM     33  C   UNL A   1      38.161  29.706  28.221  1.00  0.00     0.014 A 
ATOM     34  C   UNL A   1      39.943  28.865  30.197  1.00  0.00     0.010 A 
ATOM     35  C   UNL A   1      39.454  29.311  27.873  1.00  0.00     0.010 A 
ATOM     36  C   UNL A   1      40.363  28.896  28.857  1.00  0.00    -0.014 A 
BRANCH  36  37
ATOM     37  C   UNL A   1      41.749  28.517  28.470  1.00  0.00     0.031 A 
ATOM     38  C   UNL A   1      42.832  29.563  28.410  1.00  0.00     0.074 A 
ATOM     39  C   UNL A   1      42.025  27.245  28.120  1.00  0.00     0.049 A 
ATOM     40  N   UNL A   1      44.078  29.441  28.029  1.00  0.00    -0.248 NA
ATOM     41  C   UNL A   1      42.459  30.931  28.811  1.00  0.00     0.031 C 
ATOM     42  C   UNL A   1      41.062  26.140  28.108  1.00  0.00     0.029 A 
ATOM     43  N   UNL A   1      43.196  26.665  27.699  1.00  0.00    -0.354 N 
ATOM     44  C   UNL A   1      44.632  30.713  28.128  1.00  0.00     0.074 A 
ATOM     45  C   UNL A   1      43.574  31.602  28.556  1.00  0.00     0.031 C 
ATOM     46  C   UNL A   1      41.688  25.015  27.727  1.00  0.00     0.029 A 
ATOM     47  C   UNL A   1      43.083  25.322  27.426  1.00  0.00     0.049 A 
ATOM     48  H   UNL A   1      44.040  27.165  27.602  1.00  0.00     0.167 HD
ATOM     49  C   UNL A   1      45.910  31.106  27.903  1.00  0.00     0.031 A 
ATOM     50  C   UNL A   1      43.994  24.437  26.976  1.00  0.00     0.031 A 
ATOM     51  C   UNL A   1      46.966  30.221  27.486  1.00  0.00     0.049 A 
ATOM     52  C   UNL A   1      45.402  24.900  26.713  1.00  0.00     0.074 A 
ATOM     53  C   UNL A   1      48.301  30.515  27.270  1.00  0.00     0.029 A 
ATOM     54  N   UNL A   1      46.807  28.868  27.226  1.00  0.00    -0.354 N 
ATOM     55  N   UNL A   1      45.915  26.099  26.856  1.00  0.00    -0.248 NA
ATOM     56  C   UNL A   1      46.355  23.888  26.239  1.00  0.00     0.031 C 
ATOM     57  C   UNL A   1      48.940  29.349  26.834  1.00  0.00     0.029 A 
ATOM     58  C   UNL A   1      48.016  28.316  26.836  1.00  0.00     0.049 A 
ATOM     59  H   UNL A   1      45.960  28.372  27.307  1.00  0.00     0.167 HD
ATOM     60  C   UNL A   1      47.260  25.976  26.523  1.00  0.00     0.074 A 
ATOM     61  C   UNL A   1      47.481  24.587  26.181  1.00  0.00     0.031 C 
ATOM     62  C   UNL A   1      48.224  26.930  26.504  1.00  0.00     0.031 A 
BRANCH  49  63
ATOM     63  C   UNL A   1      46.235  32.565  28.101  1.00  0.00    -0.014 A 
ATOM     64  C   UNL A   1      46.132  33.481  27.038  1.00  0.00     0.010 A 
ATOM     65  C   UNL A   1      46.609  33.034  29.373  1.00  0.00     0.010 A 
ATOM     66  C   UNL A   1      46.444  34.829  27.232  1.00  0.00     0.020 A 
ATOM     67  C   UNL A   1      46.893  34.388  29.579  1.00  0.00     0.020 A 
ATOM     68  C   UNL A   1      46.826  35.273  28.501  1.00  0.00     0.054 A 
BRANCH  68  69
ATOM     69  S   UNL A   1      47.208  37.032  28.727  1.00  0.00     0.124 S 
ATOM     70  O   UNL A   1      46.553  37.633  27.569  1.00  0.00    -0.237 OA
ATOM     71  O   UNL A   1      46.595  37.330  30.019  1.00  0.00    -0.237 OA
ATOM     72  O   UNL A   1      48.669  37.076  28.709  1.00  0.00    -0.744 OA
ENDBRANCH  68  69
ENDBRANCH  49  63
BRANCH  50  73
ATOM     73  C   UNL A   1      43.609  23.015  26.760  1.00  0.00    -0.014 A 
ATOM     74  C   UNL A   1      43.918  22.369  25.550  1.00  0.00     0.010 A 
ATOM     75  C   UNL A   1      42.933  22.297  27.764  1.00  0.00     0.010 A 
ATOM     76  C   UNL A   1      43.540  21.039  25.339  1.00  0.00     0.020 A 
ATOM     77  C   UNL A   1      42.579  20.960  27.568  1.00  0.00     0.020 A 
ATOM     78  C   UNL A   1      42.872  20.342  26.351  1.00  0.00     0.054 A 
BRANCH  78  79
ATOM     79  S   UNL A   1      42.431  18.605  26.073  1.00  0.00     0.124 S 
ATOM     80  O   UNL A   1      42.714  18.008  27.374  1.00  0.00    -0.237 OA
ATOM     81  O   UNL A   1      41.020  18.692  25.708  1.00  0.00    -0.237 OA
ATOM     82  O   UNL A   1      43.322  18.196  24.989  1.00  0.00    -0.744 OA
ENDBRANCH  78  79
ENDBRANCH  50  73
BRANCH  62  83
ATOM     83  C   UNL A   1      49.621  26.496  26.145  1.00  0.00    -0.014 A 
ATOM     84  C   UNL A   1      50.153  26.727  24.865  1.00  0.00     0.010 A 
ATOM     85  C   UNL A   1      50.431  25.897  27.127  1.00  0.00     0.010 A 
ATOM     86  C   UNL A   1      51.461  26.336  24.563  1.00  0.00     0.020 A 
ATOM     87  C   UNL A   1      51.748  25.530  26.838  1.00  0.00     0.020 A 
ATOM     88  C   UNL A   1      52.250  25.740  25.552  1.00  0.00     0.054 A 
BRANCH  88  89
ATOM     89  S   UNL A   1      53.958  25.282  25.150  1.00  0.00     0.124 S 
ATOM     90  O   UNL A   1      53.854  23.834  24.985  1.00  0.00    -0.237 OA
ATOM     91  O   UNL A   1      54.212  26.037  23.924  1.00  0.00    -0.237 OA
ATOM     92  O   UNL A   1      54.720  25.723  26.315  1.00  0.00    -0.744 OA
ENDBRANCH  88  89
ENDBRANCH  62  83
ENDBRANCH  36  37
ENDBRANCH  28  31
ENDBRANCH  26  27
ENDBRANCH   1  26
TORSDOF 17
ENDMDL
MODEL 3
REMARK VINA RESULT:     -11.0      1.628      2.654
REMARK SMILES C[N@H+]1CCO[C@@H](COc2ccc(C(=O)NCCCNC(=O)c3ccc(-c4c5nc(c(-c6ccc(S(=O)(=O)[O-])cc6)c6ccc([nH]6)c(-c6ccc(S(=O)(=O)[O-])cc6)c6nc(c(-c7ccc(S(=O)(=O)[O-])cc7)c7ccc4[nH]7)C=C6)C=C5)cc3)cc2N)C1
REMARK SMILES IDX 17 1 16 2 15 3 13 4 14 5 12 7 9 8 10 9 83 10 11 11 82 12
REMARK SMILES IDX 8 13 7 14 6 15 1 16 2 17 3 18 85 19 4 21 5 22 84 23 18 26
REMARK SMILES IDX 19 27 20 28 21 30 22 31 23 32 81 33 24 34 80 35 25 36 26 37
REMARK SMILES IDX 27 38 74 39 28 40 79 41 73 42 75 43 29 44 78 45 72 46 71 47
REMARK SMILES IDX 30 49 60 50 41 51 59 52 42 53 45 54 58 55 76 56 43 57 44 58
REMARK SMILES IDX 57 60 77 61 46 62 31 63 32 64 40 65 33 66 39 67 34 68 35 69
REMARK SMILES IDX 36 70 37 71 38 72 61 73 62 74 70 75 63 76 69 77 64 78 65 79
REMARK SMILES IDX 66 80 67 81 68 82 47 83 48 84 56 85 49 86 55 87 50 88 51 89
REMARK SMILES IDX 52 90 53 91 54 92
REMARK H PARENT 15 6 2 20 84 24 84 25 19 29 75 48 45 59
REMARK Flexibility Score: inf
ROOT
ATOM      1  C   UNL A   1      33.203  27.832  25.750  1.00  0.00     0.042 C 
ENDROOT
BRANCH   1   2
ATOM      2  C   UNL A   1      33.389  28.940  24.715  1.00  0.00     0.118 C 
BRANCH   2   3
ATOM      3  N   UNL A   1      32.120  29.488  24.250  1.00  0.00    -0.352 N 
ATOM      4  C   UNL A   1      30.985  28.858  23.802  1.00  0.00     0.251 C 
ATOM      5  O   UNL A   1      29.951  29.516  23.658  1.00  0.00    -0.269 OA
ATOM      6  H   UNL A   1      32.069  30.472  24.260  1.00  0.00     0.163 HD
BRANCH   4   7
ATOM      7  C   UNL A   1      30.951  27.399  23.546  1.00  0.00     0.042 A 
ATOM      8  C   UNL A   1      31.055  24.637  23.279  1.00  0.00     0.142 A 
ATOM      9  C   UNL A   1      30.282  25.196  24.297  1.00  0.00     0.049 A 
ATOM     10  C   UNL A   1      31.637  25.439  22.284  1.00  0.00     0.075 A 
ATOM     11  C   UNL A   1      30.232  26.585  24.430  1.00  0.00     0.018 A 
ATOM     12  C   UNL A   1      31.596  26.824  22.446  1.00  0.00     0.043 A 
BRANCH   8  13
ATOM     13  O   UNL A   1      31.253  23.281  23.214  1.00  0.00    -0.488 OA
BRANCH  13  14
ATOM     14  C   UNL A   1      32.320  22.839  24.079  1.00  0.00     0.267 C 
BRANCH  14  15
ATOM     15  C   UNL A   1      31.857  21.906  25.223  1.00  0.00     0.210 C 
ATOM     16  C   UNL A   1      35.039  21.178  25.275  1.00  0.00     0.332 C 
ATOM     17  N   UNL A   1      33.953  20.673  26.104  1.00  0.00    -0.333 N 
ATOM     18  C   UNL A   1      33.775  21.452  27.339  1.00  0.00     0.290 C 
ATOM     19  C   UNL A   1      32.655  20.588  25.409  1.00  0.00     0.298 C 
ATOM     20  H   UNL A   1      34.250  19.726  26.338  1.00  0.00     0.348 HD
ATOM     21  C   UNL A   1      33.052  22.790  27.115  1.00  0.00     0.222 C 
ATOM     22  O   UNL A   1      31.782  22.623  26.479  1.00  0.00    -0.363 OA
ENDBRANCH  14  15
ENDBRANCH  13  14
ENDBRANCH   8  13
BRANCH  10  23
ATOM     23  N   UNL A   1      32.441  24.880  21.292  1.00  0.00    -0.396 N 
ATOM     24  H   UNL A   1      32.366  23.921  21.081  1.00  0.00     0.156 HD
ATOM     25  H   UNL A   1      33.083  25.443  20.803  1.00  0.00     0.156 HD
ENDBRANCH  10  23
ENDBRANCH   4   7
ENDBRANCH   2   3
ENDBRANCH   1   2
BRANCH   1  26
ATOM     26  C   UNL A   1      33.537  28.242  27.180  1.00  0.00     0.118 C 
BRANCH  26  27
ATOM     27  N   UNL A   1      33.455  29.680  27.384  1.00  0.00    -0.352 N 
ATOM     28  C   UNL A   1      34.360  30.545  27.947  1.00  0.00     0.251 C 
ATOM     29  H   UNL A   1      32.621  30.097  27.070  1.00  0.00     0.163 HD
ATOM     30  O   UNL A   1      34.006  31.704  28.187  1.00  0.00    -0.269 OA
BRANCH  28  31
ATOM     31  C   UNL A   1      35.737  30.115  28.286  1.00  0.00     0.039 A 
ATOM     32  C   UNL A   1      36.705  30.098  27.277  1.00  0.00     0.014 A 
ATOM     33  C   UNL A   1      36.074  29.682  29.571  1.00  0.00     0.014 A 
ATOM     34  C   UNL A   1      38.014  29.701  27.566  1.00  0.00     0.010 A 
ATOM     35  C   UNL A   1      37.398  29.362  29.877  1.00  0.00     0.010 A 
ATOM     36  C   UNL A   1      38.380  29.357  28.877  1.00  0.00    -0.014 A 
BRANCH  36  37
ATOM     37  C   UNL A   1      39.778  28.973  29.217  1.00  0.00     0.031 A 
ATOM     38  C   UNL A   1      40.691  29.960  29.896  1.00  0.00     0.074 A 
ATOM     39  C   UNL A   1      40.244  27.757  28.867  1.00  0.00     0.049 A 
ATOM     40  N   UNL A   1      41.957  29.835  30.208  1.00  0.00    -0.248 NA
ATOM     41  C   UNL A   1      40.112  31.266  30.253  1.00  0.00     0.031 C 
ATOM     42  C   UNL A   1      39.472  26.717  28.181  1.00  0.00     0.029 A 
ATOM     43  N   UNL A   1      41.483  27.191  29.035  1.00  0.00    -0.354 N 
ATOM     44  C   UNL A   1      42.329  31.048  30.779  1.00  0.00     0.074 A 
ATOM     45  C   UNL A   1      41.169  31.912  30.726  1.00  0.00     0.031 C 
ATOM     46  C   UNL A   1      40.248  25.634  28.012  1.00  0.00     0.029 A 
ATOM     47  C   UNL A   1      41.581  25.913  28.535  1.00  0.00     0.049 A 
ATOM     48  H   UNL A   1      42.234  27.657  29.472  1.00  0.00     0.167 HD
ATOM     49  C   UNL A   1      43.519  31.405  31.319  1.00  0.00     0.031 A 
ATOM     50  C   UNL A   1      42.626  25.063  28.494  1.00  0.00     0.031 A 
ATOM     51  C   UNL A   1      44.670  30.543  31.381  1.00  0.00     0.049 A 
ATOM     52  C   UNL A   1      43.944  25.489  29.081  1.00  0.00     0.074 A 
ATOM     53  C   UNL A   1      45.909  30.799  31.943  1.00  0.00     0.029 A 
ATOM     54  N   UNL A   1      44.722  29.255  30.868  1.00  0.00    -0.354 N 
ATOM     55  N   UNL A   1      44.261  26.625  29.658  1.00  0.00    -0.248 NA
ATOM     56  C   UNL A   1      45.043  24.516  29.022  1.00  0.00     0.031 C 
ATOM     57  C   UNL A   1      46.725  29.684  31.728  1.00  0.00     0.029 A 
ATOM     58  C   UNL A   1      45.977  28.710  31.085  1.00  0.00     0.049 A 
ATOM     59  H   UNL A   1      43.977  28.796  30.416  1.00  0.00     0.167 HD
ATOM     60  C   UNL A   1      45.586  26.488  30.060  1.00  0.00     0.074 A 
ATOM     61  C   UNL A   1      46.005  25.158  29.670  1.00  0.00     0.031 C 
ATOM     62  C   UNL A   1      46.380  27.383  30.697  1.00  0.00     0.031 A 
BRANCH  49  63
ATOM     63  C   UNL A   1      43.637  32.798  31.884  1.00  0.00    -0.014 A 
ATOM     64  C   UNL A   1      43.423  33.045  33.253  1.00  0.00     0.010 A 
ATOM     65  C   UNL A   1      44.004  33.867  31.047  1.00  0.00     0.010 A 
ATOM     66  C   UNL A   1      43.527  34.341  33.764  1.00  0.00     0.020 A 
ATOM     67  C   UNL A   1      44.140  35.161  31.560  1.00  0.00     0.020 A 
ATOM     68  C   UNL A   1      43.881  35.392  32.913  1.00  0.00     0.054 A 
BRANCH  68  69
ATOM     69  S   UNL A   1      44.026  37.061  33.608  1.00  0.00     0.124 S 
ATOM     70  O   UNL A   1      44.510  37.824  32.461  1.00  0.00    -0.237 OA
ATOM     71  O   UNL A   1      42.658  37.354  34.025  1.00  0.00    -0.237 OA
ATOM     72  O   UNL A   1      44.986  36.901  34.699  1.00  0.00    -0.744 OA
ENDBRANCH  68  69
ENDBRANCH  49  63
BRANCH  50  73
ATOM     73  C   UNL A   1      42.465  23.712  27.888  1.00  0.00    -0.014 A 
ATOM     74  C   UNL A   1      41.940  22.650  28.645  1.00  0.00     0.010 A 
ATOM     75  C   UNL A   1      42.835  23.480  26.550  1.00  0.00     0.010 A 
ATOM     76  C   UNL A   1      41.806  21.377  28.083  1.00  0.00     0.020 A 
ATOM     77  C   UNL A   1      42.676  22.216  25.977  1.00  0.00     0.020 A 
ATOM     78  C   UNL A   1      42.176  21.168  26.751  1.00  0.00     0.054 A 
BRANCH  78  79
ATOM     79  S   UNL A   1      41.952  19.519  26.029  1.00  0.00     0.124 S 
ATOM     80  O   UNL A   1      42.338  18.648  27.136  1.00  0.00    -0.237 OA
ATOM     81  O   UNL A   1      40.534  19.514  25.684  1.00  0.00    -0.237 OA
ATOM     82  O   UNL A   1      42.863  19.521  24.886  1.00  0.00    -0.744 OA
ENDBRANCH  78  79
ENDBRANCH  50  73
BRANCH  62  83
ATOM     83  C   UNL A   1      47.774  26.940  31.057  1.00  0.00    -0.014 A 
ATOM     84  C   UNL A   1      48.041  26.275  32.266  1.00  0.00     0.010 A 
ATOM     85  C   UNL A   1      48.821  27.145  30.140  1.00  0.00     0.010 A 
ATOM     86  C   UNL A   1      49.339  25.852  32.567  1.00  0.00     0.020 A 
ATOM     87  C   UNL A   1      50.115  26.698  30.424  1.00  0.00     0.020 A 
ATOM     88  C   UNL A   1      50.369  26.067  31.643  1.00  0.00     0.054 A 
BRANCH  88  89
ATOM     89  S   UNL A   1      52.035  25.470  32.036  1.00  0.00     0.124 S 
ATOM     90  O   UNL A   1      52.323  26.173  33.283  1.00  0.00    -0.237 OA
ATOM     91  O   UNL A   1      51.838  24.027  32.159  1.00  0.00    -0.237 OA
ATOM     92  O   UNL A   1      52.834  25.887  30.886  1.00  0.00    -0.744 OA
ENDBRANCH  88  89
ENDBRANCH  62  83
ENDBRANCH  36  37
ENDBRANCH  28  31
ENDBRANCH  26  27
ENDBRANCH   1  26
TORSDOF 17
ENDMDL
