MODEL 1
REMARK VINA RESULT:     -11.7      0.000      0.000
REMARK SMILES NC(=O)c1ccc(Oc2cccc(C(=O)NCCCNC(=O)c3ccc(-c4c5nc(c(-c6ccc(S(=O)(=O)[O-])cc6)c6ccc([nH]6)c(-c6ccc(S(=O)(=O)[O-])cc6)c6nc(c(-c7ccc(S(=O)(=O)[O-])cc7)c7ccc4[nH]7)C=C6)C=C5)cc3)c2)nc1
REMARK SMILES IDX 18 1 17 2 16 3 14 4 15 5 13 7 9 8 10 9 83 10 11 11 12 12
REMARK SMILES IDX 8 13 7 14 4 15 5 16 85 17 6 18 84 19 2 20 1 21 3 24 19 25
REMARK SMILES IDX 20 26 21 27 22 29 23 30 24 31 82 32 25 33 81 34 26 35 27 36
REMARK SMILES IDX 28 37 75 38 29 39 80 40 74 41 76 42 30 43 79 44 73 45 72 46
REMARK SMILES IDX 31 48 61 49 42 50 60 51 43 52 46 53 59 54 77 55 44 56 45 57
REMARK SMILES IDX 58 59 78 60 47 61 32 62 33 63 41 64 34 65 40 66 35 67 36 68
REMARK SMILES IDX 37 69 38 70 39 71 62 72 63 73 71 74 64 75 70 76 65 77 66 78
REMARK SMILES IDX 67 79 68 80 69 81 48 82 49 83 57 84 50 85 56 86 51 87 52 88
REMARK SMILES IDX 53 89 54 90 55 91
REMARK H PARENT 16 6 1 22 1 23 20 28 76 47 46 58
REMARK Flexibility Score: inf
ROOT
ATOM      1  C   UNL A   1      38.485  19.581  25.033  1.00  0.00     0.042 C 
ENDROOT
BRANCH   1   2
ATOM      2  C   UNL A   1      37.165  20.349  24.983  1.00  0.00     0.118 C 
BRANCH   2   3
ATOM      3  N   UNL A   1      37.364  21.754  25.295  1.00  0.00    -0.352 N 
ATOM      4  C   UNL A   1      36.506  22.811  25.466  1.00  0.00     0.251 C 
ATOM      5  O   UNL A   1      37.008  23.897  25.759  1.00  0.00    -0.269 OA
ATOM      6  H   UNL A   1      38.311  21.999  25.407  1.00  0.00     0.163 HD
BRANCH   4   7
ATOM      7  C   UNL A   1      35.022  22.698  25.396  1.00  0.00     0.043 A 
ATOM      8  C   UNL A   1      32.944  21.723  24.633  1.00  0.00     0.130 A 
ATOM      9  C   UNL A   1      32.219  22.479  25.550  1.00  0.00     0.047 A 
ATOM     10  C   UNL A   1      34.324  21.898  24.493  1.00  0.00     0.061 A 
ATOM     11  C   UNL A   1      32.891  23.361  26.389  1.00  0.00     0.005 A 
ATOM     12  C   UNL A   1      34.283  23.451  26.329  1.00  0.00     0.014 A 
BRANCH   8  13
ATOM     13  O   UNL A   1      32.258  20.817  23.861  1.00  0.00    -0.439 OA
BRANCH  13  14
ATOM     14  C   UNL A   1      32.475  19.470  24.091  1.00  0.00     0.219 A 
ATOM     15  C   UNL A   1      32.937  16.838  24.785  1.00  0.00     0.058 A 
ATOM     16  C   UNL A   1      33.082  17.228  23.455  1.00  0.00     0.021 A 
ATOM     17  C   UNL A   1      32.546  17.803  25.701  1.00  0.00     0.129 A 
ATOM     18  C   UNL A   1      32.867  18.564  23.106  1.00  0.00     0.070 A 
ATOM     19  N   UNL A   1      32.324  19.106  25.382  1.00  0.00    -0.221 NA
BRANCH  15  20
ATOM     20  C   UNL A   1      33.179  15.458  25.261  1.00  0.00     0.250 C 
ATOM     21  N   UNL A   1      32.082  14.694  25.560  1.00  0.00    -0.366 N 
ATOM     22  H   UNL A   1      32.198  13.770  25.878  1.00  0.00     0.159 HD
ATOM     23  H   UNL A   1      31.178  15.069  25.454  1.00  0.00     0.159 HD
ATOM     24  O   UNL A   1      34.304  15.000  25.351  1.00  0.00    -0.269 OA
ENDBRANCH  15  20
ENDBRANCH  13  14
ENDBRANCH   8  13
ENDBRANCH   4   7
ENDBRANCH   2   3
ENDBRANCH   1   2
BRANCH   1  25
ATOM     25  C   UNL A   1      39.471  20.156  26.048  1.00  0.00     0.118 C 
BRANCH  25  26
ATOM     26  N   UNL A   1      40.655  19.319  26.184  1.00  0.00    -0.352 N 
ATOM     27  C   UNL A   1      41.983  19.665  26.233  1.00  0.00     0.251 C 
ATOM     28  H   UNL A   1      40.475  18.354  26.252  1.00  0.00     0.163 HD
ATOM     29  O   UNL A   1      42.834  18.791  26.095  1.00  0.00    -0.269 OA
BRANCH  27  30
ATOM     30  C   UNL A   1      42.390  21.071  26.448  1.00  0.00     0.039 A 
ATOM     31  C   UNL A   1      42.618  21.515  27.753  1.00  0.00     0.014 A 
ATOM     32  C   UNL A   1      42.496  21.962  25.377  1.00  0.00     0.014 A 
ATOM     33  C   UNL A   1      43.006  22.839  27.978  1.00  0.00     0.010 A 
ATOM     34  C   UNL A   1      42.950  23.260  25.595  1.00  0.00     0.010 A 
ATOM     35  C   UNL A   1      43.206  23.714  26.899  1.00  0.00    -0.014 A 
BRANCH  35  36
ATOM     36  C   UNL A   1      43.694  25.101  27.110  1.00  0.00     0.031 A 
ATOM     37  C   UNL A   1      45.138  25.446  26.864  1.00  0.00     0.074 A 
ATOM     38  C   UNL A   1      42.847  26.034  27.587  1.00  0.00     0.049 A 
ATOM     39  N   UNL A   1      45.758  26.582  27.057  1.00  0.00    -0.248 NA
ATOM     40  C   UNL A   1      46.005  24.369  26.361  1.00  0.00     0.031 C 
ATOM     41  C   UNL A   1      41.433  25.812  27.904  1.00  0.00     0.029 A 
ATOM     42  N   UNL A   1      43.051  27.355  27.899  1.00  0.00    -0.354 N 
ATOM     43  C   UNL A   1      47.086  26.354  26.715  1.00  0.00     0.074 A 
ATOM     44  C   UNL A   1      47.192  24.957  26.348  1.00  0.00     0.031 C 
ATOM     45  C   UNL A   1      40.894  26.961  28.343  1.00  0.00     0.029 A 
ATOM     46  C   UNL A   1      41.930  27.988  28.381  1.00  0.00     0.049 A 
ATOM     47  H   UNL A   1      43.919  27.807  27.789  1.00  0.00     0.167 HD
ATOM     48  C   UNL A   1      48.120  27.229  26.692  1.00  0.00     0.031 A 
ATOM     49  C   UNL A   1      41.753  29.251  28.815  1.00  0.00     0.031 A 
ATOM     50  C   UNL A   1      48.007  28.618  27.051  1.00  0.00     0.049 A 
ATOM     51  C   UNL A   1      42.918  30.203  28.788  1.00  0.00     0.074 A 
ATOM     52  C   UNL A   1      48.982  29.600  27.010  1.00  0.00     0.029 A 
ATOM     53  N   UNL A   1      46.850  29.224  27.520  1.00  0.00    -0.354 N 
ATOM     54  N   UNL A   1      44.151  29.982  28.398  1.00  0.00    -0.248 NA
ATOM     55  C   UNL A   1      42.665  31.575  29.245  1.00  0.00     0.031 C 
ATOM     56  C   UNL A   1      48.428  30.786  27.503  1.00  0.00     0.029 A 
ATOM     57  C   UNL A   1      47.093  30.559  27.795  1.00  0.00     0.049 A 
ATOM     58  H   UNL A   1      45.984  28.771  27.640  1.00  0.00     0.167 HD
ATOM     59  C   UNL A   1      44.816  31.195  28.543  1.00  0.00     0.074 A 
ATOM     60  C   UNL A   1      43.842  32.148  29.037  1.00  0.00     0.031 C 
ATOM     61  C   UNL A   1      46.114  31.494  28.290  1.00  0.00     0.031 A 
BRANCH  48  62
ATOM     62  C   UNL A   1      49.468  26.706  26.266  1.00  0.00    -0.014 A 
ATOM     63  C   UNL A   1      49.963  26.943  24.971  1.00  0.00     0.010 A 
ATOM     64  C   UNL A   1      50.270  26.002  27.184  1.00  0.00     0.010 A 
ATOM     65  C   UNL A   1      51.214  26.451  24.588  1.00  0.00     0.020 A 
ATOM     66  C   UNL A   1      51.534  25.533  26.815  1.00  0.00     0.020 A 
ATOM     67  C   UNL A   1      51.990  25.746  25.512  1.00  0.00     0.054 A 
BRANCH  67  68
ATOM     68  S   UNL A   1      53.619  25.136  24.993  1.00  0.00     0.124 S 
ATOM     69  O   UNL A   1      54.510  25.842  25.911  1.00  0.00    -0.237 OA
ATOM     70  O   UNL A   1      53.505  23.697  25.211  1.00  0.00    -0.237 OA
ATOM     71  O   UNL A   1      53.715  25.546  23.594  1.00  0.00    -0.744 OA
ENDBRANCH  67  68
ENDBRANCH  48  62
BRANCH  49  72
ATOM     72  C   UNL A   1      40.417  29.689  29.305  1.00  0.00    -0.014 A 
ATOM     73  C   UNL A   1      40.155  29.775  30.682  1.00  0.00     0.010 A 
ATOM     74  C   UNL A   1      39.405  30.040  28.392  1.00  0.00     0.010 A 
ATOM     75  C   UNL A   1      38.898  30.183  31.140  1.00  0.00     0.020 A 
ATOM     76  C   UNL A   1      38.157  30.477  28.845  1.00  0.00     0.020 A 
ATOM     77  C   UNL A   1      37.907  30.533  30.218  1.00  0.00     0.054 A 
BRANCH  77  78
ATOM     78  S   UNL A   1      36.299  31.104  30.835  1.00  0.00     0.124 S 
ATOM     79  O   UNL A   1      36.644  32.387  31.438  1.00  0.00    -0.237 OA
ATOM     80  O   UNL A   1      35.499  31.173  29.614  1.00  0.00    -0.237 OA
ATOM     81  O   UNL A   1      35.902  30.056  31.772  1.00  0.00    -0.744 OA
ENDBRANCH  77  78
ENDBRANCH  49  72
BRANCH  61  82
ATOM     82  C   UNL A   1      46.553  32.916  28.517  1.00  0.00    -0.014 A 
ATOM     83  C   UNL A   1      47.101  33.323  29.745  1.00  0.00     0.010 A 
ATOM     84  C   UNL A   1      46.461  33.845  27.464  1.00  0.00     0.010 A 
ATOM     85  C   UNL A   1      47.522  34.643  29.927  1.00  0.00     0.020 A 
ATOM     86  C   UNL A   1      46.907  35.159  27.633  1.00  0.00     0.020 A 
ATOM     87  C   UNL A   1      47.422  35.553  28.870  1.00  0.00     0.054 A 
BRANCH  87  88
ATOM     88  S   UNL A   1      48.016  37.249  29.118  1.00  0.00     0.124 S 
ATOM     89  O   UNL A   1      47.569  37.909  27.895  1.00  0.00    -0.237 OA
ATOM     90  O   UNL A   1      47.324  37.654  30.339  1.00  0.00    -0.237 OA
ATOM     91  O   UNL A   1      49.463  37.094  29.251  1.00  0.00    -0.744 OA
ENDBRANCH  87  88
ENDBRANCH  61  82
ENDBRANCH  35  36
ENDBRANCH  27  30
ENDBRANCH  25  26
ENDBRANCH   1  25
TORSDOF 16
ENDMDL
MODEL 2
REMARK VINA RESULT:     -11.6      0.547      8.237
REMARK SMILES NC(=O)c1ccc(Oc2cccc(C(=O)NCCCNC(=O)c3ccc(-c4c5nc(c(-c6ccc(S(=O)(=O)[O-])cc6)c6ccc([nH]6)c(-c6ccc(S(=O)(=O)[O-])cc6)c6nc(c(-c7ccc(S(=O)(=O)[O-])cc7)c7ccc4[nH]7)C=C6)C=C5)cc3)c2)nc1
REMARK SMILES IDX 18 1 17 2 16 3 14 4 15 5 13 7 9 8 10 9 83 10 11 11 12 12
REMARK SMILES IDX 8 13 7 14 4 15 5 16 85 17 6 18 84 19 2 20 1 21 3 24 19 25
REMARK SMILES IDX 20 26 21 27 22 29 23 30 24 31 82 32 25 33 81 34 26 35 27 36
REMARK SMILES IDX 28 37 75 38 29 39 80 40 74 41 76 42 30 43 79 44 73 45 72 46
REMARK SMILES IDX 31 48 61 49 42 50 60 51 43 52 46 53 59 54 77 55 44 56 45 57
REMARK SMILES IDX 58 59 78 60 47 61 32 62 33 63 41 64 34 65 40 66 35 67 36 68
REMARK SMILES IDX 37 69 38 70 39 71 62 72 63 73 71 74 64 75 70 76 65 77 66 78
REMARK SMILES IDX 67 79 68 80 69 81 48 82 49 83 57 84 50 85 56 86 51 87 52 88
REMARK SMILES IDX 53 89 54 90 55 91
REMARK H PARENT 16 6 1 22 1 23 20 28 76 47 46 58
REMARK Flexibility Score: inf
ROOT
ATOM      1  C   UNL A   1      38.610  19.594  24.997  1.00  0.00     0.042 C 
ENDROOT
BRANCH   1   2
ATOM      2  C   UNL A   1      37.270  20.324  25.083  1.00  0.00     0.118 C 
BRANCH   2   3
ATOM      3  N   UNL A   1      37.457  21.764  25.088  1.00  0.00    -0.352 N 
ATOM      4  C   UNL A   1      36.588  22.826  25.109  1.00  0.00     0.251 C 
ATOM      5  O   UNL A   1      37.083  23.954  25.135  1.00  0.00    -0.269 OA
ATOM      6  H   UNL A   1      38.403  22.036  25.071  1.00  0.00     0.163 HD
BRANCH   4   7
ATOM      7  C   UNL A   1      35.106  22.688  25.184  1.00  0.00     0.043 A 
ATOM      8  C   UNL A   1      32.979  21.685  24.615  1.00  0.00     0.130 A 
ATOM      9  C   UNL A   1      32.336  22.417  25.608  1.00  0.00     0.047 A 
ATOM     10  C   UNL A   1      34.337  21.886  24.342  1.00  0.00     0.061 A 
ATOM     11  C   UNL A   1      33.072  23.302  26.389  1.00  0.00     0.005 A 
ATOM     12  C   UNL A   1      34.450  23.417  26.194  1.00  0.00     0.014 A 
BRANCH   8  13
ATOM     13  O   UNL A   1      32.236  20.775  23.902  1.00  0.00    -0.439 OA
BRANCH  13  14
ATOM     14  C   UNL A   1      32.482  19.429  24.110  1.00  0.00     0.219 A 
ATOM     15  C   UNL A   1      32.990  16.795  24.760  1.00  0.00     0.058 A 
ATOM     16  C   UNL A   1      33.175  17.220  23.445  1.00  0.00     0.021 A 
ATOM     17  C   UNL A   1      32.538  17.727  25.682  1.00  0.00     0.129 A 
ATOM     18  C   UNL A   1      32.935  18.558  23.119  1.00  0.00     0.070 A 
ATOM     19  N   UNL A   1      32.293  19.030  25.384  1.00  0.00    -0.221 NA
BRANCH  15  20
ATOM     20  C   UNL A   1      33.252  15.410  25.212  1.00  0.00     0.250 C 
ATOM     21  N   UNL A   1      32.167  14.635  25.524  1.00  0.00    -0.366 N 
ATOM     22  H   UNL A   1      32.296  13.708  25.828  1.00  0.00     0.159 HD
ATOM     23  H   UNL A   1      31.258  15.004  25.443  1.00  0.00     0.159 HD
ATOM     24  O   UNL A   1      34.382  14.960  25.272  1.00  0.00    -0.269 OA
ENDBRANCH  15  20
ENDBRANCH  13  14
ENDBRANCH   8  13
ENDBRANCH   4   7
ENDBRANCH   2   3
ENDBRANCH   1   2
BRANCH   1  25
ATOM     25  C   UNL A   1      39.587  20.012  26.094  1.00  0.00     0.118 C 
BRANCH  25  26
ATOM     26  N   UNL A   1      40.744  19.129  26.150  1.00  0.00    -0.352 N 
ATOM     27  C   UNL A   1      42.084  19.426  26.171  1.00  0.00     0.251 C 
ATOM     28  H   UNL A   1      40.532  18.168  26.178  1.00  0.00     0.163 HD
ATOM     29  O   UNL A   1      42.899  18.531  25.964  1.00  0.00    -0.269 OA
BRANCH  27  30
ATOM     30  C   UNL A   1      42.548  20.804  26.440  1.00  0.00     0.039 A 
ATOM     31  C   UNL A   1      42.665  21.231  27.765  1.00  0.00     0.014 A 
ATOM     32  C   UNL A   1      42.818  21.691  25.394  1.00  0.00     0.014 A 
ATOM     33  C   UNL A   1      43.104  22.529  28.041  1.00  0.00     0.010 A 
ATOM     34  C   UNL A   1      43.322  22.959  25.670  1.00  0.00     0.010 A 
ATOM     35  C   UNL A   1      43.466  23.394  26.996  1.00  0.00    -0.014 A 
BRANCH  35  36
ATOM     36  C   UNL A   1      44.010  24.749  27.269  1.00  0.00     0.031 A 
ATOM     37  C   UNL A   1      43.099  25.859  27.718  1.00  0.00     0.074 A 
ATOM     38  C   UNL A   1      45.317  24.994  27.046  1.00  0.00     0.049 A 
ATOM     39  N   UNL A   1      43.381  27.118  27.939  1.00  0.00    -0.248 NA
ATOM     40  C   UNL A   1      41.682  25.518  27.921  1.00  0.00     0.031 C 
ATOM     41  C   UNL A   1      46.294  24.011  26.570  1.00  0.00     0.029 A 
ATOM     42  N   UNL A   1      46.048  26.147  27.181  1.00  0.00    -0.354 N 
ATOM     43  C   UNL A   1      42.178  27.721  28.291  1.00  0.00     0.074 A 
ATOM     44  C   UNL A   1      41.155  26.700  28.208  1.00  0.00     0.031 C 
ATOM     45  C   UNL A   1      47.498  24.596  26.475  1.00  0.00     0.029 A 
ATOM     46  C   UNL A   1      47.372  26.004  26.840  1.00  0.00     0.049 A 
ATOM     47  H   UNL A   1      45.661  26.998  27.493  1.00  0.00     0.167 HD
ATOM     48  C   UNL A   1      41.948  29.002  28.666  1.00  0.00     0.031 A 
ATOM     49  C   UNL A   1      48.374  26.904  26.812  1.00  0.00     0.031 A 
ATOM     50  C   UNL A   1      42.971  30.011  28.754  1.00  0.00     0.049 A 
ATOM     51  C   UNL A   1      48.093  28.323  27.225  1.00  0.00     0.074 A 
ATOM     52  C   UNL A   1      42.851  31.324  29.175  1.00  0.00     0.029 A 
ATOM     53  N   UNL A   1      44.302  29.822  28.413  1.00  0.00    -0.354 N 
ATOM     54  N   UNL A   1      46.960  28.857  27.617  1.00  0.00    -0.248 NA
ATOM     55  C   UNL A   1      49.226  29.257  27.203  1.00  0.00     0.031 C 
ATOM     56  C   UNL A   1      44.098  31.943  29.039  1.00  0.00     0.029 A 
ATOM     57  C   UNL A   1      45.009  30.999  28.591  1.00  0.00     0.049 A 
ATOM     58  H   UNL A   1      44.688  28.975  28.092  1.00  0.00     0.167 HD
ATOM     59  C   UNL A   1      47.250  30.185  27.911  1.00  0.00     0.074 A 
ATOM     60  C   UNL A   1      48.667  30.366  27.669  1.00  0.00     0.031 C 
ATOM     61  C   UNL A   1      46.419  31.165  28.342  1.00  0.00     0.031 A 
BRANCH  48  62
ATOM     62  C   UNL A   1      40.531  29.386  29.006  1.00  0.00    -0.014 A 
ATOM     63  C   UNL A   1      39.585  29.644  27.997  1.00  0.00     0.010 A 
ATOM     64  C   UNL A   1      40.126  29.452  30.353  1.00  0.00     0.010 A 
ATOM     65  C   UNL A   1      38.275  30.001  28.326  1.00  0.00     0.020 A 
ATOM     66  C   UNL A   1      38.808  29.781  30.686  1.00  0.00     0.020 A 
ATOM     67  C   UNL A   1      37.896  30.070  29.669  1.00  0.00     0.054 A 
BRANCH  67  68
ATOM     68  S   UNL A   1      36.182  30.517  30.067  1.00  0.00     0.124 S 
ATOM     69  O   UNL A   1      35.441  29.839  29.005  1.00  0.00    -0.237 OA
ATOM     70  O   UNL A   1      36.009  29.962  31.406  1.00  0.00    -0.237 OA
ATOM     71  O   UNL A   1      36.178  31.976  29.995  1.00  0.00    -0.744 OA
ENDBRANCH  67  68
ENDBRANCH  48  62
BRANCH  49  72
ATOM     72  C   UNL A   1      49.737  26.486  26.386  1.00  0.00    -0.014 A 
ATOM     73  C   UNL A   1      50.613  25.868  27.295  1.00  0.00     0.010 A 
ATOM     74  C   UNL A   1      50.161  26.687  25.058  1.00  0.00     0.010 A 
ATOM     75  C   UNL A   1      51.894  25.479  26.893  1.00  0.00     0.020 A 
ATOM     76  C   UNL A   1      51.430  26.273  24.645  1.00  0.00     0.020 A 
ATOM     77  C   UNL A   1      52.294  25.683  25.568  1.00  0.00     0.054 A 
BRANCH  77  78
ATOM     78  S   UNL A   1      53.944  25.128  25.057  1.00  0.00     0.124 S 
ATOM     79  O   UNL A   1      54.770  25.555  26.182  1.00  0.00    -0.237 OA
ATOM     80  O   UNL A   1      53.762  23.685  24.917  1.00  0.00    -0.237 OA
ATOM     81  O   UNL A   1      54.171  25.844  23.804  1.00  0.00    -0.744 OA
ENDBRANCH  77  78
ENDBRANCH  49  72
BRANCH  61  82
ATOM     82  C   UNL A   1      47.024  32.518  28.607  1.00  0.00    -0.014 A 
ATOM     83  C   UNL A   1      47.587  32.833  29.856  1.00  0.00     0.010 A 
ATOM     84  C   UNL A   1      47.076  33.468  27.571  1.00  0.00     0.010 A 
ATOM     85  C   UNL A   1      48.163  34.088  30.074  1.00  0.00     0.020 A 
ATOM     86  C   UNL A   1      47.676  34.713  27.776  1.00  0.00     0.020 A 
ATOM     87  C   UNL A   1      48.204  35.020  29.033  1.00  0.00     0.054 A 
BRANCH  87  88
ATOM     88  S   UNL A   1      48.995  36.625  29.328  1.00  0.00     0.124 S 
ATOM     89  O   UNL A   1      48.823  36.788  30.768  1.00  0.00    -0.237 OA
ATOM     90  O   UNL A   1      50.367  36.392  28.882  1.00  0.00    -0.237 OA
ATOM     91  O   UNL A   1      48.225  37.549  28.499  1.00  0.00    -0.744 OA
ENDBRANCH  87  88
ENDBRANCH  61  82
ENDBRANCH  35  36
ENDBRANCH  27  30
ENDBRANCH  25  26
ENDBRANCH   1  25
TORSDOF 16
ENDMDL
MODEL 3
REMARK VINA RESULT:     -11.6      5.489      7.497
REMARK SMILES NC(=O)c1ccc(Oc2cccc(C(=O)NCCCNC(=O)c3ccc(-c4c5nc(c(-c6ccc(S(=O)(=O)[O-])cc6)c6ccc([nH]6)c(-c6ccc(S(=O)(=O)[O-])cc6)c6nc(c(-c7ccc(S(=O)(=O)[O-])cc7)c7ccc4[nH]7)C=C6)C=C5)cc3)c2)nc1
REMARK SMILES IDX 18 1 17 2 16 3 14 4 15 5 13 7 9 8 10 9 83 10 11 11 12 12
REMARK SMILES IDX 8 13 7 14 4 15 5 16 85 17 6 18 84 19 2 20 1 21 3 24 19 25
REMARK SMILES IDX 20 26 21 27 22 29 23 30 24 31 82 32 25 33 81 34 26 35 27 36
REMARK SMILES IDX 28 37 75 38 29 39 80 40 74 41 76 42 30 43 79 44 73 45 72 46
REMARK SMILES IDX 31 48 61 49 42 50 60 51 43 52 46 53 59 54 77 55 44 56 45 57
REMARK SMILES IDX 58 59 78 60 47 61 32 62 33 63 41 64 34 65 40 66 35 67 36 68
REMARK SMILES IDX 37 69 38 70 39 71 62 72 63 73 71 74 64 75 70 76 65 77 66 78
REMARK SMILES IDX 67 79 68 80 69 81 48 82 49 83 57 84 50 85 56 86 51 87 52 88
REMARK SMILES IDX 53 89 54 90 55 91
REMARK H PARENT 16 6 1 22 1 23 20 28 76 47 46 58
REMARK Flexibility Score: inf
ROOT
ATOM      1  C   UNL A   1      35.255  23.560  25.898  1.00  0.00     0.042 C 
ENDROOT
BRANCH   1   2
ATOM      2  C   UNL A   1      34.132  24.430  25.334  1.00  0.00     0.118 C 
BRANCH   2   3
ATOM      3  N   UNL A   1      34.027  24.282  23.893  1.00  0.00    -0.352 N 
ATOM      4  C   UNL A   1      33.563  25.099  22.895  1.00  0.00     0.251 C 
ATOM      5  O   UNL A   1      33.641  24.674  21.741  1.00  0.00    -0.269 OA
ATOM      6  H   UNL A   1      34.357  23.415  23.564  1.00  0.00     0.163 HD
BRANCH   4   7
ATOM      7  C   UNL A   1      33.052  26.481  23.119  1.00  0.00     0.043 A 
ATOM      8  C   UNL A   1      31.346  28.118  23.633  1.00  0.00     0.130 A 
ATOM      9  C   UNL A   1      32.301  29.125  23.731  1.00  0.00     0.047 A 
ATOM     10  C   UNL A   1      31.707  26.825  23.239  1.00  0.00     0.061 A 
ATOM     11  C   UNL A   1      33.640  28.820  23.510  1.00  0.00     0.005 A 
ATOM     12  C   UNL A   1      34.014  27.503  23.231  1.00  0.00     0.014 A 
BRANCH   8  13
ATOM     13  O   UNL A   1      30.041  28.439  23.916  1.00  0.00    -0.439 OA
BRANCH  13  14
ATOM     14  C   UNL A   1      29.478  29.518  23.256  1.00  0.00     0.219 A 
ATOM     15  C   UNL A   1      28.419  31.562  21.732  1.00  0.00     0.058 A 
ATOM     16  C   UNL A   1      28.706  31.792  23.076  1.00  0.00     0.021 A 
ATOM     17  C   UNL A   1      28.668  30.294  21.227  1.00  0.00     0.129 A 
ATOM     18  C   UNL A   1      29.259  30.764  23.844  1.00  0.00     0.070 A 
ATOM     19  N   UNL A   1      29.199  29.278  21.958  1.00  0.00    -0.221 NA
BRANCH  15  20
ATOM     20  C   UNL A   1      27.868  32.595  20.828  1.00  0.00     0.250 C 
ATOM     21  N   UNL A   1      27.636  32.235  19.527  1.00  0.00    -0.366 N 
ATOM     22  H   UNL A   1      27.269  32.892  18.893  1.00  0.00     0.159 HD
ATOM     23  H   UNL A   1      27.836  31.319  19.227  1.00  0.00     0.159 HD
ATOM     24  O   UNL A   1      27.594  33.713  21.226  1.00  0.00    -0.269 OA
ENDBRANCH  15  20
ENDBRANCH  13  14
ENDBRANCH   8  13
ENDBRANCH   4   7
ENDBRANCH   2   3
ENDBRANCH   1   2
BRANCH   1  25
ATOM     25  C   UNL A   1      36.630  23.928  25.342  1.00  0.00     0.118 C 
BRANCH  25  26
ATOM     26  N   UNL A   1      37.622  22.902  25.634  1.00  0.00    -0.352 N 
ATOM     27  C   UNL A   1      38.873  23.013  26.187  1.00  0.00     0.251 C 
ATOM     28  H   UNL A   1      37.352  21.984  25.399  1.00  0.00     0.163 HD
ATOM     29  O   UNL A   1      39.646  22.061  26.114  1.00  0.00    -0.269 OA
BRANCH  27  30
ATOM     30  C   UNL A   1      39.293  24.260  26.862  1.00  0.00     0.039 A 
ATOM     31  C   UNL A   1      38.867  24.495  28.172  1.00  0.00     0.014 A 
ATOM     32  C   UNL A   1      40.060  25.218  26.194  1.00  0.00     0.014 A 
ATOM     33  C   UNL A   1      39.254  25.665  28.829  1.00  0.00     0.010 A 
ATOM     34  C   UNL A   1      40.504  26.350  26.873  1.00  0.00     0.010 A 
ATOM     35  C   UNL A   1      40.102  26.589  28.196  1.00  0.00    -0.014 A 
BRANCH  35  36
ATOM     36  C   UNL A   1      40.590  27.800  28.904  1.00  0.00     0.031 A 
ATOM     37  C   UNL A   1      41.965  27.824  29.513  1.00  0.00     0.074 A 
ATOM     38  C   UNL A   1      39.764  28.855  29.054  1.00  0.00     0.049 A 
ATOM     39  N   UNL A   1      42.536  28.764  30.223  1.00  0.00    -0.248 NA
ATOM     40  C   UNL A   1      42.800  26.627  29.323  1.00  0.00     0.031 C 
ATOM     41  C   UNL A   1      38.392  28.936  28.545  1.00  0.00     0.029 A 
ATOM     42  N   UNL A   1      39.953  30.058  29.687  1.00  0.00    -0.354 N 
ATOM     43  C   UNL A   1      43.786  28.268  30.576  1.00  0.00     0.074 A 
ATOM     44  C   UNL A   1      43.872  26.925  30.043  1.00  0.00     0.031 C 
ATOM     45  C   UNL A   1      37.874  30.132  28.866  1.00  0.00     0.029 A 
ATOM     46  C   UNL A   1      38.856  30.885  29.639  1.00  0.00     0.049 A 
ATOM     47  H   UNL A   1      40.795  30.306  30.133  1.00  0.00     0.167 HD
ATOM     48  C   UNL A   1      44.779  28.879  31.266  1.00  0.00     0.031 A 
ATOM     49  C   UNL A   1      38.656  32.109  30.165  1.00  0.00     0.031 A 
ATOM     50  C   UNL A   1      44.690  30.218  31.788  1.00  0.00     0.049 A 
ATOM     51  C   UNL A   1      39.770  32.765  30.934  1.00  0.00     0.074 A 
ATOM     52  C   UNL A   1      45.659  30.948  32.454  1.00  0.00     0.029 A 
ATOM     53  N   UNL A   1      43.566  31.028  31.706  1.00  0.00    -0.354 N 
ATOM     54  N   UNL A   1      40.969  32.303  31.201  1.00  0.00    -0.248 NA
ATOM     55  C   UNL A   1      39.508  34.110  31.462  1.00  0.00     0.031 C 
ATOM     56  C   UNL A   1      45.104  32.179  32.820  1.00  0.00     0.029 A 
ATOM     57  C   UNL A   1      43.809  32.240  32.329  1.00  0.00     0.049 A 
ATOM     58  H   UNL A   1      42.721  30.777  31.268  1.00  0.00     0.167 HD
ATOM     59  C   UNL A   1      41.613  33.311  31.909  1.00  0.00     0.074 A 
ATOM     60  C   UNL A   1      40.677  34.413  32.012  1.00  0.00     0.031 C 
ATOM     61  C   UNL A   1      42.866  33.325  32.426  1.00  0.00     0.031 A 
BRANCH  48  62
ATOM     62  C   UNL A   1      46.048  28.102  31.500  1.00  0.00    -0.014 A 
ATOM     63  C   UNL A   1      46.227  27.336  32.666  1.00  0.00     0.010 A 
ATOM     64  C   UNL A   1      47.062  28.102  30.523  1.00  0.00     0.010 A 
ATOM     65  C   UNL A   1      47.410  26.621  32.872  1.00  0.00     0.020 A 
ATOM     66  C   UNL A   1      48.235  27.365  30.711  1.00  0.00     0.020 A 
ATOM     67  C   UNL A   1      48.408  26.643  31.893  1.00  0.00     0.054 A 
BRANCH  67  68
ATOM     68  S   UNL A   1      49.925  25.689  32.178  1.00  0.00     0.124 S 
ATOM     69  O   UNL A   1      49.416  24.519  32.891  1.00  0.00    -0.237 OA
ATOM     70  O   UNL A   1      50.405  25.438  30.822  1.00  0.00    -0.237 OA
ATOM     71  O   UNL A   1      50.758  26.588  32.973  1.00  0.00    -0.744 OA
ENDBRANCH  67  68
ENDBRANCH  48  62
BRANCH  49  72
ATOM     72  C   UNL A   1      37.349  32.796  29.973  1.00  0.00    -0.014 A 
ATOM     73  C   UNL A   1      37.127  33.609  28.849  1.00  0.00     0.010 A 
ATOM     74  C   UNL A   1      36.311  32.623  30.908  1.00  0.00     0.010 A 
ATOM     75  C   UNL A   1      35.900  34.256  28.673  1.00  0.00     0.020 A 
ATOM     76  C   UNL A   1      35.073  33.243  30.720  1.00  0.00     0.020 A 
ATOM     77  C   UNL A   1      34.879  34.067  29.610  1.00  0.00     0.054 A 
BRANCH  77  78
ATOM     78  S   UNL A   1      33.279  34.878  29.337  1.00  0.00     0.124 S 
ATOM     79  O   UNL A   1      32.583  33.903  28.504  1.00  0.00    -0.237 OA
ATOM     80  O   UNL A   1      32.767  35.031  30.696  1.00  0.00    -0.237 OA
ATOM     81  O   UNL A   1      33.640  36.128  28.671  1.00  0.00    -0.744 OA
ENDBRANCH  77  78
ENDBRANCH  49  72
BRANCH  61  82
ATOM     82  C   UNL A   1      43.310  34.580  33.130  1.00  0.00    -0.014 A 
ATOM     83  C   UNL A   1      43.899  35.643  32.423  1.00  0.00     0.010 A 
ATOM     84  C   UNL A   1      43.085  34.716  34.512  1.00  0.00     0.010 A 
ATOM     85  C   UNL A   1      44.285  36.808  33.092  1.00  0.00     0.020 A 
ATOM     86  C   UNL A   1      43.443  35.890  35.179  1.00  0.00     0.020 A 
ATOM     87  C   UNL A   1      44.054  36.924  34.466  1.00  0.00     0.054 A 
BRANCH  87  88
ATOM     88  S   UNL A   1      44.524  38.463  35.303  1.00  0.00     0.124 S 
ATOM     89  O   UNL A   1      44.094  38.206  36.675  1.00  0.00    -0.237 OA
ATOM     90  O   UNL A   1      45.969  38.512  35.096  1.00  0.00    -0.237 OA
ATOM     91  O   UNL A   1      43.763  39.489  34.593  1.00  0.00    -0.744 OA
ENDBRANCH  87  88
ENDBRANCH  61  82
ENDBRANCH  35  36
ENDBRANCH  27  30
ENDBRANCH  25  26
ENDBRANCH   1  25
TORSDOF 16
ENDMDL
