MODEL 1
REMARK VINA RESULT:     -11.7      0.000      0.000
REMARK SMILES Cc1cc(NC(=O)Nc2sc(C)c(C)c2C(=O)NCCCNC(=O)c2ccc(-c3c4nc(c(-c5ccc(S(=O)(=O)[O-])cc5)c5ccc([nH]5)c(-c5ccc(S(=O)(=O)[O-])cc5)c5nc(c(-c6ccc(S(=O)(=O)[O-])cc6)c6ccc3[nH]6)C=C5)C=C4)cc2)ccn1
REMARK SMILES IDX 20 1 19 2 18 3 16 4 17 5 15 7 9 8 10 9 11 10 13 11 12 12
REMARK SMILES IDX 14 13 8 14 5 15 6 16 7 18 4 20 1 21 2 22 3 23 87 24 86 25
REMARK SMILES IDX 85 26 21 27 22 28 23 29 24 31 25 32 26 33 84 34 27 35 83 36
REMARK SMILES IDX 28 37 29 38 30 39 77 40 31 41 82 42 76 43 78 44 32 45 81 46
REMARK SMILES IDX 75 47 74 48 33 50 63 51 44 52 62 53 45 54 48 55 61 56 79 57
REMARK SMILES IDX 46 58 47 59 60 61 80 62 49 63 34 64 35 65 43 66 36 67 42 68
REMARK SMILES IDX 37 69 38 70 39 71 40 72 41 73 64 74 65 75 73 76 66 77 72 78
REMARK SMILES IDX 67 79 68 80 69 81 70 82 71 83 50 84 51 85 59 86 52 87 58 88
REMARK SMILES IDX 53 89 54 90 55 91 56 92 57 93
REMARK H PARENT 18 6 5 17 8 19 22 30 78 49 48 60
REMARK Flexibility Score: inf
ROOT
ATOM      1  C   UNL A   1      33.598  27.834  25.793  1.00  0.00     0.042 C 
ENDROOT
BRANCH   1   2
ATOM      2  C   UNL A   1      34.043  26.401  25.596  1.00  0.00     0.118 C 
BRANCH   2   3
ATOM      3  N   UNL A   1      33.988  25.859  24.262  1.00  0.00    -0.352 N 
ATOM      4  C   UNL A   1      34.224  24.591  23.776  1.00  0.00     0.254 C 
ATOM      5  O   UNL A   1      34.008  24.466  22.566  1.00  0.00    -0.269 OA
ATOM      6  H   UNL A   1      33.735  26.514  23.571  1.00  0.00     0.163 HD
BRANCH   4   7
ATOM      7  C   UNL A   1      34.758  23.449  24.563  1.00  0.00     0.077 A 
ATOM      8  C   UNL A   1      34.371  22.941  25.796  1.00  0.00     0.110 A 
ATOM      9  S   UNL A   1      35.162  21.500  26.233  1.00  0.00    -0.122 S 
ATOM     10  C   UNL A   1      36.325  21.703  25.014  1.00  0.00     0.007 A 
ATOM     11  C   UNL A   1      35.983  22.728  24.142  1.00  0.00    -0.022 A 
ATOM     12  C   UNL A   1      37.528  20.821  25.017  1.00  0.00     0.057 C 
ATOM     13  C   UNL A   1      36.819  23.119  22.957  1.00  0.00     0.046 C 
BRANCH   8  14
ATOM     14  N   UNL A   1      33.387  23.305  26.672  1.00  0.00    -0.298 N 
ATOM     15  N   UNL A   1      31.432  22.380  25.600  1.00  0.00    -0.308 N 
ATOM     16  C   UNL A   1      32.049  23.100  26.568  1.00  0.00     0.324 C 
ATOM     17  H   UNL A   1      30.461  22.541  25.587  1.00  0.00     0.171 HD
ATOM     18  O   UNL A   1      31.333  23.603  27.441  1.00  0.00    -0.248 OA
ATOM     19  H   UNL A   1      33.686  23.778  27.483  1.00  0.00     0.172 HD
BRANCH  15  20
ATOM     20  C   UNL A   1      31.822  21.459  24.606  1.00  0.00     0.046 A 
ATOM     21  C   UNL A   1      32.645  17.771  24.539  1.00  0.00     0.067 C 
ATOM     22  C   UNL A   1      32.405  19.182  24.096  1.00  0.00     0.039 A 
ATOM     23  C   UNL A   1      32.151  20.175  25.039  1.00  0.00     0.049 A 
ATOM     24  N   UNL A   1      32.378  19.414  22.765  1.00  0.00    -0.261 NA
ATOM     25  C   UNL A   1      32.157  20.685  22.374  1.00  0.00     0.113 A 
ATOM     26  C   UNL A   1      31.915  21.733  23.250  1.00  0.00     0.046 A 
ENDBRANCH  15  20
ENDBRANCH   8  14
ENDBRANCH   4   7
ENDBRANCH   2   3
ENDBRANCH   1   2
BRANCH   1  27
ATOM     27  C   UNL A   1      33.275  28.250  27.209  1.00  0.00     0.118 C 
BRANCH  27  28
ATOM     28  N   UNL A   1      33.271  29.690  27.421  1.00  0.00    -0.352 N 
ATOM     29  C   UNL A   1      34.234  30.548  27.897  1.00  0.00     0.251 C 
ATOM     30  H   UNL A   1      32.424  30.130  27.177  1.00  0.00     0.163 HD
ATOM     31  O   UNL A   1      33.930  31.730  28.074  1.00  0.00    -0.269 OA
BRANCH  29  32
ATOM     32  C   UNL A   1      35.603  30.086  28.234  1.00  0.00     0.039 A 
ATOM     33  C   UNL A   1      36.583  30.095  27.235  1.00  0.00     0.014 A 
ATOM     34  C   UNL A   1      35.937  29.618  29.504  1.00  0.00     0.014 A 
ATOM     35  C   UNL A   1      37.892  29.701  27.534  1.00  0.00     0.010 A 
ATOM     36  C   UNL A   1      37.265  29.371  29.837  1.00  0.00     0.010 A 
ATOM     37  C   UNL A   1      38.257  29.376  28.852  1.00  0.00    -0.014 A 
BRANCH  37  38
ATOM     38  C   UNL A   1      39.654  29.002  29.200  1.00  0.00     0.031 A 
ATOM     39  C   UNL A   1      40.538  29.962  29.960  1.00  0.00     0.074 A 
ATOM     40  C   UNL A   1      40.143  27.808  28.805  1.00  0.00     0.049 A 
ATOM     41  N   UNL A   1      41.769  29.799  30.374  1.00  0.00    -0.248 NA
ATOM     42  C   UNL A   1      39.979  31.290  30.267  1.00  0.00     0.031 C 
ATOM     43  C   UNL A   1      39.415  26.814  28.013  1.00  0.00     0.029 A 
ATOM     44  N   UNL A   1      41.364  27.221  29.031  1.00  0.00    -0.354 N 
ATOM     45  C   UNL A   1      42.130  31.001  30.974  1.00  0.00     0.074 A 
ATOM     46  C   UNL A   1      41.020  31.910  30.801  1.00  0.00     0.031 C 
ATOM     47  C   UNL A   1      40.177  25.717  27.874  1.00  0.00     0.029 A 
ATOM     48  C   UNL A   1      41.462  25.944  28.527  1.00  0.00     0.049 A 
ATOM     49  H   UNL A   1      42.099  27.669  29.507  1.00  0.00     0.167 HD
ATOM     50  C   UNL A   1      43.266  31.316  31.641  1.00  0.00     0.031 A 
ATOM     51  C   UNL A   1      42.466  25.048  28.596  1.00  0.00     0.031 A 
ATOM     52  C   UNL A   1      44.367  30.407  31.820  1.00  0.00     0.049 A 
ATOM     53  C   UNL A   1      43.719  25.414  29.344  1.00  0.00     0.074 A 
ATOM     54  C   UNL A   1      45.544  30.605  32.520  1.00  0.00     0.029 A 
ATOM     55  N   UNL A   1      44.424  29.125  31.292  1.00  0.00    -0.354 N 
ATOM     56  N   UNL A   1      44.012  26.532  29.965  1.00  0.00    -0.248 NA
ATOM     57  C   UNL A   1      44.767  24.389  29.416  1.00  0.00     0.031 C 
ATOM     58  C   UNL A   1      46.338  29.463  32.367  1.00  0.00     0.029 A 
ATOM     59  C   UNL A   1      45.626  28.527  31.632  1.00  0.00     0.049 A 
ATOM     60  H   UNL A   1      43.717  28.703  30.754  1.00  0.00     0.167 HD
ATOM     61  C   UNL A   1      45.265  26.332  30.533  1.00  0.00     0.074 A 
ATOM     62  C   UNL A   1      45.666  24.982  30.191  1.00  0.00     0.031 C 
ATOM     63  C   UNL A   1      46.013  27.184  31.277  1.00  0.00     0.031 A 
BRANCH  50  64
ATOM     64  C   UNL A   1      43.369  32.706  32.222  1.00  0.00    -0.014 A 
ATOM     65  C   UNL A   1      43.001  32.969  33.556  1.00  0.00     0.010 A 
ATOM     66  C   UNL A   1      43.849  33.763  31.429  1.00  0.00     0.010 A 
ATOM     67  C   UNL A   1      43.053  34.268  34.064  1.00  0.00     0.020 A 
ATOM     68  C   UNL A   1      43.937  35.060  31.945  1.00  0.00     0.020 A 
ATOM     69  C   UNL A   1      43.516  35.309  33.254  1.00  0.00     0.054 A 
BRANCH  69  70
ATOM     70  S   UNL A   1      43.572  36.986  33.941  1.00  0.00     0.124 S 
ATOM     71  O   UNL A   1      42.256  37.100  34.565  1.00  0.00    -0.237 OA
ATOM     72  O   UNL A   1      44.701  36.916  34.864  1.00  0.00    -0.237 OA
ATOM     73  O   UNL A   1      43.781  37.834  32.769  1.00  0.00    -0.744 OA
ENDBRANCH  69  70
ENDBRANCH  50  64
BRANCH  51  74
ATOM     74  C   UNL A   1      42.300  23.701  27.982  1.00  0.00    -0.014 A 
ATOM     75  C   UNL A   1      42.738  23.458  26.669  1.00  0.00     0.010 A 
ATOM     76  C   UNL A   1      41.736  22.645  28.720  1.00  0.00     0.010 A 
ATOM     77  C   UNL A   1      42.604  22.188  26.099  1.00  0.00     0.020 A 
ATOM     78  C   UNL A   1      41.627  21.366  28.164  1.00  0.00     0.020 A 
ATOM     79  C   UNL A   1      42.054  21.148  26.853  1.00  0.00     0.054 A 
BRANCH  79  80
ATOM     80  S   UNL A   1      41.949  19.493  26.116  1.00  0.00     0.124 S 
ATOM     81  O   UNL A   1      42.881  19.598  24.998  1.00  0.00    -0.237 OA
ATOM     82  O   UNL A   1      42.375  18.631  27.217  1.00  0.00    -0.237 OA
ATOM     83  O   UNL A   1      40.540  19.371  25.749  1.00  0.00    -0.744 OA
ENDBRANCH  79  80
ENDBRANCH  51  74
BRANCH  63  84
ATOM     84  C   UNL A   1      47.323  26.668  31.813  1.00  0.00    -0.014 A 
ATOM     85  C   UNL A   1      47.427  26.116  33.101  1.00  0.00     0.010 A 
ATOM     86  C   UNL A   1      48.464  26.705  30.989  1.00  0.00     0.010 A 
ATOM     87  C   UNL A   1      48.658  25.656  33.575  1.00  0.00     0.020 A 
ATOM     88  C   UNL A   1      49.690  26.214  31.446  1.00  0.00     0.020 A 
ATOM     89  C   UNL A   1      49.783  25.710  32.744  1.00  0.00     0.054 A 
BRANCH  89  90
ATOM     90  S   UNL A   1      51.364  25.085  33.374  1.00  0.00     0.124 S 
ATOM     91  O   UNL A   1      52.052  24.706  32.143  1.00  0.00    -0.237 OA
ATOM     92  O   UNL A   1      51.913  26.246  34.069  1.00  0.00    -0.237 OA
ATOM     93  O   UNL A   1      50.978  23.973  34.240  1.00  0.00    -0.744 OA
ENDBRANCH  89  90
ENDBRANCH  63  84
ENDBRANCH  37  38
ENDBRANCH  29  32
ENDBRANCH  27  28
ENDBRANCH   1  27
TORSDOF 15
ENDMDL
MODEL 2
REMARK VINA RESULT:     -11.3      2.677      9.318
REMARK SMILES Cc1cc(NC(=O)Nc2sc(C)c(C)c2C(=O)NCCCNC(=O)c2ccc(-c3c4nc(c(-c5ccc(S(=O)(=O)[O-])cc5)c5ccc([nH]5)c(-c5ccc(S(=O)(=O)[O-])cc5)c5nc(c(-c6ccc(S(=O)(=O)[O-])cc6)c6ccc3[nH]6)C=C5)C=C4)cc2)ccn1
REMARK SMILES IDX 20 1 19 2 18 3 16 4 17 5 15 7 9 8 10 9 11 10 13 11 12 12
REMARK SMILES IDX 14 13 8 14 5 15 6 16 7 18 4 20 1 21 2 22 3 23 87 24 86 25
REMARK SMILES IDX 85 26 21 27 22 28 23 29 24 31 25 32 26 33 84 34 27 35 83 36
REMARK SMILES IDX 28 37 29 38 30 39 77 40 31 41 82 42 76 43 78 44 32 45 81 46
REMARK SMILES IDX 75 47 74 48 33 50 63 51 44 52 62 53 45 54 48 55 61 56 79 57
REMARK SMILES IDX 46 58 47 59 60 61 80 62 49 63 34 64 35 65 43 66 36 67 42 68
REMARK SMILES IDX 37 69 38 70 39 71 40 72 41 73 64 74 65 75 73 76 66 77 72 78
REMARK SMILES IDX 67 79 68 80 69 81 70 82 71 83 50 84 51 85 59 86 52 87 58 88
REMARK SMILES IDX 53 89 54 90 55 91 56 92 57 93
REMARK H PARENT 18 6 5 17 8 19 22 30 78 49 48 60
REMARK Flexibility Score: inf
ROOT
ATOM      1  C   UNL A   1      36.587  23.303  23.626  1.00  0.00     0.042 C 
ENDROOT
BRANCH   1   2
ATOM      2  C   UNL A   1      35.093  23.457  23.439  1.00  0.00     0.118 C 
BRANCH   2   3
ATOM      3  N   UNL A   1      34.252  22.348  23.815  1.00  0.00    -0.352 N 
ATOM      4  C   UNL A   1      32.894  22.258  24.029  1.00  0.00     0.254 C 
ATOM      5  O   UNL A   1      32.496  21.114  24.272  1.00  0.00    -0.269 OA
ATOM      6  H   UNL A   1      34.737  21.501  23.943  1.00  0.00     0.163 HD
BRANCH   4   7
ATOM      7  C   UNL A   1      31.944  23.400  24.050  1.00  0.00     0.077 A 
ATOM      8  C   UNL A   1      31.661  24.359  23.085  1.00  0.00     0.110 A 
ATOM      9  S   UNL A   1      30.362  25.383  23.484  1.00  0.00    -0.122 S 
ATOM     10  C   UNL A   1      30.382  24.870  25.101  1.00  0.00     0.007 A 
ATOM     11  C   UNL A   1      31.209  23.770  25.282  1.00  0.00    -0.022 A 
ATOM     12  C   UNL A   1      29.568  25.621  26.100  1.00  0.00     0.057 C 
ATOM     13  C   UNL A   1      31.406  23.093  26.609  1.00  0.00     0.046 C 
BRANCH   8  14
ATOM     14  N   UNL A   1      32.141  24.560  21.821  1.00  0.00    -0.298 N 
ATOM     15  N   UNL A   1      33.098  26.767  22.024  1.00  0.00    -0.308 N 
ATOM     16  C   UNL A   1      32.748  25.665  21.317  1.00  0.00     0.324 C 
ATOM     17  H   UNL A   1      33.319  27.524  21.434  1.00  0.00     0.171 HD
ATOM     18  O   UNL A   1      33.016  25.658  20.110  1.00  0.00    -0.248 OA
ATOM     19  H   UNL A   1      32.032  23.808  21.195  1.00  0.00     0.172 HD
BRANCH  15  20
ATOM     20  C   UNL A   1      33.227  27.109  23.385  1.00  0.00     0.046 A 
ATOM     21  C   UNL A   1      31.698  29.716  25.655  1.00  0.00     0.067 C 
ATOM     22  C   UNL A   1      32.518  28.561  25.168  1.00  0.00     0.039 A 
ATOM     23  C   UNL A   1      32.548  28.251  23.810  1.00  0.00     0.049 A 
ATOM     24  N   UNL A   1      33.151  27.816  26.101  1.00  0.00    -0.261 NA
ATOM     25  C   UNL A   1      33.883  26.777  25.655  1.00  0.00     0.113 A 
ATOM     26  C   UNL A   1      33.979  26.414  24.320  1.00  0.00     0.046 A 
ENDBRANCH  15  20
ENDBRANCH   8  14
ENDBRANCH   4   7
ENDBRANCH   2   3
ENDBRANCH   1   2
BRANCH   1  27
ATOM     27  C   UNL A   1      37.122  23.561  25.016  1.00  0.00     0.118 C 
BRANCH  27  28
ATOM     28  N   UNL A   1      38.175  22.646  25.428  1.00  0.00    -0.352 N 
ATOM     29  C   UNL A   1      39.303  22.833  26.192  1.00  0.00     0.251 C 
ATOM     30  H   UNL A   1      38.058  21.725  25.100  1.00  0.00     0.163 HD
ATOM     31  O   UNL A   1      40.095  21.895  26.306  1.00  0.00    -0.269 OA
BRANCH  29  32
ATOM     32  C   UNL A   1      39.605  24.130  26.846  1.00  0.00     0.039 A 
ATOM     33  C   UNL A   1      39.141  24.355  28.146  1.00  0.00     0.014 A 
ATOM     34  C   UNL A   1      40.312  25.141  26.197  1.00  0.00     0.014 A 
ATOM     35  C   UNL A   1      39.443  25.554  28.801  1.00  0.00     0.010 A 
ATOM     36  C   UNL A   1      40.739  26.265  26.898  1.00  0.00     0.010 A 
ATOM     37  C   UNL A   1      40.284  26.505  28.198  1.00  0.00    -0.014 A 
BRANCH  37  38
ATOM     38  C   UNL A   1      40.659  27.764  28.897  1.00  0.00     0.031 A 
ATOM     39  C   UNL A   1      42.037  27.931  29.488  1.00  0.00     0.074 A 
ATOM     40  C   UNL A   1      39.746  28.749  29.030  1.00  0.00     0.049 A 
ATOM     41  N   UNL A   1      42.550  28.965  30.107  1.00  0.00    -0.248 NA
ATOM     42  C   UNL A   1      42.950  26.778  29.403  1.00  0.00     0.031 C 
ATOM     43  C   UNL A   1      38.360  28.690  28.559  1.00  0.00     0.029 A 
ATOM     44  N   UNL A   1      39.853  30.000  29.586  1.00  0.00    -0.354 N 
ATOM     45  C   UNL A   1      43.831  28.581  30.492  1.00  0.00     0.074 A 
ATOM     46  C   UNL A   1      43.989  27.196  30.109  1.00  0.00     0.031 C 
ATOM     47  C   UNL A   1      37.767  29.872  28.788  1.00  0.00     0.029 A 
ATOM     48  C   UNL A   1      38.712  30.758  29.459  1.00  0.00     0.049 A 
ATOM     49  H   UNL A   1      40.667  30.324  30.033  1.00  0.00     0.167 HD
ATOM     50  C   UNL A   1      44.804  29.318  31.079  1.00  0.00     0.031 A 
ATOM     51  C   UNL A   1      38.457  32.029  29.827  1.00  0.00     0.031 A 
ATOM     52  C   UNL A   1      44.647  30.698  31.451  1.00  0.00     0.049 A 
ATOM     53  C   UNL A   1      39.551  32.833  30.474  1.00  0.00     0.074 A 
ATOM     54  C   UNL A   1      45.583  31.553  32.006  1.00  0.00     0.029 A 
ATOM     55  N   UNL A   1      43.474  31.426  31.306  1.00  0.00    -0.354 N 
ATOM     56  N   UNL A   1      40.778  32.472  30.765  1.00  0.00    -0.248 NA
ATOM     57  C   UNL A   1      39.230  34.223  30.823  1.00  0.00     0.031 C 
ATOM     58  C   UNL A   1      44.958  32.782  32.250  1.00  0.00     0.029 A 
ATOM     59  C   UNL A   1      43.656  32.714  31.781  1.00  0.00     0.049 A 
ATOM     60  H   UNL A   1      42.637  31.078  30.923  1.00  0.00     0.167 HD
ATOM     61  C   UNL A   1      41.388  33.602  31.301  1.00  0.00     0.074 A 
ATOM     62  C   UNL A   1      40.397  34.659  31.280  1.00  0.00     0.031 C 
ATOM     63  C   UNL A   1      42.656  33.753  31.759  1.00  0.00     0.031 A 
BRANCH  50  64
ATOM     64  C   UNL A   1      46.122  28.635  31.354  1.00  0.00    -0.014 A 
ATOM     65  C   UNL A   1      47.190  28.714  30.439  1.00  0.00     0.010 A 
ATOM     66  C   UNL A   1      46.302  27.913  32.547  1.00  0.00     0.010 A 
ATOM     67  C   UNL A   1      48.386  28.035  30.682  1.00  0.00     0.020 A 
ATOM     68  C   UNL A   1      47.512  27.262  32.812  1.00  0.00     0.020 A 
ATOM     69  C   UNL A   1      48.538  27.308  31.866  1.00  0.00     0.054 A 
BRANCH  69  70
ATOM     70  S   UNL A   1      50.103  26.437  32.156  1.00  0.00     0.124 S 
ATOM     71  O   UNL A   1      50.452  26.888  33.501  1.00  0.00    -0.237 OA
ATOM     72  O   UNL A   1      49.713  25.034  32.046  1.00  0.00    -0.237 OA
ATOM     73  O   UNL A   1      50.974  26.925  31.090  1.00  0.00    -0.744 OA
ENDBRANCH  69  70
ENDBRANCH  50  64
BRANCH  51  74
ATOM     74  C   UNL A   1      37.125  32.631  29.540  1.00  0.00    -0.014 A 
ATOM     75  C   UNL A   1      36.123  32.646  30.525  1.00  0.00     0.010 A 
ATOM     76  C   UNL A   1      36.863  33.223  28.291  1.00  0.00     0.010 A 
ATOM     77  C   UNL A   1      34.879  33.231  30.265  1.00  0.00     0.020 A 
ATOM     78  C   UNL A   1      35.632  33.834  28.036  1.00  0.00     0.020 A 
ATOM     79  C   UNL A   1      34.644  33.827  29.023  1.00  0.00     0.054 A 
BRANCH  79  80
ATOM     80  S   UNL A   1      33.047  34.636  28.730  1.00  0.00     0.124 S 
ATOM     81  O   UNL A   1      32.481  34.689  30.074  1.00  0.00    -0.237 OA
ATOM     82  O   UNL A   1      33.445  35.921  28.159  1.00  0.00    -0.237 OA
ATOM     83  O   UNL A   1      32.371  33.733  27.801  1.00  0.00    -0.744 OA
ENDBRANCH  79  80
ENDBRANCH  51  74
BRANCH  63  84
ATOM     84  C   UNL A   1      43.060  35.124  32.236  1.00  0.00    -0.014 A 
ATOM     85  C   UNL A   1      42.825  35.544  33.557  1.00  0.00     0.010 A 
ATOM     86  C   UNL A   1      43.721  35.993  31.348  1.00  0.00     0.010 A 
ATOM     87  C   UNL A   1      43.200  36.826  33.967  1.00  0.00     0.020 A 
ATOM     88  C   UNL A   1      44.130  37.262  31.764  1.00  0.00     0.020 A 
ATOM     89  C   UNL A   1      43.849  37.678  33.066  1.00  0.00     0.054 A 
BRANCH  89  90
ATOM     90  S   UNL A   1      44.346  39.328  33.629  1.00  0.00     0.124 S 
ATOM     91  O   UNL A   1      45.005  39.030  34.898  1.00  0.00    -0.237 OA
ATOM     92  O   UNL A   1      45.226  39.781  32.555  1.00  0.00    -0.237 OA
ATOM     93  O   UNL A   1      43.082  40.053  33.738  1.00  0.00    -0.744 OA
ENDBRANCH  89  90
ENDBRANCH  63  84
ENDBRANCH  37  38
ENDBRANCH  29  32
ENDBRANCH  27  28
ENDBRANCH   1  27
TORSDOF 15
ENDMDL
MODEL 3
REMARK VINA RESULT:     -11.2      2.653      3.504
REMARK SMILES Cc1cc(NC(=O)Nc2sc(C)c(C)c2C(=O)NCCCNC(=O)c2ccc(-c3c4nc(c(-c5ccc(S(=O)(=O)[O-])cc5)c5ccc([nH]5)c(-c5ccc(S(=O)(=O)[O-])cc5)c5nc(c(-c6ccc(S(=O)(=O)[O-])cc6)c6ccc3[nH]6)C=C5)C=C4)cc2)ccn1
REMARK SMILES IDX 20 1 19 2 18 3 16 4 17 5 15 7 9 8 10 9 11 10 13 11 12 12
REMARK SMILES IDX 14 13 8 14 5 15 6 16 7 18 4 20 1 21 2 22 3 23 87 24 86 25
REMARK SMILES IDX 85 26 21 27 22 28 23 29 24 31 25 32 26 33 84 34 27 35 83 36
REMARK SMILES IDX 28 37 29 38 30 39 77 40 31 41 82 42 76 43 78 44 32 45 81 46
REMARK SMILES IDX 75 47 74 48 33 50 63 51 44 52 62 53 45 54 48 55 61 56 79 57
REMARK SMILES IDX 46 58 47 59 60 61 80 62 49 63 34 64 35 65 43 66 36 67 42 68
REMARK SMILES IDX 37 69 38 70 39 71 40 72 41 73 64 74 65 75 73 76 66 77 72 78
REMARK SMILES IDX 67 79 68 80 69 81 70 82 71 83 50 84 51 85 59 86 52 87 58 88
REMARK SMILES IDX 53 89 54 90 55 91 56 92 57 93
REMARK H PARENT 18 6 5 17 8 19 22 30 78 49 48 60
REMARK Flexibility Score: inf
ROOT
ATOM      1  C   UNL A   1      32.782  28.203  27.276  1.00  0.00     0.042 C 
ENDROOT
BRANCH   1   2
ATOM      2  C   UNL A   1      31.897  27.231  26.524  1.00  0.00     0.118 C 
BRANCH   2   3
ATOM      3  N   UNL A   1      31.266  27.696  25.315  1.00  0.00    -0.352 N 
ATOM      4  C   UNL A   1      30.910  27.042  24.156  1.00  0.00     0.254 C 
ATOM      5  O   UNL A   1      30.310  27.750  23.340  1.00  0.00    -0.269 OA
ATOM      6  H   UNL A   1      31.049  28.656  25.318  1.00  0.00     0.163 HD
BRANCH   4   7
ATOM      7  C   UNL A   1      31.245  25.634  23.820  1.00  0.00     0.077 A 
ATOM      8  C   UNL A   1      30.895  24.446  24.448  1.00  0.00     0.110 A 
ATOM      9  S   UNL A   1      31.367  23.047  23.602  1.00  0.00    -0.122 S 
ATOM     10  C   UNL A   1      32.394  23.939  22.589  1.00  0.00     0.007 A 
ATOM     11  C   UNL A   1      32.206  25.307  22.740  1.00  0.00    -0.022 A 
ATOM     12  C   UNL A   1      33.346  23.203  21.706  1.00  0.00     0.057 C 
ATOM     13  C   UNL A   1      32.968  26.337  21.956  1.00  0.00     0.046 C 
BRANCH   8  14
ATOM     14  N   UNL A   1      30.134  24.180  25.552  1.00  0.00    -0.298 N 
ATOM     15  N   UNL A   1      31.718  23.012  26.950  1.00  0.00    -0.308 N 
ATOM     16  C   UNL A   1      30.481  23.489  26.668  1.00  0.00     0.324 C 
ATOM     17  H   UNL A   1      31.700  22.362  27.690  1.00  0.00     0.171 HD
ATOM     18  O   UNL A   1      29.594  23.290  27.506  1.00  0.00    -0.248 OA
ATOM     19  H   UNL A   1      29.215  24.534  25.536  1.00  0.00     0.172 HD
BRANCH  15  20
ATOM     20  C   UNL A   1      33.025  23.206  26.458  1.00  0.00     0.046 A 
ATOM     21  C   UNL A   1      35.765  20.952  25.154  1.00  0.00     0.067 C 
ATOM     22  C   UNL A   1      35.007  22.179  25.561  1.00  0.00     0.039 A 
ATOM     23  C   UNL A   1      33.767  22.057  26.183  1.00  0.00     0.049 A 
ATOM     24  N   UNL A   1      35.546  23.374  25.235  1.00  0.00    -0.261 NA
ATOM     25  C   UNL A   1      34.857  24.472  25.601  1.00  0.00     0.113 A 
ATOM     26  C   UNL A   1      33.626  24.436  26.240  1.00  0.00     0.046 A 
ENDBRANCH  15  20
ENDBRANCH   8  14
ENDBRANCH   4   7
ENDBRANCH   2   3
ENDBRANCH   1   2
BRANCH   1  27
ATOM     27  C   UNL A   1      33.580  29.174  26.437  1.00  0.00     0.118 C 
BRANCH  27  28
ATOM     28  N   UNL A   1      33.436  30.565  26.837  1.00  0.00    -0.352 N 
ATOM     29  C   UNL A   1      34.198  31.366  27.655  1.00  0.00     0.251 C 
ATOM     30  H   UNL A   1      32.650  31.016  26.451  1.00  0.00     0.163 HD
ATOM     31  O   UNL A   1      33.788  32.501  27.911  1.00  0.00    -0.269 OA
BRANCH  29  32
ATOM     32  C   UNL A   1      35.467  30.893  28.260  1.00  0.00     0.039 A 
ATOM     33  C   UNL A   1      36.634  31.635  28.046  1.00  0.00     0.014 A 
ATOM     34  C   UNL A   1      35.540  29.720  29.010  1.00  0.00     0.014 A 
ATOM     35  C   UNL A   1      37.838  31.233  28.636  1.00  0.00     0.010 A 
ATOM     36  C   UNL A   1      36.698  29.406  29.715  1.00  0.00     0.010 A 
ATOM     37  C   UNL A   1      37.873  30.136  29.514  1.00  0.00    -0.014 A 
BRANCH  37  38
ATOM     38  C   UNL A   1      39.132  29.723  30.190  1.00  0.00     0.031 A 
ATOM     39  C   UNL A   1      39.567  30.387  31.473  1.00  0.00     0.074 A 
ATOM     40  C   UNL A   1      39.905  28.768  29.632  1.00  0.00     0.049 A 
ATOM     41  N   UNL A   1      40.616  30.140  32.216  1.00  0.00    -0.248 NA
ATOM     42  C   UNL A   1      38.734  31.495  31.972  1.00  0.00     0.031 C 
ATOM     43  C   UNL A   1      39.631  28.090  28.362  1.00  0.00     0.029 A 
ATOM     44  N   UNL A   1      41.071  28.191  30.069  1.00  0.00    -0.354 N 
ATOM     45  C   UNL A   1      40.574  31.066  33.254  1.00  0.00     0.074 A 
ATOM     46  C   UNL A   1      39.442  31.930  33.003  1.00  0.00     0.031 C 
ATOM     47  C   UNL A   1      40.564  27.146  28.157  1.00  0.00     0.029 A 
ATOM     48  C   UNL A   1      41.526  27.180  29.253  1.00  0.00     0.049 A 
ATOM     49  H   UNL A   1      41.538  28.472  30.888  1.00  0.00     0.167 HD
ATOM     50  C   UNL A   1      41.378  31.172  34.339  1.00  0.00     0.031 A 
ATOM     51  C   UNL A   1      42.588  26.362  29.379  1.00  0.00     0.031 A 
ATOM     52  C   UNL A   1      42.498  30.305  34.590  1.00  0.00     0.049 A 
ATOM     53  C   UNL A   1      43.469  26.491  30.591  1.00  0.00     0.074 A 
ATOM     54  C   UNL A   1      43.349  30.292  35.681  1.00  0.00     0.029 A 
ATOM     55  N   UNL A   1      42.923  29.297  33.737  1.00  0.00    -0.354 N 
ATOM     56  N   UNL A   1      43.369  27.328  31.597  1.00  0.00    -0.248 NA
ATOM     57  C   UNL A   1      44.592  25.552  30.695  1.00  0.00     0.031 C 
ATOM     58  C   UNL A   1      44.325  29.312  35.460  1.00  0.00     0.029 A 
ATOM     59  C   UNL A   1      44.038  28.669  34.266  1.00  0.00     0.049 A 
ATOM     60  H   UNL A   1      42.497  29.063  32.882  1.00  0.00     0.167 HD
ATOM     61  C   UNL A   1      44.397  26.992  32.471  1.00  0.00     0.074 A 
ATOM     62  C   UNL A   1      45.097  25.869  31.880  1.00  0.00     0.031 C 
ATOM     63  C   UNL A   1      44.727  27.556  33.660  1.00  0.00     0.031 A 
BRANCH  50  64
ATOM     64  C   UNL A   1      41.069  32.268  35.329  1.00  0.00    -0.014 A 
ATOM     65  C   UNL A   1      40.223  32.039  36.431  1.00  0.00     0.010 A 
ATOM     66  C   UNL A   1      41.639  33.543  35.163  1.00  0.00     0.010 A 
ATOM     67  C   UNL A   1      39.905  33.077  37.311  1.00  0.00     0.020 A 
ATOM     68  C   UNL A   1      41.352  34.576  36.062  1.00  0.00     0.020 A 
ATOM     69  C   UNL A   1      40.468  34.342  37.118  1.00  0.00     0.054 A 
BRANCH  69  70
ATOM     70  S   UNL A   1      40.038  35.670  38.276  1.00  0.00     0.124 S 
ATOM     71  O   UNL A   1      39.832  36.800  37.373  1.00  0.00    -0.237 OA
ATOM     72  O   UNL A   1      38.833  35.155  38.920  1.00  0.00    -0.237 OA
ATOM     73  O   UNL A   1      41.210  35.770  39.141  1.00  0.00    -0.744 OA
ENDBRANCH  69  70
ENDBRANCH  50  64
BRANCH  51  74
ATOM     74  C   UNL A   1      42.842  25.314  28.351  1.00  0.00    -0.014 A 
ATOM     75  C   UNL A   1      43.630  25.599  27.222  1.00  0.00     0.010 A 
ATOM     76  C   UNL A   1      42.326  24.016  28.513  1.00  0.00     0.010 A 
ATOM     77  C   UNL A   1      43.887  24.610  26.267  1.00  0.00     0.020 A 
ATOM     78  C   UNL A   1      42.606  23.015  27.576  1.00  0.00     0.020 A 
ATOM     79  C   UNL A   1      43.378  23.322  26.454  1.00  0.00     0.054 A 
BRANCH  79  80
ATOM     80  S   UNL A   1      43.779  22.038  25.236  1.00  0.00     0.124 S 
ATOM     81  O   UNL A   1      43.682  22.771  23.978  1.00  0.00    -0.237 OA
ATOM     82  O   UNL A   1      45.127  21.637  25.634  1.00  0.00    -0.237 OA
ATOM     83  O   UNL A   1      42.747  21.026  25.453  1.00  0.00    -0.744 OA
ENDBRANCH  79  80
ENDBRANCH  51  74
BRANCH  63  84
ATOM     84  C   UNL A   1      45.869  26.940  34.425  1.00  0.00    -0.014 A 
ATOM     85  C   UNL A   1      47.200  27.338  34.211  1.00  0.00     0.010 A 
ATOM     86  C   UNL A   1      45.595  25.965  35.403  1.00  0.00     0.010 A 
ATOM     87  C   UNL A   1      48.240  26.740  34.927  1.00  0.00     0.020 A 
ATOM     88  C   UNL A   1      46.628  25.390  36.147  1.00  0.00     0.020 A 
ATOM     89  C   UNL A   1      47.947  25.767  35.890  1.00  0.00     0.054 A 
BRANCH  89  90
ATOM     90  S   UNL A   1      49.312  25.022  36.821  1.00  0.00     0.124 S 
ATOM     91  O   UNL A   1      49.045  25.491  38.178  1.00  0.00    -0.237 OA
ATOM     92  O   UNL A   1      49.109  23.593  36.599  1.00  0.00    -0.237 OA
ATOM     93  O   UNL A   1      50.508  25.581  36.193  1.00  0.00    -0.744 OA
ENDBRANCH  89  90
ENDBRANCH  63  84
ENDBRANCH  37  38
ENDBRANCH  29  32
ENDBRANCH  27  28
ENDBRANCH   1  27
TORSDOF 15
ENDMDL
