MODEL 1
REMARK VINA RESULT:     -10.9      0.000      0.000
REMARK SMILES Cc1ccc(C(N)=O)c(NCc2ccc(C(=O)NCCCNC(=O)c3ccc(-c4c5nc(c(-c6ccc(S(=O)(=O)[O-])cc6)c6ccc([nH]6)c(-c6ccc(S(=O)(=O)[O-])cc6)c6nc(c(-c7ccc(S(=O)(=O)[O-])cc7)c7ccc4[nH]7)C=C6)C=C5)cc3)o2)n1
REMARK SMILES IDX 19 1 18 2 16 3 17 4 15 6 12 7 13 8 85 9 14 10 11 11 10 12
REMARK SMILES IDX 9 14 1 15 2 16 3 17 86 18 4 19 5 20 6 21 7 22 8 23 20 26
REMARK SMILES IDX 21 27 22 28 23 29 24 31 25 32 26 33 84 34 27 35 83 36 28 37
REMARK SMILES IDX 29 38 30 39 77 40 31 41 82 42 76 43 78 44 32 45 81 46 75 47
REMARK SMILES IDX 74 48 33 50 63 51 44 52 62 53 45 54 48 55 61 56 79 57 46 58
REMARK SMILES IDX 47 59 60 61 80 62 49 63 34 64 35 65 43 66 36 67 42 68 37 69
REMARK SMILES IDX 38 70 39 71 40 72 41 73 64 74 65 75 73 76 66 77 72 78 67 79
REMARK SMILES IDX 68 80 69 81 70 82 71 83 50 84 51 85 59 86 52 87 58 88 53 89
REMARK SMILES IDX 54 90 55 91 56 92 57 93
REMARK H PARENT 18 5 10 13 7 24 7 25 22 30 78 49 48 60
REMARK Flexibility Score: inf
ROOT
ATOM      1  C   UNL A   1      34.382  33.503  29.364  1.00  0.00     0.118 C 
ENDROOT
BRANCH   1   2
ATOM      2  N   UNL A   1      33.418  34.504  28.951  1.00  0.00    -0.349 N 
ATOM      3  C   UNL A   1      32.998  35.661  29.568  1.00  0.00     0.286 C 
ATOM      4  O   UNL A   1      32.257  36.383  28.897  1.00  0.00    -0.266 OA
ATOM      5  H   UNL A   1      32.991  34.325  28.081  1.00  0.00     0.163 HD
BRANCH   3   6
ATOM      6  C   UNL A   1      33.427  36.001  30.912  1.00  0.00     0.191 A 
ATOM      7  C   UNL A   1      34.427  35.522  32.831  1.00  0.00     0.124 A 
ATOM      8  C   UNL A   1      33.943  36.804  32.956  1.00  0.00     0.048 A 
ATOM      9  O   UNL A   1      34.114  35.029  31.602  1.00  0.00    -0.454 OA
ATOM     10  C   UNL A   1      33.345  37.126  31.714  1.00  0.00     0.056 A 
BRANCH   7  11
ATOM     11  C   UNL A   1      35.216  34.627  33.728  1.00  0.00     0.190 C 
BRANCH  11  12
ATOM     12  N   UNL A   1      35.638  33.394  33.081  1.00  0.00    -0.362 N 
ATOM     13  H   UNL A   1      34.989  32.663  32.964  1.00  0.00     0.162 HD
BRANCH  12  14
ATOM     14  C   UNL A   1      36.936  33.232  32.630  1.00  0.00     0.139 A 
ATOM     15  C   UNL A   1      38.793  34.334  29.642  1.00  0.00     0.067 C 
ATOM     16  C   UNL A   1      38.518  33.679  30.961  1.00  0.00     0.040 A 
ATOM     17  C   UNL A   1      39.518  33.014  31.652  1.00  0.00     0.024 A 
ATOM     18  N   UNL A   1      37.249  33.773  31.428  1.00  0.00    -0.236 NA
ATOM     19  C   UNL A   1      39.198  32.431  32.871  1.00  0.00     0.019 A 
ATOM     20  C   UNL A   1      37.893  32.527  33.372  1.00  0.00     0.081 A 
BRANCH  20  21
ATOM     21  C   UNL A   1      37.619  31.843  34.663  1.00  0.00     0.252 C 
ATOM     22  N   UNL A   1      38.022  30.545  34.799  1.00  0.00    -0.365 N 
ATOM     23  O   UNL A   1      37.083  32.433  35.593  1.00  0.00    -0.269 OA
ATOM     24  H   UNL A   1      38.451  30.080  34.044  1.00  0.00     0.159 HD
ATOM     25  H   UNL A   1      37.885  30.073  35.652  1.00  0.00     0.159 HD
ENDBRANCH  20  21
ENDBRANCH  12  14
ENDBRANCH  11  12
ENDBRANCH   7  11
ENDBRANCH   3   6
ENDBRANCH   1   2
BRANCH   1  26
ATOM     26  C   UNL A   1      35.235  33.018  28.194  1.00  0.00     0.042 C 
BRANCH  26  27
ATOM     27  C   UNL A   1      35.842  31.634  28.424  1.00  0.00     0.118 C 
BRANCH  27  28
ATOM     28  N   UNL A   1      35.685  31.194  29.805  1.00  0.00    -0.352 N 
ATOM     29  C   UNL A   1      36.490  30.400  30.584  1.00  0.00     0.251 C 
ATOM     30  H   UNL A   1      34.871  31.519  30.252  1.00  0.00     0.163 HD
ATOM     31  O   UNL A   1      36.049  29.961  31.643  1.00  0.00    -0.269 OA
BRANCH  29  32
ATOM     32  C   UNL A   1      37.869  30.069  30.162  1.00  0.00     0.039 A 
ATOM     33  C   UNL A   1      38.741  29.504  31.098  1.00  0.00     0.014 A 
ATOM     34  C   UNL A   1      38.323  30.363  28.874  1.00  0.00     0.014 A 
ATOM     35  C   UNL A   1      40.049  29.183  30.725  1.00  0.00     0.010 A 
ATOM     36  C   UNL A   1      39.604  29.980  28.484  1.00  0.00     0.010 A 
ATOM     37  C   UNL A   1      40.483  29.391  29.406  1.00  0.00    -0.014 A 
BRANCH  37  38
ATOM     38  C   UNL A   1      41.846  28.994  28.970  1.00  0.00     0.031 A 
ATOM     39  C   UNL A   1      42.951  30.014  28.907  1.00  0.00     0.074 A 
ATOM     40  C   UNL A   1      42.071  27.728  28.566  1.00  0.00     0.049 A 
ATOM     41  N   UNL A   1      44.182  29.871  28.485  1.00  0.00    -0.248 NA
ATOM     42  C   UNL A   1      42.625  31.380  29.351  1.00  0.00     0.031 C 
ATOM     43  C   UNL A   1      41.072  26.656  28.544  1.00  0.00     0.029 A 
ATOM     44  N   UNL A   1      43.209  27.130  28.086  1.00  0.00    -0.354 N 
ATOM     45  C   UNL A   1      44.768  31.127  28.591  1.00  0.00     0.074 A 
ATOM     46  C   UNL A   1      43.747  32.030  29.077  1.00  0.00     0.031 C 
ATOM     47  C   UNL A   1      41.647  25.529  28.094  1.00  0.00     0.029 A 
ATOM     48  C   UNL A   1      43.039  25.805  27.758  1.00  0.00     0.049 A 
ATOM     49  H   UNL A   1      44.066  27.604  27.985  1.00  0.00     0.167 HD
ATOM     50  C   UNL A   1      46.044  31.494  28.321  1.00  0.00     0.031 A 
ATOM     51  C   UNL A   1      43.903  24.913  27.235  1.00  0.00     0.031 A 
ATOM     52  C   UNL A   1      47.061  30.589  27.852  1.00  0.00     0.049 A 
ATOM     53  C   UNL A   1      45.315  25.345  26.943  1.00  0.00     0.074 A 
ATOM     54  C   UNL A   1      48.398  30.849  27.612  1.00  0.00     0.029 A 
ATOM     55  N   UNL A   1      46.853  29.251  27.550  1.00  0.00    -0.354 N 
ATOM     56  N   UNL A   1      45.867  26.521  27.115  1.00  0.00    -0.248 NA
ATOM     57  C   UNL A   1      46.221  24.324  26.398  1.00  0.00     0.031 C 
ATOM     58  C   UNL A   1      48.989  29.682  27.115  1.00  0.00     0.029 A 
ATOM     59  C   UNL A   1      48.031  28.680  27.102  1.00  0.00     0.049 A 
ATOM     60  H   UNL A   1      45.994  28.779  27.640  1.00  0.00     0.167 HD
ATOM     61  C   UNL A   1      47.194  26.375  26.725  1.00  0.00     0.074 A 
ATOM     62  C   UNL A   1      47.363  24.994  26.323  1.00  0.00     0.031 C 
ATOM     63  C   UNL A   1      48.183  27.303  26.704  1.00  0.00     0.031 A 
BRANCH  50  64
ATOM     64  C   UNL A   1      46.413  32.941  28.517  1.00  0.00    -0.014 A 
ATOM     65  C   UNL A   1      46.921  33.403  29.746  1.00  0.00     0.010 A 
ATOM     66  C   UNL A   1      46.293  33.844  27.446  1.00  0.00     0.010 A 
ATOM     67  C   UNL A   1      47.261  34.749  29.911  1.00  0.00     0.020 A 
ATOM     68  C   UNL A   1      46.660  35.185  27.598  1.00  0.00     0.020 A 
ATOM     69  C   UNL A   1      47.126  35.632  28.836  1.00  0.00     0.054 A 
BRANCH  69  70
ATOM     70  S   UNL A   1      47.597  37.367  29.072  1.00  0.00     0.124 S 
ATOM     71  O   UNL A   1      47.422  37.532  30.514  1.00  0.00    -0.237 OA
ATOM     72  O   UNL A   1      48.979  37.392  28.601  1.00  0.00    -0.237 OA
ATOM     73  O   UNL A   1      46.645  38.102  28.242  1.00  0.00    -0.744 OA
ENDBRANCH  69  70
ENDBRANCH  50  64
BRANCH  51  74
ATOM     74  C   UNL A   1      43.458  23.519  26.963  1.00  0.00    -0.014 A 
ATOM     75  C   UNL A   1      43.016  23.149  25.681  1.00  0.00     0.010 A 
ATOM     76  C   UNL A   1      43.487  22.550  27.983  1.00  0.00     0.010 A 
ATOM     77  C   UNL A   1      42.592  21.842  25.428  1.00  0.00     0.020 A 
ATOM     78  C   UNL A   1      43.089  21.235  27.726  1.00  0.00     0.020 A 
ATOM     79  C   UNL A   1      42.633  20.892  26.452  1.00  0.00     0.054 A 
BRANCH  79  80
ATOM     80  S   UNL A   1      42.125  19.188  26.089  1.00  0.00     0.124 S 
ATOM     81  O   UNL A   1      40.707  19.352  25.788  1.00  0.00    -0.237 OA
ATOM     82  O   UNL A   1      42.978  18.841  24.955  1.00  0.00    -0.237 OA
ATOM     83  O   UNL A   1      42.426  18.472  27.326  1.00  0.00    -0.744 OA
ENDBRANCH  79  80
ENDBRANCH  51  74
BRANCH  63  84
ATOM     84  C   UNL A   1      49.549  26.847  26.262  1.00  0.00    -0.014 A 
ATOM     85  C   UNL A   1      50.401  26.144  27.131  1.00  0.00     0.010 A 
ATOM     86  C   UNL A   1      49.960  27.079  24.936  1.00  0.00     0.010 A 
ATOM     87  C   UNL A   1      51.653  25.708  26.691  1.00  0.00     0.020 A 
ATOM     88  C   UNL A   1      51.199  26.621  24.485  1.00  0.00     0.020 A 
ATOM     89  C   UNL A   1      52.044  25.949  25.371  1.00  0.00     0.054 A 
BRANCH  89  90
ATOM     90  S   UNL A   1      53.656  25.334  24.811  1.00  0.00     0.124 S 
ATOM     91  O   UNL A   1      54.550  25.834  25.851  1.00  0.00    -0.237 OA
ATOM     92  O   UNL A   1      53.458  23.886  24.794  1.00  0.00    -0.237 OA
ATOM     93  O   UNL A   1      53.824  25.948  23.495  1.00  0.00    -0.744 OA
ENDBRANCH  89  90
ENDBRANCH  63  84
ENDBRANCH  37  38
ENDBRANCH  29  32
ENDBRANCH  27  28
ENDBRANCH  26  27
ENDBRANCH   1  26
TORSDOF 17
ENDMDL
MODEL 2
REMARK VINA RESULT:     -10.5      5.368      7.641
REMARK SMILES Cc1ccc(C(N)=O)c(NCc2ccc(C(=O)NCCCNC(=O)c3ccc(-c4c5nc(c(-c6ccc(S(=O)(=O)[O-])cc6)c6ccc([nH]6)c(-c6ccc(S(=O)(=O)[O-])cc6)c6nc(c(-c7ccc(S(=O)(=O)[O-])cc7)c7ccc4[nH]7)C=C6)C=C5)cc3)o2)n1
REMARK SMILES IDX 19 1 18 2 16 3 17 4 15 6 12 7 13 8 85 9 14 10 11 11 10 12
REMARK SMILES IDX 9 14 1 15 2 16 3 17 86 18 4 19 5 20 6 21 7 22 8 23 20 26
REMARK SMILES IDX 21 27 22 28 23 29 24 31 25 32 26 33 84 34 27 35 83 36 28 37
REMARK SMILES IDX 29 38 30 39 77 40 31 41 82 42 76 43 78 44 32 45 81 46 75 47
REMARK SMILES IDX 74 48 33 50 63 51 44 52 62 53 45 54 48 55 61 56 79 57 46 58
REMARK SMILES IDX 47 59 60 61 80 62 49 63 34 64 35 65 43 66 36 67 42 68 37 69
REMARK SMILES IDX 38 70 39 71 40 72 41 73 64 74 65 75 73 76 66 77 72 78 67 79
REMARK SMILES IDX 68 80 69 81 70 82 71 83 50 84 51 85 59 86 52 87 58 88 53 89
REMARK SMILES IDX 54 90 55 91 56 92 57 93
REMARK H PARENT 18 5 10 13 7 24 7 25 22 30 78 49 48 60
REMARK Flexibility Score: inf
ROOT
ATOM      1  C   UNL A   1      32.122  29.274  24.750  1.00  0.00     0.118 C 
ENDROOT
BRANCH   1   2
ATOM      2  N   UNL A   1      31.442  29.024  23.494  1.00  0.00    -0.349 N 
ATOM      3  C   UNL A   1      30.772  27.913  23.037  1.00  0.00     0.286 C 
ATOM      4  O   UNL A   1      30.177  28.053  21.966  1.00  0.00    -0.266 OA
ATOM      5  H   UNL A   1      31.466  29.778  22.861  1.00  0.00     0.163 HD
BRANCH   3   6
ATOM      6  C   UNL A   1      30.761  26.672  23.789  1.00  0.00     0.191 A 
ATOM      7  C   UNL A   1      31.231  24.519  24.028  1.00  0.00     0.124 A 
ATOM      8  C   UNL A   1      30.580  24.903  25.177  1.00  0.00     0.048 A 
ATOM      9  O   UNL A   1      31.339  25.580  23.183  1.00  0.00    -0.454 OA
ATOM     10  C   UNL A   1      30.321  26.287  25.045  1.00  0.00     0.056 A 
BRANCH   7  11
ATOM     11  C   UNL A   1      31.839  23.236  23.568  1.00  0.00     0.190 C 
BRANCH  11  12
ATOM     12  N   UNL A   1      32.306  22.397  24.661  1.00  0.00    -0.362 N 
ATOM     13  H   UNL A   1      31.690  22.173  25.396  1.00  0.00     0.162 HD
BRANCH  12  14
ATOM     14  C   UNL A   1      33.602  21.911  24.685  1.00  0.00     0.139 A 
ATOM     15  C   UNL A   1      36.925  23.367  24.029  1.00  0.00     0.067 C 
ATOM     16  C   UNL A   1      35.883  22.352  24.390  1.00  0.00     0.040 A 
ATOM     17  C   UNL A   1      36.237  21.061  24.748  1.00  0.00     0.024 A 
ATOM     18  N   UNL A   1      34.594  22.767  24.341  1.00  0.00    -0.236 NA
ATOM     19  C   UNL A   1      35.223  20.170  25.075  1.00  0.00     0.019 A 
ATOM     20  C   UNL A   1      33.886  20.585  25.037  1.00  0.00     0.081 A 
BRANCH  20  21
ATOM     21  C   UNL A   1      32.858  19.562  25.360  1.00  0.00     0.252 C 
ATOM     22  N   UNL A   1      32.991  18.865  26.528  1.00  0.00    -0.365 N 
ATOM     23  O   UNL A   1      31.897  19.372  24.624  1.00  0.00    -0.269 OA
ATOM     24  H   UNL A   1      33.768  19.025  27.111  1.00  0.00     0.159 HD
ATOM     25  H   UNL A   1      32.310  18.203  26.787  1.00  0.00     0.159 HD
ENDBRANCH  20  21
ENDBRANCH  12  14
ENDBRANCH  11  12
ENDBRANCH   7  11
ENDBRANCH   3   6
ENDBRANCH   1   2
BRANCH   1  26
ATOM     26  C   UNL A   1      33.442  28.513  24.845  1.00  0.00     0.042 C 
BRANCH  26  27
ATOM     27  C   UNL A   1      34.083  28.588  26.231  1.00  0.00     0.118 C 
BRANCH  27  28
ATOM     28  N   UNL A   1      33.845  29.875  26.871  1.00  0.00    -0.352 N 
ATOM     29  C   UNL A   1      34.568  30.540  27.830  1.00  0.00     0.251 C 
ATOM     30  H   UNL A   1      33.035  30.344  26.566  1.00  0.00     0.163 HD
ATOM     31  O   UNL A   1      34.059  31.502  28.401  1.00  0.00    -0.269 OA
BRANCH  29  32
ATOM     32  C   UNL A   1      35.938  30.111  28.184  1.00  0.00     0.039 A 
ATOM     33  C   UNL A   1      36.935  30.168  27.204  1.00  0.00     0.014 A 
ATOM     34  C   UNL A   1      36.234  29.600  29.450  1.00  0.00     0.014 A 
ATOM     35  C   UNL A   1      38.237  29.766  27.513  1.00  0.00     0.010 A 
ATOM     36  C   UNL A   1      37.546  29.265  29.777  1.00  0.00     0.010 A 
ATOM     37  C   UNL A   1      38.561  29.340  28.810  1.00  0.00    -0.014 A 
BRANCH  37  38
ATOM     38  C   UNL A   1      39.953  28.974  29.178  1.00  0.00     0.031 A 
ATOM     39  C   UNL A   1      40.853  29.982  29.843  1.00  0.00     0.074 A 
ATOM     40  C   UNL A   1      40.428  27.757  28.850  1.00  0.00     0.049 A 
ATOM     41  N   UNL A   1      42.115  29.869  30.172  1.00  0.00    -0.248 NA
ATOM     42  C   UNL A   1      40.267  31.296  30.157  1.00  0.00     0.031 C 
ATOM     43  C   UNL A   1      39.666  26.706  28.168  1.00  0.00     0.029 A 
ATOM     44  N   UNL A   1      41.668  27.199  29.035  1.00  0.00    -0.354 N 
ATOM     45  C   UNL A   1      42.479  31.099  30.708  1.00  0.00     0.074 A 
ATOM     46  C   UNL A   1      41.317  31.957  30.623  1.00  0.00     0.031 C 
ATOM     47  C   UNL A   1      40.449  25.627  28.012  1.00  0.00     0.029 A 
ATOM     48  C   UNL A   1      41.776  25.920  28.543  1.00  0.00     0.049 A 
ATOM     49  H   UNL A   1      42.410  27.670  29.478  1.00  0.00     0.167 HD
ATOM     50  C   UNL A   1      43.668  31.476  31.237  1.00  0.00     0.031 A 
ATOM     51  C   UNL A   1      42.828  25.078  28.511  1.00  0.00     0.031 A 
ATOM     52  C   UNL A   1      44.817  30.614  31.334  1.00  0.00     0.049 A 
ATOM     53  C   UNL A   1      44.139  25.520  29.104  1.00  0.00     0.074 A 
ATOM     54  C   UNL A   1      46.045  30.881  31.912  1.00  0.00     0.029 A 
ATOM     55  N   UNL A   1      44.880  29.319  30.840  1.00  0.00    -0.354 N 
ATOM     56  N   UNL A   1      44.442  26.664  29.668  1.00  0.00    -0.248 NA
ATOM     57  C   UNL A   1      45.244  24.552  29.065  1.00  0.00     0.031 C 
ATOM     58  C   UNL A   1      46.869  29.766  31.722  1.00  0.00     0.029 A 
ATOM     59  C   UNL A   1      46.134  28.784  31.077  1.00  0.00     0.049 A 
ATOM     60  H   UNL A   1      44.141  28.851  30.388  1.00  0.00     0.167 HD
ATOM     61  C   UNL A   1      45.765  26.544  30.077  1.00  0.00     0.074 A 
ATOM     62  C   UNL A   1      46.198  25.212  29.708  1.00  0.00     0.031 C 
ATOM     63  C   UNL A   1      46.550  27.456  30.703  1.00  0.00     0.031 A 
BRANCH  50  64
ATOM     64  C   UNL A   1      43.792  32.889  31.744  1.00  0.00    -0.014 A 
ATOM     65  C   UNL A   1      44.211  33.932  30.899  1.00  0.00     0.010 A 
ATOM     66  C   UNL A   1      43.441  33.186  33.073  1.00  0.00     0.010 A 
ATOM     67  C   UNL A   1      44.317  35.239  31.385  1.00  0.00     0.020 A 
ATOM     68  C   UNL A   1      43.518  34.497  33.556  1.00  0.00     0.020 A 
ATOM     69  C   UNL A   1      43.972  35.512  32.712  1.00  0.00     0.054 A 
BRANCH  69  70
ATOM     70  S   UNL A   1      44.098  37.220  33.310  1.00  0.00     0.124 S 
ATOM     71  O   UNL A   1      43.044  37.263  34.320  1.00  0.00    -0.237 OA
ATOM     72  O   UNL A   1      45.463  37.279  33.826  1.00  0.00    -0.237 OA
ATOM     73  O   UNL A   1      43.850  38.025  32.117  1.00  0.00    -0.744 OA
ENDBRANCH  69  70
ENDBRANCH  50  64
BRANCH  51  74
ATOM     74  C   UNL A   1      42.681  23.727  27.904  1.00  0.00    -0.014 A 
ATOM     75  C   UNL A   1      43.051  23.502  26.566  1.00  0.00     0.010 A 
ATOM     76  C   UNL A   1      42.181  22.654  28.665  1.00  0.00     0.010 A 
ATOM     77  C   UNL A   1      42.906  22.235  25.995  1.00  0.00     0.020 A 
ATOM     78  C   UNL A   1      42.061  21.380  28.105  1.00  0.00     0.020 A 
ATOM     79  C   UNL A   1      42.413  21.181  26.769  1.00  0.00     0.054 A 
BRANCH  79  80
ATOM     80  S   UNL A   1      42.280  19.532  26.021  1.00  0.00     0.124 S 
ATOM     81  O   UNL A   1      40.858  19.457  25.706  1.00  0.00    -0.237 OA
ATOM     82  O   UNL A   1      43.180  19.633  24.875  1.00  0.00    -0.237 OA
ATOM     83  O   UNL A   1      42.736  18.640  27.084  1.00  0.00    -0.744 OA
ENDBRANCH  79  80
ENDBRANCH  51  74
BRANCH  63  84
ATOM     84  C   UNL A   1      47.950  27.032  31.061  1.00  0.00    -0.014 A 
ATOM     85  C   UNL A   1      49.044  27.362  30.243  1.00  0.00     0.010 A 
ATOM     86  C   UNL A   1      48.178  26.342  32.266  1.00  0.00     0.010 A 
ATOM     87  C   UNL A   1      50.338  26.981  30.608  1.00  0.00     0.020 A 
ATOM     88  C   UNL A   1      49.472  25.984  32.648  1.00  0.00     0.020 A 
ATOM     89  C   UNL A   1      50.543  26.295  31.809  1.00  0.00     0.054 A 
BRANCH  89  90
ATOM     90  S   UNL A   1      52.238  25.851  32.282  1.00  0.00     0.124 S 
ATOM     91  O   UNL A   1      52.017  24.711  33.167  1.00  0.00    -0.237 OA
ATOM     92  O   UNL A   1      52.858  25.538  30.996  1.00  0.00    -0.237 OA
ATOM     93  O   UNL A   1      52.743  27.057  32.933  1.00  0.00    -0.744 OA
ENDBRANCH  89  90
ENDBRANCH  63  84
ENDBRANCH  37  38
ENDBRANCH  29  32
ENDBRANCH  27  28
ENDBRANCH  26  27
ENDBRANCH   1  26
TORSDOF 17
ENDMDL
MODEL 3
REMARK VINA RESULT:     -10.4      4.456     10.276
REMARK SMILES Cc1ccc(C(N)=O)c(NCc2ccc(C(=O)NCCCNC(=O)c3ccc(-c4c5nc(c(-c6ccc(S(=O)(=O)[O-])cc6)c6ccc([nH]6)c(-c6ccc(S(=O)(=O)[O-])cc6)c6nc(c(-c7ccc(S(=O)(=O)[O-])cc7)c7ccc4[nH]7)C=C6)C=C5)cc3)o2)n1
REMARK SMILES IDX 19 1 18 2 16 3 17 4 15 6 12 7 13 8 85 9 14 10 11 11 10 12
REMARK SMILES IDX 9 14 1 15 2 16 3 17 86 18 4 19 5 20 6 21 7 22 8 23 20 26
REMARK SMILES IDX 21 27 22 28 23 29 24 31 25 32 26 33 84 34 27 35 83 36 28 37
REMARK SMILES IDX 29 38 30 39 77 40 31 41 82 42 76 43 78 44 32 45 81 46 75 47
REMARK SMILES IDX 74 48 33 50 63 51 44 52 62 53 45 54 48 55 61 56 79 57 46 58
REMARK SMILES IDX 47 59 60 61 80 62 49 63 34 64 35 65 43 66 36 67 42 68 37 69
REMARK SMILES IDX 38 70 39 71 40 72 41 73 64 74 65 75 73 76 66 77 72 78 67 79
REMARK SMILES IDX 68 80 69 81 70 82 71 83 50 84 51 85 59 86 52 87 58 88 53 89
REMARK SMILES IDX 54 90 55 91 56 92 57 93
REMARK H PARENT 18 5 10 13 7 24 7 25 22 30 78 49 48 60
REMARK Flexibility Score: inf
ROOT
ATOM      1  C   UNL A   1      33.242  29.387  26.292  1.00  0.00     0.118 C 
ENDROOT
BRANCH   1   2
ATOM      2  N   UNL A   1      33.670  29.463  24.909  1.00  0.00    -0.349 N 
ATOM      3  C   UNL A   1      33.126  28.925  23.765  1.00  0.00     0.286 C 
ATOM      4  O   UNL A   1      33.649  29.283  22.707  1.00  0.00    -0.266 OA
ATOM      5  H   UNL A   1      34.490  29.989  24.764  1.00  0.00     0.163 HD
BRANCH   3   6
ATOM      6  C   UNL A   1      31.997  28.015  23.819  1.00  0.00     0.191 A 
ATOM      7  C   UNL A   1      31.029  26.064  23.405  1.00  0.00     0.124 A 
ATOM      8  C   UNL A   1      30.083  26.840  24.035  1.00  0.00     0.048 A 
ATOM      9  O   UNL A   1      32.185  26.769  23.266  1.00  0.00    -0.454 OA
ATOM     10  C   UNL A   1      30.715  28.068  24.341  1.00  0.00     0.056 A 
BRANCH   7  11
ATOM     11  C   UNL A   1      31.039  24.660  22.900  1.00  0.00     0.190 C 
BRANCH  11  12
ATOM     12  N   UNL A   1      30.697  23.680  23.920  1.00  0.00    -0.362 N 
ATOM     13  H   UNL A   1      29.785  23.308  23.947  1.00  0.00     0.162 HD
BRANCH  12  14
ATOM     14  C   UNL A   1      31.631  23.265  24.854  1.00  0.00     0.139 A 
ATOM     15  C   UNL A   1      35.138  22.144  24.683  1.00  0.00     0.067 C 
ATOM     16  C   UNL A   1      33.809  22.513  25.269  1.00  0.00     0.040 A 
ATOM     17  C   UNL A   1      33.593  22.465  26.637  1.00  0.00     0.024 A 
ATOM     18  N   UNL A   1      32.847  22.887  24.392  1.00  0.00    -0.236 NA
ATOM     19  C   UNL A   1      32.340  22.823  27.115  1.00  0.00     0.019 A 
ATOM     20  C   UNL A   1      31.335  23.220  26.223  1.00  0.00     0.081 A 
BRANCH  20  21
ATOM     21  C   UNL A   1      30.010  23.548  26.809  1.00  0.00     0.252 C 
ATOM     22  N   UNL A   1      29.249  22.521  27.290  1.00  0.00    -0.365 N 
ATOM     23  O   UNL A   1      29.623  24.707  26.894  1.00  0.00    -0.269 OA
ATOM     24  H   UNL A   1      29.570  21.593  27.215  1.00  0.00     0.159 HD
ATOM     25  H   UNL A   1      28.380  22.707  27.713  1.00  0.00     0.159 HD
ENDBRANCH  20  21
ENDBRANCH  12  14
ENDBRANCH  11  12
ENDBRANCH   7  11
ENDBRANCH   3   6
ENDBRANCH   1   2
BRANCH   1  26
ATOM     26  C   UNL A   1      34.267  28.668  27.166  1.00  0.00     0.042 C 
BRANCH  26  27
ATOM     27  C   UNL A   1      35.432  29.563  27.589  1.00  0.00     0.118 C 
BRANCH  27  28
ATOM     28  N   UNL A   1      35.445  29.793  29.029  1.00  0.00    -0.352 N 
ATOM     29  C   UNL A   1      36.452  29.626  29.948  1.00  0.00     0.251 C 
ATOM     30  H   UNL A   1      34.597  30.122  29.402  1.00  0.00     0.163 HD
ATOM     31  O   UNL A   1      36.176  29.652  31.145  1.00  0.00    -0.269 OA
BRANCH  29  32
ATOM     32  C   UNL A   1      37.850  29.412  29.515  1.00  0.00     0.039 A 
ATOM     33  C   UNL A   1      38.797  29.023  30.467  1.00  0.00     0.014 A 
ATOM     34  C   UNL A   1      38.244  29.649  28.195  1.00  0.00     0.014 A 
ATOM     35  C   UNL A   1      40.125  28.817  30.084  1.00  0.00     0.010 A 
ATOM     36  C   UNL A   1      39.552  29.376  27.801  1.00  0.00     0.010 A 
ATOM     37  C   UNL A   1      40.508  28.963  28.741  1.00  0.00    -0.014 A 
BRANCH  37  38
ATOM     38  C   UNL A   1      41.898  28.682  28.300  1.00  0.00     0.031 A 
ATOM     39  C   UNL A   1      42.297  27.290  27.887  1.00  0.00     0.074 A 
ATOM     40  C   UNL A   1      42.818  29.666  28.339  1.00  0.00     0.049 A 
ATOM     41  N   UNL A   1      43.477  26.840  27.541  1.00  0.00    -0.248 NA
ATOM     42  C   UNL A   1      41.241  26.265  27.885  1.00  0.00     0.031 C 
ATOM     43  C   UNL A   1      42.563  31.047  28.758  1.00  0.00     0.029 A 
ATOM     44  N   UNL A   1      44.155  29.655  28.030  1.00  0.00    -0.354 N 
ATOM     45  C   UNL A   1      43.310  25.481  27.304  1.00  0.00     0.074 A 
ATOM     46  C   UNL A   1      41.925  25.170  27.585  1.00  0.00     0.031 C 
ATOM     47  C   UNL A   1      43.701  31.752  28.661  1.00  0.00     0.029 A 
ATOM     48  C   UNL A   1      44.773  30.869  28.213  1.00  0.00     0.049 A 
ATOM     49  H   UNL A   1      44.627  28.853  27.709  1.00  0.00     0.167 HD
ATOM     50  C   UNL A   1      44.224  24.575  26.878  1.00  0.00     0.031 A 
ATOM     51  C   UNL A   1      46.061  31.232  28.050  1.00  0.00     0.031 A 
ATOM     52  C   UNL A   1      45.597  24.891  26.585  1.00  0.00     0.049 A 
ATOM     53  C   UNL A   1      47.056  30.208  27.577  1.00  0.00     0.074 A 
ATOM     54  C   UNL A   1      46.583  24.059  26.086  1.00  0.00     0.029 A 
ATOM     55  N   UNL A   1      46.179  26.137  26.766  1.00  0.00    -0.354 N 
ATOM     56  N   UNL A   1      46.862  28.942  27.293  1.00  0.00    -0.248 NA
ATOM     57  C   UNL A   1      48.440  30.665  27.392  1.00  0.00     0.031 C 
ATOM     58  C   UNL A   1      47.775  24.788  26.014  1.00  0.00     0.029 A 
ATOM     59  C   UNL A   1      47.516  26.089  26.413  1.00  0.00     0.049 A 
ATOM     60  H   UNL A   1      45.710  26.937  27.097  1.00  0.00     0.167 HD
ATOM     61  C   UNL A   1      48.094  28.458  26.868  1.00  0.00     0.074 A 
ATOM     62  C   UNL A   1      49.021  29.570  26.920  1.00  0.00     0.031 C 
ATOM     63  C   UNL A   1      48.427  27.205  26.470  1.00  0.00     0.031 A 
BRANCH  50  64
ATOM     64  C   UNL A   1      43.769  23.148  26.711  1.00  0.00    -0.014 A 
ATOM     65  C   UNL A   1      43.059  22.486  27.729  1.00  0.00     0.010 A 
ATOM     66  C   UNL A   1      44.015  22.475  25.501  1.00  0.00     0.010 A 
ATOM     67  C   UNL A   1      42.641  21.163  27.557  1.00  0.00     0.020 A 
ATOM     68  C   UNL A   1      43.574  21.161  25.313  1.00  0.00     0.020 A 
ATOM     69  C   UNL A   1      42.904  20.508  26.350  1.00  0.00     0.054 A 
BRANCH  69  70
ATOM     70  S   UNL A   1      42.331  18.800  26.145  1.00  0.00     0.124 S 
ATOM     71  O   UNL A   1      40.944  18.996  25.729  1.00  0.00    -0.237 OA
ATOM     72  O   UNL A   1      43.227  18.282  25.115  1.00  0.00    -0.237 OA
ATOM     73  O   UNL A   1      42.505  18.213  27.471  1.00  0.00    -0.744 OA
ENDBRANCH  69  70
ENDBRANCH  50  64
BRANCH  51  74
ATOM     74  C   UNL A   1      46.479  32.633  28.329  1.00  0.00    -0.014 A 
ATOM     75  C   UNL A   1      46.535  33.580  27.293  1.00  0.00     0.010 A 
ATOM     76  C   UNL A   1      46.812  33.030  29.638  1.00  0.00     0.010 A 
ATOM     77  C   UNL A   1      46.934  34.894  27.555  1.00  0.00     0.020 A 
ATOM     78  C   UNL A   1      47.185  34.349  29.907  1.00  0.00     0.020 A 
ATOM     79  C   UNL A   1      47.256  35.271  28.861  1.00  0.00     0.054 A 
BRANCH  79  80
ATOM     80  S   UNL A   1      47.724  36.993  29.187  1.00  0.00     0.124 S 
ATOM     81  O   UNL A   1      48.774  37.214  28.200  1.00  0.00    -0.237 OA
ATOM     82  O   UNL A   1      46.472  37.709  28.952  1.00  0.00    -0.237 OA
ATOM     83  O   UNL A   1      48.165  36.969  30.579  1.00  0.00    -0.744 OA
ENDBRANCH  79  80
ENDBRANCH  51  74
BRANCH  63  84
ATOM     84  C   UNL A   1      49.847  26.975  26.025  1.00  0.00    -0.014 A 
ATOM     85  C   UNL A   1      50.817  26.473  26.910  1.00  0.00     0.010 A 
ATOM     86  C   UNL A   1      50.199  27.215  24.683  1.00  0.00     0.010 A 
ATOM     87  C   UNL A   1      52.122  26.243  26.468  1.00  0.00     0.020 A 
ATOM     88  C   UNL A   1      51.495  26.959  24.232  1.00  0.00     0.020 A 
ATOM     89  C   UNL A   1      52.453  26.487  25.131  1.00  0.00     0.054 A 
BRANCH  89  90
ATOM     90  S   UNL A   1      54.143  26.138  24.572  1.00  0.00     0.124 S 
ATOM     91  O   UNL A   1      54.923  27.102  25.342  1.00  0.00    -0.237 OA
ATOM     92  O   UNL A   1      54.322  24.738  24.949  1.00  0.00    -0.237 OA
ATOM     93  O   UNL A   1      54.089  26.387  23.133  1.00  0.00    -0.744 OA
ENDBRANCH  89  90
ENDBRANCH  63  84
ENDBRANCH  37  38
ENDBRANCH  29  32
ENDBRANCH  27  28
ENDBRANCH  26  27
ENDBRANCH   1  26
TORSDOF 17
ENDMDL
