MODEL 1
REMARK VINA RESULT:     -11.2      0.000      0.000
REMARK SMILES Cc1oc(CNC(=O)c2ccnn2C)cc1C(=O)NCCCNC(=O)c1ccc(-c2c3nc(c(-c4ccc(S(=O)(=O)[O-])cc4)c4ccc([nH]4)c(-c4ccc(S(=O)(=O)[O-])cc4)c4nc(c(-c5ccc(S(=O)(=O)[O-])cc5)c5ccc2[nH]5)C=C4)C=C3)cc1
REMARK SMILES IDX 21 1 20 2 19 3 17 4 18 5 16 7 1 8 2 9 3 10 4 11 15 12 5 13
REMARK SMILES IDX 6 14 7 15 8 17 9 18 10 19 13 20 11 21 12 22 14 23 22 24
REMARK SMILES IDX 23 25 24 26 25 28 26 29 27 30 85 31 28 32 84 33 29 34 30 35
REMARK SMILES IDX 31 36 78 37 32 38 83 39 77 40 79 41 33 42 82 43 76 44 75 45
REMARK SMILES IDX 34 47 64 48 45 49 63 50 46 51 49 52 62 53 80 54 47 55 48 56
REMARK SMILES IDX 61 58 81 59 50 60 35 61 36 62 44 63 37 64 43 65 38 66 39 67
REMARK SMILES IDX 40 68 41 69 42 70 65 71 66 72 74 73 67 74 73 75 68 76 69 77
REMARK SMILES IDX 70 78 71 79 72 80 51 81 52 82 60 83 53 84 59 85 54 86 55 87
REMARK SMILES IDX 56 88 57 89 58 90
REMARK H PARENT 19 6 6 16 23 27 79 46 49 57
REMARK Flexibility Score: inf
ROOT
ATOM      1  C   UNL A   1      33.668  27.870  25.785  1.00  0.00     0.042 C 
ENDROOT
BRANCH   1   2
ATOM      2  C   UNL A   1      33.530  29.044  24.812  1.00  0.00     0.118 C 
BRANCH   2   3
ATOM      3  N   UNL A   1      34.088  28.743  23.506  1.00  0.00    -0.352 N 
ATOM      4  C   UNL A   1      33.653  27.942  22.484  1.00  0.00     0.254 C 
ATOM      5  O   UNL A   1      34.223  28.072  21.398  1.00  0.00    -0.269 OA
ATOM      6  H   UNL A   1      34.939  29.202  23.320  1.00  0.00     0.163 HD
BRANCH   4   7
ATOM      7  C   UNL A   1      32.532  27.023  22.617  1.00  0.00     0.081 A 
ATOM      8  C   UNL A   1      30.288  28.445  22.571  1.00  0.00     0.088 C 
ATOM      9  C   UNL A   1      31.164  27.256  22.641  1.00  0.00     0.113 A 
ATOM     10  O   UNL A   1      30.489  26.095  22.885  1.00  0.00    -0.464 OA
ATOM     11  C   UNL A   1      31.406  25.120  23.122  1.00  0.00     0.124 A 
ATOM     12  C   UNL A   1      32.670  25.631  22.949  1.00  0.00     0.061 A 
BRANCH  11  13
ATOM     13  C   UNL A   1      30.875  23.802  23.551  1.00  0.00     0.191 C 
BRANCH  13  14
ATOM     14  N   UNL A   1      30.373  23.931  24.907  1.00  0.00    -0.343 N 
ATOM     15  C   UNL A   1      30.991  23.588  26.080  1.00  0.00     0.269 C 
ATOM     16  H   UNL A   1      29.471  24.314  24.995  1.00  0.00     0.164 HD
ATOM     17  O   UNL A   1      30.336  23.568  27.117  1.00  0.00    -0.268 OA
BRANCH  15  18
ATOM     18  C   UNL A   1      32.393  23.286  26.038  1.00  0.00     0.125 A 
ATOM     19  C   UNL A   1      33.467  24.132  26.233  1.00  0.00     0.055 A 
ATOM     20  N   UNL A   1      32.944  22.075  25.711  1.00  0.00    -0.263 N 
ATOM     21  C   UNL A   1      34.604  23.318  26.093  1.00  0.00     0.136 A 
ATOM     22  N   UNL A   1      34.290  22.054  25.802  1.00  0.00    -0.181 NA
ATOM     23  C   UNL A   1      32.252  20.876  25.301  1.00  0.00     0.174 C 
ENDBRANCH  15  18
ENDBRANCH  13  14
ENDBRANCH  11  13
ENDBRANCH   4   7
ENDBRANCH   2   3
ENDBRANCH   1   2
BRANCH   1  24
ATOM     24  C   UNL A   1      33.434  28.220  27.254  1.00  0.00     0.118 C 
BRANCH  24  25
ATOM     25  N   UNL A   1      33.277  29.648  27.468  1.00  0.00    -0.352 N 
ATOM     26  C   UNL A   1      34.178  30.543  27.995  1.00  0.00     0.251 C 
ATOM     27  H   UNL A   1      32.409  30.026  27.199  1.00  0.00     0.163 HD
ATOM     28  O   UNL A   1      33.809  31.683  28.265  1.00  0.00    -0.269 OA
BRANCH  26  29
ATOM     29  C   UNL A   1      35.580  30.138  28.260  1.00  0.00     0.039 A 
ATOM     30  C   UNL A   1      35.923  29.708  29.547  1.00  0.00     0.014 A 
ATOM     31  C   UNL A   1      36.566  30.232  27.271  1.00  0.00     0.014 A 
ATOM     32  C   UNL A   1      37.240  29.335  29.833  1.00  0.00     0.010 A 
ATOM     33  C   UNL A   1      37.876  29.835  27.550  1.00  0.00     0.010 A 
ATOM     34  C   UNL A   1      38.225  29.389  28.834  1.00  0.00    -0.014 A 
BRANCH  34  35
ATOM     35  C   UNL A   1      39.629  29.012  29.129  1.00  0.00     0.031 A 
ATOM     36  C   UNL A   1      40.556  29.998  29.784  1.00  0.00     0.074 A 
ATOM     37  C   UNL A   1      40.090  27.798  28.777  1.00  0.00     0.049 A 
ATOM     38  N   UNL A   1      41.832  29.879  30.047  1.00  0.00    -0.248 NA
ATOM     39  C   UNL A   1      39.973  31.288  30.180  1.00  0.00     0.031 C 
ATOM     40  C   UNL A   1      39.310  26.752  28.115  1.00  0.00     0.029 A 
ATOM     41  N   UNL A   1      41.338  27.245  28.922  1.00  0.00    -0.354 N 
ATOM     42  C   UNL A   1      42.217  31.092  30.605  1.00  0.00     0.074 A 
ATOM     43  C   UNL A   1      41.035  31.929  30.650  1.00  0.00     0.031 C 
ATOM     44  C   UNL A   1      40.095  25.678  27.920  1.00  0.00     0.029 A 
ATOM     45  C   UNL A   1      41.433  25.966  28.429  1.00  0.00     0.049 A 
ATOM     46  H   UNL A   1      42.093  27.719  29.339  1.00  0.00     0.167 HD
ATOM     47  C   UNL A   1      43.442  31.481  31.034  1.00  0.00     0.031 A 
ATOM     48  C   UNL A   1      42.480  25.120  28.389  1.00  0.00     0.031 A 
ATOM     49  C   UNL A   1      44.616  30.654  31.025  1.00  0.00     0.049 A 
ATOM     50  C   UNL A   1      43.808  25.542  28.944  1.00  0.00     0.074 A 
ATOM     51  C   UNL A   1      45.897  30.966  31.447  1.00  0.00     0.029 A 
ATOM     52  N   UNL A   1      44.651  29.343  30.580  1.00  0.00    -0.354 N 
ATOM     53  N   UNL A   1      44.151  26.696  29.462  1.00  0.00    -0.248 NA
ATOM     54  C   UNL A   1      44.887  24.545  28.913  1.00  0.00     0.031 C 
ATOM     55  C   UNL A   1      46.707  29.838  31.264  1.00  0.00     0.029 A 
ATOM     56  C   UNL A   1      45.926  28.825  30.730  1.00  0.00     0.049 A 
ATOM     57  H   UNL A   1      43.882  28.851  30.212  1.00  0.00     0.167 HD
ATOM     58  C   UNL A   1      45.487  26.564  29.821  1.00  0.00     0.074 A 
ATOM     59  C   UNL A   1      45.888  25.217  29.469  1.00  0.00     0.031 C 
ATOM     60  C   UNL A   1      46.308  27.482  30.384  1.00  0.00     0.031 A 
BRANCH  47  61
ATOM     61  C   UNL A   1      43.556  32.891  31.530  1.00  0.00    -0.014 A 
ATOM     62  C   UNL A   1      43.875  33.938  30.650  1.00  0.00     0.010 A 
ATOM     63  C   UNL A   1      43.373  33.164  32.898  1.00  0.00     0.010 A 
ATOM     64  C   UNL A   1      44.059  35.236  31.138  1.00  0.00     0.020 A 
ATOM     65  C   UNL A   1      43.547  34.460  33.387  1.00  0.00     0.020 A 
ATOM     66  C   UNL A   1      43.913  35.482  32.508  1.00  0.00     0.054 A 
BRANCH  66  67
ATOM     67  S   UNL A   1      44.184  37.156  33.153  1.00  0.00     0.124 S 
ATOM     68  O   UNL A   1      43.040  37.319  34.048  1.00  0.00    -0.237 OA
ATOM     69  O   UNL A   1      45.484  37.056  33.812  1.00  0.00    -0.237 OA
ATOM     70  O   UNL A   1      44.163  37.986  31.951  1.00  0.00    -0.744 OA
ENDBRANCH  66  67
ENDBRANCH  47  61
BRANCH  48  71
ATOM     71  C   UNL A   1      42.298  23.769  27.808  1.00  0.00    -0.014 A 
ATOM     72  C   UNL A   1      42.738  23.502  26.500  1.00  0.00     0.010 A 
ATOM     73  C   UNL A   1      41.727  22.739  28.572  1.00  0.00     0.010 A 
ATOM     74  C   UNL A   1      42.616  22.218  25.966  1.00  0.00     0.020 A 
ATOM     75  C   UNL A   1      41.610  21.453  28.042  1.00  0.00     0.020 A 
ATOM     76  C   UNL A   1      42.053  21.200  26.741  1.00  0.00     0.054 A 
BRANCH  76  77
ATOM     77  S   UNL A   1      41.977  19.510  26.082  1.00  0.00     0.124 S 
ATOM     78  O   UNL A   1      42.512  18.729  27.192  1.00  0.00    -0.237 OA
ATOM     79  O   UNL A   1      40.554  19.326  25.809  1.00  0.00    -0.237 OA
ATOM     80  O   UNL A   1      42.824  19.584  24.894  1.00  0.00    -0.744 OA
ENDBRANCH  76  77
ENDBRANCH  48  71
BRANCH  60  81
ATOM     81  C   UNL A   1      47.717  27.053  30.669  1.00  0.00    -0.014 A 
ATOM     82  C   UNL A   1      48.747  27.344  29.758  1.00  0.00     0.010 A 
ATOM     83  C   UNL A   1      48.019  26.383  31.866  1.00  0.00     0.010 A 
ATOM     84  C   UNL A   1      50.061  26.955  30.033  1.00  0.00     0.020 A 
ATOM     85  C   UNL A   1      49.332  25.996  32.145  1.00  0.00     0.020 A 
ATOM     86  C   UNL A   1      50.344  26.275  31.221  1.00  0.00     0.054 A 
BRANCH  86  87
ATOM     87  S   UNL A   1      52.056  25.803  31.597  1.00  0.00     0.124 S 
ATOM     88  O   UNL A   1      52.696  25.927  30.292  1.00  0.00    -0.237 OA
ATOM     89  O   UNL A   1      52.463  26.791  32.594  1.00  0.00    -0.237 OA
ATOM     90  O   UNL A   1      51.923  24.439  32.104  1.00  0.00    -0.744 OA
ENDBRANCH  86  87
ENDBRANCH  60  81
ENDBRANCH  34  35
ENDBRANCH  26  29
ENDBRANCH  24  25
ENDBRANCH   1  24
TORSDOF 16
ENDMDL
MODEL 2
REMARK VINA RESULT:     -10.7      2.941      3.706
REMARK SMILES Cc1oc(CNC(=O)c2ccnn2C)cc1C(=O)NCCCNC(=O)c1ccc(-c2c3nc(c(-c4ccc(S(=O)(=O)[O-])cc4)c4ccc([nH]4)c(-c4ccc(S(=O)(=O)[O-])cc4)c4nc(c(-c5ccc(S(=O)(=O)[O-])cc5)c5ccc2[nH]5)C=C4)C=C3)cc1
REMARK SMILES IDX 21 1 20 2 19 3 17 4 18 5 16 7 1 8 2 9 3 10 4 11 15 12 5 13
REMARK SMILES IDX 6 14 7 15 8 17 9 18 10 19 13 20 11 21 12 22 14 23 22 24
REMARK SMILES IDX 23 25 24 26 25 28 26 29 27 30 85 31 28 32 84 33 29 34 30 35
REMARK SMILES IDX 31 36 78 37 32 38 83 39 77 40 79 41 33 42 82 43 76 44 75 45
REMARK SMILES IDX 34 47 64 48 45 49 63 50 46 51 49 52 62 53 80 54 47 55 48 56
REMARK SMILES IDX 61 58 81 59 50 60 35 61 36 62 44 63 37 64 43 65 38 66 39 67
REMARK SMILES IDX 40 68 41 69 42 70 65 71 66 72 74 73 67 74 73 75 68 76 69 77
REMARK SMILES IDX 70 78 71 79 72 80 51 81 52 82 60 83 53 84 59 85 54 86 55 87
REMARK SMILES IDX 56 88 57 89 58 90
REMARK H PARENT 19 6 6 16 23 27 79 46 49 57
REMARK Flexibility Score: inf
ROOT
ATOM      1  C   UNL A   1      34.151  29.158  26.593  1.00  0.00     0.042 C 
ENDROOT
BRANCH   1   2
ATOM      2  C   UNL A   1      32.900  29.931  27.020  1.00  0.00     0.118 C 
BRANCH   2   3
ATOM      3  N   UNL A   1      32.033  30.237  25.896  1.00  0.00    -0.352 N 
ATOM      4  C   UNL A   1      31.324  29.439  25.039  1.00  0.00     0.254 C 
ATOM      5  O   UNL A   1      30.487  29.998  24.328  1.00  0.00    -0.269 OA
ATOM      6  H   UNL A   1      31.937  31.201  25.717  1.00  0.00     0.163 HD
BRANCH   4   7
ATOM      7  C   UNL A   1      31.474  27.991  24.995  1.00  0.00     0.081 A 
ATOM      8  C   UNL A   1      32.949  27.376  22.873  1.00  0.00     0.088 C 
ATOM      9  C   UNL A   1      32.152  27.175  24.102  1.00  0.00     0.113 A 
ATOM     10  O   UNL A   1      31.935  25.861  24.402  1.00  0.00    -0.464 OA
ATOM     11  C   UNL A   1      31.038  25.806  25.422  1.00  0.00     0.124 A 
ATOM     12  C   UNL A   1      30.742  27.083  25.836  1.00  0.00     0.061 A 
BRANCH  11  13
ATOM     13  C   UNL A   1      30.555  24.458  25.808  1.00  0.00     0.191 C 
BRANCH  13  14
ATOM     14  N   UNL A   1      31.310  24.015  26.966  1.00  0.00    -0.343 N 
ATOM     15  C   UNL A   1      32.188  22.969  27.061  1.00  0.00     0.269 C 
ATOM     16  H   UNL A   1      31.172  24.535  27.791  1.00  0.00     0.164 HD
ATOM     17  O   UNL A   1      32.573  22.609  28.170  1.00  0.00    -0.268 OA
BRANCH  15  18
ATOM     18  C   UNL A   1      32.635  22.354  25.845  1.00  0.00     0.125 A 
ATOM     19  C   UNL A   1      32.150  21.223  25.217  1.00  0.00     0.055 A 
ATOM     20  N   UNL A   1      33.710  22.749  25.093  1.00  0.00    -0.263 N 
ATOM     21  C   UNL A   1      32.937  21.080  24.062  1.00  0.00     0.136 A 
ATOM     22  N   UNL A   1      33.874  22.026  23.966  1.00  0.00    -0.181 NA
ATOM     23  C   UNL A   1      34.638  23.818  25.380  1.00  0.00     0.174 C 
ENDBRANCH  15  18
ENDBRANCH  13  14
ENDBRANCH  11  13
ENDBRANCH   4   7
ENDBRANCH   2   3
ENDBRANCH   1   2
BRANCH   1  24
ATOM     24  C   UNL A   1      35.167  28.911  27.708  1.00  0.00     0.118 C 
BRANCH  24  25
ATOM     25  N   UNL A   1      35.207  29.994  28.675  1.00  0.00    -0.352 N 
ATOM     26  C   UNL A   1      36.284  30.475  29.383  1.00  0.00     0.251 C 
ATOM     27  H   UNL A   1      34.349  30.444  28.846  1.00  0.00     0.163 HD
ATOM     28  O   UNL A   1      36.098  31.283  30.289  1.00  0.00    -0.269 OA
BRANCH  26  29
ATOM     29  C   UNL A   1      37.659  30.012  29.077  1.00  0.00     0.039 A 
ATOM     30  C   UNL A   1      38.529  29.742  30.139  1.00  0.00     0.014 A 
ATOM     31  C   UNL A   1      38.113  29.898  27.757  1.00  0.00     0.014 A 
ATOM     32  C   UNL A   1      39.837  29.320  29.883  1.00  0.00     0.010 A 
ATOM     33  C   UNL A   1      39.412  29.452  27.502  1.00  0.00     0.010 A 
ATOM     34  C   UNL A   1      40.286  29.165  28.562  1.00  0.00    -0.014 A 
BRANCH  34  35
ATOM     35  C   UNL A   1      41.677  28.734  28.277  1.00  0.00     0.031 A 
ATOM     36  C   UNL A   1      42.799  29.734  28.302  1.00  0.00     0.074 A 
ATOM     37  C   UNL A   1      41.934  27.452  27.957  1.00  0.00     0.049 A 
ATOM     38  N   UNL A   1      44.062  29.562  28.004  1.00  0.00    -0.248 NA
ATOM     39  C   UNL A   1      42.452  31.105  28.702  1.00  0.00     0.031 C 
ATOM     40  C   UNL A   1      40.940  26.382  27.871  1.00  0.00     0.029 A 
ATOM     41  N   UNL A   1      43.118  26.838  27.634  1.00  0.00    -0.354 N 
ATOM     42  C   UNL A   1      44.655  30.810  28.141  1.00  0.00     0.074 A 
ATOM     43  C   UNL A   1      43.614  31.728  28.560  1.00  0.00     0.031 C 
ATOM     44  C   UNL A   1      41.558  25.238  27.529  1.00  0.00     0.029 A 
ATOM     45  C   UNL A   1      42.985  25.499  27.358  1.00  0.00     0.049 A 
ATOM     46  H   UNL A   1      43.981  27.311  27.603  1.00  0.00     0.167 HD
ATOM     47  C   UNL A   1      45.945  31.168  27.932  1.00  0.00     0.031 A 
ATOM     48  C   UNL A   1      43.906  24.583  27.003  1.00  0.00     0.031 A 
ATOM     49  C   UNL A   1      46.995  30.267  27.546  1.00  0.00     0.049 A 
ATOM     50  C   UNL A   1      45.345  24.983  26.856  1.00  0.00     0.074 A 
ATOM     51  C   UNL A   1      48.332  30.543  27.319  1.00  0.00     0.029 A 
ATOM     52  N   UNL A   1      46.828  28.906  27.344  1.00  0.00    -0.354 N 
ATOM     53  N   UNL A   1      45.883  26.171  26.985  1.00  0.00    -0.248 NA
ATOM     54  C   UNL A   1      46.299  23.917  26.519  1.00  0.00     0.031 C 
ATOM     55  C   UNL A   1      48.977  29.345  26.984  1.00  0.00     0.029 A 
ATOM     56  C   UNL A   1      48.039  28.325  27.008  1.00  0.00     0.049 A 
ATOM     57  H   UNL A   1      45.974  28.423  27.427  1.00  0.00     0.167 HD
ATOM     58  C   UNL A   1      47.240  25.996  26.747  1.00  0.00     0.074 A 
ATOM     59  C   UNL A   1      47.443  24.587  26.475  1.00  0.00     0.031 C 
ATOM     60  C   UNL A   1      48.228  26.923  26.748  1.00  0.00     0.031 A 
BRANCH  47  61
ATOM     61  C   UNL A   1      46.268  32.622  28.100  1.00  0.00    -0.014 A 
ATOM     62  C   UNL A   1      46.125  33.519  27.028  1.00  0.00     0.010 A 
ATOM     63  C   UNL A   1      46.751  33.089  29.336  1.00  0.00     0.010 A 
ATOM     64  C   UNL A   1      46.507  34.856  27.174  1.00  0.00     0.020 A 
ATOM     65  C   UNL A   1      47.125  34.425  29.487  1.00  0.00     0.020 A 
ATOM     66  C   UNL A   1      47.023  35.294  28.398  1.00  0.00     0.054 A 
BRANCH  66  67
ATOM     67  S   UNL A   1      47.553  37.019  28.584  1.00  0.00     0.124 S 
ATOM     68  O   UNL A   1      48.971  36.863  28.903  1.00  0.00    -0.237 OA
ATOM     69  O   UNL A   1      47.268  37.602  27.274  1.00  0.00    -0.237 OA
ATOM     70  O   UNL A   1      46.715  37.511  29.674  1.00  0.00    -0.744 OA
ENDBRANCH  66  67
ENDBRANCH  47  61
BRANCH  48  71
ATOM     71  C   UNL A   1      43.484  23.180  26.779  1.00  0.00    -0.014 A 
ATOM     72  C   UNL A   1      43.635  22.596  25.510  1.00  0.00     0.010 A 
ATOM     73  C   UNL A   1      42.975  22.414  27.840  1.00  0.00     0.010 A 
ATOM     74  C   UNL A   1      43.287  21.259  25.306  1.00  0.00     0.020 A 
ATOM     75  C   UNL A   1      42.633  21.075  27.640  1.00  0.00     0.020 A 
ATOM     76  C   UNL A   1      42.789  20.506  26.373  1.00  0.00     0.054 A 
BRANCH  76  77
ATOM     77  S   UNL A   1      42.423  18.744  26.133  1.00  0.00     0.124 S 
ATOM     78  O   UNL A   1      41.026  18.780  25.715  1.00  0.00    -0.237 OA
ATOM     79  O   UNL A   1      43.380  18.345  25.105  1.00  0.00    -0.237 OA
ATOM     80  O   UNL A   1      42.674  18.175  27.456  1.00  0.00    -0.744 OA
ENDBRANCH  76  77
ENDBRANCH  48  71
BRANCH  60  81
ATOM     81  C   UNL A   1      49.617  26.439  26.460  1.00  0.00    -0.014 A 
ATOM     82  C   UNL A   1      50.431  25.951  27.498  1.00  0.00     0.010 A 
ATOM     83  C   UNL A   1      50.102  26.440  25.142  1.00  0.00     0.010 A 
ATOM     84  C   UNL A   1      51.719  25.487  27.223  1.00  0.00     0.020 A 
ATOM     85  C   UNL A   1      51.389  25.972  24.864  1.00  0.00     0.020 A 
ATOM     86  C   UNL A   1      52.194  25.508  25.909  1.00  0.00     0.054 A 
BRANCH  86  87
ATOM     87  S   UNL A   1      53.855  24.870  25.546  1.00  0.00     0.124 S 
ATOM     88  O   UNL A   1      53.569  23.496  25.146  1.00  0.00    -0.237 OA
ATOM     89  O   UNL A   1      54.324  25.751  24.479  1.00  0.00    -0.237 OA
ATOM     90  O   UNL A   1      54.557  25.019  26.818  1.00  0.00    -0.744 OA
ENDBRANCH  86  87
ENDBRANCH  60  81
ENDBRANCH  34  35
ENDBRANCH  26  29
ENDBRANCH  24  25
ENDBRANCH   1  24
TORSDOF 16
ENDMDL
MODEL 3
REMARK VINA RESULT:     -10.5      2.765      9.390
REMARK SMILES Cc1oc(CNC(=O)c2ccnn2C)cc1C(=O)NCCCNC(=O)c1ccc(-c2c3nc(c(-c4ccc(S(=O)(=O)[O-])cc4)c4ccc([nH]4)c(-c4ccc(S(=O)(=O)[O-])cc4)c4nc(c(-c5ccc(S(=O)(=O)[O-])cc5)c5ccc2[nH]5)C=C4)C=C3)cc1
REMARK SMILES IDX 21 1 20 2 19 3 17 4 18 5 16 7 1 8 2 9 3 10 4 11 15 12 5 13
REMARK SMILES IDX 6 14 7 15 8 17 9 18 10 19 13 20 11 21 12 22 14 23 22 24
REMARK SMILES IDX 23 25 24 26 25 28 26 29 27 30 85 31 28 32 84 33 29 34 30 35
REMARK SMILES IDX 31 36 78 37 32 38 83 39 77 40 79 41 33 42 82 43 76 44 75 45
REMARK SMILES IDX 34 47 64 48 45 49 63 50 46 51 49 52 62 53 80 54 47 55 48 56
REMARK SMILES IDX 61 58 81 59 50 60 35 61 36 62 44 63 37 64 43 65 38 66 39 67
REMARK SMILES IDX 40 68 41 69 42 70 65 71 66 72 74 73 67 74 73 75 68 76 69 77
REMARK SMILES IDX 70 78 71 79 72 80 51 81 52 82 60 83 53 84 59 85 54 86 55 87
REMARK SMILES IDX 56 88 57 89 58 90
REMARK H PARENT 19 6 6 16 23 27 79 46 49 57
REMARK Flexibility Score: inf
ROOT
ATOM      1  C   UNL A   1      35.248  23.509  25.999  1.00  0.00     0.042 C 
ENDROOT
BRANCH   1   2
ATOM      2  C   UNL A   1      34.077  24.412  25.602  1.00  0.00     0.118 C 
BRANCH   2   3
ATOM      3  N   UNL A   1      32.791  23.801  25.889  1.00  0.00    -0.352 N 
ATOM      4  C   UNL A   1      31.570  23.899  25.277  1.00  0.00     0.254 C 
ATOM      5  O   UNL A   1      30.717  23.074  25.609  1.00  0.00    -0.269 OA
ATOM      6  H   UNL A   1      32.800  23.202  26.672  1.00  0.00     0.163 HD
BRANCH   4   7
ATOM      7  C   UNL A   1      31.282  24.870  24.232  1.00  0.00     0.081 A 
ATOM      8  C   UNL A   1      32.902  24.386  22.182  1.00  0.00     0.088 C 
ATOM      9  C   UNL A   1      31.837  25.041  22.972  1.00  0.00     0.113 A 
ATOM     10  O   UNL A   1      31.319  26.152  22.372  1.00  0.00    -0.464 OA
ATOM     11  C   UNL A   1      30.505  26.771  23.267  1.00  0.00     0.124 A 
ATOM     12  C   UNL A   1      30.430  26.015  24.413  1.00  0.00     0.061 A 
BRANCH  11  13
ATOM     13  C   UNL A   1      29.949  28.085  22.860  1.00  0.00     0.191 C 
BRANCH  13  14
ATOM     14  N   UNL A   1      28.517  28.069  23.099  1.00  0.00    -0.343 N 
ATOM     15  C   UNL A   1      27.621  29.098  22.972  1.00  0.00     0.269 C 
ATOM     16  H   UNL A   1      28.141  27.208  23.392  1.00  0.00     0.164 HD
ATOM     17  O   UNL A   1      26.487  28.962  23.420  1.00  0.00    -0.268 OA
BRANCH  15  18
ATOM     18  C   UNL A   1      28.054  30.285  22.294  1.00  0.00     0.125 A 
ATOM     19  C   UNL A   1      27.975  30.594  20.951  1.00  0.00     0.055 A 
ATOM     20  N   UNL A   1      28.716  31.339  22.867  1.00  0.00    -0.263 N 
ATOM     21  C   UNL A   1      28.529  31.880  20.837  1.00  0.00     0.136 A 
ATOM     22  N   UNL A   1      28.958  32.353  22.010  1.00  0.00    -0.181 NA
ATOM     23  C   UNL A   1      29.155  31.462  24.237  1.00  0.00     0.174 C 
ENDBRANCH  15  18
ENDBRANCH  13  14
ENDBRANCH  11  13
ENDBRANCH   4   7
ENDBRANCH   2   3
ENDBRANCH   1   2
BRANCH   1  24
ATOM     24  C   UNL A   1      36.602  23.920  25.421  1.00  0.00     0.118 C 
BRANCH  24  25
ATOM     25  N   UNL A   1      37.599  22.870  25.534  1.00  0.00    -0.352 N 
ATOM     26  C   UNL A   1      38.878  22.948  26.033  1.00  0.00     0.251 C 
ATOM     27  H   UNL A   1      37.321  21.983  25.210  1.00  0.00     0.163 HD
ATOM     28  O   UNL A   1      39.641  21.997  25.888  1.00  0.00    -0.269 OA
BRANCH  26  29
ATOM     29  C   UNL A   1      39.348  24.173  26.723  1.00  0.00     0.039 A 
ATOM     30  C   UNL A   1      38.985  24.373  28.060  1.00  0.00     0.014 A 
ATOM     31  C   UNL A   1      40.092  25.150  26.050  1.00  0.00     0.014 A 
ATOM     32  C   UNL A   1      39.397  25.526  28.734  1.00  0.00     0.010 A 
ATOM     33  C   UNL A   1      40.526  26.290  26.731  1.00  0.00     0.010 A 
ATOM     34  C   UNL A   1      40.178  26.490  28.076  1.00  0.00    -0.014 A 
BRANCH  34  35
ATOM     35  C   UNL A   1      40.608  27.726  28.775  1.00  0.00     0.031 A 
ATOM     36  C   UNL A   1      41.986  27.820  29.368  1.00  0.00     0.074 A 
ATOM     37  C   UNL A   1      39.753  28.756  28.913  1.00  0.00     0.049 A 
ATOM     38  N   UNL A   1      42.513  28.783  30.080  1.00  0.00    -0.248 NA
ATOM     39  C   UNL A   1      42.881  26.675  29.141  1.00  0.00     0.031 C 
ATOM     40  C   UNL A   1      38.380  28.793  28.409  1.00  0.00     0.029 A 
ATOM     41  N   UNL A   1      39.916  29.970  29.531  1.00  0.00    -0.354 N 
ATOM     42  C   UNL A   1      43.786  28.347  30.422  1.00  0.00     0.074 A 
ATOM     43  C   UNL A   1      43.956  27.036  29.829  1.00  0.00     0.031 C 
ATOM     44  C   UNL A   1      37.828  29.977  28.728  1.00  0.00     0.029 A 
ATOM     45  C   UNL A   1      38.803  30.772  29.472  1.00  0.00     0.049 A 
ATOM     46  H   UNL A   1      40.752  30.241  29.976  1.00  0.00     0.167 HD
ATOM     47  C   UNL A   1      44.729  28.974  31.166  1.00  0.00     0.031 A 
ATOM     48  C   UNL A   1      38.588  32.007  29.962  1.00  0.00     0.031 A 
ATOM     49  C   UNL A   1      44.590  30.285  31.735  1.00  0.00     0.049 A 
ATOM     50  C   UNL A   1      39.674  32.717  30.714  1.00  0.00     0.074 A 
ATOM     51  C   UNL A   1      45.498  30.998  32.498  1.00  0.00     0.029 A 
ATOM     52  N   UNL A   1      43.470  31.089  31.592  1.00  0.00    -0.354 N 
ATOM     53  N   UNL A   1      40.870  32.284  31.030  1.00  0.00    -0.248 NA
ATOM     54  C   UNL A   1      39.382  34.083  31.171  1.00  0.00     0.031 C 
ATOM     55  C   UNL A   1      44.929  32.240  32.811  1.00  0.00     0.029 A 
ATOM     56  C   UNL A   1      43.668  32.296  32.239  1.00  0.00     0.049 A 
ATOM     57  H   UNL A   1      42.654  30.838  31.101  1.00  0.00     0.167 HD
ATOM     58  C   UNL A   1      41.476  33.325  31.723  1.00  0.00     0.074 A 
ATOM     59  C   UNL A   1      40.519  34.412  31.772  1.00  0.00     0.031 C 
ATOM     60  C   UNL A   1      42.712  33.371  32.273  1.00  0.00     0.031 A 
BRANCH  47  61
ATOM     61  C   UNL A   1      45.995  28.209  31.417  1.00  0.00    -0.014 A 
ATOM     62  C   UNL A   1      47.085  28.316  30.538  1.00  0.00     0.010 A 
ATOM     63  C   UNL A   1      46.079  27.350  32.527  1.00  0.00     0.010 A 
ATOM     64  C   UNL A   1      48.228  27.536  30.738  1.00  0.00     0.020 A 
ATOM     65  C   UNL A   1      47.223  26.577  32.735  1.00  0.00     0.020 A 
ATOM     66  C   UNL A   1      48.280  26.657  31.825  1.00  0.00     0.054 A 
BRANCH  66  67
ATOM     67  S   UNL A   1      49.746  25.617  32.071  1.00  0.00     0.124 S 
ATOM     68  O   UNL A   1      50.732  26.594  32.525  1.00  0.00    -0.237 OA
ATOM     69  O   UNL A   1      49.310  24.654  33.079  1.00  0.00    -0.237 OA
ATOM     70  O   UNL A   1      49.985  25.055  30.744  1.00  0.00    -0.744 OA
ENDBRANCH  66  67
ENDBRANCH  47  61
BRANCH  48  71
ATOM     71  C   UNL A   1      37.276  32.659  29.734  1.00  0.00    -0.014 A 
ATOM     72  C   UNL A   1      36.276  32.589  30.719  1.00  0.00     0.010 A 
ATOM     73  C   UNL A   1      37.040  33.386  28.556  1.00  0.00     0.010 A 
ATOM     74  C   UNL A   1      35.058  33.244  30.531  1.00  0.00     0.020 A 
ATOM     75  C   UNL A   1      35.825  34.047  28.369  1.00  0.00     0.020 A 
ATOM     76  C   UNL A   1      34.839  33.971  29.358  1.00  0.00     0.054 A 
BRANCH  76  77
ATOM     77  S   UNL A   1      33.293  34.898  29.152  1.00  0.00     0.124 S 
ATOM     78  O   UNL A   1      32.764  34.910  30.512  1.00  0.00    -0.237 OA
ATOM     79  O   UNL A   1      33.747  36.188  28.640  1.00  0.00    -0.237 OA
ATOM     80  O   UNL A   1      32.549  34.086  28.191  1.00  0.00    -0.744 OA
ENDBRANCH  76  77
ENDBRANCH  48  71
BRANCH  60  81
ATOM     81  C   UNL A   1      43.104  34.643  32.963  1.00  0.00    -0.014 A 
ATOM     82  C   UNL A   1      42.834  34.824  34.331  1.00  0.00     0.010 A 
ATOM     83  C   UNL A   1      43.773  35.652  32.250  1.00  0.00     0.010 A 
ATOM     84  C   UNL A   1      43.214  36.005  34.974  1.00  0.00     0.020 A 
ATOM     85  C   UNL A   1      44.157  36.832  32.891  1.00  0.00     0.020 A 
ATOM     86  C   UNL A   1      43.865  37.006  34.248  1.00  0.00     0.054 A 
BRANCH  86  87
ATOM     87  S   UNL A   1      44.391  38.525  35.091  1.00  0.00     0.124 S 
ATOM     88  O   UNL A   1      44.161  38.188  36.492  1.00  0.00    -0.237 OA
ATOM     89  O   UNL A   1      45.793  38.655  34.698  1.00  0.00    -0.237 OA
ATOM     90  O   UNL A   1      43.501  39.542  34.536  1.00  0.00    -0.744 OA
ENDBRANCH  86  87
ENDBRANCH  60  81
ENDBRANCH  34  35
ENDBRANCH  26  29
ENDBRANCH  24  25
ENDBRANCH   1  24
TORSDOF 16
ENDMDL
