MODEL 1
REMARK VINA RESULT:     -14.0      0.000      0.000
REMARK SMILES Cc1ccccc1C(=O)Nc1cc(NC(=O)c2ccccc2C)cc(C(=O)NCCCNC(=O)c2ccc(-c3c4nc(c(-c5ccc(S(=O)(=O)[O-])cc5)c5ccc([nH]5)c(-c5ccc(S(=O)(=O)[O-])cc5)c5nc(c(-c6ccc(S(=O)(=O)[O-])cc6)c6ccc3[nH]6)C=C5)C=C4)cc2)c1
REMARK SMILES IDX 30 1 29 2 28 3 26 4 27 5 25 7 11 8 12 9 95 10 13 11 24 12
REMARK SMILES IDX 10 13 8 14 9 15 7 17 1 18 2 19 3 20 4 21 6 22 5 23 14 24
REMARK SMILES IDX 15 25 16 27 17 28 18 29 22 30 19 31 21 32 23 33 20 34 31 35
REMARK SMILES IDX 32 36 33 37 34 39 35 40 36 41 94 42 37 43 93 44 38 45 39 46
REMARK SMILES IDX 40 47 87 48 41 49 92 50 86 51 88 52 42 53 91 54 85 55 84 56
REMARK SMILES IDX 43 58 73 59 54 60 72 61 55 62 58 63 71 64 89 65 56 66 57 67
REMARK SMILES IDX 70 69 90 70 59 71 44 72 45 73 53 74 46 75 52 76 47 77 48 78
REMARK SMILES IDX 49 79 50 80 51 81 74 82 75 83 83 84 76 85 82 86 77 87 78 88
REMARK SMILES IDX 79 89 80 90 81 91 60 92 61 93 69 94 62 95 68 96 63 97 64 98
REMARK SMILES IDX 65 99 66 100 67 101
REMARK H PARENT 28 6 10 16 14 26 32 38 88 57 58 68
REMARK Flexibility Score: inf
ROOT
ATOM      1  C   UNL A   1      37.564  22.527  25.054  1.00  0.00     0.042 C 
ENDROOT
BRANCH   1   2
ATOM      2  C   UNL A   1      36.372  21.604  25.306  1.00  0.00     0.118 C 
BRANCH   2   3
ATOM      3  N   UNL A   1      35.787  21.812  26.624  1.00  0.00    -0.352 N 
ATOM      4  C   UNL A   1      34.511  22.092  27.044  1.00  0.00     0.251 C 
ATOM      5  O   UNL A   1      34.291  22.098  28.257  1.00  0.00    -0.269 OA
ATOM      6  H   UNL A   1      36.437  21.736  27.360  1.00  0.00     0.163 HD
BRANCH   4   7
ATOM      7  C   UNL A   1      33.362  22.358  26.127  1.00  0.00     0.043 A 
ATOM      8  C   UNL A   1      32.567  22.392  23.829  1.00  0.00     0.044 A 
ATOM      9  C   UNL A   1      31.314  22.845  24.250  1.00  0.00     0.052 A 
ATOM     10  C   UNL A   1      33.549  22.064  24.771  1.00  0.00     0.040 A 
ATOM     11  C   UNL A   1      31.088  23.082  25.602  1.00  0.00     0.044 A 
ATOM     12  C   UNL A   1      32.127  22.876  26.515  1.00  0.00     0.040 A 
BRANCH   8  13
ATOM     13  N   UNL A   1      32.950  22.341  22.482  1.00  0.00    -0.322 N 
ATOM     14  C   UNL A   1      33.249  23.366  21.609  1.00  0.00     0.255 C 
ATOM     15  O   UNL A   1      33.435  23.111  20.418  1.00  0.00    -0.269 OA
ATOM     16  H   UNL A   1      33.018  21.435  22.101  1.00  0.00     0.170 HD
BRANCH  14  17
ATOM     17  C   UNL A   1      33.409  24.776  22.065  1.00  0.00     0.043 A 
ATOM     18  C   UNL A   1      32.086  25.872  20.134  1.00  0.00     0.045 C 
ATOM     19  C   UNL A   1      32.920  25.911  21.385  1.00  0.00    -0.038 A 
ATOM     20  C   UNL A   1      33.215  27.186  21.906  1.00  0.00     0.004 A 
ATOM     21  C   UNL A   1      33.890  27.331  23.118  1.00  0.00     0.000 A 
ATOM     22  C   UNL A   1      34.052  24.935  23.305  1.00  0.00     0.014 A 
ATOM     23  C   UNL A   1      34.284  26.205  23.832  1.00  0.00     0.001 A 
ENDBRANCH  14  17
ENDBRANCH   8  13
BRANCH  11  24
ATOM     24  N   UNL A   1      29.889  23.590  26.132  1.00  0.00    -0.322 N 
ATOM     25  C   UNL A   1      29.512  24.863  26.479  1.00  0.00     0.255 C 
ATOM     26  H   UNL A   1      29.195  22.909  26.282  1.00  0.00     0.170 HD
ATOM     27  O   UNL A   1      28.516  25.041  27.179  1.00  0.00    -0.269 OA
BRANCH  25  28
ATOM     28  C   UNL A   1      30.227  26.048  25.957  1.00  0.00     0.043 A 
ATOM     29  C   UNL A   1      31.219  26.586  26.792  1.00  0.00     0.014 A 
ATOM     30  C   UNL A   1      29.897  26.681  24.742  1.00  0.00    -0.038 A 
ATOM     31  C   UNL A   1      31.934  27.713  26.397  1.00  0.00     0.001 A 
ATOM     32  C   UNL A   1      30.654  27.796  24.347  1.00  0.00     0.004 A 
ATOM     33  C   UNL A   1      28.786  26.228  23.836  1.00  0.00     0.045 C 
ATOM     34  C   UNL A   1      31.661  28.308  25.168  1.00  0.00     0.000 A 
ENDBRANCH  25  28
ENDBRANCH  11  24
ENDBRANCH   4   7
ENDBRANCH   2   3
ENDBRANCH   1   2
BRANCH   1  35
ATOM     35  C   UNL A   1      37.890  23.428  26.229  1.00  0.00     0.118 C 
BRANCH  35  36
ATOM     36  N   UNL A   1      39.153  23.065  26.869  1.00  0.00    -0.352 N 
ATOM     37  C   UNL A   1      40.065  23.914  27.477  1.00  0.00     0.251 C 
ATOM     38  H   UNL A   1      39.381  22.108  26.869  1.00  0.00     0.163 HD
ATOM     39  O   UNL A   1      41.145  23.561  27.859  1.00  0.00    -0.269 OA
BRANCH  37  40
ATOM     40  C   UNL A   1      39.568  25.284  27.734  1.00  0.00     0.039 A 
ATOM     41  C   UNL A   1      40.060  26.293  26.897  1.00  0.00     0.014 A 
ATOM     42  C   UNL A   1      38.965  25.573  28.955  1.00  0.00     0.014 A 
ATOM     43  C   UNL A   1      40.104  27.599  27.366  1.00  0.00     0.010 A 
ATOM     44  C   UNL A   1      39.093  26.855  29.452  1.00  0.00     0.010 A 
ATOM     45  C   UNL A   1      39.709  27.852  28.678  1.00  0.00    -0.014 A 
BRANCH  45  46
ATOM     46  C   UNL A   1      39.953  29.120  29.357  1.00  0.00     0.031 A 
ATOM     47  C   UNL A   1      38.961  30.213  29.225  1.00  0.00     0.074 A 
ATOM     48  C   UNL A   1      41.041  29.287  30.142  1.00  0.00     0.049 A 
ATOM     49  N   UNL A   1      39.204  31.455  29.480  1.00  0.00    -0.248 NA
ATOM     50  C   UNL A   1      37.619  29.992  28.686  1.00  0.00     0.031 C 
ATOM     51  C   UNL A   1      41.251  30.348  31.125  1.00  0.00     0.029 A 
ATOM     52  N   UNL A   1      42.289  28.664  30.050  1.00  0.00    -0.354 N 
ATOM     53  C   UNL A   1      37.998  32.116  29.463  1.00  0.00     0.074 A 
ATOM     54  C   UNL A   1      37.083  31.208  28.820  1.00  0.00     0.031 C 
ATOM     55  C   UNL A   1      42.570  30.509  31.306  1.00  0.00     0.029 A 
ATOM     56  C   UNL A   1      43.242  29.656  30.341  1.00  0.00     0.049 A 
ATOM     57  H   UNL A   1      42.465  27.721  29.827  1.00  0.00     0.167 HD
ATOM     58  C   UNL A   1      37.870  33.289  30.144  1.00  0.00     0.031 A 
ATOM     59  C   UNL A   1      44.221  30.065  29.481  1.00  0.00     0.031 A 
ATOM     60  C   UNL A   1      39.174  33.828  30.532  1.00  0.00     0.049 A 
ATOM     61  C   UNL A   1      44.176  31.551  29.190  1.00  0.00     0.074 A 
ATOM     62  C   UNL A   1      39.855  33.904  31.733  1.00  0.00     0.029 A 
ATOM     63  N   UNL A   1      40.088  34.155  29.537  1.00  0.00    -0.354 N 
ATOM     64  N   UNL A   1      43.162  32.317  29.484  1.00  0.00    -0.248 NA
ATOM     65  C   UNL A   1      45.239  32.281  28.503  1.00  0.00     0.031 C 
ATOM     66  C   UNL A   1      41.222  34.168  31.440  1.00  0.00     0.029 A 
ATOM     67  C   UNL A   1      41.355  34.299  30.068  1.00  0.00     0.049 A 
ATOM     68  H   UNL A   1      39.864  34.269  28.585  1.00  0.00     0.167 HD
ATOM     69  C   UNL A   1      43.400  33.590  29.043  1.00  0.00     0.074 A 
ATOM     70  C   UNL A   1      44.722  33.522  28.445  1.00  0.00     0.031 C 
ATOM     71  C   UNL A   1      42.483  34.591  29.193  1.00  0.00     0.031 A 
BRANCH  58  72
ATOM     72  C   UNL A   1      36.552  33.820  30.679  1.00  0.00    -0.014 A 
ATOM     73  C   UNL A   1      35.496  34.098  29.785  1.00  0.00     0.010 A 
ATOM     74  C   UNL A   1      36.327  34.192  32.020  1.00  0.00     0.010 A 
ATOM     75  C   UNL A   1      34.318  34.749  30.198  1.00  0.00     0.020 A 
ATOM     76  C   UNL A   1      35.152  34.820  32.452  1.00  0.00     0.020 A 
ATOM     77  C   UNL A   1      34.159  35.118  31.532  1.00  0.00     0.054 A 
BRANCH  77  78
ATOM     78  S   UNL A   1      32.675  36.014  32.056  1.00  0.00     0.124 S 
ATOM     79  O   UNL A   1      32.237  36.642  30.812  1.00  0.00    -0.237 OA
ATOM     80  O   UNL A   1      31.818  34.945  32.560  1.00  0.00    -0.237 OA
ATOM     81  O   UNL A   1      33.169  36.940  33.073  1.00  0.00    -0.744 OA
ENDBRANCH  77  78
ENDBRANCH  58  72
BRANCH  59  82
ATOM     82  C   UNL A   1      44.680  29.017  28.530  1.00  0.00    -0.014 A 
ATOM     83  C   UNL A   1      44.085  29.008  27.250  1.00  0.00     0.010 A 
ATOM     84  C   UNL A   1      45.929  28.395  28.706  1.00  0.00     0.010 A 
ATOM     85  C   UNL A   1      44.804  28.564  26.138  1.00  0.00     0.020 A 
ATOM     86  C   UNL A   1      46.649  27.945  27.590  1.00  0.00     0.020 A 
ATOM     87  C   UNL A   1      46.109  28.103  26.310  1.00  0.00     0.054 A 
BRANCH  87  88
ATOM     88  S   UNL A   1      47.148  27.931  24.827  1.00  0.00     0.124 S 
ATOM     89  O   UNL A   1      48.489  28.149  25.357  1.00  0.00    -0.237 OA
ATOM     90  O   UNL A   1      46.853  26.558  24.411  1.00  0.00    -0.237 OA
ATOM     91  O   UNL A   1      46.641  28.971  23.939  1.00  0.00    -0.744 OA
ENDBRANCH  87  88
ENDBRANCH  59  82
BRANCH  71  92
ATOM     92  C   UNL A   1      42.577  35.969  28.583  1.00  0.00    -0.014 A 
ATOM     93  C   UNL A   1      42.033  36.317  27.337  1.00  0.00     0.010 A 
ATOM     94  C   UNL A   1      43.123  37.018  29.360  1.00  0.00     0.010 A 
ATOM     95  C   UNL A   1      42.087  37.637  26.862  1.00  0.00     0.020 A 
ATOM     96  C   UNL A   1      43.145  38.342  28.915  1.00  0.00     0.020 A 
ATOM     97  C   UNL A   1      42.648  38.640  27.653  1.00  0.00     0.054 A 
BRANCH  97  98
ATOM     98  S   UNL A   1      42.656  40.353  27.065  1.00  0.00     0.124 S 
ATOM     99  O   UNL A   1      41.230  40.668  27.035  1.00  0.00    -0.237 OA
ATOM    100  O   UNL A   1      43.430  41.051  28.090  1.00  0.00    -0.237 OA
ATOM    101  O   UNL A   1      43.307  40.263  25.761  1.00  0.00    -0.744 OA
ENDBRANCH  97  98
ENDBRANCH  71  92
ENDBRANCH  45  46
ENDBRANCH  37  40
ENDBRANCH  35  36
ENDBRANCH   1  35
TORSDOF 17
ENDMDL
MODEL 2
REMARK VINA RESULT:     -13.9      2.277      3.862
REMARK SMILES Cc1ccccc1C(=O)Nc1cc(NC(=O)c2ccccc2C)cc(C(=O)NCCCNC(=O)c2ccc(-c3c4nc(c(-c5ccc(S(=O)(=O)[O-])cc5)c5ccc([nH]5)c(-c5ccc(S(=O)(=O)[O-])cc5)c5nc(c(-c6ccc(S(=O)(=O)[O-])cc6)c6ccc3[nH]6)C=C5)C=C4)cc2)c1
REMARK SMILES IDX 30 1 29 2 28 3 26 4 27 5 25 7 11 8 12 9 95 10 13 11 24 12
REMARK SMILES IDX 10 13 8 14 9 15 7 17 1 18 2 19 3 20 4 21 6 22 5 23 14 24
REMARK SMILES IDX 15 25 16 27 17 28 18 29 22 30 19 31 21 32 23 33 20 34 31 35
REMARK SMILES IDX 32 36 33 37 34 39 35 40 36 41 94 42 37 43 93 44 38 45 39 46
REMARK SMILES IDX 40 47 87 48 41 49 92 50 86 51 88 52 42 53 91 54 85 55 84 56
REMARK SMILES IDX 43 58 73 59 54 60 72 61 55 62 58 63 71 64 89 65 56 66 57 67
REMARK SMILES IDX 70 69 90 70 59 71 44 72 45 73 53 74 46 75 52 76 47 77 48 78
REMARK SMILES IDX 49 79 50 80 51 81 74 82 75 83 83 84 76 85 82 86 77 87 78 88
REMARK SMILES IDX 79 89 80 90 81 91 60 92 61 93 69 94 62 95 68 96 63 97 64 98
REMARK SMILES IDX 65 99 66 100 67 101
REMARK H PARENT 28 6 10 16 14 26 32 38 88 57 58 68
REMARK Flexibility Score: inf
ROOT
ATOM      1  C   UNL A   1      36.639  22.859  24.448  1.00  0.00     0.042 C 
ENDROOT
BRANCH   1   2
ATOM      2  C   UNL A   1      35.428  23.725  24.101  1.00  0.00     0.118 C 
BRANCH   2   3
ATOM      3  N   UNL A   1      34.864  23.381  22.802  1.00  0.00    -0.352 N 
ATOM      4  C   UNL A   1      33.664  23.670  22.201  1.00  0.00     0.251 C 
ATOM      5  O   UNL A   1      33.513  23.334  21.024  1.00  0.00    -0.269 OA
ATOM      6  H   UNL A   1      35.464  22.835  22.243  1.00  0.00     0.163 HD
BRANCH   4   7
ATOM      7  C   UNL A   1      32.540  24.393  22.868  1.00  0.00     0.043 A 
ATOM      8  C   UNL A   1      31.013  26.283  22.786  1.00  0.00     0.044 A 
ATOM      9  C   UNL A   1      30.443  25.899  24.003  1.00  0.00     0.052 A 
ATOM     10  C   UNL A   1      31.989  25.482  22.182  1.00  0.00     0.040 A 
ATOM     11  C   UNL A   1      30.934  24.781  24.668  1.00  0.00     0.044 A 
ATOM     12  C   UNL A   1      32.003  24.070  24.113  1.00  0.00     0.040 A 
BRANCH   8  13
ATOM     13  N   UNL A   1      30.736  27.508  22.163  1.00  0.00    -0.322 N 
ATOM     14  C   UNL A   1      31.000  28.793  22.587  1.00  0.00     0.255 C 
ATOM     15  O   UNL A   1      30.550  29.746  21.947  1.00  0.00    -0.269 OA
ATOM     16  H   UNL A   1      30.285  27.441  21.290  1.00  0.00     0.170 HD
BRANCH  14  17
ATOM     17  C   UNL A   1      31.861  29.079  23.770  1.00  0.00     0.043 A 
ATOM     18  C   UNL A   1      34.120  28.523  22.642  1.00  0.00     0.045 C 
ATOM     19  C   UNL A   1      33.263  28.923  23.811  1.00  0.00    -0.038 A 
ATOM     20  C   UNL A   1      33.930  29.165  25.027  1.00  0.00     0.004 A 
ATOM     21  C   UNL A   1      33.245  29.642  26.144  1.00  0.00     0.000 A 
ATOM     22  C   UNL A   1      31.189  29.599  24.889  1.00  0.00     0.014 A 
ATOM     23  C   UNL A   1      31.878  29.887  26.067  1.00  0.00     0.001 A 
ENDBRANCH  14  17
ENDBRANCH   8  13
BRANCH  11  24
ATOM     24  N   UNL A   1      30.478  24.335  25.921  1.00  0.00    -0.322 N 
ATOM     25  C   UNL A   1      30.646  23.145  26.583  1.00  0.00     0.255 C 
ATOM     26  H   UNL A   1      29.940  24.996  26.412  1.00  0.00     0.170 HD
ATOM     27  O   UNL A   1      29.932  22.870  27.547  1.00  0.00    -0.269 OA
BRANCH  25  28
ATOM     28  C   UNL A   1      31.732  22.209  26.221  1.00  0.00     0.043 A 
ATOM     29  C   UNL A   1      31.439  21.289  25.203  1.00  0.00     0.014 A 
ATOM     30  C   UNL A   1      32.967  22.153  26.899  1.00  0.00    -0.038 A 
ATOM     31  C   UNL A   1      32.391  20.354  24.806  1.00  0.00     0.001 A 
ATOM     32  C   UNL A   1      33.925  21.225  26.459  1.00  0.00     0.004 A 
ATOM     33  C   UNL A   1      33.324  23.036  28.063  1.00  0.00     0.045 C 
ATOM     34  C   UNL A   1      33.639  20.332  25.424  1.00  0.00     0.000 A 
ENDBRANCH  25  28
ENDBRANCH  11  24
ENDBRANCH   4   7
ENDBRANCH   2   3
ENDBRANCH   1   2
BRANCH   1  35
ATOM     35  C   UNL A   1      37.074  22.979  25.896  1.00  0.00     0.118 C 
BRANCH  35  36
ATOM     36  N   UNL A   1      38.355  22.320  26.144  1.00  0.00    -0.352 N 
ATOM     37  C   UNL A   1      39.558  22.918  26.488  1.00  0.00     0.251 C 
ATOM     38  H   UNL A   1      38.364  21.340  26.057  1.00  0.00     0.163 HD
ATOM     39  O   UNL A   1      40.599  22.327  26.541  1.00  0.00    -0.269 OA
BRANCH  37  40
ATOM     40  C   UNL A   1      39.454  24.334  26.907  1.00  0.00     0.039 A 
ATOM     41  C   UNL A   1      40.070  25.277  26.075  1.00  0.00     0.014 A 
ATOM     42  C   UNL A   1      39.104  24.633  28.221  1.00  0.00     0.014 A 
ATOM     43  C   UNL A   1      40.497  26.481  26.618  1.00  0.00     0.010 A 
ATOM     44  C   UNL A   1      39.609  25.790  28.777  1.00  0.00     0.010 A 
ATOM     45  C   UNL A   1      40.349  26.687  27.989  1.00  0.00    -0.014 A 
BRANCH  45  46
ATOM     46  C   UNL A   1      40.986  27.785  28.706  1.00  0.00     0.031 A 
ATOM     47  C   UNL A   1      40.187  28.986  29.046  1.00  0.00     0.074 A 
ATOM     48  C   UNL A   1      42.274  27.695  29.108  1.00  0.00     0.049 A 
ATOM     49  N   UNL A   1      40.689  30.132  29.363  1.00  0.00    -0.248 NA
ATOM     50  C   UNL A   1      38.727  29.008  28.951  1.00  0.00     0.031 C 
ATOM     51  C   UNL A   1      42.939  28.544  30.095  1.00  0.00     0.029 A 
ATOM     52  N   UNL A   1      43.319  26.966  28.535  1.00  0.00    -0.354 N 
ATOM     53  C   UNL A   1      39.656  30.914  29.825  1.00  0.00     0.074 A 
ATOM     54  C   UNL A   1      38.457  30.234  29.406  1.00  0.00     0.031 C 
ATOM     55  C   UNL A   1      44.259  28.526  29.855  1.00  0.00     0.029 A 
ATOM     56  C   UNL A   1      44.460  27.784  28.623  1.00  0.00     0.049 A 
ATOM     57  H   UNL A   1      43.267  26.061  28.148  1.00  0.00     0.167 HD
ATOM     58  C   UNL A   1      39.929  31.960  30.654  1.00  0.00     0.031 A 
ATOM     59  C   UNL A   1      45.180  28.224  27.550  1.00  0.00     0.031 A 
ATOM     60  C   UNL A   1      41.357  32.279  30.661  1.00  0.00     0.049 A 
ATOM     61  C   UNL A   1      45.284  29.734  27.481  1.00  0.00     0.074 A 
ATOM     62  C   UNL A   1      42.376  32.073  31.573  1.00  0.00     0.029 A 
ATOM     63  N   UNL A   1      41.963  32.670  29.472  1.00  0.00    -0.354 N 
ATOM     64  N   UNL A   1      44.543  30.544  28.185  1.00  0.00    -0.248 NA
ATOM     65  C   UNL A   1      46.188  30.451  26.584  1.00  0.00     0.031 C 
ATOM     66  C   UNL A   1      43.611  32.234  30.886  1.00  0.00     0.029 A 
ATOM     67  C   UNL A   1      43.337  32.581  29.575  1.00  0.00     0.049 A 
ATOM     68  H   UNL A   1      41.480  32.969  28.669  1.00  0.00     0.167 HD
ATOM     69  C   UNL A   1      44.832  31.841  27.856  1.00  0.00     0.074 A 
ATOM     70  C   UNL A   1      45.880  31.732  26.857  1.00  0.00     0.031 C 
ATOM     71  C   UNL A   1      44.175  32.895  28.424  1.00  0.00     0.031 A 
BRANCH  58  72
ATOM     72  C   UNL A   1      38.939  32.531  31.653  1.00  0.00    -0.014 A 
ATOM     73  C   UNL A   1      38.243  31.664  32.522  1.00  0.00     0.010 A 
ATOM     74  C   UNL A   1      38.545  33.884  31.701  1.00  0.00     0.010 A 
ATOM     75  C   UNL A   1      37.194  32.114  33.346  1.00  0.00     0.020 A 
ATOM     76  C   UNL A   1      37.518  34.352  32.531  1.00  0.00     0.020 A 
ATOM     77  C   UNL A   1      36.829  33.458  33.335  1.00  0.00     0.054 A 
BRANCH  77  78
ATOM     78  S   UNL A   1      35.436  34.029  34.342  1.00  0.00     0.124 S 
ATOM     79  O   UNL A   1      34.353  33.157  33.896  1.00  0.00    -0.237 OA
ATOM     80  O   UNL A   1      35.912  33.802  35.703  1.00  0.00    -0.237 OA
ATOM     81  O   UNL A   1      35.289  35.435  33.966  1.00  0.00    -0.744 OA
ENDBRANCH  77  78
ENDBRANCH  58  72
BRANCH  59  82
ATOM     82  C   UNL A   1      45.156  27.311  26.375  1.00  0.00    -0.014 A 
ATOM     83  C   UNL A   1      46.244  26.424  26.231  1.00  0.00     0.010 A 
ATOM     84  C   UNL A   1      43.942  27.013  25.731  1.00  0.00     0.010 A 
ATOM     85  C   UNL A   1      46.066  25.178  25.625  1.00  0.00     0.020 A 
ATOM     86  C   UNL A   1      43.764  25.764  25.119  1.00  0.00     0.020 A 
ATOM     87  C   UNL A   1      44.806  24.831  25.139  1.00  0.00     0.054 A 
BRANCH  87  88
ATOM     88  S   UNL A   1      44.504  23.081  24.744  1.00  0.00     0.124 S 
ATOM     89  O   UNL A   1      43.055  23.043  24.583  1.00  0.00    -0.237 OA
ATOM     90  O   UNL A   1      45.277  22.913  23.512  1.00  0.00    -0.237 OA
ATOM     91  O   UNL A   1      45.030  22.379  25.908  1.00  0.00    -0.744 OA
ENDBRANCH  87  88
ENDBRANCH  59  82
BRANCH  71  92
ATOM     92  C   UNL A   1      44.294  34.338  27.997  1.00  0.00    -0.014 A 
ATOM     93  C   UNL A   1      43.459  34.951  27.051  1.00  0.00     0.010 A 
ATOM     94  C   UNL A   1      45.209  35.173  28.682  1.00  0.00     0.010 A 
ATOM     95  C   UNL A   1      43.573  36.319  26.757  1.00  0.00     0.020 A 
ATOM     96  C   UNL A   1      45.303  36.544  28.427  1.00  0.00     0.020 A 
ATOM     97  C   UNL A   1      44.498  37.105  27.444  1.00  0.00     0.054 A 
BRANCH  97  98
ATOM     98  S   UNL A   1      44.596  38.883  27.109  1.00  0.00     0.124 S 
ATOM     99  O   UNL A   1      45.720  38.952  26.178  1.00  0.00    -0.237 OA
ATOM    100  O   UNL A   1      43.287  39.183  26.532  1.00  0.00    -0.237 OA
ATOM    101  O   UNL A   1      44.834  39.466  28.426  1.00  0.00    -0.744 OA
ENDBRANCH  97  98
ENDBRANCH  71  92
ENDBRANCH  45  46
ENDBRANCH  37  40
ENDBRANCH  35  36
ENDBRANCH   1  35
TORSDOF 17
ENDMDL
MODEL 3
REMARK VINA RESULT:     -13.8      1.571      3.015
REMARK SMILES Cc1ccccc1C(=O)Nc1cc(NC(=O)c2ccccc2C)cc(C(=O)NCCCNC(=O)c2ccc(-c3c4nc(c(-c5ccc(S(=O)(=O)[O-])cc5)c5ccc([nH]5)c(-c5ccc(S(=O)(=O)[O-])cc5)c5nc(c(-c6ccc(S(=O)(=O)[O-])cc6)c6ccc3[nH]6)C=C5)C=C4)cc2)c1
REMARK SMILES IDX 30 1 29 2 28 3 26 4 27 5 25 7 11 8 12 9 95 10 13 11 24 12
REMARK SMILES IDX 10 13 8 14 9 15 7 17 1 18 2 19 3 20 4 21 6 22 5 23 14 24
REMARK SMILES IDX 15 25 16 27 17 28 18 29 22 30 19 31 21 32 23 33 20 34 31 35
REMARK SMILES IDX 32 36 33 37 34 39 35 40 36 41 94 42 37 43 93 44 38 45 39 46
REMARK SMILES IDX 40 47 87 48 41 49 92 50 86 51 88 52 42 53 91 54 85 55 84 56
REMARK SMILES IDX 43 58 73 59 54 60 72 61 55 62 58 63 71 64 89 65 56 66 57 67
REMARK SMILES IDX 70 69 90 70 59 71 44 72 45 73 53 74 46 75 52 76 47 77 48 78
REMARK SMILES IDX 49 79 50 80 51 81 74 82 75 83 83 84 76 85 82 86 77 87 78 88
REMARK SMILES IDX 79 89 80 90 81 91 60 92 61 93 69 94 62 95 68 96 63 97 64 98
REMARK SMILES IDX 65 99 66 100 67 101
REMARK H PARENT 28 6 10 16 14 26 32 38 88 57 58 68
REMARK Flexibility Score: inf
ROOT
ATOM      1  C   UNL A   1      36.738  23.711  26.183  1.00  0.00     0.042 C 
ENDROOT
BRANCH   1   2
ATOM      2  C   UNL A   1      35.662  24.399  25.342  1.00  0.00     0.118 C 
BRANCH   2   3
ATOM      3  N   UNL A   1      35.583  23.846  23.996  1.00  0.00    -0.352 N 
ATOM      4  C   UNL A   1      34.578  23.810  23.061  1.00  0.00     0.251 C 
ATOM      5  O   UNL A   1      34.847  23.366  21.943  1.00  0.00    -0.269 OA
ATOM      6  H   UNL A   1      36.415  23.412  23.698  1.00  0.00     0.163 HD
BRANCH   4   7
ATOM      7  C   UNL A   1      33.188  24.302  23.299  1.00  0.00     0.043 A 
ATOM      8  C   UNL A   1      31.515  25.984  22.767  1.00  0.00     0.044 A 
ATOM      9  C   UNL A   1      30.610  25.390  23.651  1.00  0.00     0.052 A 
ATOM     10  C   UNL A   1      32.758  25.389  22.527  1.00  0.00     0.040 A 
ATOM     11  C   UNL A   1      30.997  24.270  24.380  1.00  0.00     0.044 A 
ATOM     12  C   UNL A   1      32.293  23.769  24.225  1.00  0.00     0.040 A 
BRANCH   8  13
ATOM     13  N   UNL A   1      31.291  27.231  22.166  1.00  0.00    -0.322 N 
ATOM     14  C   UNL A   1      31.441  28.500  22.683  1.00  0.00     0.255 C 
ATOM     15  O   UNL A   1      31.060  29.470  22.026  1.00  0.00    -0.269 OA
ATOM     16  H   UNL A   1      30.980  27.194  21.232  1.00  0.00     0.170 HD
BRANCH  14  17
ATOM     17  C   UNL A   1      32.103  28.750  23.995  1.00  0.00     0.043 A 
ATOM     18  C   UNL A   1      34.538  28.601  23.141  1.00  0.00     0.045 C 
ATOM     19  C   UNL A   1      33.497  28.759  24.215  1.00  0.00    -0.038 A 
ATOM     20  C   UNL A   1      33.969  28.940  25.529  1.00  0.00     0.004 A 
ATOM     21  C   UNL A   1      33.092  29.201  26.581  1.00  0.00     0.000 A 
ATOM     22  C   UNL A   1      31.233  29.055  25.056  1.00  0.00     0.014 A 
ATOM     23  C   UNL A   1      31.725  29.287  26.340  1.00  0.00     0.001 A 
ENDBRANCH  14  17
ENDBRANCH   8  13
BRANCH  11  24
ATOM     24  N   UNL A   1      30.193  23.625  25.336  1.00  0.00    -0.322 N 
ATOM     25  C   UNL A   1      30.444  22.571  26.178  1.00  0.00     0.255 C 
ATOM     26  H   UNL A   1      29.285  23.995  25.414  1.00  0.00     0.170 HD
ATOM     27  O   UNL A   1      29.512  21.994  26.736  1.00  0.00    -0.269 OA
BRANCH  25  28
ATOM     28  C   UNL A   1      31.827  22.161  26.508  1.00  0.00     0.043 A 
ATOM     29  C   UNL A   1      32.432  22.839  27.577  1.00  0.00     0.014 A 
ATOM     30  C   UNL A   1      32.556  21.218  25.758  1.00  0.00    -0.038 A 
ATOM     31  C   UNL A   1      33.739  22.538  27.951  1.00  0.00     0.001 A 
ATOM     32  C   UNL A   1      33.861  20.904  26.173  1.00  0.00     0.004 A 
ATOM     33  C   UNL A   1      32.017  20.518  24.541  1.00  0.00     0.045 C 
ATOM     34  C   UNL A   1      34.447  21.560  27.258  1.00  0.00     0.000 A 
ENDBRANCH  25  28
ENDBRANCH  11  24
ENDBRANCH   4   7
ENDBRANCH   2   3
ENDBRANCH   1   2
BRANCH   1  35
ATOM     35  C   UNL A   1      38.123  23.784  25.571  1.00  0.00     0.118 C 
BRANCH  35  36
ATOM     36  N   UNL A   1      39.152  23.267  26.470  1.00  0.00    -0.352 N 
ATOM     37  C   UNL A   1      39.929  23.986  27.366  1.00  0.00     0.251 C 
ATOM     38  H   UNL A   1      39.313  22.296  26.436  1.00  0.00     0.163 HD
ATOM     39  O   UNL A   1      40.849  23.515  27.972  1.00  0.00    -0.269 OA
BRANCH  37  40
ATOM     40  C   UNL A   1      39.469  25.370  27.619  1.00  0.00     0.039 A 
ATOM     41  C   UNL A   1      40.010  26.367  26.798  1.00  0.00     0.014 A 
ATOM     42  C   UNL A   1      38.850  25.672  28.829  1.00  0.00     0.014 A 
ATOM     43  C   UNL A   1      40.084  27.669  27.275  1.00  0.00     0.010 A 
ATOM     44  C   UNL A   1      39.007  26.947  29.335  1.00  0.00     0.010 A 
ATOM     45  C   UNL A   1      39.670  27.928  28.580  1.00  0.00    -0.014 A 
BRANCH  45  46
ATOM     46  C   UNL A   1      39.939  29.184  29.270  1.00  0.00     0.031 A 
ATOM     47  C   UNL A   1      38.951  30.285  29.179  1.00  0.00     0.074 A 
ATOM     48  C   UNL A   1      41.047  29.334  30.030  1.00  0.00     0.049 A 
ATOM     49  N   UNL A   1      39.208  31.521  29.445  1.00  0.00    -0.248 NA
ATOM     50  C   UNL A   1      37.594  30.079  28.671  1.00  0.00     0.031 C 
ATOM     51  C   UNL A   1      41.289  30.380  31.021  1.00  0.00     0.029 A 
ATOM     52  N   UNL A   1      42.289  28.705  29.896  1.00  0.00    -0.354 N 
ATOM     53  C   UNL A   1      38.005  32.190  29.468  1.00  0.00     0.074 A 
ATOM     54  C   UNL A   1      37.069  31.296  28.836  1.00  0.00     0.031 C 
ATOM     55  C   UNL A   1      42.613  30.530  31.171  1.00  0.00     0.029 A 
ATOM     56  C   UNL A   1      43.255  29.688  30.177  1.00  0.00     0.049 A 
ATOM     57  H   UNL A   1      42.453  27.765  29.655  1.00  0.00     0.167 HD
ATOM     58  C   UNL A   1      37.902  33.354  30.169  1.00  0.00     0.031 A 
ATOM     59  C   UNL A   1      44.214  30.103  29.298  1.00  0.00     0.031 A 
ATOM     60  C   UNL A   1      39.218  33.879  30.531  1.00  0.00     0.049 A 
ATOM     61  C   UNL A   1      44.171  31.593  29.030  1.00  0.00     0.074 A 
ATOM     62  C   UNL A   1      39.931  33.934  31.716  1.00  0.00     0.029 A 
ATOM     63  N   UNL A   1      40.109  34.216  29.518  1.00  0.00    -0.354 N 
ATOM     64  N   UNL A   1      43.170  32.361  29.360  1.00  0.00    -0.248 NA
ATOM     65  C   UNL A   1      45.221  32.328  28.326  1.00  0.00     0.031 C 
ATOM     66  C   UNL A   1      41.291  34.195  31.392  1.00  0.00     0.029 A 
ATOM     67  C   UNL A   1      41.390  34.344  30.019  1.00  0.00     0.049 A 
ATOM     68  H   UNL A   1      39.862  34.345  28.574  1.00  0.00     0.167 HD
ATOM     69  C   UNL A   1      43.404  33.639  28.931  1.00  0.00     0.074 A 
ATOM     70  C   UNL A   1      44.709  33.572  28.299  1.00  0.00     0.031 C 
ATOM     71  C   UNL A   1      42.497  34.643  29.119  1.00  0.00     0.031 A 
BRANCH  58  72
ATOM     72  C   UNL A   1      36.601  33.884  30.745  1.00  0.00    -0.014 A 
ATOM     73  C   UNL A   1      35.477  34.040  29.906  1.00  0.00     0.010 A 
ATOM     74  C   UNL A   1      36.451  34.371  32.060  1.00  0.00     0.010 A 
ATOM     75  C   UNL A   1      34.303  34.683  30.341  1.00  0.00     0.020 A 
ATOM     76  C   UNL A   1      35.281  34.994  32.515  1.00  0.00     0.020 A 
ATOM     77  C   UNL A   1      34.218  35.169  31.644  1.00  0.00     0.054 A 
BRANCH  77  78
ATOM     78  S   UNL A   1      32.735  36.056  32.187  1.00  0.00     0.124 S 
ATOM     79  O   UNL A   1      33.239  36.846  33.307  1.00  0.00    -0.237 OA
ATOM     80  O   UNL A   1      32.361  36.812  30.996  1.00  0.00    -0.237 OA
ATOM     81  O   UNL A   1      31.807  34.987  32.556  1.00  0.00    -0.744 OA
ENDBRANCH  77  78
ENDBRANCH  58  72
BRANCH  59  82
ATOM     82  C   UNL A   1      44.643  29.067  28.321  1.00  0.00    -0.014 A 
ATOM     83  C   UNL A   1      45.502  28.054  28.797  1.00  0.00     0.010 A 
ATOM     84  C   UNL A   1      43.890  28.832  27.157  1.00  0.00     0.010 A 
ATOM     85  C   UNL A   1      45.463  26.773  28.241  1.00  0.00     0.020 A 
ATOM     86  C   UNL A   1      43.853  27.547  26.596  1.00  0.00     0.020 A 
ATOM     87  C   UNL A   1      44.583  26.513  27.191  1.00  0.00     0.054 A 
BRANCH  87  88
ATOM     88  S   UNL A   1      44.254  24.773  26.774  1.00  0.00     0.124 S 
ATOM     89  O   UNL A   1      44.027  24.175  28.085  1.00  0.00    -0.237 OA
ATOM     90  O   UNL A   1      43.068  24.887  25.923  1.00  0.00    -0.237 OA
ATOM     91  O   UNL A   1      45.472  24.355  26.090  1.00  0.00    -0.744 OA
ENDBRANCH  87  88
ENDBRANCH  59  82
BRANCH  71  92
ATOM     92  C   UNL A   1      42.583  36.029  28.526  1.00  0.00    -0.014 A 
ATOM     93  C   UNL A   1      42.046  36.387  27.280  1.00  0.00     0.010 A 
ATOM     94  C   UNL A   1      43.114  37.073  29.321  1.00  0.00     0.010 A 
ATOM     95  C   UNL A   1      42.093  37.713  26.822  1.00  0.00     0.020 A 
ATOM     96  C   UNL A   1      43.128  38.403  28.892  1.00  0.00     0.020 A 
ATOM     97  C   UNL A   1      42.638  38.711  27.630  1.00  0.00     0.054 A 
BRANCH  97  98
ATOM     98  S   UNL A   1      42.636  40.432  27.062  1.00  0.00     0.124 S 
ATOM     99  O   UNL A   1      43.445  41.087  28.087  1.00  0.00    -0.237 OA
ATOM    100  O   UNL A   1      43.252  40.345  25.740  1.00  0.00    -0.237 OA
ATOM    101  O   UNL A   1      41.219  40.788  27.057  1.00  0.00    -0.744 OA
ENDBRANCH  97  98
ENDBRANCH  71  92
ENDBRANCH  45  46
ENDBRANCH  37  40
ENDBRANCH  35  36
ENDBRANCH   1  35
TORSDOF 17
ENDMDL
