MODEL 1
REMARK VINA RESULT:     -12.7      0.000      0.000
REMARK SMILES C[NH+]1CCC(C(=O)N2C[C@@H](C(=O)NCCCNC(=O)c3ccc(-c4c5nc(c(-c6ccc(S(=O)(=O)[O-])cc6)c6ccc([nH]6)c(-c6ccc(S(=O)(=O)[O-])cc6)c6nc(c(-c7ccc(S(=O)(=O)[O-])cc7)c7ccc4[nH]7)C=C6)C=C5)cc3)[C@H](c3ccc4c(c3)OCO4)C2)CC1
REMARK SMILES IDX 15 1 14 2 13 3 11 4 12 5 10 7 8 8 9 9 90 10 80 11 6 12 7 13
REMARK SMILES IDX 5 14 1 15 2 16 3 17 92 18 4 20 91 21 81 22 82 23 86 24 83 25
REMARK SMILES IDX 85 26 84 27 87 28 89 29 88 30 16 31 17 32 18 33 19 35 20 36
REMARK SMILES IDX 21 37 79 38 22 39 78 40 23 41 24 42 25 43 72 44 26 45 77 46
REMARK SMILES IDX 71 47 73 48 27 49 76 50 70 51 69 52 28 54 58 55 39 56 57 57
REMARK SMILES IDX 40 58 43 59 56 60 74 61 41 62 42 63 55 65 75 66 44 67 29 68
REMARK SMILES IDX 30 69 38 70 31 71 37 72 32 73 33 74 34 75 35 76 36 77 59 78
REMARK SMILES IDX 60 79 68 80 61 81 67 82 62 83 63 84 64 85 65 86 66 87 45 88
REMARK SMILES IDX 46 89 54 90 47 91 53 92 48 93 49 94 50 95 51 96 52 97
REMARK H PARENT 13 6 2 19 17 34 73 53 43 64
REMARK Flexibility Score: inf
ROOT
ATOM      1  C   UNL A   1      38.086  21.267  25.330  1.00  0.00     0.042 C 
ENDROOT
BRANCH   1   2
ATOM      2  C   UNL A   1      37.147  22.431  25.582  1.00  0.00     0.117 C 
BRANCH   2   3
ATOM      3  N   UNL A   1      36.124  22.159  26.578  1.00  0.00    -0.356 N 
ATOM      4  C   UNL A   1      34.831  21.766  26.394  1.00  0.00     0.225 C 
ATOM      5  O   UNL A   1      34.188  21.389  27.373  1.00  0.00    -0.275 OA
ATOM      6  H   UNL A   1      36.403  22.273  27.515  1.00  0.00     0.163 HD
BRANCH   4   7
ATOM      7  C   UNL A   1      34.230  21.813  25.010  1.00  0.00     0.107 C 
ATOM      8  N   UNL A   1      32.864  22.968  23.563  1.00  0.00    -0.341 N 
ATOM      9  C   UNL A   1      33.673  23.194  24.737  1.00  0.00     0.133 C 
ATOM     10  C   UNL A   1      32.207  21.666  23.685  1.00  0.00     0.128 C 
ATOM     11  C   UNL A   1      32.981  20.922  24.806  1.00  0.00     0.053 C 
BRANCH   8  12
ATOM     12  C   UNL A   1      32.658  23.760  22.464  1.00  0.00     0.226 C 
ATOM     13  O   UNL A   1      33.323  23.565  21.437  1.00  0.00    -0.275 OA
BRANCH  12  14
ATOM     14  C   UNL A   1      31.848  25.062  22.565  1.00  0.00     0.090 C 
ATOM     15  C   UNL A   1      30.542  28.995  23.717  1.00  0.00     0.332 C 
ATOM     16  N   UNL A   1      31.138  27.661  23.668  1.00  0.00    -0.337 N 
ATOM     17  C   UNL A   1      32.133  27.579  22.592  1.00  0.00     0.262 C 
ATOM     18  C   UNL A   1      30.108  26.625  23.513  1.00  0.00     0.262 C 
ATOM     19  H   UNL A   1      31.613  27.494  24.555  1.00  0.00     0.347 HD
ATOM     20  C   UNL A   1      32.845  26.229  22.630  1.00  0.00     0.075 C 
ATOM     21  C   UNL A   1      30.758  25.240  23.621  1.00  0.00     0.075 C 
ENDBRANCH  12  14
ENDBRANCH   8  12
BRANCH  11  22
ATOM     22  C   UNL A   1      33.392  19.476  24.576  1.00  0.00    -0.038 A 
ATOM     23  C   UNL A   1      34.740  19.082  24.405  1.00  0.00     0.008 A 
ATOM     24  C   UNL A   1      32.409  18.479  24.739  1.00  0.00     0.054 A 
ATOM     25  C   UNL A   1      35.114  17.730  24.461  1.00  0.00     0.051 A 
ATOM     26  C   UNL A   1      32.816  17.165  24.851  1.00  0.00     0.166 A 
ATOM     27  C   UNL A   1      34.134  16.802  24.730  1.00  0.00     0.165 A 
ATOM     28  O   UNL A   1      32.027  16.122  25.233  1.00  0.00    -0.454 OA
ATOM     29  O   UNL A   1      34.332  15.482  24.993  1.00  0.00    -0.454 OA
ATOM     30  C   UNL A   1      33.033  15.122  25.514  1.00  0.00     0.468 C 
ENDBRANCH  11  22
ENDBRANCH   4   7
ENDBRANCH   2   3
ENDBRANCH   1   2
BRANCH   1  31
ATOM     31  C   UNL A   1      39.362  21.328  26.158  1.00  0.00     0.118 C 
BRANCH  31  32
ATOM     32  N   UNL A   1      40.175  20.116  26.058  1.00  0.00    -0.352 N 
ATOM     33  C   UNL A   1      41.542  19.965  26.068  1.00  0.00     0.251 C 
ATOM     34  H   UNL A   1      39.665  19.279  25.969  1.00  0.00     0.163 HD
ATOM     35  O   UNL A   1      42.044  18.881  25.779  1.00  0.00    -0.269 OA
BRANCH  33  36
ATOM     36  C   UNL A   1      42.401  21.123  26.389  1.00  0.00     0.039 A 
ATOM     37  C   UNL A   1      42.866  21.945  25.358  1.00  0.00     0.014 A 
ATOM     38  C   UNL A   1      42.708  21.421  27.716  1.00  0.00     0.014 A 
ATOM     39  C   UNL A   1      43.539  23.131  25.670  1.00  0.00     0.010 A 
ATOM     40  C   UNL A   1      43.284  22.645  28.027  1.00  0.00     0.010 A 
ATOM     41  C   UNL A   1      43.699  23.519  27.009  1.00  0.00    -0.014 A 
BRANCH  41  42
ATOM     42  C   UNL A   1      44.289  24.822  27.406  1.00  0.00     0.031 A 
ATOM     43  C   UNL A   1      43.380  25.924  27.879  1.00  0.00     0.074 A 
ATOM     44  C   UNL A   1      45.600  25.065  27.205  1.00  0.00     0.049 A 
ATOM     45  N   UNL A   1      43.629  27.199  28.019  1.00  0.00    -0.248 NA
ATOM     46  C   UNL A   1      41.991  25.544  28.187  1.00  0.00     0.031 C 
ATOM     47  C   UNL A   1      46.586  24.092  26.727  1.00  0.00     0.029 A 
ATOM     48  N   UNL A   1      46.324  26.223  27.348  1.00  0.00    -0.354 N 
ATOM     49  C   UNL A   1      42.419  27.781  28.378  1.00  0.00     0.074 A 
ATOM     50  C   UNL A   1      41.431  26.724  28.404  1.00  0.00     0.031 C 
ATOM     51  C   UNL A   1      47.784  24.690  26.626  1.00  0.00     0.029 A 
ATOM     52  C   UNL A   1      47.643  26.099  26.975  1.00  0.00     0.049 A 
ATOM     53  H   UNL A   1      45.937  27.062  27.687  1.00  0.00     0.167 HD
ATOM     54  C   UNL A   1      42.156  29.076  28.670  1.00  0.00     0.031 A 
ATOM     55  C   UNL A   1      48.622  27.022  26.895  1.00  0.00     0.031 A 
ATOM     56  C   UNL A   1      43.152  30.112  28.685  1.00  0.00     0.049 A 
ATOM     57  C   UNL A   1      48.315  28.452  27.247  1.00  0.00     0.074 A 
ATOM     58  C   UNL A   1      43.001  31.444  29.024  1.00  0.00     0.029 A 
ATOM     59  N   UNL A   1      44.487  29.927  28.360  1.00  0.00    -0.354 N 
ATOM     60  N   UNL A   1      47.170  28.980  27.609  1.00  0.00    -0.248 NA
ATOM     61  C   UNL A   1      49.427  29.410  27.183  1.00  0.00     0.031 C 
ATOM     62  C   UNL A   1      44.241  32.073  28.875  1.00  0.00     0.029 A 
ATOM     63  C   UNL A   1      45.172  31.122  28.488  1.00  0.00     0.049 A 
ATOM     64  H   UNL A   1      44.888  29.072  28.080  1.00  0.00     0.167 HD
ATOM     65  C   UNL A   1      47.433  30.323  27.850  1.00  0.00     0.074 A 
ATOM     66  C   UNL A   1      48.843  30.529  27.592  1.00  0.00     0.031 C 
ATOM     67  C   UNL A   1      46.582  31.298  28.253  1.00  0.00     0.031 A 
BRANCH  54  68
ATOM     68  C   UNL A   1      40.732  29.441  28.992  1.00  0.00    -0.014 A 
ATOM     69  C   UNL A   1      40.355  29.822  30.292  1.00  0.00     0.010 A 
ATOM     70  C   UNL A   1      39.762  29.427  27.974  1.00  0.00     0.010 A 
ATOM     71  C   UNL A   1      39.023  30.133  30.579  1.00  0.00     0.020 A 
ATOM     72  C   UNL A   1      38.434  29.765  28.251  1.00  0.00     0.020 A 
ATOM     73  C   UNL A   1      38.070  30.095  29.558  1.00  0.00     0.054 A 
BRANCH  73  74
ATOM     74  S   UNL A   1      36.351  30.514  29.957  1.00  0.00     0.124 S 
ATOM     75  O   UNL A   1      35.660  30.146  28.723  1.00  0.00    -0.237 OA
ATOM     76  O   UNL A   1      36.071  29.662  31.110  1.00  0.00    -0.237 OA
ATOM     77  O   UNL A   1      36.400  31.946  30.241  1.00  0.00    -0.744 OA
ENDBRANCH  73  74
ENDBRANCH  54  68
BRANCH  55  78
ATOM     78  C   UNL A   1      49.991  26.618  26.472  1.00  0.00    -0.014 A 
ATOM     79  C   UNL A   1      50.903  26.111  27.414  1.00  0.00     0.010 A 
ATOM     80  C   UNL A   1      50.384  26.717  25.124  1.00  0.00     0.010 A 
ATOM     81  C   UNL A   1      52.187  25.724  27.020  1.00  0.00     0.020 A 
ATOM     82  C   UNL A   1      51.660  26.308  24.723  1.00  0.00     0.020 A 
ATOM     83  C   UNL A   1      52.557  25.824  25.677  1.00  0.00     0.054 A 
BRANCH  83  84
ATOM     84  S   UNL A   1      54.210  25.262  25.179  1.00  0.00     0.124 S 
ATOM     85  O   UNL A   1      53.982  23.845  24.919  1.00  0.00    -0.237 OA
ATOM     86  O   UNL A   1      54.484  26.087  24.005  1.00  0.00    -0.237 OA
ATOM     87  O   UNL A   1      55.036  25.561  26.347  1.00  0.00    -0.744 OA
ENDBRANCH  83  84
ENDBRANCH  55  78
BRANCH  67  88
ATOM     88  C   UNL A   1      47.151  32.666  28.506  1.00  0.00    -0.014 A 
ATOM     89  C   UNL A   1      47.153  33.650  27.503  1.00  0.00     0.010 A 
ATOM     90  C   UNL A   1      47.584  32.999  29.802  1.00  0.00     0.010 A 
ATOM     91  C   UNL A   1      47.582  34.948  27.795  1.00  0.00     0.020 A 
ATOM     92  C   UNL A   1      47.993  34.300  30.102  1.00  0.00     0.020 A 
ATOM     93  C   UNL A   1      47.993  35.266  29.094  1.00  0.00     0.054 A 
BRANCH  93  94
ATOM     94  S   UNL A   1      48.454  36.979  29.472  1.00  0.00     0.124 S 
ATOM     95  O   UNL A   1      48.034  37.107  30.864  1.00  0.00    -0.237 OA
ATOM     96  O   UNL A   1      49.899  36.979  29.249  1.00  0.00    -0.237 OA
ATOM     97  O   UNL A   1      47.684  37.766  28.512  1.00  0.00    -0.744 OA
ENDBRANCH  93  94
ENDBRANCH  67  88
ENDBRANCH  41  42
ENDBRANCH  33  36
ENDBRANCH  31  32
ENDBRANCH   1  31
TORSDOF 16
ENDMDL
MODEL 2
REMARK VINA RESULT:     -11.9      6.021     10.629
REMARK SMILES C[NH+]1CCC(C(=O)N2C[C@@H](C(=O)NCCCNC(=O)c3ccc(-c4c5nc(c(-c6ccc(S(=O)(=O)[O-])cc6)c6ccc([nH]6)c(-c6ccc(S(=O)(=O)[O-])cc6)c6nc(c(-c7ccc(S(=O)(=O)[O-])cc7)c7ccc4[nH]7)C=C6)C=C5)cc3)[C@H](c3ccc4c(c3)OCO4)C2)CC1
REMARK SMILES IDX 15 1 14 2 13 3 11 4 12 5 10 7 8 8 9 9 90 10 80 11 6 12 7 13
REMARK SMILES IDX 5 14 1 15 2 16 3 17 92 18 4 20 91 21 81 22 82 23 86 24 83 25
REMARK SMILES IDX 85 26 84 27 87 28 89 29 88 30 16 31 17 32 18 33 19 35 20 36
REMARK SMILES IDX 21 37 79 38 22 39 78 40 23 41 24 42 25 43 72 44 26 45 77 46
REMARK SMILES IDX 71 47 73 48 27 49 76 50 70 51 69 52 28 54 58 55 39 56 57 57
REMARK SMILES IDX 40 58 43 59 56 60 74 61 41 62 42 63 55 65 75 66 44 67 29 68
REMARK SMILES IDX 30 69 38 70 31 71 37 72 32 73 33 74 34 75 35 76 36 77 59 78
REMARK SMILES IDX 60 79 68 80 61 81 67 82 62 83 63 84 64 85 65 86 66 87 45 88
REMARK SMILES IDX 46 89 54 90 47 91 53 92 48 93 49 94 50 95 51 96 52 97
REMARK H PARENT 13 6 2 19 17 34 73 53 43 64
REMARK Flexibility Score: inf
ROOT
ATOM      1  C   UNL A   1      37.999  23.340  26.538  1.00  0.00     0.042 C 
ENDROOT
BRANCH   1   2
ATOM      2  C   UNL A   1      36.669  23.627  25.869  1.00  0.00     0.117 C 
BRANCH   2   3
ATOM      3  N   UNL A   1      36.609  23.219  24.475  1.00  0.00    -0.356 N 
ATOM      4  C   UNL A   1      35.544  23.228  23.624  1.00  0.00     0.225 C 
ATOM      5  O   UNL A   1      35.750  23.037  22.426  1.00  0.00    -0.275 OA
ATOM      6  H   UNL A   1      37.454  22.891  24.092  1.00  0.00     0.163 HD
BRANCH   4   7
ATOM      7  C   UNL A   1      34.157  23.462  24.172  1.00  0.00     0.107 C 
ATOM      8  N   UNL A   1      32.862  24.698  25.617  1.00  0.00    -0.341 N 
ATOM      9  C   UNL A   1      34.105  24.794  24.890  1.00  0.00     0.133 C 
ATOM     10  C   UNL A   1      32.705  23.328  26.108  1.00  0.00     0.128 C 
ATOM     11  C   UNL A   1      33.718  22.483  25.289  1.00  0.00     0.053 C 
BRANCH   8  12
ATOM     12  C   UNL A   1      31.914  25.653  25.880  1.00  0.00     0.226 C 
ATOM     13  O   UNL A   1      31.287  25.613  26.947  1.00  0.00    -0.275 OA
BRANCH  12  14
ATOM     14  C   UNL A   1      31.401  26.586  24.772  1.00  0.00     0.090 C 
ATOM     15  C   UNL A   1      29.616  29.923  22.727  1.00  0.00     0.332 C 
ATOM     16  N   UNL A   1      29.987  28.891  23.695  1.00  0.00    -0.337 N 
ATOM     17  C   UNL A   1      31.398  29.022  24.075  1.00  0.00     0.262 C 
ATOM     18  C   UNL A   1      29.703  27.548  23.172  1.00  0.00     0.262 C 
ATOM     19  H   UNL A   1      29.418  29.023  24.531  1.00  0.00     0.347 HD
ATOM     20  C   UNL A   1      31.745  28.027  25.180  1.00  0.00     0.075 C 
ATOM     21  C   UNL A   1      29.960  26.509  24.270  1.00  0.00     0.075 C 
ENDBRANCH  12  14
ENDBRANCH   8  12
BRANCH  11  22
ATOM     22  C   UNL A   1      33.256  21.165  24.689  1.00  0.00    -0.038 A 
ATOM     23  C   UNL A   1      32.390  21.095  23.572  1.00  0.00     0.008 A 
ATOM     24  C   UNL A   1      33.875  19.983  25.143  1.00  0.00     0.054 A 
ATOM     25  C   UNL A   1      32.194  19.890  22.880  1.00  0.00     0.051 A 
ATOM     26  C   UNL A   1      33.710  18.828  24.405  1.00  0.00     0.166 A 
ATOM     27  C   UNL A   1      32.903  18.786  23.296  1.00  0.00     0.165 A 
ATOM     28  O   UNL A   1      34.412  17.673  24.576  1.00  0.00    -0.454 OA
ATOM     29  O   UNL A   1      32.976  17.591  22.650  1.00  0.00    -0.454 OA
ATOM     30  C   UNL A   1      34.088  16.985  23.347  1.00  0.00     0.468 C 
ENDBRANCH  11  22
ENDBRANCH   4   7
ENDBRANCH   2   3
ENDBRANCH   1   2
BRANCH   1  31
ATOM     31  C   UNL A   1      38.813  24.592  26.830  1.00  0.00     0.118 C 
BRANCH  31  32
ATOM     32  N   UNL A   1      39.961  24.758  25.938  1.00  0.00    -0.352 N 
ATOM     33  C   UNL A   1      40.991  25.668  25.981  1.00  0.00     0.251 C 
ATOM     34  H   UNL A   1      40.001  24.119  25.190  1.00  0.00     0.163 HD
ATOM     35  O   UNL A   1      41.761  25.772  25.030  1.00  0.00    -0.269 OA
BRANCH  33  36
ATOM     36  C   UNL A   1      41.138  26.546  27.160  1.00  0.00     0.039 A 
ATOM     37  C   UNL A   1      41.909  27.709  27.064  1.00  0.00     0.014 A 
ATOM     38  C   UNL A   1      40.474  26.241  28.348  1.00  0.00     0.014 A 
ATOM     39  C   UNL A   1      41.916  28.623  28.122  1.00  0.00     0.010 A 
ATOM     40  C   UNL A   1      40.400  27.194  29.354  1.00  0.00     0.010 A 
ATOM     41  C   UNL A   1      41.113  28.400  29.251  1.00  0.00    -0.014 A 
BRANCH  41  42
ATOM     42  C   UNL A   1      40.976  29.387  30.351  1.00  0.00     0.031 A 
ATOM     43  C   UNL A   1      41.847  29.250  31.571  1.00  0.00     0.074 A 
ATOM     44  C   UNL A   1      39.984  30.301  30.326  1.00  0.00     0.049 A 
ATOM     45  N   UNL A   1      41.724  29.816  32.743  1.00  0.00    -0.248 NA
ATOM     46  C   UNL A   1      42.979  28.313  31.469  1.00  0.00     0.031 C 
ATOM     47  C   UNL A   1      39.054  30.520  29.216  1.00  0.00     0.029 A 
ATOM     48  N   UNL A   1      39.574  31.198  31.281  1.00  0.00    -0.354 N 
ATOM     49  C   UNL A   1      42.727  29.265  33.532  1.00  0.00     0.074 A 
ATOM     50  C   UNL A   1      43.428  28.298  32.715  1.00  0.00     0.031 C 
ATOM     51  C   UNL A   1      38.190  31.493  29.550  1.00  0.00     0.029 A 
ATOM     52  C   UNL A   1      38.466  31.927  30.915  1.00  0.00     0.049 A 
ATOM     53  H   UNL A   1      40.030  31.309  32.146  1.00  0.00     0.167 HD
ATOM     54  C   UNL A   1      43.041  29.546  34.818  1.00  0.00     0.031 A 
ATOM     55  C   UNL A   1      37.737  32.823  31.609  1.00  0.00     0.031 A 
ATOM     56  C   UNL A   1      42.369  30.538  35.610  1.00  0.00     0.049 A 
ATOM     57  C   UNL A   1      38.118  33.137  33.030  1.00  0.00     0.074 A 
ATOM     58  C   UNL A   1      42.648  30.941  36.903  1.00  0.00     0.029 A 
ATOM     59  N   UNL A   1      41.292  31.295  35.175  1.00  0.00    -0.354 N 
ATOM     60  N   UNL A   1      39.085  32.625  33.753  1.00  0.00    -0.248 NA
ATOM     61  C   UNL A   1      37.315  34.151  33.728  1.00  0.00     0.031 C 
ATOM     62  C   UNL A   1      41.719  31.922  37.262  1.00  0.00     0.029 A 
ATOM     63  C   UNL A   1      40.892  32.163  36.176  1.00  0.00     0.049 A 
ATOM     64  H   UNL A   1      40.873  31.227  34.286  1.00  0.00     0.167 HD
ATOM     65  C   UNL A   1      39.028  33.279  34.977  1.00  0.00     0.074 A 
ATOM     66  C   UNL A   1      37.933  34.223  34.900  1.00  0.00     0.031 C 
ATOM     67  C   UNL A   1      39.816  33.114  36.068  1.00  0.00     0.031 A 
BRANCH  54  68
ATOM     68  C   UNL A   1      44.161  28.761  35.447  1.00  0.00    -0.014 A 
ATOM     69  C   UNL A   1      43.918  27.532  36.086  1.00  0.00     0.010 A 
ATOM     70  C   UNL A   1      45.479  29.247  35.376  1.00  0.00     0.010 A 
ATOM     71  C   UNL A   1      44.965  26.829  36.688  1.00  0.00     0.020 A 
ATOM     72  C   UNL A   1      46.534  28.532  35.951  1.00  0.00     0.020 A 
ATOM     73  C   UNL A   1      46.265  27.337  36.622  1.00  0.00     0.054 A 
BRANCH  73  74
ATOM     74  S   UNL A   1      47.607  26.399  37.402  1.00  0.00     0.124 S 
ATOM     75  O   UNL A   1      48.697  26.585  36.447  1.00  0.00    -0.237 OA
ATOM     76  O   UNL A   1      47.773  27.078  38.684  1.00  0.00    -0.237 OA
ATOM     77  O   UNL A   1      47.076  25.040  37.485  1.00  0.00    -0.744 OA
ENDBRANCH  73  74
ENDBRANCH  54  68
BRANCH  55  78
ATOM     78  C   UNL A   1      36.575  33.494  30.965  1.00  0.00    -0.014 A 
ATOM     79  C   UNL A   1      35.383  33.689  31.684  1.00  0.00     0.010 A 
ATOM     80  C   UNL A   1      36.658  33.961  29.640  1.00  0.00     0.010 A 
ATOM     81  C   UNL A   1      34.290  34.325  31.087  1.00  0.00     0.020 A 
ATOM     82  C   UNL A   1      35.576  34.619  29.048  1.00  0.00     0.020 A 
ATOM     83  C   UNL A   1      34.394  34.787  29.773  1.00  0.00     0.054 A 
BRANCH  83  84
ATOM     84  S   UNL A   1      32.983  35.660  29.036  1.00  0.00     0.124 S 
ATOM     85  O   UNL A   1      33.641  36.751  28.324  1.00  0.00    -0.237 OA
ATOM     86  O   UNL A   1      32.376  34.630  28.198  1.00  0.00    -0.237 OA
ATOM     87  O   UNL A   1      32.188  36.058  30.195  1.00  0.00    -0.744 OA
ENDBRANCH  83  84
ENDBRANCH  55  78
BRANCH  67  88
ATOM     88  C   UNL A   1      39.576  34.010  37.250  1.00  0.00    -0.014 A 
ATOM     89  C   UNL A   1      38.762  33.603  38.320  1.00  0.00     0.010 A 
ATOM     90  C   UNL A   1      40.269  35.232  37.335  1.00  0.00     0.010 A 
ATOM     91  C   UNL A   1      38.645  34.405  39.458  1.00  0.00     0.020 A 
ATOM     92  C   UNL A   1      40.171  36.025  38.480  1.00  0.00     0.020 A 
ATOM     93  C   UNL A   1      39.355  35.608  39.534  1.00  0.00     0.054 A 
BRANCH  93  94
ATOM     94  S   UNL A   1      39.263  36.585  41.060  1.00  0.00     0.124 S 
ATOM     95  O   UNL A   1      38.716  37.850  40.577  1.00  0.00    -0.237 OA
ATOM     96  O   UNL A   1      38.365  35.791  41.895  1.00  0.00    -0.237 OA
ATOM     97  O   UNL A   1      40.647  36.639  41.522  1.00  0.00    -0.744 OA
ENDBRANCH  93  94
ENDBRANCH  67  88
ENDBRANCH  41  42
ENDBRANCH  33  36
ENDBRANCH  31  32
ENDBRANCH   1  31
TORSDOF 16
ENDMDL
MODEL 3
REMARK VINA RESULT:     -11.8      4.471      9.455
REMARK SMILES C[NH+]1CCC(C(=O)N2C[C@@H](C(=O)NCCCNC(=O)c3ccc(-c4c5nc(c(-c6ccc(S(=O)(=O)[O-])cc6)c6ccc([nH]6)c(-c6ccc(S(=O)(=O)[O-])cc6)c6nc(c(-c7ccc(S(=O)(=O)[O-])cc7)c7ccc4[nH]7)C=C6)C=C5)cc3)[C@H](c3ccc4c(c3)OCO4)C2)CC1
REMARK SMILES IDX 15 1 14 2 13 3 11 4 12 5 10 7 8 8 9 9 90 10 80 11 6 12 7 13
REMARK SMILES IDX 5 14 1 15 2 16 3 17 92 18 4 20 91 21 81 22 82 23 86 24 83 25
REMARK SMILES IDX 85 26 84 27 87 28 89 29 88 30 16 31 17 32 18 33 19 35 20 36
REMARK SMILES IDX 21 37 79 38 22 39 78 40 23 41 24 42 25 43 72 44 26 45 77 46
REMARK SMILES IDX 71 47 73 48 27 49 76 50 70 51 69 52 28 54 58 55 39 56 57 57
REMARK SMILES IDX 40 58 43 59 56 60 74 61 41 62 42 63 55 65 75 66 44 67 29 68
REMARK SMILES IDX 30 69 38 70 31 71 37 72 32 73 33 74 34 75 35 76 36 77 59 78
REMARK SMILES IDX 60 79 68 80 61 81 67 82 62 83 63 84 64 85 65 86 66 87 45 88
REMARK SMILES IDX 46 89 54 90 47 91 53 92 48 93 49 94 50 95 51 96 52 97
REMARK H PARENT 13 6 2 19 17 34 73 53 43 64
REMARK Flexibility Score: inf
ROOT
ATOM      1  C   UNL A   1      35.665  23.623  25.758  1.00  0.00     0.042 C 
ENDROOT
BRANCH   1   2
ATOM      2  C   UNL A   1      34.475  24.298  25.103  1.00  0.00     0.117 C 
BRANCH   2   3
ATOM      3  N   UNL A   1      34.643  24.537  23.679  1.00  0.00    -0.356 N 
ATOM      4  C   UNL A   1      33.710  24.909  22.756  1.00  0.00     0.225 C 
ATOM      5  O   UNL A   1      34.096  25.260  21.641  1.00  0.00    -0.275 OA
ATOM      6  H   UNL A   1      35.555  24.412  23.332  1.00  0.00     0.163 HD
BRANCH   4   7
ATOM      7  C   UNL A   1      32.246  24.875  23.124  1.00  0.00     0.107 C 
ATOM      8  N   UNL A   1      30.509  25.991  24.138  1.00  0.00    -0.341 N 
ATOM      9  C   UNL A   1      31.779  26.262  23.509  1.00  0.00     0.133 C 
ATOM     10  C   UNL A   1      30.620  24.757  24.917  1.00  0.00     0.128 C 
ATOM     11  C   UNL A   1      31.908  24.062  24.398  1.00  0.00     0.053 C 
BRANCH   8  12
ATOM     12  C   UNL A   1      29.333  26.694  24.098  1.00  0.00     0.226 C 
ATOM     13  O   UNL A   1      28.264  26.108  24.317  1.00  0.00    -0.275 OA
BRANCH  12  14
ATOM     14  C   UNL A   1      29.275  28.109  23.500  1.00  0.00     0.090 C 
ATOM     15  C   UNL A   1      28.240  31.473  21.027  1.00  0.00     0.332 C 
ATOM     16  N   UNL A   1      28.497  30.136  21.561  1.00  0.00    -0.337 N 
ATOM     17  C   UNL A   1      27.626  29.863  22.711  1.00  0.00     0.262 C 
ATOM     18  C   UNL A   1      29.912  29.971  21.920  1.00  0.00     0.262 C 
ATOM     19  H   UNL A   1      28.283  29.457  20.831  1.00  0.00     0.347 HD
ATOM     20  C   UNL A   1      27.805  28.421  23.181  1.00  0.00     0.075 C 
ATOM     21  C   UNL A   1      30.168  28.515  22.329  1.00  0.00     0.075 C 
ENDBRANCH  12  14
ENDBRANCH   8  12
BRANCH  11  22
ATOM     22  C   UNL A   1      31.861  22.576  24.082  1.00  0.00    -0.038 A 
ATOM     23  C   UNL A   1      31.928  22.071  22.762  1.00  0.00     0.008 A 
ATOM     24  C   UNL A   1      31.955  21.671  25.160  1.00  0.00     0.054 A 
ATOM     25  C   UNL A   1      32.151  20.708  22.516  1.00  0.00     0.051 A 
ATOM     26  C   UNL A   1      32.234  20.347  24.886  1.00  0.00     0.166 A 
ATOM     27  C   UNL A   1      32.343  19.881  23.600  1.00  0.00     0.165 A 
ATOM     28  O   UNL A   1      32.576  19.404  25.807  1.00  0.00    -0.454 OA
ATOM     29  O   UNL A   1      32.739  18.580  23.555  1.00  0.00    -0.454 OA
ATOM     30  C   UNL A   1      33.086  18.365  24.941  1.00  0.00     0.468 C 
ENDBRANCH  11  22
ENDBRANCH   4   7
ENDBRANCH   2   3
ENDBRANCH   1   2
BRANCH   1  31
ATOM     31  C   UNL A   1      36.932  23.680  24.917  1.00  0.00     0.118 C 
BRANCH  31  32
ATOM     32  N   UNL A   1      37.970  22.755  25.371  1.00  0.00    -0.352 N 
ATOM     33  C   UNL A   1      39.090  22.988  26.135  1.00  0.00     0.251 C 
ATOM     34  H   UNL A   1      37.849  21.821  25.084  1.00  0.00     0.163 HD
ATOM     35  O   UNL A   1      39.948  22.116  26.251  1.00  0.00    -0.269 OA
BRANCH  33  36
ATOM     36  C   UNL A   1      39.271  24.305  26.780  1.00  0.00     0.039 A 
ATOM     37  C   UNL A   1      38.727  24.533  28.048  1.00  0.00     0.014 A 
ATOM     38  C   UNL A   1      40.019  25.297  26.148  1.00  0.00     0.014 A 
ATOM     39  C   UNL A   1      39.035  25.716  28.728  1.00  0.00     0.010 A 
ATOM     40  C   UNL A   1      40.406  26.422  26.863  1.00  0.00     0.010 A 
ATOM     41  C   UNL A   1      39.926  26.641  28.165  1.00  0.00    -0.014 A 
BRANCH  41  42
ATOM     42  C   UNL A   1      40.394  27.853  28.885  1.00  0.00     0.031 A 
ATOM     43  C   UNL A   1      41.708  27.807  29.619  1.00  0.00     0.074 A 
ATOM     44  C   UNL A   1      39.587  28.926  29.006  1.00  0.00     0.049 A 
ATOM     45  N   UNL A   1      42.182  28.629  30.517  1.00  0.00    -0.248 NA
ATOM     46  C   UNL A   1      42.579  26.653  29.337  1.00  0.00     0.031 C 
ATOM     47  C   UNL A   1      38.279  29.088  28.367  1.00  0.00     0.029 A 
ATOM     48  N   UNL A   1      39.740  30.077  29.740  1.00  0.00    -0.354 N 
ATOM     49  C   UNL A   1      43.378  28.065  30.946  1.00  0.00     0.074 A 
ATOM     50  C   UNL A   1      43.541  26.817  30.232  1.00  0.00     0.031 C 
ATOM     51  C   UNL A   1      37.754  30.270  28.729  1.00  0.00     0.029 A 
ATOM     52  C   UNL A   1      38.658  30.925  29.669  1.00  0.00     0.049 A 
ATOM     53  H   UNL A   1      40.546  30.277  30.267  1.00  0.00     0.167 HD
ATOM     54  C   UNL A   1      44.267  28.549  31.845  1.00  0.00     0.031 A 
ATOM     55  C   UNL A   1      38.408  32.084  30.308  1.00  0.00     0.031 A 
ATOM     56  C   UNL A   1      44.120  29.810  32.518  1.00  0.00     0.049 A 
ATOM     57  C   UNL A   1      39.420  32.616  31.287  1.00  0.00     0.074 A 
ATOM     58  C   UNL A   1      44.991  30.419  33.403  1.00  0.00     0.029 A 
ATOM     59  N   UNL A   1      43.038  30.663  32.367  1.00  0.00    -0.354 N 
ATOM     60  N   UNL A   1      40.558  32.082  31.662  1.00  0.00    -0.248 NA
ATOM     61  C   UNL A   1      39.118  33.904  31.927  1.00  0.00     0.031 C 
ATOM     62  C   UNL A   1      44.421  31.628  33.812  1.00  0.00     0.029 A 
ATOM     63  C   UNL A   1      43.217  31.793  33.144  1.00  0.00     0.049 A 
ATOM     64  H   UNL A   1      42.257  30.491  31.791  1.00  0.00     0.167 HD
ATOM     65  C   UNL A   1      41.123  32.986  32.553  1.00  0.00     0.074 A 
ATOM     66  C   UNL A   1      40.204  34.099  32.664  1.00  0.00     0.031 C 
ATOM     67  C   UNL A   1      42.301  32.903  33.218  1.00  0.00     0.031 A 
BRANCH  54  68
ATOM     68  C   UNL A   1      45.473  27.704  32.155  1.00  0.00    -0.014 A 
ATOM     69  C   UNL A   1      45.465  26.789  33.223  1.00  0.00     0.010 A 
ATOM     70  C   UNL A   1      46.622  27.807  31.351  1.00  0.00     0.010 A 
ATOM     71  C   UNL A   1      46.602  26.030  33.513  1.00  0.00     0.020 A 
ATOM     72  C   UNL A   1      47.752  27.029  31.620  1.00  0.00     0.020 A 
ATOM     73  C   UNL A   1      47.740  26.161  32.713  1.00  0.00     0.054 A 
BRANCH  73  74
ATOM     74  S   UNL A   1      49.199  25.156  33.105  1.00  0.00     0.124 S 
ATOM     75  O   UNL A   1      49.943  26.044  33.995  1.00  0.00    -0.237 OA
ATOM     76  O   UNL A   1      48.617  23.976  33.739  1.00  0.00    -0.237 OA
ATOM     77  O   UNL A   1      49.816  24.919  31.802  1.00  0.00    -0.744 OA
ENDBRANCH  73  74
ENDBRANCH  54  68
BRANCH  55  78
ATOM     78  C   UNL A   1      37.148  32.827  30.036  1.00  0.00    -0.014 A 
ATOM     79  C   UNL A   1      36.988  33.532  28.831  1.00  0.00     0.010 A 
ATOM     80  C   UNL A   1      36.092  32.816  30.967  1.00  0.00     0.010 A 
ATOM     81  C   UNL A   1      35.803  34.226  28.567  1.00  0.00     0.020 A 
ATOM     82  C   UNL A   1      34.897  33.489  30.696  1.00  0.00     0.020 A 
ATOM     83  C   UNL A   1      34.764  34.198  29.501  1.00  0.00     0.054 A 
BRANCH  83  84
ATOM     84  S   UNL A   1      33.214  35.059  29.112  1.00  0.00     0.124 S 
ATOM     85  O   UNL A   1      32.626  34.182  28.104  1.00  0.00    -0.237 OA
ATOM     86  O   UNL A   1      32.533  35.084  30.404  1.00  0.00    -0.237 OA
ATOM     87  O   UNL A   1      33.661  36.362  28.627  1.00  0.00    -0.744 OA
ENDBRANCH  83  84
ENDBRANCH  55  78
BRANCH  67  88
ATOM     88  C   UNL A   1      42.707  34.067  34.078  1.00  0.00    -0.014 A 
ATOM     89  C   UNL A   1      42.457  34.073  35.460  1.00  0.00     0.010 A 
ATOM     90  C   UNL A   1      43.449  35.115  33.505  1.00  0.00     0.010 A 
ATOM     91  C   UNL A   1      42.944  35.113  36.257  1.00  0.00     0.020 A 
ATOM     92  C   UNL A   1      43.955  36.145  34.301  1.00  0.00     0.020 A 
ATOM     93  C   UNL A   1      43.695  36.139  35.673  1.00  0.00     0.054 A 
BRANCH  93  94
ATOM     94  S   UNL A   1      44.397  37.426  36.741  1.00  0.00     0.124 S 
ATOM     95  O   UNL A   1      45.600  36.775  37.251  1.00  0.00    -0.237 OA
ATOM     96  O   UNL A   1      44.627  38.527  35.808  1.00  0.00    -0.237 OA
ATOM     97  O   UNL A   1      43.349  37.666  37.730  1.00  0.00    -0.744 OA
ENDBRANCH  93  94
ENDBRANCH  67  88
ENDBRANCH  41  42
ENDBRANCH  33  36
ENDBRANCH  31  32
ENDBRANCH   1  31
TORSDOF 16
ENDMDL
