MODEL 1
REMARK VINA RESULT:     -15.0      0.000      0.000
REMARK SMILES Cc1ccccc1C(=O)Nc1cc(C(=O)NCCCNC(=O)c2ccc(-c3c4nc(c(-c5ccc(S(=O)(=O)[O-])cc5)c5ccc([nH]5)c(-c5ccc(S(=O)(=O)[O-])cc5)c5nc(c(-c6ccc(S(=O)(=O)[O-])cc6)c6ccc3[nH]6)C=C5)C=C4)cc2)ccc1N1CC[NH+](CC(=O)Nc2ccc(F)cc2)CC1
REMARK SMILES IDX 17 1 16 2 14 3 15 4 13 6 11 7 12 8 85 9 84 10 83 11 10 12
REMARK SMILES IDX 8 13 9 14 7 16 1 17 2 18 3 19 4 20 6 21 5 22 86 23 87 24
REMARK SMILES IDX 102 25 88 26 101 27 89 28 90 30 91 31 92 32 93 33 94 35
REMARK SMILES IDX 95 36 100 37 96 38 99 39 97 40 98 41 18 42 19 43 20 44 21 45
REMARK SMILES IDX 22 47 23 48 24 49 82 50 25 51 81 52 26 53 27 54 28 55 75 56
REMARK SMILES IDX 29 57 80 58 74 59 76 60 30 61 79 62 73 63 72 64 31 66 61 67
REMARK SMILES IDX 42 68 60 69 43 70 46 71 59 72 77 73 44 74 45 75 58 77 78 78
REMARK SMILES IDX 47 79 32 80 33 81 41 82 34 83 40 84 35 85 36 86 37 87 38 88
REMARK SMILES IDX 39 89 62 90 63 91 71 92 64 93 70 94 65 95 66 96 67 97 68 98
REMARK SMILES IDX 69 99 48 100 49 101 57 102 50 103 56 104 51 105 52 106
REMARK SMILES IDX 53 107 54 108 55 109
REMARK H PARENT 16 5 10 15 89 29 93 34 20 46 76 65 46 76
REMARK Flexibility Score: inf
ROOT
ATOM      1  C   UNL A   1      39.493  21.797  26.241  1.00  0.00     0.118 C 
ENDROOT
BRANCH   1   2
ATOM      2  N   UNL A   1      38.561  20.659  25.916  1.00  0.00    -0.352 N 
ATOM      3  C   UNL A   1      37.425  20.435  25.161  1.00  0.00     0.251 C 
ATOM      4  O   UNL A   1      37.009  19.312  24.885  1.00  0.00    -0.269 OA
ATOM      5  H   UNL A   1      38.842  19.835  26.376  1.00  0.00     0.163 HD
BRANCH   3   6
ATOM      6  C   UNL A   1      36.681  21.590  24.647  1.00  0.00     0.042 A 
ATOM      7  C   UNL A   1      34.531  22.562  24.614  1.00  0.00     0.065 A 
ATOM      8  C   UNL A   1      35.316  21.449  24.606  1.00  0.00     0.042 A 
ATOM      9  C   UNL A   1      35.036  23.786  24.108  1.00  0.00     0.061 A 
ATOM     10  C   UNL A   1      36.431  23.880  23.942  1.00  0.00     0.029 A 
ATOM     11  C   UNL A   1      37.266  22.806  24.287  1.00  0.00     0.016 A 
BRANCH   7  12
ATOM     12  N   UNL A   1      33.209  22.387  25.042  1.00  0.00    -0.320 N 
ATOM     13  C   UNL A   1      32.362  21.279  24.975  1.00  0.00     0.255 C 
ATOM     14  O   UNL A   1      31.350  21.352  25.691  1.00  0.00    -0.269 OA
ATOM     15  H   UNL A   1      32.808  23.183  25.462  1.00  0.00     0.170 HD
BRANCH  13  16
ATOM     16  C   UNL A   1      32.498  20.006  24.165  1.00  0.00     0.043 A 
ATOM     17  C   UNL A   1      31.825  20.759  21.778  1.00  0.00     0.045 C 
ATOM     18  C   UNL A   1      32.252  19.749  22.797  1.00  0.00    -0.038 A 
ATOM     19  C   UNL A   1      32.314  18.408  22.317  1.00  0.00     0.004 A 
ATOM     20  C   UNL A   1      32.686  17.346  23.138  1.00  0.00     0.000 A 
ATOM     21  C   UNL A   1      32.963  18.914  24.945  1.00  0.00     0.014 A 
ATOM     22  C   UNL A   1      33.046  17.606  24.448  1.00  0.00     0.001 A 
ENDBRANCH  13  16
ENDBRANCH   7  12
BRANCH   9  23
ATOM     23  N   UNL A   1      34.195  24.848  23.831  1.00  0.00    -0.359 N 
ATOM     24  C   UNL A   1      33.628  25.767  24.841  1.00  0.00     0.178 C 
ATOM     25  C   UNL A   1      33.398  24.770  22.624  1.00  0.00     0.178 C 
ATOM     26  C   UNL A   1      33.058  27.080  24.182  1.00  0.00     0.284 C 
ATOM     27  C   UNL A   1      33.366  26.173  22.013  1.00  0.00     0.284 C 
ATOM     28  N   UNL A   1      32.503  27.028  22.809  1.00  0.00    -0.324 N 
ATOM     29  H   UNL A   1      32.504  28.005  22.518  1.00  0.00     0.348 HD
BRANCH  28  30
ATOM     30  C   UNL A   1      31.065  26.754  22.574  1.00  0.00     0.364 C 
BRANCH  30  31
ATOM     31  C   UNL A   1      30.010  27.180  23.602  1.00  0.00     0.279 C 
ATOM     32  O   UNL A   1      29.720  26.379  24.508  1.00  0.00    -0.268 OA
ATOM     33  N   UNL A   1      29.393  28.401  23.709  1.00  0.00    -0.321 N 
ATOM     34  H   UNL A   1      29.047  28.500  24.626  1.00  0.00     0.170 HD
BRANCH  33  35
ATOM     35  C   UNL A   1      29.075  29.574  22.972  1.00  0.00     0.041 A 
ATOM     36  C   UNL A   1      29.275  30.790  23.656  1.00  0.00     0.029 A 
ATOM     37  C   UNL A   1      28.477  29.677  21.721  1.00  0.00     0.029 A 
ATOM     38  C   UNL A   1      28.894  32.029  23.115  1.00  0.00     0.041 A 
ATOM     39  C   UNL A   1      28.035  30.907  21.191  1.00  0.00     0.041 A 
ATOM     40  C   UNL A   1      28.260  32.076  21.887  1.00  0.00     0.123 A 
ATOM     41  F   UNL A   1      27.870  33.251  21.375  1.00  0.00    -0.207 F 
ENDBRANCH  33  35
ENDBRANCH  30  31
ENDBRANCH  28  30
ENDBRANCH   9  23
ENDBRANCH   3   6
ENDBRANCH   1   2
BRANCH   1  42
ATOM     42  C   UNL A   1      40.560  21.823  27.506  1.00  0.00     0.042 C 
BRANCH  42  43
ATOM     43  C   UNL A   1      42.028  22.437  27.169  1.00  0.00     0.118 C 
BRANCH  43  44
ATOM     44  N   UNL A   1      42.482  23.894  26.699  1.00  0.00    -0.352 N 
ATOM     45  C   UNL A   1      42.276  25.316  27.032  1.00  0.00     0.251 C 
ATOM     46  H   UNL A   1      43.104  23.819  25.941  1.00  0.00     0.163 HD
ATOM     47  O   UNL A   1      43.349  25.927  27.208  1.00  0.00    -0.269 OA
BRANCH  45  48
ATOM     48  C   UNL A   1      41.005  26.258  27.225  1.00  0.00     0.039 A 
ATOM     49  C   UNL A   1      40.754  27.398  26.407  1.00  0.00     0.014 A 
ATOM     50  C   UNL A   1      40.029  26.111  28.186  1.00  0.00     0.014 A 
ATOM     51  C   UNL A   1      40.200  28.595  26.988  1.00  0.00     0.010 A 
ATOM     52  C   UNL A   1      39.420  27.273  28.738  1.00  0.00     0.010 A 
ATOM     53  C   UNL A   1      39.751  28.568  28.304  1.00  0.00    -0.014 A 
BRANCH  53  54
ATOM     54  C   UNL A   1      39.729  29.763  29.253  1.00  0.00     0.031 A 
ATOM     55  C   UNL A   1      38.656  30.742  29.150  1.00  0.00     0.074 A 
ATOM     56  C   UNL A   1      40.498  30.024  30.359  1.00  0.00     0.049 A 
ATOM     57  N   UNL A   1      38.822  32.022  29.076  1.00  0.00    -0.248 NA
ATOM     58  C   UNL A   1      37.273  30.304  29.177  1.00  0.00     0.031 C 
ATOM     59  C   UNL A   1      40.454  31.058  31.417  1.00  0.00     0.029 A 
ATOM     60  N   UNL A   1      41.563  29.292  30.840  1.00  0.00    -0.354 N 
ATOM     61  C   UNL A   1      37.593  32.557  29.396  1.00  0.00     0.074 A 
ATOM     62  C   UNL A   1      36.648  31.478  29.196  1.00  0.00     0.031 C 
ATOM     63  C   UNL A   1      41.641  31.088  32.074  1.00  0.00     0.029 A 
ATOM     64  C   UNL A   1      42.504  30.103  31.454  1.00  0.00     0.049 A 
ATOM     65  H   UNL A   1      41.644  28.314  30.757  1.00  0.00     0.167 HD
ATOM     66  C   UNL A   1      37.488  33.735  30.080  1.00  0.00     0.031 A 
ATOM     67  C   UNL A   1      43.721  30.243  30.845  1.00  0.00     0.031 A 
ATOM     68  C   UNL A   1      38.799  34.229  30.543  1.00  0.00     0.049 A 
ATOM     69  C   UNL A   1      43.839  31.613  30.271  1.00  0.00     0.074 A 
ATOM     70  C   UNL A   1      39.360  34.338  31.810  1.00  0.00     0.029 A 
ATOM     71  N   UNL A   1      39.857  34.386  29.648  1.00  0.00    -0.354 N 
ATOM     72  N   UNL A   1      42.838  32.438  30.224  1.00  0.00    -0.248 NA
ATOM     73  C   UNL A   1      45.056  32.180  29.713  1.00  0.00     0.031 C 
ATOM     74  C   UNL A   1      40.768  34.472  31.665  1.00  0.00     0.029 A 
ATOM     75  C   UNL A   1      41.068  34.491  30.313  1.00  0.00     0.049 A 
ATOM     76  H   UNL A   1      39.756  34.420  28.670  1.00  0.00     0.167 HD
ATOM     77  C   UNL A   1      43.224  33.621  29.693  1.00  0.00     0.074 A 
ATOM     78  C   UNL A   1      44.633  33.416  29.393  1.00  0.00     0.031 C 
ATOM     79  C   UNL A   1      42.326  34.640  29.572  1.00  0.00     0.031 A 
BRANCH  66  80
ATOM     80  C   UNL A   1      36.157  34.242  30.623  1.00  0.00    -0.014 A 
ATOM     81  C   UNL A   1      35.098  34.576  29.757  1.00  0.00     0.010 A 
ATOM     82  C   UNL A   1      35.878  34.389  31.999  1.00  0.00     0.010 A 
ATOM     83  C   UNL A   1      33.883  35.105  30.232  1.00  0.00     0.020 A 
ATOM     84  C   UNL A   1      34.704  34.975  32.487  1.00  0.00     0.020 A 
ATOM     85  C   UNL A   1      33.702  35.324  31.597  1.00  0.00     0.054 A 
BRANCH  85  86
ATOM     86  S   UNL A   1      32.132  35.989  32.205  1.00  0.00     0.124 S 
ATOM     87  O   UNL A   1      32.562  37.025  33.139  1.00  0.00    -0.237 OA
ATOM     88  O   UNL A   1      31.501  36.466  30.978  1.00  0.00    -0.237 OA
ATOM     89  O   UNL A   1      31.480  34.834  32.823  1.00  0.00    -0.744 OA
ENDBRANCH  85  86
ENDBRANCH  66  80
BRANCH  67  90
ATOM     90  C   UNL A   1      44.289  28.971  30.226  1.00  0.00    -0.014 A 
ATOM     91  C   UNL A   1      43.643  28.615  29.033  1.00  0.00     0.010 A 
ATOM     92  C   UNL A   1      45.671  28.872  30.162  1.00  0.00     0.010 A 
ATOM     93  C   UNL A   1      44.209  29.066  27.836  1.00  0.00     0.020 A 
ATOM     94  C   UNL A   1      46.262  29.114  28.911  1.00  0.00     0.020 A 
ATOM     95  C   UNL A   1      45.515  29.549  27.833  1.00  0.00     0.054 A 
BRANCH  95  96
ATOM     96  S   UNL A   1      45.942  31.043  26.514  1.00  0.00     0.124 S 
ATOM     97  O   UNL A   1      46.250  30.219  25.371  1.00  0.00    -0.237 OA
ATOM     98  O   UNL A   1      44.736  31.791  26.192  1.00  0.00    -0.237 OA
ATOM     99  O   UNL A   1      47.041  31.830  26.996  1.00  0.00    -0.744 OA
ENDBRANCH  95  96
ENDBRANCH  67  90
BRANCH  79 100
ATOM    100  C   UNL A   1      42.577  35.925  28.839  1.00  0.00    -0.014 A 
ATOM    101  C   UNL A   1      41.972  36.276  27.626  1.00  0.00     0.010 A 
ATOM    102  C   UNL A   1      43.419  36.889  29.442  1.00  0.00     0.010 A 
ATOM    103  C   UNL A   1      42.259  37.491  26.999  1.00  0.00     0.020 A 
ATOM    104  C   UNL A   1      43.663  38.130  28.859  1.00  0.00     0.020 A 
ATOM    105  C   UNL A   1      43.105  38.409  27.619  1.00  0.00     0.054 A 
BRANCH 105 106
ATOM    106  S   UNL A   1      43.428  39.984  26.805  1.00  0.00     0.124 S 
ATOM    107  O   UNL A   1      43.497  40.901  27.940  1.00  0.00    -0.237 OA
ATOM    108  O   UNL A   1      44.696  39.736  26.121  1.00  0.00    -0.237 OA
ATOM    109  O   UNL A   1      42.277  40.164  25.924  1.00  0.00    -0.744 OA
ENDBRANCH 105 106
ENDBRANCH  79 100
ENDBRANCH  53  54
ENDBRANCH  45  48
ENDBRANCH  43  44
ENDBRANCH  42  43
ENDBRANCH   1  42
TORSDOF 19
ENDMDL
MODEL 2
REMARK VINA RESULT:     -14.0      1.647      2.193
REMARK SMILES Cc1ccccc1C(=O)Nc1cc(C(=O)NCCCNC(=O)c2ccc(-c3c4nc(c(-c5ccc(S(=O)(=O)[O-])cc5)c5ccc([nH]5)c(-c5ccc(S(=O)(=O)[O-])cc5)c5nc(c(-c6ccc(S(=O)(=O)[O-])cc6)c6ccc3[nH]6)C=C5)C=C4)cc2)ccc1N1CC[NH+](CC(=O)Nc2ccc(F)cc2)CC1
REMARK SMILES IDX 17 1 16 2 14 3 15 4 13 6 11 7 12 8 85 9 84 10 83 11 10 12
REMARK SMILES IDX 8 13 9 14 7 16 1 17 2 18 3 19 4 20 6 21 5 22 86 23 87 24
REMARK SMILES IDX 102 25 88 26 101 27 89 28 90 30 91 31 92 32 93 33 94 35
REMARK SMILES IDX 95 36 100 37 96 38 99 39 97 40 98 41 18 42 19 43 20 44 21 45
REMARK SMILES IDX 22 47 23 48 24 49 82 50 25 51 81 52 26 53 27 54 28 55 75 56
REMARK SMILES IDX 29 57 80 58 74 59 76 60 30 61 79 62 73 63 72 64 31 66 61 67
REMARK SMILES IDX 42 68 60 69 43 70 46 71 59 72 77 73 44 74 45 75 58 77 78 78
REMARK SMILES IDX 47 79 32 80 33 81 41 82 34 83 40 84 35 85 36 86 37 87 38 88
REMARK SMILES IDX 39 89 62 90 63 91 71 92 64 93 70 94 65 95 66 96 67 97 68 98
REMARK SMILES IDX 69 99 48 100 49 101 57 102 50 103 56 104 51 105 52 106
REMARK SMILES IDX 53 107 54 108 55 109
REMARK H PARENT 16 5 10 15 89 29 93 34 20 46 76 65 46 76
REMARK Flexibility Score: inf
ROOT
ATOM      1  C   UNL A   1      39.354  21.618  25.986  1.00  0.00     0.118 C 
ENDROOT
BRANCH   1   2
ATOM      2  N   UNL A   1      38.380  20.529  25.625  1.00  0.00    -0.352 N 
ATOM      3  C   UNL A   1      37.085  20.412  25.154  1.00  0.00     0.251 C 
ATOM      4  O   UNL A   1      36.620  19.364  24.709  1.00  0.00    -0.269 OA
ATOM      5  H   UNL A   1      38.781  19.641  25.763  1.00  0.00     0.163 HD
BRANCH   3   6
ATOM      6  C   UNL A   1      36.220  21.597  25.171  1.00  0.00     0.042 A 
ATOM      7  C   UNL A   1      34.273  22.502  24.191  1.00  0.00     0.065 A 
ATOM      8  C   UNL A   1      35.407  21.756  24.076  1.00  0.00     0.042 A 
ATOM      9  C   UNL A   1      34.200  23.530  25.164  1.00  0.00     0.061 A 
ATOM     10  C   UNL A   1      35.164  23.507  26.190  1.00  0.00     0.029 A 
ATOM     11  C   UNL A   1      36.131  22.491  26.240  1.00  0.00     0.016 A 
BRANCH   7  12
ATOM     12  N   UNL A   1      33.268  22.257  23.247  1.00  0.00    -0.320 N 
ATOM     13  C   UNL A   1      32.458  21.138  23.039  1.00  0.00     0.255 C 
ATOM     14  O   UNL A   1      31.476  21.335  22.306  1.00  0.00    -0.269 OA
ATOM     15  H   UNL A   1      33.106  23.000  22.622  1.00  0.00     0.170 HD
BRANCH  13  16
ATOM     16  C   UNL A   1      32.597  19.730  23.579  1.00  0.00     0.043 A 
ATOM     17  C   UNL A   1      32.848  20.108  26.131  1.00  0.00     0.045 C 
ATOM     18  C   UNL A   1      32.790  19.261  24.898  1.00  0.00    -0.038 A 
ATOM     19  C   UNL A   1      33.046  17.875  25.115  1.00  0.00     0.004 A 
ATOM     20  C   UNL A   1      33.037  16.950  24.074  1.00  0.00     0.000 A 
ATOM     21  C   UNL A   1      32.504  18.746  22.560  1.00  0.00     0.014 A 
ATOM     22  C   UNL A   1      32.730  17.383  22.797  1.00  0.00     0.001 A 
ENDBRANCH  13  16
ENDBRANCH   7  12
BRANCH   9  23
ATOM     23  N   UNL A   1      33.201  24.485  25.124  1.00  0.00    -0.359 N 
ATOM     24  C   UNL A   1      31.779  24.240  25.445  1.00  0.00     0.178 C 
ATOM     25  C   UNL A   1      33.396  25.616  24.240  1.00  0.00     0.178 C 
ATOM     26  C   UNL A   1      30.996  25.585  25.694  1.00  0.00     0.284 C 
ATOM     27  C   UNL A   1      32.861  26.853  24.965  1.00  0.00     0.284 C 
ATOM     28  N   UNL A   1      31.409  26.816  24.980  1.00  0.00    -0.324 N 
ATOM     29  H   UNL A   1      30.981  27.561  25.529  1.00  0.00     0.348 HD
BRANCH  28  30
ATOM     30  C   UNL A   1      30.822  27.174  23.667  1.00  0.00     0.364 C 
BRANCH  30  31
ATOM     31  C   UNL A   1      30.593  28.642  23.288  1.00  0.00     0.279 C 
ATOM     32  O   UNL A   1      30.071  28.886  22.187  1.00  0.00    -0.268 OA
ATOM     33  N   UNL A   1      30.813  29.750  24.068  1.00  0.00    -0.321 N 
ATOM     34  H   UNL A   1      30.272  30.494  23.716  1.00  0.00     0.170 HD
BRANCH  33  35
ATOM     35  C   UNL A   1      31.540  30.208  25.200  1.00  0.00     0.041 A 
ATOM     36  C   UNL A   1      31.000  31.338  25.847  1.00  0.00     0.029 A 
ATOM     37  C   UNL A   1      32.771  29.771  25.675  1.00  0.00     0.029 A 
ATOM     38  C   UNL A   1      31.661  31.988  26.903  1.00  0.00     0.041 A 
ATOM     39  C   UNL A   1      33.475  30.448  26.693  1.00  0.00     0.041 A 
ATOM     40  C   UNL A   1      32.907  31.544  27.309  1.00  0.00     0.123 A 
ATOM     41  F   UNL A   1      33.556  32.174  28.298  1.00  0.00    -0.207 F 
ENDBRANCH  33  35
ENDBRANCH  30  31
ENDBRANCH  28  30
ENDBRANCH   9  23
ENDBRANCH   3   6
ENDBRANCH   1   2
BRANCH   1  42
ATOM     42  C   UNL A   1      40.957  21.388  26.331  1.00  0.00     0.042 C 
BRANCH  42  43
ATOM     43  C   UNL A   1      41.954  22.574  25.838  1.00  0.00     0.118 C 
BRANCH  43  44
ATOM     44  N   UNL A   1      42.535  23.852  26.600  1.00  0.00    -0.352 N 
ATOM     45  C   UNL A   1      42.134  24.871  27.588  1.00  0.00     0.251 C 
ATOM     46  H   UNL A   1      43.464  24.011  26.319  1.00  0.00     0.163 HD
ATOM     47  O   UNL A   1      42.933  24.952  28.542  1.00  0.00    -0.269 OA
BRANCH  45  48
ATOM     48  C   UNL A   1      40.917  25.890  27.729  1.00  0.00     0.039 A 
ATOM     49  C   UNL A   1      40.782  27.053  26.914  1.00  0.00     0.014 A 
ATOM     50  C   UNL A   1      39.885  25.796  28.635  1.00  0.00     0.014 A 
ATOM     51  C   UNL A   1      40.276  28.276  27.484  1.00  0.00     0.010 A 
ATOM     52  C   UNL A   1      39.323  26.988  29.172  1.00  0.00     0.010 A 
ATOM     53  C   UNL A   1      39.757  28.264  28.774  1.00  0.00    -0.014 A 
BRANCH  53  54
ATOM     54  C   UNL A   1      39.762  29.448  29.737  1.00  0.00     0.031 A 
ATOM     55  C   UNL A   1      38.758  30.492  29.595  1.00  0.00     0.074 A 
ATOM     56  C   UNL A   1      40.489  29.648  30.883  1.00  0.00     0.049 A 
ATOM     57  N   UNL A   1      39.005  31.760  29.548  1.00  0.00    -0.248 NA
ATOM     58  C   UNL A   1      37.351  30.141  29.548  1.00  0.00     0.031 C 
ATOM     59  C   UNL A   1      40.456  30.671  31.952  1.00  0.00     0.029 A 
ATOM     60  N   UNL A   1      41.482  28.846  31.406  1.00  0.00    -0.354 N 
ATOM     61  C   UNL A   1      37.797  32.366  29.814  1.00  0.00     0.074 A 
ATOM     62  C   UNL A   1      36.799  31.351  29.553  1.00  0.00     0.031 C 
ATOM     63  C   UNL A   1      41.608  30.620  32.667  1.00  0.00     0.029 A 
ATOM     64  C   UNL A   1      42.439  29.591  32.076  1.00  0.00     0.049 A 
ATOM     65  H   UNL A   1      41.507  27.866  31.313  1.00  0.00     0.167 HD
ATOM     66  C   UNL A   1      37.730  33.541  30.509  1.00  0.00     0.031 A 
ATOM     67  C   UNL A   1      43.692  29.661  31.530  1.00  0.00     0.031 A 
ATOM     68  C   UNL A   1      39.045  33.948  31.043  1.00  0.00     0.049 A 
ATOM     69  C   UNL A   1      43.922  31.027  30.982  1.00  0.00     0.074 A 
ATOM     70  C   UNL A   1      39.547  34.008  32.337  1.00  0.00     0.029 A 
ATOM     71  N   UNL A   1      40.154  34.049  30.203  1.00  0.00    -0.354 N 
ATOM     72  N   UNL A   1      42.977  31.913  30.898  1.00  0.00    -0.248 NA
ATOM     73  C   UNL A   1      45.198  31.524  30.493  1.00  0.00     0.031 C 
ATOM     74  C   UNL A   1      40.967  34.056  32.263  1.00  0.00     0.029 A 
ATOM     75  C   UNL A   1      41.334  34.071  30.928  1.00  0.00     0.049 A 
ATOM     76  H   UNL A   1      40.103  34.100  29.222  1.00  0.00     0.167 HD
ATOM     77  C   UNL A   1      43.461  33.076  30.403  1.00  0.00     0.074 A 
ATOM     78  C   UNL A   1      44.868  32.787  30.169  1.00  0.00     0.031 C 
ATOM     79  C   UNL A   1      42.635  34.150  30.253  1.00  0.00     0.031 A 
BRANCH  66  80
ATOM     80  C   UNL A   1      36.407  34.124  30.993  1.00  0.00    -0.014 A 
ATOM     81  C   UNL A   1      35.280  34.165  30.151  1.00  0.00     0.010 A 
ATOM     82  C   UNL A   1      36.206  34.631  32.295  1.00  0.00     0.010 A 
ATOM     83  C   UNL A   1      34.067  34.754  30.555  1.00  0.00     0.020 A 
ATOM     84  C   UNL A   1      35.031  35.281  32.694  1.00  0.00     0.020 A 
ATOM     85  C   UNL A   1      33.958  35.332  31.820  1.00  0.00     0.054 A 
BRANCH  85  86
ATOM     86  S   UNL A   1      32.392  36.075  32.341  1.00  0.00     0.124 S 
ATOM     87  O   UNL A   1      31.583  34.910  32.687  1.00  0.00    -0.237 OA
ATOM     88  O   UNL A   1      32.804  36.914  33.463  1.00  0.00    -0.237 OA
ATOM     89  O   UNL A   1      31.942  36.809  31.158  1.00  0.00    -0.744 OA
ENDBRANCH  85  86
ENDBRANCH  66  80
BRANCH  67  90
ATOM     90  C   UNL A   1      44.211  28.363  30.922  1.00  0.00    -0.014 A 
ATOM     91  C   UNL A   1      43.465  27.952  29.807  1.00  0.00     0.010 A 
ATOM     92  C   UNL A   1      45.582  28.264  30.741  1.00  0.00     0.010 A 
ATOM     93  C   UNL A   1      43.922  28.349  28.546  1.00  0.00     0.020 A 
ATOM     94  C   UNL A   1      46.060  28.449  29.434  1.00  0.00     0.020 A 
ATOM     95  C   UNL A   1      45.219  28.834  28.407  1.00  0.00     0.054 A 
BRANCH  95  96
ATOM     96  S   UNL A   1      45.521  30.267  26.990  1.00  0.00     0.124 S 
ATOM     97  O   UNL A   1      45.353  29.435  25.824  1.00  0.00    -0.237 OA
ATOM     98  O   UNL A   1      44.424  31.223  26.997  1.00  0.00    -0.237 OA
ATOM     99  O   UNL A   1      46.830  30.836  27.132  1.00  0.00    -0.744 OA
ENDBRANCH  95  96
ENDBRANCH  67  90
BRANCH  79 100
ATOM    100  C   UNL A   1      43.000  35.425  29.551  1.00  0.00    -0.014 A 
ATOM    101  C   UNL A   1      43.872  36.392  30.068  1.00  0.00     0.010 A 
ATOM    102  C   UNL A   1      42.501  35.641  28.245  1.00  0.00     0.010 A 
ATOM    103  C   UNL A   1      44.163  37.559  29.357  1.00  0.00     0.020 A 
ATOM    104  C   UNL A   1      42.834  36.769  27.500  1.00  0.00     0.020 A 
ATOM    105  C   UNL A   1      43.638  37.740  28.078  1.00  0.00     0.054 A 
BRANCH 105 106
ATOM    106  S   UNL A   1      44.060  39.239  27.169  1.00  0.00     0.124 S 
ATOM    107  O   UNL A   1      44.271  40.196  28.252  1.00  0.00    -0.237 OA
ATOM    108  O   UNL A   1      45.262  38.842  26.440  1.00  0.00    -0.237 OA
ATOM    109  O   UNL A   1      42.885  39.484  26.337  1.00  0.00    -0.744 OA
ENDBRANCH 105 106
ENDBRANCH  79 100
ENDBRANCH  53  54
ENDBRANCH  45  48
ENDBRANCH  43  44
ENDBRANCH  42  43
ENDBRANCH   1  42
TORSDOF 19
ENDMDL
MODEL 3
REMARK VINA RESULT:     -13.0      1.882      2.338
REMARK SMILES Cc1ccccc1C(=O)Nc1cc(C(=O)NCCCNC(=O)c2ccc(-c3c4nc(c(-c5ccc(S(=O)(=O)[O-])cc5)c5ccc([nH]5)c(-c5ccc(S(=O)(=O)[O-])cc5)c5nc(c(-c6ccc(S(=O)(=O)[O-])cc6)c6ccc3[nH]6)C=C5)C=C4)cc2)ccc1N1CC[NH+](CC(=O)Nc2ccc(F)cc2)CC1
REMARK SMILES IDX 17 1 16 2 14 3 15 4 13 6 11 7 12 8 85 9 84 10 83 11 10 12
REMARK SMILES IDX 8 13 9 14 7 16 1 17 2 18 3 19 4 20 6 21 5 22 86 23 87 24
REMARK SMILES IDX 102 25 88 26 101 27 89 28 90 30 91 31 92 32 93 33 94 35
REMARK SMILES IDX 95 36 100 37 96 38 99 39 97 40 98 41 18 42 19 43 20 44 21 45
REMARK SMILES IDX 22 47 23 48 24 49 82 50 25 51 81 52 26 53 27 54 28 55 75 56
REMARK SMILES IDX 29 57 80 58 74 59 76 60 30 61 79 62 73 63 72 64 31 66 61 67
REMARK SMILES IDX 42 68 60 69 43 70 46 71 59 72 77 73 44 74 45 75 58 77 78 78
REMARK SMILES IDX 47 79 32 80 33 81 41 82 34 83 40 84 35 85 36 86 37 87 38 88
REMARK SMILES IDX 39 89 62 90 63 91 71 92 64 93 70 94 65 95 66 96 67 97 68 98
REMARK SMILES IDX 69 99 48 100 49 101 57 102 50 103 56 104 51 105 52 106
REMARK SMILES IDX 53 107 54 108 55 109
REMARK H PARENT 16 5 10 15 89 29 93 34 20 46 76 65 46 76
REMARK Flexibility Score: inf
ROOT
ATOM      1  C   UNL A   1      39.912  21.339  26.231  1.00  0.00     0.118 C 
ENDROOT
BRANCH   1   2
ATOM      2  N   UNL A   1      38.978  20.193  25.942  1.00  0.00    -0.352 N 
ATOM      3  C   UNL A   1      37.821  19.958  25.223  1.00  0.00     0.251 C 
ATOM      4  O   UNL A   1      37.404  18.830  24.967  1.00  0.00    -0.269 OA
ATOM      5  H   UNL A   1      39.278  19.374  26.397  1.00  0.00     0.163 HD
BRANCH   3   6
ATOM      6  C   UNL A   1      37.054  21.105  24.728  1.00  0.00     0.042 A 
ATOM      7  C   UNL A   1      34.902  22.074  24.775  1.00  0.00     0.065 A 
ATOM      8  C   UNL A   1      35.688  20.962  24.748  1.00  0.00     0.042 A 
ATOM      9  C   UNL A   1      35.383  23.292  24.231  1.00  0.00     0.061 A 
ATOM     10  C   UNL A   1      36.769  23.385  24.003  1.00  0.00     0.029 A 
ATOM     11  C   UNL A   1      37.620  22.317  24.326  1.00  0.00     0.016 A 
BRANCH   7  12
ATOM     12  N   UNL A   1      33.600  21.905  25.262  1.00  0.00    -0.320 N 
ATOM     13  C   UNL A   1      32.671  20.882  25.059  1.00  0.00     0.255 C 
ATOM     14  O   UNL A   1      31.715  20.881  25.851  1.00  0.00    -0.269 OA
ATOM     15  H   UNL A   1      33.286  22.631  25.848  1.00  0.00     0.170 HD
BRANCH  13  16
ATOM     16  C   UNL A   1      32.663  19.775  24.025  1.00  0.00     0.043 A 
ATOM     17  C   UNL A   1      31.852  20.988  21.882  1.00  0.00     0.045 C 
ATOM     18  C   UNL A   1      32.293  19.788  22.661  1.00  0.00    -0.038 A 
ATOM     19  C   UNL A   1      32.232  18.557  21.943  1.00  0.00     0.004 A 
ATOM     20  C   UNL A   1      32.600  17.345  22.523  1.00  0.00     0.000 A 
ATOM     21  C   UNL A   1      33.118  18.537  24.550  1.00  0.00     0.014 A 
ATOM     22  C   UNL A   1      33.078  17.341  23.820  1.00  0.00     0.001 A 
ENDBRANCH  13  16
ENDBRANCH   7  12
BRANCH   9  23
ATOM     23  N   UNL A   1      34.530  24.350  23.977  1.00  0.00    -0.359 N 
ATOM     24  C   UNL A   1      34.190  25.416  24.943  1.00  0.00     0.178 C 
ATOM     25  C   UNL A   1      33.513  24.157  22.963  1.00  0.00     0.178 C 
ATOM     26  C   UNL A   1      33.533  26.660  24.232  1.00  0.00     0.284 C 
ATOM     27  C   UNL A   1      33.396  25.470  22.186  1.00  0.00     0.284 C 
ATOM     28  N   UNL A   1      32.722  26.461  23.008  1.00  0.00    -0.324 N 
ATOM     29  H   UNL A   1      32.690  27.392  22.593  1.00  0.00     0.348 HD
BRANCH  28  30
ATOM     30  C   UNL A   1      31.260  26.229  23.086  1.00  0.00     0.364 C 
BRANCH  30  31
ATOM     31  C   UNL A   1      30.417  26.919  24.164  1.00  0.00     0.279 C 
ATOM     32  O   UNL A   1      30.315  26.362  25.272  1.00  0.00    -0.268 OA
ATOM     33  N   UNL A   1      29.818  28.152  24.095  1.00  0.00    -0.321 N 
ATOM     34  H   UNL A   1      29.653  28.474  25.010  1.00  0.00     0.170 HD
BRANCH  33  35
ATOM     35  C   UNL A   1      29.351  29.130  23.175  1.00  0.00     0.041 A 
ATOM     36  C   UNL A   1      27.953  29.191  23.016  1.00  0.00     0.029 A 
ATOM     37  C   UNL A   1      30.092  29.943  22.324  1.00  0.00     0.029 A 
ATOM     38  C   UNL A   1      27.339  30.015  22.058  1.00  0.00     0.041 A 
ATOM     39  C   UNL A   1      29.494  30.730  21.317  1.00  0.00     0.041 A 
ATOM     40  C   UNL A   1      28.120  30.771  21.201  1.00  0.00     0.123 A 
ATOM     41  F   UNL A   1      27.544  31.540  20.268  1.00  0.00    -0.207 F 
ENDBRANCH  33  35
ENDBRANCH  30  31
ENDBRANCH  28  30
ENDBRANCH   9  23
ENDBRANCH   3   6
ENDBRANCH   1   2
BRANCH   1  42
ATOM     42  C   UNL A   1      40.903  21.450  27.553  1.00  0.00     0.042 C 
BRANCH  42  43
ATOM     43  C   UNL A   1      42.306  22.235  27.309  1.00  0.00     0.118 C 
BRANCH  43  44
ATOM     44  N   UNL A   1      42.615  23.704  26.764  1.00  0.00    -0.352 N 
ATOM     45  C   UNL A   1      42.348  25.119  27.084  1.00  0.00     0.251 C 
ATOM     46  H   UNL A   1      43.163  23.647  25.950  1.00  0.00     0.163 HD
ATOM     47  O   UNL A   1      43.390  25.802  27.139  1.00  0.00    -0.269 OA
BRANCH  45  48
ATOM     48  C   UNL A   1      41.042  25.983  27.381  1.00  0.00     0.039 A 
ATOM     49  C   UNL A   1      40.648  27.093  26.578  1.00  0.00     0.014 A 
ATOM     50  C   UNL A   1      40.166  25.790  28.426  1.00  0.00     0.014 A 
ATOM     51  C   UNL A   1      40.074  28.262  27.195  1.00  0.00     0.010 A 
ATOM     52  C   UNL A   1      39.536  26.920  29.020  1.00  0.00     0.010 A 
ATOM     53  C   UNL A   1      39.745  28.226  28.546  1.00  0.00    -0.014 A 
BRANCH  53  54
ATOM     54  C   UNL A   1      39.731  29.432  29.482  1.00  0.00     0.031 A 
ATOM     55  C   UNL A   1      38.709  30.455  29.320  1.00  0.00     0.074 A 
ATOM     56  C   UNL A   1      40.459  29.670  30.621  1.00  0.00     0.049 A 
ATOM     57  N   UNL A   1      38.934  31.726  29.243  1.00  0.00    -0.248 NA
ATOM     58  C   UNL A   1      37.309  30.079  29.286  1.00  0.00     0.031 C 
ATOM     59  C   UNL A   1      40.412  30.717  31.666  1.00  0.00     0.029 A 
ATOM     60  N   UNL A   1      41.467  28.898  31.159  1.00  0.00    -0.354 N 
ATOM     61  C   UNL A   1      37.717  32.317  29.499  1.00  0.00     0.074 A 
ATOM     62  C   UNL A   1      36.736  31.279  29.265  1.00  0.00     0.031 C 
ATOM     63  C   UNL A   1      41.566  30.703  32.378  1.00  0.00     0.029 A 
ATOM     64  C   UNL A   1      42.413  29.674  31.809  1.00  0.00     0.049 A 
ATOM     65  H   UNL A   1      41.509  27.917  31.088  1.00  0.00     0.167 HD
ATOM     66  C   UNL A   1      37.632  33.507  30.168  1.00  0.00     0.031 A 
ATOM     67  C   UNL A   1      43.663  29.754  31.257  1.00  0.00     0.031 A 
ATOM     68  C   UNL A   1      38.941  33.947  30.687  1.00  0.00     0.049 A 
ATOM     69  C   UNL A   1      43.868  31.110  30.677  1.00  0.00     0.074 A 
ATOM     70  C   UNL A   1      39.446  34.046  31.978  1.00  0.00     0.029 A 
ATOM     71  N   UNL A   1      40.046  34.049  29.842  1.00  0.00    -0.354 N 
ATOM     72  N   UNL A   1      42.908  31.978  30.576  1.00  0.00    -0.248 NA
ATOM     73  C   UNL A   1      45.134  31.617  30.172  1.00  0.00     0.031 C 
ATOM     74  C   UNL A   1      40.865  34.116  31.898  1.00  0.00     0.029 A 
ATOM     75  C   UNL A   1      41.228  34.107  30.562  1.00  0.00     0.049 A 
ATOM     76  H   UNL A   1      39.992  34.076  28.859  1.00  0.00     0.167 HD
ATOM     77  C   UNL A   1      43.369  33.137  30.052  1.00  0.00     0.074 A 
ATOM     78  C   UNL A   1      44.781  32.867  29.821  1.00  0.00     0.031 C 
ATOM     79  C   UNL A   1      42.525  34.193  29.881  1.00  0.00     0.031 A 
BRANCH  66  80
ATOM     80  C   UNL A   1      36.301  34.077  30.642  1.00  0.00    -0.014 A 
ATOM     81  C   UNL A   1      35.269  34.370  29.731  1.00  0.00     0.010 A 
ATOM     82  C   UNL A   1      35.996  34.327  31.998  1.00  0.00     0.010 A 
ATOM     83  C   UNL A   1      34.055  34.955  30.139  1.00  0.00     0.020 A 
ATOM     84  C   UNL A   1      34.825  34.970  32.417  1.00  0.00     0.020 A 
ATOM     85  C   UNL A   1      33.850  35.274  31.480  1.00  0.00     0.054 A 
BRANCH  85  86
ATOM     86  S   UNL A   1      32.282  36.012  32.004  1.00  0.00     0.124 S 
ATOM     87  O   UNL A   1      31.678  36.416  30.738  1.00  0.00    -0.237 OA
ATOM     88  O   UNL A   1      31.629  34.901  32.690  1.00  0.00    -0.237 OA
ATOM     89  O   UNL A   1      32.689  37.117  32.873  1.00  0.00    -0.744 OA
ENDBRANCH  85  86
ENDBRANCH  66  80
BRANCH  67  90
ATOM     90  C   UNL A   1      44.202  28.451  30.676  1.00  0.00    -0.014 A 
ATOM     91  C   UNL A   1      45.601  28.371  30.735  1.00  0.00     0.010 A 
ATOM     92  C   UNL A   1      43.560  27.284  31.063  1.00  0.00     0.010 A 
ATOM     93  C   UNL A   1      46.162  27.732  31.846  1.00  0.00     0.020 A 
ATOM     94  C   UNL A   1      44.207  26.503  32.035  1.00  0.00     0.020 A 
ATOM     95  C   UNL A   1      45.359  26.939  32.660  1.00  0.00     0.054 A 
BRANCH  95  96
ATOM     96  S   UNL A   1      45.820  26.892  34.645  1.00  0.00     0.124 S 
ATOM     97  O   UNL A   1      47.209  26.522  34.520  1.00  0.00    -0.237 OA
ATOM     98  O   UNL A   1      45.783  28.235  35.204  1.00  0.00    -0.237 OA
ATOM     99  O   UNL A   1      45.004  25.924  35.321  1.00  0.00    -0.744 OA
ENDBRANCH  95  96
ENDBRANCH  67  90
BRANCH  79 100
ATOM    100  C   UNL A   1      42.866  35.458  29.149  1.00  0.00    -0.014 A 
ATOM    101  C   UNL A   1      42.666  35.658  27.777  1.00  0.00     0.010 A 
ATOM    102  C   UNL A   1      43.350  36.557  29.896  1.00  0.00     0.010 A 
ATOM    103  C   UNL A   1      43.014  36.864  27.163  1.00  0.00     0.020 A 
ATOM    104  C   UNL A   1      43.640  37.785  29.307  1.00  0.00     0.020 A 
ATOM    105  C   UNL A   1      43.501  37.919  27.933  1.00  0.00     0.054 A 
BRANCH 105 106
ATOM    106  S   UNL A   1      43.906  39.476  27.120  1.00  0.00     0.124 S 
ATOM    107  O   UNL A   1      42.669  39.769  26.401  1.00  0.00    -0.237 OA
ATOM    108  O   UNL A   1      44.200  40.358  28.247  1.00  0.00    -0.237 OA
ATOM    109  O   UNL A   1      45.054  39.142  26.281  1.00  0.00    -0.744 OA
ENDBRANCH 105 106
ENDBRANCH  79 100
ENDBRANCH  53  54
ENDBRANCH  45  48
ENDBRANCH  43  44
ENDBRANCH  42  43
ENDBRANCH   1  42
TORSDOF 19
ENDMDL
