MODEL 1
REMARK VINA RESULT:     -11.7      0.000      0.000
REMARK SMILES C[C@H]1[C@H](C(=O)NCCCNC(=O)c2ccc(-c3c4nc(c(-c5ccc(S(=O)(=O)[O-])cc5)c5ccc([nH]5)c(-c5ccc(S(=O)(=O)[O-])cc5)c5nc(c(-c6ccc(S(=O)(=O)[O-])cc6)c6ccc3[nH]6)C=C5)C=C4)cc2)CC[N@@H+]1[C@@H](c1ccccc1)c1ccco1
REMARK SMILES IDX 8 1 7 2 6 3 4 4 5 5 3 7 1 8 2 9 75 10 73 11 74 12 76 14
REMARK SMILES IDX 77 15 78 16 82 17 79 18 81 19 80 20 83 21 84 22 87 23 85 24
REMARK SMILES IDX 86 25 9 26 10 27 11 28 12 30 13 31 14 32 72 33 15 34 71 35
REMARK SMILES IDX 16 36 17 37 18 38 65 39 19 40 70 41 64 42 66 43 20 44 69 45
REMARK SMILES IDX 63 46 62 47 21 49 51 50 32 51 50 52 33 53 36 54 49 55 67 56
REMARK SMILES IDX 34 57 35 58 48 60 68 61 37 62 22 63 23 64 31 65 24 66 30 67
REMARK SMILES IDX 25 68 26 69 27 70 28 71 29 72 52 73 53 74 61 75 54 76 60 77
REMARK SMILES IDX 55 78 56 79 57 80 58 81 59 82 38 83 39 84 47 85 40 86 46 87
REMARK SMILES IDX 41 88 42 89 43 90 44 91 45 92
REMARK H PARENT 6 6 75 13 10 29 66 48 36 59
REMARK Flexibility Score: inf
ROOT
ATOM      1  C   UNL A   1      31.939  27.626  26.954  1.00  0.00     0.042 C 
ENDROOT
BRANCH   1   2
ATOM      2  C   UNL A   1      31.691  27.359  25.475  1.00  0.00     0.117 C 
BRANCH   2   3
ATOM      3  N   UNL A   1      32.858  26.855  24.789  1.00  0.00    -0.356 N 
ATOM      4  C   UNL A   1      33.221  25.573  24.520  1.00  0.00     0.229 C 
ATOM      5  O   UNL A   1      34.223  25.425  23.811  1.00  0.00    -0.275 OA
ATOM      6  H   UNL A   1      33.485  27.543  24.470  1.00  0.00     0.163 HD
BRANCH   4   7
ATOM      7  C   UNL A   1      32.440  24.341  24.982  1.00  0.00     0.142 C 
ATOM      8  C   UNL A   1      31.464  22.783  23.276  1.00  0.00     0.076 C 
ATOM      9  C   UNL A   1      32.648  23.010  24.230  1.00  0.00     0.194 C 
ATOM     10  N   UNL A   1      32.645  21.941  25.256  1.00  0.00    -0.319 N 
ATOM     11  C   UNL A   1      32.613  23.987  26.451  1.00  0.00     0.081 C 
ATOM     12  C   UNL A   1      32.181  22.526  26.503  1.00  0.00     0.264 C 
ATOM     13  H   UNL A   1      31.976  21.221  24.985  1.00  0.00     0.349 HD
BRANCH  10  14
ATOM     14  C   UNL A   1      33.805  21.009  25.286  1.00  0.00     0.283 C 
BRANCH  14  15
ATOM     15  C   UNL A   1      33.747  19.670  24.533  1.00  0.00     0.017 A 
ATOM     16  C   UNL A   1      32.599  19.374  23.770  1.00  0.00     0.010 A 
ATOM     17  C   UNL A   1      34.706  18.649  24.658  1.00  0.00     0.010 A 
ATOM     18  C   UNL A   1      32.474  18.163  23.085  1.00  0.00     0.001 A 
ATOM     19  C   UNL A   1      34.602  17.453  23.941  1.00  0.00     0.001 A 
ATOM     20  C   UNL A   1      33.491  17.216  23.144  1.00  0.00     0.000 A 
ENDBRANCH  14  15
BRANCH  14  21
ATOM     21  C   UNL A   1      35.126  21.703  25.029  1.00  0.00     0.165 A 
ATOM     22  C   UNL A   1      35.730  22.193  23.886  1.00  0.00     0.052 A 
ATOM     23  O   UNL A   1      35.856  22.089  26.123  1.00  0.00    -0.463 OA
ATOM     24  C   UNL A   1      36.838  22.967  24.315  1.00  0.00     0.042 A 
ATOM     25  C   UNL A   1      36.863  22.880  25.684  1.00  0.00     0.195 A 
ENDBRANCH  14  21
ENDBRANCH  10  14
ENDBRANCH   4   7
ENDBRANCH   2   3
ENDBRANCH   1   2
BRANCH   1  26
ATOM     26  C   UNL A   1      33.318  28.203  27.251  1.00  0.00     0.118 C 
BRANCH  26  27
ATOM     27  N   UNL A   1      33.326  29.656  27.414  1.00  0.00    -0.352 N 
ATOM     28  C   UNL A   1      34.270  30.541  27.869  1.00  0.00     0.251 C 
ATOM     29  H   UNL A   1      32.483  30.086  27.141  1.00  0.00     0.163 HD
ATOM     30  O   UNL A   1      33.948  31.725  28.013  1.00  0.00    -0.269 OA
BRANCH  28  31
ATOM     31  C   UNL A   1      35.643  30.121  28.226  1.00  0.00     0.039 A 
ATOM     32  C   UNL A   1      36.636  30.130  27.238  1.00  0.00     0.014 A 
ATOM     33  C   UNL A   1      35.955  29.659  29.502  1.00  0.00     0.014 A 
ATOM     34  C   UNL A   1      37.940  29.729  27.547  1.00  0.00     0.010 A 
ATOM     35  C   UNL A   1      37.273  29.377  29.839  1.00  0.00     0.010 A 
ATOM     36  C   UNL A   1      38.278  29.377  28.861  1.00  0.00    -0.014 A 
BRANCH  36  37
ATOM     37  C   UNL A   1      39.645  28.937  29.244  1.00  0.00     0.031 A 
ATOM     38  C   UNL A   1      40.580  29.917  29.912  1.00  0.00     0.074 A 
ATOM     39  C   UNL A   1      40.083  27.706  28.914  1.00  0.00     0.049 A 
ATOM     40  N   UNL A   1      41.856  29.801  30.172  1.00  0.00    -0.248 NA
ATOM     41  C   UNL A   1      40.008  31.220  30.297  1.00  0.00     0.031 C 
ATOM     42  C   UNL A   1      39.292  26.677  28.234  1.00  0.00     0.029 A 
ATOM     43  N   UNL A   1      41.311  27.120  29.088  1.00  0.00    -0.354 N 
ATOM     44  C   UNL A   1      42.244  31.024  30.710  1.00  0.00     0.074 A 
ATOM     45  C   UNL A   1      41.085  31.887  30.682  1.00  0.00     0.031 C 
ATOM     46  C   UNL A   1      40.050  25.581  28.067  1.00  0.00     0.029 A 
ATOM     47  C   UNL A   1      41.390  25.844  28.579  1.00  0.00     0.049 A 
ATOM     48  H   UNL A   1      42.064  27.568  29.535  1.00  0.00     0.167 HD
ATOM     49  C   UNL A   1      43.450  31.391  31.208  1.00  0.00     0.031 A 
ATOM     50  C   UNL A   1      42.429  24.990  28.515  1.00  0.00     0.031 A 
ATOM     51  C   UNL A   1      44.591  30.517  31.264  1.00  0.00     0.049 A 
ATOM     52  C   UNL A   1      43.757  25.411  29.086  1.00  0.00     0.074 A 
ATOM     53  C   UNL A   1      45.841  30.766  31.801  1.00  0.00     0.029 A 
ATOM     54  N   UNL A   1      44.616  29.220  30.773  1.00  0.00    -0.354 N 
ATOM     55  N   UNL A   1      44.094  26.557  29.630  1.00  0.00    -0.248 NA
ATOM     56  C   UNL A   1      44.839  24.419  29.047  1.00  0.00     0.031 C 
ATOM     57  C   UNL A   1      46.638  29.635  31.591  1.00  0.00     0.029 A 
ATOM     58  C   UNL A   1      45.865  28.660  30.979  1.00  0.00     0.049 A 
ATOM     59  H   UNL A   1      43.858  28.764  30.341  1.00  0.00     0.167 HD
ATOM     60  C   UNL A   1      45.421  26.414  30.020  1.00  0.00     0.074 A 
ATOM     61  C   UNL A   1      45.815  25.065  29.669  1.00  0.00     0.031 C 
ATOM     62  C   UNL A   1      46.241  27.317  30.615  1.00  0.00     0.031 A 
BRANCH  49  63
ATOM     63  C   UNL A   1      43.588  32.799  31.733  1.00  0.00    -0.014 A 
ATOM     64  C   UNL A   1      43.322  33.103  33.081  1.00  0.00     0.010 A 
ATOM     65  C   UNL A   1      44.012  33.829  30.874  1.00  0.00     0.010 A 
ATOM     66  C   UNL A   1      43.425  34.417  33.546  1.00  0.00     0.020 A 
ATOM     67  C   UNL A   1      44.149  35.140  31.344  1.00  0.00     0.020 A 
ATOM     68  C   UNL A   1      43.835  35.427  32.673  1.00  0.00     0.054 A 
BRANCH  68  69
ATOM     69  S   UNL A   1      43.976  37.120  33.311  1.00  0.00     0.124 S 
ATOM     70  O   UNL A   1      43.958  37.907  32.080  1.00  0.00    -0.237 OA
ATOM     71  O   UNL A   1      42.791  37.245  34.153  1.00  0.00    -0.237 OA
ATOM     72  O   UNL A   1      45.249  37.116  34.028  1.00  0.00    -0.744 OA
ENDBRANCH  68  69
ENDBRANCH  49  63
BRANCH  50  73
ATOM     73  C   UNL A   1      42.249  23.646  27.898  1.00  0.00    -0.014 A 
ATOM     74  C   UNL A   1      42.881  23.327  26.683  1.00  0.00     0.010 A 
ATOM     75  C   UNL A   1      41.465  22.667  28.537  1.00  0.00     0.010 A 
ATOM     76  C   UNL A   1      42.720  22.061  26.112  1.00  0.00     0.020 A 
ATOM     77  C   UNL A   1      41.328  21.391  27.985  1.00  0.00     0.020 A 
ATOM     78  C   UNL A   1      41.949  21.099  26.769  1.00  0.00     0.054 A 
BRANCH  78  79
ATOM     79  S   UNL A   1      41.810  19.443  26.040  1.00  0.00     0.124 S 
ATOM     80  O   UNL A   1      42.662  19.557  24.860  1.00  0.00    -0.237 OA
ATOM     81  O   UNL A   1      42.317  18.585  27.108  1.00  0.00    -0.237 OA
ATOM     82  O   UNL A   1      40.380  19.308  25.769  1.00  0.00    -0.744 OA
ENDBRANCH  78  79
ENDBRANCH  50  73
BRANCH  62  83
ATOM     83  C   UNL A   1      47.636  26.863  30.951  1.00  0.00    -0.014 A 
ATOM     84  C   UNL A   1      48.708  27.076  30.067  1.00  0.00     0.010 A 
ATOM     85  C   UNL A   1      47.883  26.244  32.190  1.00  0.00     0.010 A 
ATOM     86  C   UNL A   1      49.993  26.639  30.396  1.00  0.00     0.020 A 
ATOM     87  C   UNL A   1      49.172  25.833  32.538  1.00  0.00     0.020 A 
ATOM     88  C   UNL A   1      50.216  26.016  31.629  1.00  0.00     0.054 A 
BRANCH  88  89
ATOM     89  S   UNL A   1      51.896  25.476  32.042  1.00  0.00     0.124 S 
ATOM     90  O   UNL A   1      52.649  25.902  30.865  1.00  0.00    -0.237 OA
ATOM     91  O   UNL A   1      52.179  26.215  33.269  1.00  0.00    -0.237 OA
ATOM     92  O   UNL A   1      51.765  24.031  32.208  1.00  0.00    -0.744 OA
ENDBRANCH  88  89
ENDBRANCH  62  83
ENDBRANCH  36  37
ENDBRANCH  28  31
ENDBRANCH  26  27
ENDBRANCH   1  26
TORSDOF 16
ENDMDL
MODEL 2
REMARK VINA RESULT:     -11.3      3.234      4.389
REMARK SMILES C[C@H]1[C@H](C(=O)NCCCNC(=O)c2ccc(-c3c4nc(c(-c5ccc(S(=O)(=O)[O-])cc5)c5ccc([nH]5)c(-c5ccc(S(=O)(=O)[O-])cc5)c5nc(c(-c6ccc(S(=O)(=O)[O-])cc6)c6ccc3[nH]6)C=C5)C=C4)cc2)CC[N@@H+]1[C@@H](c1ccccc1)c1ccco1
REMARK SMILES IDX 8 1 7 2 6 3 4 4 5 5 3 7 1 8 2 9 75 10 73 11 74 12 76 14
REMARK SMILES IDX 77 15 78 16 82 17 79 18 81 19 80 20 83 21 84 22 87 23 85 24
REMARK SMILES IDX 86 25 9 26 10 27 11 28 12 30 13 31 14 32 72 33 15 34 71 35
REMARK SMILES IDX 16 36 17 37 18 38 65 39 19 40 70 41 64 42 66 43 20 44 69 45
REMARK SMILES IDX 63 46 62 47 21 49 51 50 32 51 50 52 33 53 36 54 49 55 67 56
REMARK SMILES IDX 34 57 35 58 48 60 68 61 37 62 22 63 23 64 31 65 24 66 30 67
REMARK SMILES IDX 25 68 26 69 27 70 28 71 29 72 52 73 53 74 61 75 54 76 60 77
REMARK SMILES IDX 55 78 56 79 57 80 58 81 59 82 38 83 39 84 47 85 40 86 46 87
REMARK SMILES IDX 41 88 42 89 43 90 44 91 45 92
REMARK H PARENT 6 6 75 13 10 29 66 48 36 59
REMARK Flexibility Score: inf
ROOT
ATOM      1  C   UNL A   1      34.807  29.828  27.537  1.00  0.00     0.042 C 
ENDROOT
BRANCH   1   2
ATOM      2  C   UNL A   1      33.394  30.086  27.029  1.00  0.00     0.117 C 
BRANCH   2   3
ATOM      3  N   UNL A   1      32.426  29.151  27.555  1.00  0.00    -0.356 N 
ATOM      4  C   UNL A   1      31.752  28.154  26.926  1.00  0.00     0.229 C 
ATOM      5  O   UNL A   1      31.061  27.422  27.645  1.00  0.00    -0.275 OA
ATOM      6  H   UNL A   1      32.225  29.253  28.513  1.00  0.00     0.163 HD
BRANCH   4   7
ATOM      7  C   UNL A   1      31.850  27.856  25.428  1.00  0.00     0.142 C 
ATOM      8  C   UNL A   1      34.068  28.041  24.273  1.00  0.00     0.076 C 
ATOM      9  C   UNL A   1      33.068  27.063  24.911  1.00  0.00     0.194 C 
ATOM     10  N   UNL A   1      32.561  26.149  23.861  1.00  0.00    -0.319 N 
ATOM     11  C   UNL A   1      30.644  27.144  24.837  1.00  0.00     0.081 C 
ATOM     12  C   UNL A   1      31.198  26.547  23.548  1.00  0.00     0.264 C 
ATOM     13  H   UNL A   1      33.119  26.268  23.016  1.00  0.00     0.349 HD
BRANCH  10  14
ATOM     14  C   UNL A   1      32.873  24.700  23.997  1.00  0.00     0.283 C 
BRANCH  14  15
ATOM     15  C   UNL A   1      34.322  24.234  24.217  1.00  0.00     0.017 A 
ATOM     16  C   UNL A   1      34.933  23.441  23.225  1.00  0.00     0.010 A 
ATOM     17  C   UNL A   1      35.043  24.428  25.408  1.00  0.00     0.010 A 
ATOM     18  C   UNL A   1      36.236  22.964  23.377  1.00  0.00     0.001 A 
ATOM     19  C   UNL A   1      36.362  23.985  25.547  1.00  0.00     0.001 A 
ATOM     20  C   UNL A   1      36.963  23.264  24.524  1.00  0.00     0.000 A 
ENDBRANCH  14  15
BRANCH  14  21
ATOM     21  C   UNL A   1      31.936  23.982  24.945  1.00  0.00     0.165 A 
ATOM     22  C   UNL A   1      31.051  22.932  24.786  1.00  0.00     0.052 A 
ATOM     23  O   UNL A   1      32.042  24.280  26.279  1.00  0.00    -0.463 OA
ATOM     24  C   UNL A   1      30.656  22.534  26.088  1.00  0.00     0.042 A 
ATOM     25  C   UNL A   1      31.297  23.378  26.960  1.00  0.00     0.195 A 
ENDBRANCH  14  21
ENDBRANCH  10  14
ENDBRANCH   4   7
ENDBRANCH   2   3
ENDBRANCH   1   2
BRANCH   1  26
ATOM     26  C   UNL A   1      35.474  31.055  28.146  1.00  0.00     0.118 C 
BRANCH  26  27
ATOM     27  N   UNL A   1      35.480  31.057  29.608  1.00  0.00    -0.352 N 
ATOM     28  C   UNL A   1      36.411  30.674  30.540  1.00  0.00     0.251 C 
ATOM     29  H   UNL A   1      34.647  31.404  30.003  1.00  0.00     0.163 HD
ATOM     30  O   UNL A   1      36.087  30.677  31.733  1.00  0.00    -0.269 OA
BRANCH  28  31
ATOM     31  C   UNL A   1      37.770  30.228  30.165  1.00  0.00     0.039 A 
ATOM     32  C   UNL A   1      38.623  29.734  31.161  1.00  0.00     0.014 A 
ATOM     33  C   UNL A   1      38.242  30.347  28.861  1.00  0.00     0.014 A 
ATOM     34  C   UNL A   1      39.917  29.314  30.836  1.00  0.00     0.010 A 
ATOM     35  C   UNL A   1      39.481  29.820  28.516  1.00  0.00     0.010 A 
ATOM     36  C   UNL A   1      40.348  29.325  29.501  1.00  0.00    -0.014 A 
BRANCH  36  37
ATOM     37  C   UNL A   1      41.713  28.896  29.099  1.00  0.00     0.031 A 
ATOM     38  C   UNL A   1      42.826  29.915  29.050  1.00  0.00     0.074 A 
ATOM     39  C   UNL A   1      41.937  27.631  28.691  1.00  0.00     0.049 A 
ATOM     40  N   UNL A   1      44.037  29.798  28.568  1.00  0.00    -0.248 NA
ATOM     41  C   UNL A   1      42.518  31.258  29.571  1.00  0.00     0.031 C 
ATOM     42  C   UNL A   1      40.939  26.560  28.656  1.00  0.00     0.029 A 
ATOM     43  N   UNL A   1      43.076  27.039  28.207  1.00  0.00    -0.354 N 
ATOM     44  C   UNL A   1      44.615  31.057  28.692  1.00  0.00     0.074 A 
ATOM     45  C   UNL A   1      43.605  31.936  29.235  1.00  0.00     0.031 C 
ATOM     46  C   UNL A   1      41.514  25.438  28.193  1.00  0.00     0.029 A 
ATOM     47  C   UNL A   1      42.904  25.721  27.852  1.00  0.00     0.049 A 
ATOM     48  H   UNL A   1      43.935  27.512  28.121  1.00  0.00     0.167 HD
ATOM     49  C   UNL A   1      45.882  31.445  28.405  1.00  0.00     0.031 A 
ATOM     50  C   UNL A   1      43.764  24.844  27.299  1.00  0.00     0.031 A 
ATOM     51  C   UNL A   1      46.893  30.557  27.895  1.00  0.00     0.049 A 
ATOM     52  C   UNL A   1      45.170  25.289  26.999  1.00  0.00     0.074 A 
ATOM     53  C   UNL A   1      48.221  30.829  27.626  1.00  0.00     0.029 A 
ATOM     54  N   UNL A   1      46.687  29.220  27.588  1.00  0.00    -0.354 N 
ATOM     55  N   UNL A   1      45.712  26.474  27.163  1.00  0.00    -0.248 NA
ATOM     56  C   UNL A   1      46.083  24.278  26.454  1.00  0.00     0.031 C 
ATOM     57  C   UNL A   1      48.808  29.668  27.109  1.00  0.00     0.029 A 
ATOM     58  C   UNL A   1      47.860  28.657  27.116  1.00  0.00     0.049 A 
ATOM     59  H   UNL A   1      45.832  28.741  27.690  1.00  0.00     0.167 HD
ATOM     60  C   UNL A   1      47.037  26.342  26.763  1.00  0.00     0.074 A 
ATOM     61  C   UNL A   1      47.218  24.959  26.373  1.00  0.00     0.031 C 
ATOM     62  C   UNL A   1      48.017  27.279  26.724  1.00  0.00     0.031 A 
BRANCH  49  63
ATOM     63  C   UNL A   1      46.238  32.891  28.639  1.00  0.00    -0.014 A 
ATOM     64  C   UNL A   1      46.036  33.863  27.640  1.00  0.00     0.010 A 
ATOM     65  C   UNL A   1      46.758  33.293  29.883  1.00  0.00     0.010 A 
ATOM     66  C   UNL A   1      46.399  35.194  27.861  1.00  0.00     0.020 A 
ATOM     67  C   UNL A   1      47.091  34.631  30.119  1.00  0.00     0.020 A 
ATOM     68  C   UNL A   1      46.927  35.569  29.098  1.00  0.00     0.054 A 
BRANCH  68  69
ATOM     69  S   UNL A   1      47.371  37.308  29.361  1.00  0.00     0.124 S 
ATOM     70  O   UNL A   1      48.116  37.615  28.142  1.00  0.00    -0.237 OA
ATOM     71  O   UNL A   1      46.068  37.956  29.480  1.00  0.00    -0.237 OA
ATOM     72  O   UNL A   1      48.166  37.283  30.586  1.00  0.00    -0.744 OA
ENDBRANCH  68  69
ENDBRANCH  49  63
BRANCH  50  73
ATOM     73  C   UNL A   1      43.319  23.453  27.005  1.00  0.00    -0.014 A 
ATOM     74  C   UNL A   1      43.237  22.995  25.678  1.00  0.00     0.010 A 
ATOM     75  C   UNL A   1      43.000  22.570  28.054  1.00  0.00     0.010 A 
ATOM     76  C   UNL A   1      42.831  21.684  25.405  1.00  0.00     0.020 A 
ATOM     77  C   UNL A   1      42.624  21.251  27.786  1.00  0.00     0.020 A 
ATOM     78  C   UNL A   1      42.532  20.819  26.461  1.00  0.00     0.054 A 
BRANCH  78  79
ATOM     79  S   UNL A   1      42.071  19.105  26.083  1.00  0.00     0.124 S 
ATOM     80  O   UNL A   1      40.628  19.212  25.899  1.00  0.00    -0.237 OA
ATOM     81  O   UNL A   1      42.846  18.831  24.875  1.00  0.00    -0.237 OA
ATOM     82  O   UNL A   1      42.499  18.367  27.269  1.00  0.00    -0.744 OA
ENDBRANCH  78  79
ENDBRANCH  50  73
BRANCH  62  83
ATOM     83  C   UNL A   1      49.381  26.830  26.269  1.00  0.00    -0.014 A 
ATOM     84  C   UNL A   1      50.267  26.180  27.144  1.00  0.00     0.010 A 
ATOM     85  C   UNL A   1      49.764  27.032  24.930  1.00  0.00     0.010 A 
ATOM     86  C   UNL A   1      51.530  25.780  26.702  1.00  0.00     0.020 A 
ATOM     87  C   UNL A   1      51.014  26.605  24.475  1.00  0.00     0.020 A 
ATOM     88  C   UNL A   1      51.897  25.999  25.370  1.00  0.00     0.054 A 
BRANCH  88  89
ATOM     89  S   UNL A   1      53.534  25.451  24.815  1.00  0.00     0.124 S 
ATOM     90  O   UNL A   1      53.482  24.018  25.088  1.00  0.00    -0.237 OA
ATOM     91  O   UNL A   1      53.534  25.822  23.403  1.00  0.00    -0.237 OA
ATOM     92  O   UNL A   1      54.457  26.213  25.653  1.00  0.00    -0.744 OA
ENDBRANCH  88  89
ENDBRANCH  62  83
ENDBRANCH  36  37
ENDBRANCH  28  31
ENDBRANCH  26  27
ENDBRANCH   1  26
TORSDOF 16
ENDMDL
MODEL 3
REMARK VINA RESULT:     -11.3      2.710      9.519
REMARK SMILES C[C@H]1[C@H](C(=O)NCCCNC(=O)c2ccc(-c3c4nc(c(-c5ccc(S(=O)(=O)[O-])cc5)c5ccc([nH]5)c(-c5ccc(S(=O)(=O)[O-])cc5)c5nc(c(-c6ccc(S(=O)(=O)[O-])cc6)c6ccc3[nH]6)C=C5)C=C4)cc2)CC[N@@H+]1[C@@H](c1ccccc1)c1ccco1
REMARK SMILES IDX 8 1 7 2 6 3 4 4 5 5 3 7 1 8 2 9 75 10 73 11 74 12 76 14
REMARK SMILES IDX 77 15 78 16 82 17 79 18 81 19 80 20 83 21 84 22 87 23 85 24
REMARK SMILES IDX 86 25 9 26 10 27 11 28 12 30 13 31 14 32 72 33 15 34 71 35
REMARK SMILES IDX 16 36 17 37 18 38 65 39 19 40 70 41 64 42 66 43 20 44 69 45
REMARK SMILES IDX 63 46 62 47 21 49 51 50 32 51 50 52 33 53 36 54 49 55 67 56
REMARK SMILES IDX 34 57 35 58 48 60 68 61 37 62 22 63 23 64 31 65 24 66 30 67
REMARK SMILES IDX 25 68 26 69 27 70 28 71 29 72 52 73 53 74 61 75 54 76 60 77
REMARK SMILES IDX 55 78 56 79 57 80 58 81 59 82 38 83 39 84 47 85 40 86 46 87
REMARK SMILES IDX 41 88 42 89 43 90 44 91 45 92
REMARK H PARENT 6 6 75 13 10 29 66 48 36 59
REMARK Flexibility Score: inf
ROOT
ATOM      1  C   UNL A   1      36.343  23.359  23.507  1.00  0.00     0.042 C 
ENDROOT
BRANCH   1   2
ATOM      2  C   UNL A   1      34.929  22.793  23.522  1.00  0.00     0.117 C 
BRANCH   2   3
ATOM      3  N   UNL A   1      34.047  23.454  22.588  1.00  0.00    -0.356 N 
ATOM      4  C   UNL A   1      32.908  24.158  22.819  1.00  0.00     0.229 C 
ATOM      5  O   UNL A   1      32.405  24.722  21.839  1.00  0.00    -0.275 OA
ATOM      6  H   UNL A   1      34.311  23.383  21.643  1.00  0.00     0.163 HD
BRANCH   4   7
ATOM      7  C   UNL A   1      32.269  24.339  24.198  1.00  0.00     0.142 C 
ATOM      8  C   UNL A   1      33.720  24.869  26.173  1.00  0.00     0.076 C 
ATOM      9  C   UNL A   1      32.788  25.470  25.109  1.00  0.00     0.194 C 
ATOM     10  N   UNL A   1      31.601  26.044  25.785  1.00  0.00    -0.319 N 
ATOM     11  C   UNL A   1      30.759  24.512  24.185  1.00  0.00     0.081 C 
ATOM     12  C   UNL A   1      30.478  25.154  25.539  1.00  0.00     0.264 C 
ATOM     13  H   UNL A   1      31.766  26.061  26.792  1.00  0.00     0.349 HD
BRANCH  10  14
ATOM     14  C   UNL A   1      31.390  27.513  25.682  1.00  0.00     0.283 C 
BRANCH  14  15
ATOM     15  C   UNL A   1      32.355  28.489  26.375  1.00  0.00     0.017 A 
ATOM     16  C   UNL A   1      31.994  29.848  26.462  1.00  0.00     0.010 A 
ATOM     17  C   UNL A   1      33.647  28.147  26.813  1.00  0.00     0.010 A 
ATOM     18  C   UNL A   1      32.839  30.788  27.055  1.00  0.00     0.001 A 
ATOM     19  C   UNL A   1      34.479  29.077  27.442  1.00  0.00     0.001 A 
ATOM     20  C   UNL A   1      34.068  30.397  27.575  1.00  0.00     0.000 A 
ENDBRANCH  14  15
BRANCH  14  21
ATOM     21  C   UNL A   1      31.102  27.970  24.267  1.00  0.00     0.165 A 
ATOM     22  C   UNL A   1      29.938  28.304  23.599  1.00  0.00     0.052 A 
ATOM     23  O   UNL A   1      32.178  28.277  23.475  1.00  0.00    -0.463 OA
ATOM     24  C   UNL A   1      30.332  28.904  22.376  1.00  0.00     0.042 A 
ATOM     25  C   UNL A   1      31.704  28.873  22.356  1.00  0.00     0.195 A 
ENDBRANCH  14  21
ENDBRANCH  10  14
ENDBRANCH   4   7
ENDBRANCH   2   3
ENDBRANCH   1   2
BRANCH   1  26
ATOM     26  C   UNL A   1      36.885  23.692  24.892  1.00  0.00     0.118 C 
BRANCH  26  27
ATOM     27  N   UNL A   1      37.839  22.708  25.403  1.00  0.00    -0.352 N 
ATOM     28  C   UNL A   1      38.958  22.811  26.190  1.00  0.00     0.251 C 
ATOM     29  H   UNL A   1      37.637  21.785  25.125  1.00  0.00     0.163 HD
ATOM     30  O   UNL A   1      39.651  21.803  26.365  1.00  0.00    -0.269 OA
BRANCH  28  31
ATOM     31  C   UNL A   1      39.379  24.088  26.806  1.00  0.00     0.039 A 
ATOM     32  C   UNL A   1      38.977  24.377  28.117  1.00  0.00     0.014 A 
ATOM     33  C   UNL A   1      40.110  25.034  26.092  1.00  0.00     0.014 A 
ATOM     34  C   UNL A   1      39.354  25.582  28.719  1.00  0.00     0.010 A 
ATOM     35  C   UNL A   1      40.584  26.175  26.729  1.00  0.00     0.010 A 
ATOM     36  C   UNL A   1      40.188  26.480  28.039  1.00  0.00    -0.014 A 
BRANCH  36  37
ATOM     37  C   UNL A   1      40.615  27.777  28.629  1.00  0.00     0.031 A 
ATOM     38  C   UNL A   1      41.993  27.900  29.232  1.00  0.00     0.074 A 
ATOM     39  C   UNL A   1      39.748  28.806  28.710  1.00  0.00     0.049 A 
ATOM     40  N   UNL A   1      42.503  28.871  29.944  1.00  0.00    -0.248 NA
ATOM     41  C   UNL A   1      42.902  26.755  29.047  1.00  0.00     0.031 C 
ATOM     42  C   UNL A   1      38.375  28.803  28.199  1.00  0.00     0.029 A 
ATOM     43  N   UNL A   1      39.889  30.048  29.275  1.00  0.00    -0.354 N 
ATOM     44  C   UNL A   1      43.769  28.437  30.322  1.00  0.00     0.074 A 
ATOM     45  C   UNL A   1      43.926  27.093  29.815  1.00  0.00     0.031 C 
ATOM     46  C   UNL A   1      37.808  29.993  28.457  1.00  0.00     0.029 A 
ATOM     47  C   UNL A   1      38.755  30.822  29.194  1.00  0.00     0.049 A 
ATOM     48  H   UNL A   1      40.722  30.356  29.697  1.00  0.00     0.167 HD
ATOM     49  C   UNL A   1      44.729  29.104  31.008  1.00  0.00     0.031 A 
ATOM     50  C   UNL A   1      38.500  32.055  29.675  1.00  0.00     0.031 A 
ATOM     51  C   UNL A   1      44.579  30.455  31.482  1.00  0.00     0.049 A 
ATOM     52  C   UNL A   1      39.583  32.785  30.423  1.00  0.00     0.074 A 
ATOM     53  C   UNL A   1      45.507  31.246  32.135  1.00  0.00     0.029 A 
ATOM     54  N   UNL A   1      43.429  31.217  31.345  1.00  0.00    -0.354 N 
ATOM     55  N   UNL A   1      40.791  32.375  30.734  1.00  0.00    -0.248 NA
ATOM     56  C   UNL A   1      39.274  34.148  30.871  1.00  0.00     0.031 C 
ATOM     57  C   UNL A   1      44.900  32.471  32.436  1.00  0.00     0.029 A 
ATOM     58  C   UNL A   1      43.616  32.464  31.915  1.00  0.00     0.049 A 
ATOM     59  H   UNL A   1      42.600  30.915  30.907  1.00  0.00     0.167 HD
ATOM     60  C   UNL A   1      41.393  33.440  31.394  1.00  0.00     0.074 A 
ATOM     61  C   UNL A   1      40.425  34.517  31.416  1.00  0.00     0.031 C 
ATOM     62  C   UNL A   1      42.636  33.521  31.933  1.00  0.00     0.031 A 
BRANCH  49  63
ATOM     63  C   UNL A   1      46.023  28.379  31.281  1.00  0.00    -0.014 A 
ATOM     64  C   UNL A   1      47.102  28.449  30.379  1.00  0.00     0.010 A 
ATOM     65  C   UNL A   1      46.174  27.635  32.466  1.00  0.00     0.010 A 
ATOM     66  C   UNL A   1      48.283  27.746  30.630  1.00  0.00     0.020 A 
ATOM     67  C   UNL A   1      47.368  26.959  32.737  1.00  0.00     0.020 A 
ATOM     68  C   UNL A   1      48.407  27.004  31.806  1.00  0.00     0.054 A 
BRANCH  68  69
ATOM     69  S   UNL A   1      49.961  26.118  32.112  1.00  0.00     0.124 S 
ATOM     70  O   UNL A   1      49.798  25.696  33.502  1.00  0.00    -0.237 OA
ATOM     71  O   UNL A   1      49.919  25.047  31.122  1.00  0.00    -0.237 OA
ATOM     72  O   UNL A   1      50.989  27.132  31.887  1.00  0.00    -0.744 OA
ENDBRANCH  68  69
ENDBRANCH  49  63
BRANCH  50  73
ATOM     73  C   UNL A   1      37.166  32.678  29.451  1.00  0.00    -0.014 A 
ATOM     74  C   UNL A   1      36.172  32.614  30.443  1.00  0.00     0.010 A 
ATOM     75  C   UNL A   1      36.891  33.362  28.252  1.00  0.00     0.010 A 
ATOM     76  C   UNL A   1      34.924  33.211  30.236  1.00  0.00     0.020 A 
ATOM     77  C   UNL A   1      35.656  33.986  28.054  1.00  0.00     0.020 A 
ATOM     78  C   UNL A   1      34.676  33.898  29.045  1.00  0.00     0.054 A 
BRANCH  78  79
ATOM     79  S   UNL A   1      33.072  34.718  28.827  1.00  0.00     0.124 S 
ATOM     80  O   UNL A   1      32.534  34.700  30.183  1.00  0.00    -0.237 OA
ATOM     81  O   UNL A   1      33.458  36.031  28.315  1.00  0.00    -0.237 OA
ATOM     82  O   UNL A   1      32.379  33.863  27.866  1.00  0.00    -0.744 OA
ENDBRANCH  78  79
ENDBRANCH  50  73
BRANCH  62  83
ATOM     83  C   UNL A   1      43.028  34.830  32.566  1.00  0.00    -0.014 A 
ATOM     84  C   UNL A   1      43.658  35.842  31.822  1.00  0.00     0.010 A 
ATOM     85  C   UNL A   1      42.725  35.061  33.921  1.00  0.00     0.010 A 
ATOM     86  C   UNL A   1      44.020  37.045  32.432  1.00  0.00     0.020 A 
ATOM     87  C   UNL A   1      43.056  36.275  34.527  1.00  0.00     0.020 A 
ATOM     88  C   UNL A   1      43.720  37.253  33.783  1.00  0.00     0.054 A 
BRANCH  88  89
ATOM     89  S   UNL A   1      44.181  38.831  34.546  1.00  0.00     0.124 S 
ATOM     90  O   UNL A   1      44.107  38.513  35.970  1.00  0.00    -0.237 OA
ATOM     91  O   UNL A   1      45.525  39.060  34.023  1.00  0.00    -0.237 OA
ATOM     92  O   UNL A   1      43.164  39.761  34.062  1.00  0.00    -0.744 OA
ENDBRANCH  88  89
ENDBRANCH  62  83
ENDBRANCH  36  37
ENDBRANCH  28  31
ENDBRANCH  26  27
ENDBRANCH   1  26
TORSDOF 16
ENDMDL
