MODEL 1
REMARK VINA RESULT:     -12.4      0.000      0.000
REMARK SMILES O=C(NCCCNC(=O)c1cc2nn[nH]n2n1)c1ccc(-c2c3nc(c(-c4ccc(S(=O)(=O)[O-])cc4)c4ccc([nH]4)c(-c4ccc(S(=O)(=O)[O-])cc4)c4nc(c(-c5ccc(S(=O)(=O)[O-])cc5)c5ccc2[nH]5)C=C4)C=C3)cc1
REMARK SMILES IDX 1 1 2 2 3 3 18 5 19 6 77 7 20 8 76 9 21 10 22 11 23 12 70 13
REMARK SMILES IDX 24 14 75 15 69 16 71 17 25 18 74 19 68 20 67 21 26 23 56 24
REMARK SMILES IDX 37 25 55 26 38 27 41 28 54 29 72 30 39 31 40 32 53 34 73 35
REMARK SMILES IDX 42 36 27 37 28 38 36 39 29 40 35 41 30 42 31 43 32 44 33 45
REMARK SMILES IDX 34 46 57 47 58 48 66 49 59 50 65 51 60 52 61 53 62 54 63 55
REMARK SMILES IDX 64 56 43 57 44 58 52 59 45 60 51 61 46 62 47 63 48 64 49 65
REMARK SMILES IDX 50 66 4 67 5 68 6 69 7 70 8 71 9 73 10 74 11 75 17 76 12 77
REMARK SMILES IDX 16 78 13 79 15 80 14 81
REMARK H PARENT 3 4 71 22 41 33 7 72 15 82
REMARK Flexibility Score: inf
ROOT
ATOM      1  O   UNL A   1      40.739  21.319  26.437  1.00  0.00    -0.269 OA
ATOM      2  C   UNL A   1      39.795  22.113  26.345  1.00  0.00     0.251 C 
ATOM      3  N   UNL A   1      38.736  21.670  25.602  1.00  0.00    -0.352 N 
ATOM      4  H   UNL A   1      38.936  20.823  25.139  1.00  0.00     0.163 HD
ENDROOT
BRANCH   2   5
ATOM      5  C   UNL A   1      39.919  23.447  27.003  1.00  0.00     0.039 A 
ATOM      6  C   UNL A   1      39.013  24.504  26.906  1.00  0.00     0.014 A 
ATOM      7  C   UNL A   1      41.085  23.644  27.771  1.00  0.00     0.014 A 
ATOM      8  C   UNL A   1      39.286  25.730  27.523  1.00  0.00     0.010 A 
ATOM      9  C   UNL A   1      41.359  24.864  28.391  1.00  0.00     0.010 A 
ATOM     10  C   UNL A   1      40.468  25.922  28.249  1.00  0.00    -0.014 A 
BRANCH  10  11
ATOM     11  C   UNL A   1      40.679  27.208  28.924  1.00  0.00     0.031 A 
ATOM     12  C   UNL A   1      41.781  28.063  28.387  1.00  0.00     0.074 A 
ATOM     13  C   UNL A   1      39.868  27.733  29.866  1.00  0.00     0.049 A 
ATOM     14  N   UNL A   1      42.856  28.463  28.987  1.00  0.00    -0.248 NA
ATOM     15  C   UNL A   1      41.682  28.490  26.985  1.00  0.00     0.031 C 
ATOM     16  C   UNL A   1      38.552  27.258  30.299  1.00  0.00     0.029 A 
ATOM     17  N   UNL A   1      40.028  28.891  30.573  1.00  0.00    -0.354 N 
ATOM     18  C   UNL A   1      43.500  29.325  28.100  1.00  0.00     0.074 A 
ATOM     19  C   UNL A   1      42.787  29.225  26.849  1.00  0.00     0.031 C 
ATOM     20  C   UNL A   1      37.947  28.226  31.027  1.00  0.00     0.029 A 
ATOM     21  C   UNL A   1      38.885  29.317  31.236  1.00  0.00     0.049 A 
ATOM     22  H   UNL A   1      40.881  29.381  30.610  1.00  0.00     0.167 HD
ATOM     23  C   UNL A   1      44.486  30.186  28.481  1.00  0.00     0.031 A 
ATOM     24  C   UNL A   1      38.704  30.501  31.872  1.00  0.00     0.031 A 
ATOM     25  C   UNL A   1      45.014  29.877  29.781  1.00  0.00     0.049 A 
ATOM     26  C   UNL A   1      40.040  31.065  32.175  1.00  0.00     0.074 A 
ATOM     27  C   UNL A   1      45.660  28.794  30.341  1.00  0.00     0.029 A 
ATOM     28  N   UNL A   1      44.612  30.660  30.836  1.00  0.00    -0.354 N 
ATOM     29  N   UNL A   1      40.874  30.544  33.031  1.00  0.00    -0.248 NA
ATOM     30  C   UNL A   1      40.614  32.033  31.258  1.00  0.00     0.031 C 
ATOM     31  C   UNL A   1      45.188  28.738  31.686  1.00  0.00     0.029 A 
ATOM     32  C   UNL A   1      44.311  29.809  31.869  1.00  0.00     0.049 A 
ATOM     33  H   UNL A   1      44.550  31.643  30.848  1.00  0.00     0.167 HD
ATOM     34  C   UNL A   1      42.132  30.805  32.510  1.00  0.00     0.074 A 
ATOM     35  C   UNL A   1      41.912  31.819  31.486  1.00  0.00     0.031 C 
ATOM     36  C   UNL A   1      43.193  29.987  32.772  1.00  0.00     0.031 A 
BRANCH  23  37
ATOM     37  C   UNL A   1      44.772  31.504  27.804  1.00  0.00    -0.014 A 
ATOM     38  C   UNL A   1      46.043  31.732  27.235  1.00  0.00     0.010 A 
ATOM     39  C   UNL A   1      43.923  32.621  27.939  1.00  0.00     0.010 A 
ATOM     40  C   UNL A   1      46.460  33.021  26.870  1.00  0.00     0.020 A 
ATOM     41  C   UNL A   1      44.312  33.903  27.539  1.00  0.00     0.020 A 
ATOM     42  C   UNL A   1      45.593  34.100  27.039  1.00  0.00     0.054 A 
BRANCH  42  43
ATOM     43  S   UNL A   1      46.179  35.775  26.671  1.00  0.00     0.124 S 
ATOM     44  O   UNL A   1      46.818  35.591  25.373  1.00  0.00    -0.237 OA
ATOM     45  O   UNL A   1      44.938  36.544  26.663  1.00  0.00    -0.237 OA
ATOM     46  O   UNL A   1      47.082  36.071  27.781  1.00  0.00    -0.744 OA
ENDBRANCH  42  43
ENDBRANCH  23  37
BRANCH  24  47
ATOM     47  C   UNL A   1      37.465  31.308  31.985  1.00  0.00    -0.014 A 
ATOM     48  C   UNL A   1      37.038  31.815  33.226  1.00  0.00     0.010 A 
ATOM     49  C   UNL A   1      36.858  31.822  30.821  1.00  0.00     0.010 A 
ATOM     50  C   UNL A   1      36.083  32.844  33.297  1.00  0.00     0.020 A 
ATOM     51  C   UNL A   1      35.902  32.843  30.885  1.00  0.00     0.020 A 
ATOM     52  C   UNL A   1      35.537  33.366  32.122  1.00  0.00     0.054 A 
BRANCH  52  53
ATOM     53  S   UNL A   1      34.449  34.820  32.210  1.00  0.00     0.124 S 
ATOM     54  O   UNL A   1      33.271  34.286  32.886  1.00  0.00    -0.237 OA
ATOM     55  O   UNL A   1      35.246  35.767  32.986  1.00  0.00    -0.237 OA
ATOM     56  O   UNL A   1      34.250  35.186  30.809  1.00  0.00    -0.744 OA
ENDBRANCH  52  53
ENDBRANCH  24  47
BRANCH  36  57
ATOM     57  C   UNL A   1      43.079  28.985  33.899  1.00  0.00    -0.014 A 
ATOM     58  C   UNL A   1      43.378  29.290  35.241  1.00  0.00     0.010 A 
ATOM     59  C   UNL A   1      42.484  27.743  33.612  1.00  0.00     0.010 A 
ATOM     60  C   UNL A   1      43.100  28.372  36.264  1.00  0.00     0.020 A 
ATOM     61  C   UNL A   1      42.186  26.831  34.628  1.00  0.00     0.020 A 
ATOM     62  C   UNL A   1      42.498  27.150  35.951  1.00  0.00     0.054 A 
BRANCH  62  63
ATOM     63  S   UNL A   1      42.054  26.008  37.291  1.00  0.00     0.124 S 
ATOM     64  O   UNL A   1      43.052  26.315  38.312  1.00  0.00    -0.237 OA
ATOM     65  O   UNL A   1      40.683  26.401  37.610  1.00  0.00    -0.237 OA
ATOM     66  O   UNL A   1      42.181  24.686  36.678  1.00  0.00    -0.744 OA
ENDBRANCH  62  63
ENDBRANCH  36  57
ENDBRANCH  10  11
ENDBRANCH   2   5
BRANCH   3  67
ATOM     67  C   UNL A   1      37.393  22.139  25.329  1.00  0.00     0.118 C 
BRANCH  67  68
ATOM     68  C   UNL A   1      36.397  21.039  24.959  1.00  0.00     0.042 C 
BRANCH  68  69
ATOM     69  C   UNL A   1      35.069  21.072  25.719  1.00  0.00     0.118 C 
BRANCH  69  70
ATOM     70  N   UNL A   1      33.915  21.235  24.852  1.00  0.00    -0.351 N 
ATOM     71  C   UNL A   1      33.113  20.310  24.236  1.00  0.00     0.271 C 
ATOM     72  H   UNL A   1      33.666  22.171  24.676  1.00  0.00     0.163 HD
ATOM     73  O   UNL A   1      32.258  20.750  23.432  1.00  0.00    -0.267 OA
BRANCH  71  74
ATOM     74  C   UNL A   1      33.241  18.877  24.518  1.00  0.00     0.154 A 
ATOM     75  C   UNL A   1      34.213  17.948  23.987  1.00  0.00     0.089 A 
ATOM     76  N   UNL A   1      32.445  18.270  25.437  1.00  0.00    -0.143 NA
ATOM     77  C   UNL A   1      33.927  16.770  24.616  1.00  0.00     0.199 A 
ATOM     78  N   UNL A   1      32.896  17.033  25.419  1.00  0.00    -0.135 N 
ATOM     79  N   UNL A   1      34.281  15.473  24.759  1.00  0.00    -0.109 NA
ATOM     80  N   UNL A   1      32.647  15.926  26.090  1.00  0.00    -0.177 N 
ATOM     81  N   UNL A   1      33.485  14.936  25.608  1.00  0.00    -0.050 NA
ATOM     82  H   UNL A   1      31.982  15.822  26.808  1.00  0.00     0.216 HD
ENDBRANCH  71  74
ENDBRANCH  69  70
ENDBRANCH  68  69
ENDBRANCH  67  68
ENDBRANCH   3  67
TORSDOF 13
ENDMDL
MODEL 2
REMARK VINA RESULT:     -12.3      3.799      5.152
REMARK SMILES O=C(NCCCNC(=O)c1cc2nn[nH]n2n1)c1ccc(-c2c3nc(c(-c4ccc(S(=O)(=O)[O-])cc4)c4ccc([nH]4)c(-c4ccc(S(=O)(=O)[O-])cc4)c4nc(c(-c5ccc(S(=O)(=O)[O-])cc5)c5ccc2[nH]5)C=C4)C=C3)cc1
REMARK SMILES IDX 1 1 2 2 3 3 18 5 19 6 77 7 20 8 76 9 21 10 22 11 23 12 70 13
REMARK SMILES IDX 24 14 75 15 69 16 71 17 25 18 74 19 68 20 67 21 26 23 56 24
REMARK SMILES IDX 37 25 55 26 38 27 41 28 54 29 72 30 39 31 40 32 53 34 73 35
REMARK SMILES IDX 42 36 27 37 28 38 36 39 29 40 35 41 30 42 31 43 32 44 33 45
REMARK SMILES IDX 34 46 57 47 58 48 66 49 59 50 65 51 60 52 61 53 62 54 63 55
REMARK SMILES IDX 64 56 43 57 44 58 52 59 45 60 51 61 46 62 47 63 48 64 49 65
REMARK SMILES IDX 50 66 4 67 5 68 6 69 7 70 8 71 9 73 10 74 11 75 17 76 12 77
REMARK SMILES IDX 16 78 13 79 15 80 14 81
REMARK H PARENT 3 4 71 22 41 33 7 72 15 82
REMARK Flexibility Score: inf
ROOT
ATOM      1  O   UNL A   1      43.447  23.090  24.606  1.00  0.00    -0.269 OA
ATOM      2  C   UNL A   1      42.469  23.201  25.354  1.00  0.00     0.251 C 
ATOM      3  N   UNL A   1      41.609  22.138  25.344  1.00  0.00    -0.352 N 
ATOM      4  H   UNL A   1      41.831  21.487  24.639  1.00  0.00     0.163 HD
ENDROOT
BRANCH   2   5
ATOM      5  C   UNL A   1      42.312  24.460  26.140  1.00  0.00     0.039 A 
ATOM      6  C   UNL A   1      42.817  24.706  27.418  1.00  0.00     0.014 A 
ATOM      7  C   UNL A   1      41.555  25.476  25.522  1.00  0.00     0.014 A 
ATOM      8  C   UNL A   1      42.536  25.912  28.070  1.00  0.00     0.010 A 
ATOM      9  C   UNL A   1      41.278  26.682  26.167  1.00  0.00     0.010 A 
ATOM     10  C   UNL A   1      41.749  26.895  27.458  1.00  0.00    -0.014 A 
BRANCH  10  11
ATOM     11  C   UNL A   1      41.534  28.164  28.162  1.00  0.00     0.031 A 
ATOM     12  C   UNL A   1      42.601  29.198  28.000  1.00  0.00     0.074 A 
ATOM     13  C   UNL A   1      40.399  28.517  28.798  1.00  0.00     0.049 A 
ATOM     14  N   UNL A   1      43.358  29.725  28.908  1.00  0.00    -0.248 NA
ATOM     15  C   UNL A   1      42.881  29.672  26.637  1.00  0.00     0.031 C 
ATOM     16  C   UNL A   1      39.104  27.832  28.794  1.00  0.00     0.029 A 
ATOM     17  N   UNL A   1      40.146  29.651  29.517  1.00  0.00    -0.354 N 
ATOM     18  C   UNL A   1      44.105  30.714  28.268  1.00  0.00     0.074 A 
ATOM     19  C   UNL A   1      43.843  30.569  26.856  1.00  0.00     0.031 C 
ATOM     20  C   UNL A   1      38.158  28.663  29.291  1.00  0.00     0.029 A 
ATOM     21  C   UNL A   1      38.801  29.871  29.783  1.00  0.00     0.049 A 
ATOM     22  H   UNL A   1      40.857  30.261  29.821  1.00  0.00     0.167 HD
ATOM     23  C   UNL A   1      44.775  31.694  28.940  1.00  0.00     0.031 A 
ATOM     24  C   UNL A   1      38.248  30.983  30.327  1.00  0.00     0.031 A 
ATOM     25  C   UNL A   1      44.911  31.406  30.340  1.00  0.00     0.049 A 
ATOM     26  C   UNL A   1      39.317  31.724  31.036  1.00  0.00     0.074 A 
ATOM     27  C   UNL A   1      45.511  30.406  31.078  1.00  0.00     0.029 A 
ATOM     28  N   UNL A   1      44.082  32.069  31.211  1.00  0.00    -0.354 N 
ATOM     29  N   UNL A   1      39.912  31.294  32.113  1.00  0.00    -0.248 NA
ATOM     30  C   UNL A   1      39.990  32.810  30.345  1.00  0.00     0.031 C 
ATOM     31  C   UNL A   1      44.656  30.216  32.204  1.00  0.00     0.029 A 
ATOM     32  C   UNL A   1      43.610  31.135  32.099  1.00  0.00     0.049 A 
ATOM     33  H   UNL A   1      43.867  33.030  31.202  1.00  0.00     0.167 HD
ATOM     34  C   UNL A   1      41.212  31.764  32.016  1.00  0.00     0.074 A 
ATOM     35  C   UNL A   1      41.167  32.781  30.972  1.00  0.00     0.031 C 
ATOM     36  C   UNL A   1      42.252  31.102  32.601  1.00  0.00     0.031 A 
BRANCH  23  37
ATOM     37  C   UNL A   1      45.048  33.071  28.385  1.00  0.00    -0.014 A 
ATOM     38  C   UNL A   1      46.360  33.588  28.426  1.00  0.00     0.010 A 
ATOM     39  C   UNL A   1      44.014  33.974  28.065  1.00  0.00     0.010 A 
ATOM     40  C   UNL A   1      46.615  34.950  28.210  1.00  0.00     0.020 A 
ATOM     41  C   UNL A   1      44.262  35.325  27.806  1.00  0.00     0.020 A 
ATOM     42  C   UNL A   1      45.559  35.812  27.915  1.00  0.00     0.054 A 
BRANCH  42  43
ATOM     43  S   UNL A   1      45.881  37.587  27.749  1.00  0.00     0.124 S 
ATOM     44  O   UNL A   1      45.930  38.014  29.143  1.00  0.00    -0.237 OA
ATOM     45  O   UNL A   1      47.155  37.608  27.035  1.00  0.00    -0.237 OA
ATOM     46  O   UNL A   1      44.735  38.072  26.983  1.00  0.00    -0.744 OA
ENDBRANCH  42  43
ENDBRANCH  23  37
BRANCH  24  47
ATOM     47  C   UNL A   1      36.925  31.590  30.040  1.00  0.00    -0.014 A 
ATOM     48  C   UNL A   1      36.146  32.155  31.067  1.00  0.00     0.010 A 
ATOM     49  C   UNL A   1      36.560  31.872  28.708  1.00  0.00     0.010 A 
ATOM     50  C   UNL A   1      35.079  33.020  30.772  1.00  0.00     0.020 A 
ATOM     51  C   UNL A   1      35.494  32.728  28.407  1.00  0.00     0.020 A 
ATOM     52  C   UNL A   1      34.774  33.318  29.442  1.00  0.00     0.054 A 
BRANCH  52  53
ATOM     53  S   UNL A   1      33.520  34.581  29.073  1.00  0.00     0.124 S 
ATOM     54  O   UNL A   1      34.321  35.655  28.493  1.00  0.00    -0.237 OA
ATOM     55  O   UNL A   1      32.630  33.885  28.147  1.00  0.00    -0.237 OA
ATOM     56  O   UNL A   1      32.936  34.878  30.380  1.00  0.00    -0.744 OA
ENDBRANCH  52  53
ENDBRANCH  24  47
BRANCH  36  57
ATOM     57  C   UNL A   1      41.950  30.042  33.637  1.00  0.00    -0.014 A 
ATOM     58  C   UNL A   1      41.471  28.757  33.315  1.00  0.00     0.010 A 
ATOM     59  C   UNL A   1      42.328  30.301  34.967  1.00  0.00     0.010 A 
ATOM     60  C   UNL A   1      41.363  27.765  34.300  1.00  0.00     0.020 A 
ATOM     61  C   UNL A   1      42.242  29.311  35.950  1.00  0.00     0.020 A 
ATOM     62  C   UNL A   1      41.757  28.047  35.612  1.00  0.00     0.054 A 
BRANCH  62  63
ATOM     63  S   UNL A   1      41.705  26.729  36.858  1.00  0.00     0.124 S 
ATOM     64  O   UNL A   1      40.438  26.985  37.538  1.00  0.00    -0.237 OA
ATOM     65  O   UNL A   1      41.751  25.513  36.048  1.00  0.00    -0.237 OA
ATOM     66  O   UNL A   1      42.901  26.967  37.667  1.00  0.00    -0.744 OA
ENDBRANCH  62  63
ENDBRANCH  36  57
ENDBRANCH  10  11
ENDBRANCH   2   5
BRANCH   3  67
ATOM     67  C   UNL A   1      40.451  21.733  26.116  1.00  0.00     0.118 C 
BRANCH  67  68
ATOM     68  C   UNL A   1      40.765  21.273  27.540  1.00  0.00     0.042 C 
BRANCH  68  69
ATOM     69  C   UNL A   1      42.016  20.403  27.689  1.00  0.00     0.118 C 
BRANCH  69  70
ATOM     70  N   UNL A   1      41.869  19.081  27.105  1.00  0.00    -0.351 N 
ATOM     71  C   UNL A   1      42.615  18.427  26.160  1.00  0.00     0.271 C 
ATOM     72  H   UNL A   1      41.102  18.568  27.448  1.00  0.00     0.163 HD
ATOM     73  O   UNL A   1      42.169  17.329  25.751  1.00  0.00    -0.267 OA
BRANCH  71  74
ATOM     74  C   UNL A   1      43.879  18.978  25.665  1.00  0.00     0.154 A 
ATOM     75  C   UNL A   1      45.205  18.414  25.785  1.00  0.00     0.089 A 
ATOM     76  N   UNL A   1      43.903  20.115  24.919  1.00  0.00    -0.143 NA
ATOM     77  C   UNL A   1      46.003  19.289  25.103  1.00  0.00     0.199 A 
ATOM     78  N   UNL A   1      45.186  20.239  24.650  1.00  0.00    -0.135 N 
ATOM     79  N   UNL A   1      47.264  19.555  24.698  1.00  0.00    -0.109 NA
ATOM     80  N   UNL A   1      45.924  21.058  23.927  1.00  0.00    -0.177 N 
ATOM     81  N   UNL A   1      47.242  20.649  24.029  1.00  0.00    -0.050 NA
ATOM     82  H   UNL A   1      45.596  21.827  23.406  1.00  0.00     0.216 HD
ENDBRANCH  71  74
ENDBRANCH  69  70
ENDBRANCH  68  69
ENDBRANCH  67  68
ENDBRANCH   3  67
TORSDOF 13
ENDMDL
MODEL 3
REMARK VINA RESULT:     -12.3      5.202     10.905
REMARK SMILES O=C(NCCCNC(=O)c1cc2nn[nH]n2n1)c1ccc(-c2c3nc(c(-c4ccc(S(=O)(=O)[O-])cc4)c4ccc([nH]4)c(-c4ccc(S(=O)(=O)[O-])cc4)c4nc(c(-c5ccc(S(=O)(=O)[O-])cc5)c5ccc2[nH]5)C=C4)C=C3)cc1
REMARK SMILES IDX 1 1 2 2 3 3 18 5 19 6 77 7 20 8 76 9 21 10 22 11 23 12 70 13
REMARK SMILES IDX 24 14 75 15 69 16 71 17 25 18 74 19 68 20 67 21 26 23 56 24
REMARK SMILES IDX 37 25 55 26 38 27 41 28 54 29 72 30 39 31 40 32 53 34 73 35
REMARK SMILES IDX 42 36 27 37 28 38 36 39 29 40 35 41 30 42 31 43 32 44 33 45
REMARK SMILES IDX 34 46 57 47 58 48 66 49 59 50 65 51 60 52 61 53 62 54 63 55
REMARK SMILES IDX 64 56 43 57 44 58 52 59 45 60 51 61 46 62 47 63 48 64 49 65
REMARK SMILES IDX 50 66 4 67 5 68 6 69 7 70 8 71 9 73 10 74 11 75 17 76 12 77
REMARK SMILES IDX 16 78 13 79 15 80 14 81
REMARK H PARENT 3 4 71 22 41 33 7 72 15 82
REMARK Flexibility Score: inf
ROOT
ATOM      1  O   UNL A   1      34.492  32.905  28.254  1.00  0.00    -0.269 OA
ATOM      2  C   UNL A   1      34.600  31.695  28.023  1.00  0.00     0.251 C 
ATOM      3  N   UNL A   1      33.437  31.067  27.673  1.00  0.00    -0.352 N 
ATOM      4  H   UNL A   1      32.652  31.653  27.781  1.00  0.00     0.163 HD
ENDROOT
BRANCH   2   5
ATOM      5  C   UNL A   1      35.939  31.055  28.182  1.00  0.00     0.039 A 
ATOM      6  C   UNL A   1      36.291  29.764  27.785  1.00  0.00     0.014 A 
ATOM      7  C   UNL A   1      36.921  31.841  28.819  1.00  0.00     0.014 A 
ATOM      8  C   UNL A   1      37.569  29.263  28.055  1.00  0.00     0.010 A 
ATOM      9  C   UNL A   1      38.198  31.347  29.086  1.00  0.00     0.010 A 
ATOM     10  C   UNL A   1      38.520  30.043  28.725  1.00  0.00    -0.014 A 
BRANCH  10  11
ATOM     11  C   UNL A   1      39.864  29.491  28.932  1.00  0.00     0.031 A 
ATOM     12  C   UNL A   1      40.249  29.205  30.348  1.00  0.00     0.074 A 
ATOM     13  C   UNL A   1      40.696  29.083  27.952  1.00  0.00     0.049 A 
ATOM     14  N   UNL A   1      41.208  29.725  31.043  1.00  0.00    -0.248 NA
ATOM     15  C   UNL A   1      39.427  28.238  31.089  1.00  0.00     0.031 C 
ATOM     16  C   UNL A   1      40.412  28.933  26.523  1.00  0.00     0.029 A 
ATOM     17  N   UNL A   1      41.974  28.613  28.065  1.00  0.00    -0.354 N 
ATOM     18  C   UNL A   1      41.221  29.046  32.261  1.00  0.00     0.074 A 
ATOM     19  C   UNL A   1      40.042  28.213  32.272  1.00  0.00     0.031 C 
ATOM     20  C   UNL A   1      41.402  28.214  25.945  1.00  0.00     0.029 A 
ATOM     21  C   UNL A   1      42.454  27.985  26.923  1.00  0.00     0.049 A 
ATOM     22  H   UNL A   1      42.509  28.711  28.885  1.00  0.00     0.167 HD
ATOM     23  C   UNL A   1      42.275  29.086  33.126  1.00  0.00     0.031 A 
ATOM     24  C   UNL A   1      43.610  27.288  26.801  1.00  0.00     0.031 A 
ATOM     25  C   UNL A   1      43.197  30.144  32.821  1.00  0.00     0.049 A 
ATOM     26  C   UNL A   1      44.509  27.697  27.904  1.00  0.00     0.074 A 
ATOM     27  C   UNL A   1      43.118  31.520  32.757  1.00  0.00     0.029 A 
ATOM     28  N   UNL A   1      44.370  29.806  32.192  1.00  0.00    -0.354 N 
ATOM     29  N   UNL A   1      45.042  28.882  28.009  1.00  0.00    -0.248 NA
ATOM     30  C   UNL A   1      44.546  26.888  29.110  1.00  0.00     0.031 C 
ATOM     31  C   UNL A   1      43.983  31.890  31.685  1.00  0.00     0.029 A 
ATOM     32  C   UNL A   1      44.559  30.720  31.186  1.00  0.00     0.049 A 
ATOM     33  H   UNL A   1      44.963  29.054  32.420  1.00  0.00     0.167 HD
ATOM     34  C   UNL A   1      45.116  29.122  29.372  1.00  0.00     0.074 A 
ATOM     35  C   UNL A   1      44.906  27.820  29.996  1.00  0.00     0.031 C 
ATOM     36  C   UNL A   1      45.075  30.391  29.874  1.00  0.00     0.031 A 
BRANCH  23  37
ATOM     37  C   UNL A   1      42.636  27.972  34.077  1.00  0.00    -0.014 A 
ATOM     38  C   UNL A   1      42.713  28.237  35.461  1.00  0.00     0.010 A 
ATOM     39  C   UNL A   1      43.158  26.740  33.633  1.00  0.00     0.010 A 
ATOM     40  C   UNL A   1      43.328  27.338  36.344  1.00  0.00     0.020 A 
ATOM     41  C   UNL A   1      43.735  25.817  34.511  1.00  0.00     0.020 A 
ATOM     42  C   UNL A   1      43.848  26.139  35.858  1.00  0.00     0.054 A 
BRANCH  42  43
ATOM     43  S   UNL A   1      44.740  25.036  36.984  1.00  0.00     0.124 S 
ATOM     44  O   UNL A   1      44.498  23.730  36.380  1.00  0.00    -0.237 OA
ATOM     45  O   UNL A   1      46.110  25.534  36.888  1.00  0.00    -0.237 OA
ATOM     46  O   UNL A   1      44.089  25.263  38.273  1.00  0.00    -0.744 OA
ENDBRANCH  42  43
ENDBRANCH  23  37
BRANCH  24  47
ATOM     47  C   UNL A   1      43.883  26.094  25.964  1.00  0.00    -0.014 A 
ATOM     48  C   UNL A   1      45.186  25.795  25.526  1.00  0.00     0.010 A 
ATOM     49  C   UNL A   1      42.902  25.090  25.839  1.00  0.00     0.010 A 
ATOM     50  C   UNL A   1      45.511  24.517  25.040  1.00  0.00     0.020 A 
ATOM     51  C   UNL A   1      43.216  23.816  25.349  1.00  0.00     0.020 A 
ATOM     52  C   UNL A   1      44.526  23.529  24.975  1.00  0.00     0.054 A 
BRANCH  52  53
ATOM     53  S   UNL A   1      44.991  21.830  24.525  1.00  0.00     0.124 S 
ATOM     54  O   UNL A   1      44.547  21.742  23.138  1.00  0.00    -0.237 OA
ATOM     55  O   UNL A   1      46.438  21.833  24.727  1.00  0.00    -0.237 OA
ATOM     56  O   UNL A   1      44.241  21.005  25.471  1.00  0.00    -0.744 OA
ENDBRANCH  52  53
ENDBRANCH  24  47
BRANCH  36  57
ATOM     57  C   UNL A   1      45.288  31.554  28.930  1.00  0.00    -0.014 A 
ATOM     58  C   UNL A   1      46.551  32.115  28.662  1.00  0.00     0.010 A 
ATOM     59  C   UNL A   1      44.191  31.978  28.158  1.00  0.00     0.010 A 
ATOM     60  C   UNL A   1      46.709  33.081  27.659  1.00  0.00     0.020 A 
ATOM     61  C   UNL A   1      44.344  32.926  27.143  1.00  0.00     0.020 A 
ATOM     62  C   UNL A   1      45.604  33.476  26.900  1.00  0.00     0.054 A 
BRANCH  62  63
ATOM     63  S   UNL A   1      45.835  34.656  25.540  1.00  0.00     0.124 S 
ATOM     64  O   UNL A   1      44.869  34.190  24.548  1.00  0.00    -0.237 OA
ATOM     65  O   UNL A   1      45.526  35.939  26.167  1.00  0.00    -0.237 OA
ATOM     66  O   UNL A   1      47.238  34.484  25.165  1.00  0.00    -0.744 OA
ENDBRANCH  62  63
ENDBRANCH  36  57
ENDBRANCH  10  11
ENDBRANCH   2   5
BRANCH   3  67
ATOM     67  C   UNL A   1      33.075  29.753  27.183  1.00  0.00     0.118 C 
BRANCH  67  68
ATOM     68  C   UNL A   1      31.810  29.718  26.326  1.00  0.00     0.042 C 
BRANCH  68  69
ATOM     69  C   UNL A   1      32.041  29.644  24.815  1.00  0.00     0.118 C 
BRANCH  69  70
ATOM     70  N   UNL A   1      31.368  28.522  24.185  1.00  0.00    -0.351 N 
ATOM     71  C   UNL A   1      30.246  28.471  23.399  1.00  0.00     0.271 C 
ATOM     72  H   UNL A   1      31.789  27.648  24.351  1.00  0.00     0.163 HD
ATOM     73  O   UNL A   1      29.818  27.331  23.100  1.00  0.00    -0.267 OA
BRANCH  71  74
ATOM     74  C   UNL A   1      29.589  29.690  22.921  1.00  0.00     0.154 A 
ATOM     75  C   UNL A   1      29.052  30.779  23.705  1.00  0.00     0.089 A 
ATOM     76  N   UNL A   1      29.496  29.961  21.592  1.00  0.00    -0.143 NA
ATOM     77  C   UNL A   1      28.616  31.679  22.774  1.00  0.00     0.199 A 
ATOM     78  N   UNL A   1      28.894  31.132  21.591  1.00  0.00    -0.135 N 
ATOM     79  N   UNL A   1      28.045  32.889  22.582  1.00  0.00    -0.109 NA
ATOM     80  N   UNL A   1      28.547  32.015  20.675  1.00  0.00    -0.177 N 
ATOM     81  N   UNL A   1      27.949  33.085  21.318  1.00  0.00    -0.050 NA
ATOM     82  H   UNL A   1      28.688  31.929  19.705  1.00  0.00     0.216 HD
ENDBRANCH  71  74
ENDBRANCH  69  70
ENDBRANCH  68  69
ENDBRANCH  67  68
ENDBRANCH   3  67
TORSDOF 13
ENDMDL
