MODEL 1
REMARK VINA RESULT:     -13.1      0.000      0.000
REMARK SMILES COc1ccc(-c2c(C(=O)NCCCNC(=O)c3ccc(-c4c5nc(c(-c6ccc(S(=O)(=O)[O-])cc6)c6ccc([nH]6)c(-c6ccc(S(=O)(=O)[O-])cc6)c6nc(c(-c7ccc(S(=O)(=O)[O-])cc7)c7ccc4[nH]7)C=C6)C=C5)cc3)sc3c2N=C(O)C[C@H]3c2ccc(OC)c(OC)c2)cc1
REMARK SMILES IDX 13 1 12 2 11 3 9 4 10 5 8 7 7 8 80 9 78 10 79 11 81 12 85 13
REMARK SMILES IDX 82 14 84 15 6 16 3 17 4 18 97 19 5 20 96 21 2 22 1 23 86 24
REMARK SMILES IDX 87 25 95 26 88 27 92 28 89 29 93 30 94 31 90 32 91 33 83 34
REMARK SMILES IDX 14 36 15 37 16 38 17 40 18 41 19 42 77 43 20 44 76 45 21 46
REMARK SMILES IDX 22 47 23 48 70 49 24 50 75 51 69 52 71 53 25 54 74 55 68 56
REMARK SMILES IDX 67 57 26 59 56 60 37 61 55 62 38 63 41 64 54 65 72 66 39 67
REMARK SMILES IDX 40 68 53 70 73 71 42 72 27 73 28 74 36 75 29 76 35 77 30 78
REMARK SMILES IDX 31 79 32 80 33 81 34 82 57 83 58 84 66 85 59 86 65 87 60 88
REMARK SMILES IDX 61 89 62 90 63 91 64 92 43 93 44 94 52 95 45 96 51 97 46 98
REMARK SMILES IDX 47 99 48 100 49 101 50 102
REMARK H PARENT 11 6 83 35 15 39 71 58 41 69
REMARK Flexibility Score: inf
ROOT
ATOM      1  C   UNL A   1      38.140  21.396  25.175  1.00  0.00     0.042 C 
ENDROOT
BRANCH   1   2
ATOM      2  C   UNL A   1      36.940  22.306  25.260  1.00  0.00     0.118 C 
BRANCH   2   3
ATOM      3  N   UNL A   1      36.230  22.531  26.481  1.00  0.00    -0.351 N 
ATOM      4  C   UNL A   1      34.957  23.081  26.558  1.00  0.00     0.262 C 
ATOM      5  O   UNL A   1      34.412  22.999  27.664  1.00  0.00    -0.268 OA
ATOM      6  H   UNL A   1      36.673  22.279  27.322  1.00  0.00     0.163 HD
BRANCH   4   7
ATOM      7  C   UNL A   1      34.348  23.806  25.425  1.00  0.00     0.102 A 
ATOM      8  C   UNL A   1      33.474  23.510  24.363  1.00  0.00     0.031 A 
ATOM      9  C   UNL A   1      33.384  24.611  23.456  1.00  0.00     0.090 A 
ATOM     10  S   UNL A   1      34.848  25.477  25.335  1.00  0.00    -0.131 S 
ATOM     11  C   UNL A   1      34.034  25.731  23.875  1.00  0.00     0.040 A 
ATOM     12  N   UNL A   1      32.674  24.536  22.250  1.00  0.00    -0.216 NA
ATOM     13  C   UNL A   1      34.010  27.037  23.164  1.00  0.00     0.071 C 
ATOM     14  C   UNL A   1      32.771  25.568  21.485  1.00  0.00     0.186 C 
ATOM     15  C   UNL A   1      33.531  26.849  21.717  1.00  0.00     0.111 C 
BRANCH   8  16
ATOM     16  C   UNL A   1      32.856  22.208  24.080  1.00  0.00    -0.014 A 
ATOM     17  C   UNL A   1      32.130  19.606  23.317  1.00  0.00     0.118 A 
ATOM     18  C   UNL A   1      32.340  19.924  24.666  1.00  0.00     0.047 A 
ATOM     19  C   UNL A   1      32.167  20.614  22.361  1.00  0.00     0.047 A 
ATOM     20  C   UNL A   1      32.710  21.221  25.055  1.00  0.00     0.012 A 
ATOM     21  C   UNL A   1      32.504  21.912  22.746  1.00  0.00     0.012 A 
BRANCH  17  22
ATOM     22  O   UNL A   1      31.928  18.282  23.043  1.00  0.00    -0.497 OA
ATOM     23  C   UNL A   1      33.098  17.474  22.903  1.00  0.00     0.278 C 
ENDBRANCH  17  22
ENDBRANCH   8  16
BRANCH  13  24
ATOM     24  C   UNL A   1      33.155  28.060  23.899  1.00  0.00    -0.035 A 
ATOM     25  C   UNL A   1      33.649  28.787  24.986  1.00  0.00     0.008 A 
ATOM     26  C   UNL A   1      31.839  28.295  23.470  1.00  0.00     0.054 A 
ATOM     27  C   UNL A   1      32.836  29.718  25.626  1.00  0.00     0.051 A 
ATOM     28  C   UNL A   1      31.005  29.221  24.115  1.00  0.00     0.161 A 
ATOM     29  C   UNL A   1      31.517  29.944  25.208  1.00  0.00     0.160 A 
BRANCH  28  30
ATOM     30  O   UNL A   1      29.705  29.433  23.737  1.00  0.00    -0.493 OA
ATOM     31  C   UNL A   1      29.113  28.516  22.824  1.00  0.00     0.278 C 
ENDBRANCH  28  30
BRANCH  29  32
ATOM     32  O   UNL A   1      30.888  30.878  25.988  1.00  0.00    -0.493 OA
ATOM     33  C   UNL A   1      31.676  31.684  26.849  1.00  0.00     0.278 C 
ENDBRANCH  29  32
ENDBRANCH  13  24
BRANCH  14  34
ATOM     34  O   UNL A   1      32.167  25.509  20.278  1.00  0.00    -0.496 OA
ATOM     35  H   UNL A   1      32.062  24.684  19.847  1.00  0.00     0.294 HD
ENDBRANCH  14  34
ENDBRANCH   4   7
ENDBRANCH   2   3
ENDBRANCH   1   2
BRANCH   1  36
ATOM     36  C   UNL A   1      39.164  21.666  26.248  1.00  0.00     0.118 C 
BRANCH  36  37
ATOM     37  N   UNL A   1      40.564  21.810  25.811  1.00  0.00    -0.352 N 
ATOM     38  C   UNL A   1      41.399  22.898  26.067  1.00  0.00     0.251 C 
ATOM     39  H   UNL A   1      40.947  21.068  25.289  1.00  0.00     0.163 HD
ATOM     40  O   UNL A   1      42.460  23.070  25.481  1.00  0.00    -0.269 OA
BRANCH  38  41
ATOM     41  C   UNL A   1      40.935  23.840  27.101  1.00  0.00     0.039 A 
ATOM     42  C   UNL A   1      41.626  24.033  28.296  1.00  0.00     0.014 A 
ATOM     43  C   UNL A   1      39.992  24.752  26.654  1.00  0.00     0.014 A 
ATOM     44  C   UNL A   1      41.476  25.259  28.946  1.00  0.00     0.010 A 
ATOM     45  C   UNL A   1      40.096  26.032  27.122  1.00  0.00     0.010 A 
ATOM     46  C   UNL A   1      40.769  26.293  28.306  1.00  0.00    -0.014 A 
BRANCH  46  47
ATOM     47  C   UNL A   1      40.811  27.680  28.772  1.00  0.00     0.031 A 
ATOM     48  C   UNL A   1      41.905  28.501  28.191  1.00  0.00     0.074 A 
ATOM     49  C   UNL A   1      39.863  28.244  29.557  1.00  0.00     0.049 A 
ATOM     50  N   UNL A   1      43.085  28.655  28.691  1.00  0.00    -0.248 NA
ATOM     51  C   UNL A   1      41.763  29.062  26.838  1.00  0.00     0.031 C 
ATOM     52  C   UNL A   1      38.575  27.682  30.000  1.00  0.00     0.029 A 
ATOM     53  N   UNL A   1      39.822  29.500  30.085  1.00  0.00    -0.354 N 
ATOM     54  C   UNL A   1      43.723  29.578  27.875  1.00  0.00     0.074 A 
ATOM     55  C   UNL A   1      42.972  29.602  26.646  1.00  0.00     0.031 C 
ATOM     56  C   UNL A   1      37.791  28.654  30.514  1.00  0.00     0.029 A 
ATOM     57  C   UNL A   1      38.604  29.841  30.663  1.00  0.00     0.049 A 
ATOM     58  H   UNL A   1      40.592  30.113  30.060  1.00  0.00     0.167 HD
ATOM     59  C   UNL A   1      44.605  30.472  28.406  1.00  0.00     0.031 A 
ATOM     60  C   UNL A   1      38.297  30.978  31.330  1.00  0.00     0.031 A 
ATOM     61  C   UNL A   1      44.836  30.188  29.803  1.00  0.00     0.049 A 
ATOM     62  C   UNL A   1      39.570  31.504  31.864  1.00  0.00     0.074 A 
ATOM     63  C   UNL A   1      45.504  29.236  30.539  1.00  0.00     0.029 A 
ATOM     64  N   UNL A   1      43.922  30.788  30.635  1.00  0.00    -0.354 N 
ATOM     65  N   UNL A   1      40.277  30.869  32.758  1.00  0.00    -0.248 NA
ATOM     66  C   UNL A   1      40.275  32.548  31.134  1.00  0.00     0.031 C 
ATOM     67  C   UNL A   1      44.796  29.132  31.774  1.00  0.00     0.029 A 
ATOM     68  C   UNL A   1      43.756  30.062  31.784  1.00  0.00     0.049 A 
ATOM     69  H   UNL A   1      43.450  31.627  30.432  1.00  0.00     0.167 HD
ATOM     70  C   UNL A   1      41.587  31.120  32.401  1.00  0.00     0.074 A 
ATOM     71  C   UNL A   1      41.526  32.280  31.519  1.00  0.00     0.031 C 
ATOM     72  C   UNL A   1      42.566  30.190  32.604  1.00  0.00     0.031 A 
BRANCH  59  73
ATOM     73  C   UNL A   1      44.861  31.866  27.877  1.00  0.00    -0.014 A 
ATOM     74  C   UNL A   1      46.034  32.091  27.124  1.00  0.00     0.010 A 
ATOM     75  C   UNL A   1      44.159  33.003  28.322  1.00  0.00     0.010 A 
ATOM     76  C   UNL A   1      46.505  33.386  26.873  1.00  0.00     0.020 A 
ATOM     77  C   UNL A   1      44.602  34.300  28.047  1.00  0.00     0.020 A 
ATOM     78  C   UNL A   1      45.787  34.484  27.345  1.00  0.00     0.054 A 
BRANCH  78  79
ATOM     79  S   UNL A   1      46.437  36.151  27.071  1.00  0.00     0.124 S 
ATOM     80  O   UNL A   1      47.296  35.955  25.908  1.00  0.00    -0.237 OA
ATOM     81  O   UNL A   1      45.218  36.921  26.838  1.00  0.00    -0.237 OA
ATOM     82  O   UNL A   1      47.131  36.456  28.321  1.00  0.00    -0.744 OA
ENDBRANCH  78  79
ENDBRANCH  59  73
BRANCH  60  83
ATOM     83  C   UNL A   1      37.035  31.748  31.324  1.00  0.00    -0.014 A 
ATOM     84  C   UNL A   1      36.168  31.721  32.430  1.00  0.00     0.010 A 
ATOM     85  C   UNL A   1      36.846  32.760  30.360  1.00  0.00     0.010 A 
ATOM     86  C   UNL A   1      35.202  32.723  32.616  1.00  0.00     0.020 A 
ATOM     87  C   UNL A   1      35.883  33.763  30.538  1.00  0.00     0.020 A 
ATOM     88  C   UNL A   1      35.085  33.755  31.681  1.00  0.00     0.054 A 
BRANCH  88  89
ATOM     89  S   UNL A   1      33.980  35.155  32.036  1.00  0.00     0.124 S 
ATOM     90  O   UNL A   1      32.890  34.514  32.764  1.00  0.00    -0.237 OA
ATOM     91  O   UNL A   1      34.832  36.041  32.826  1.00  0.00    -0.237 OA
ATOM     92  O   UNL A   1      33.628  35.661  30.711  1.00  0.00    -0.744 OA
ENDBRANCH  88  89
ENDBRANCH  60  83
BRANCH  72  93
ATOM     93  C   UNL A   1      42.342  29.153  33.674  1.00  0.00    -0.014 A 
ATOM     94  C   UNL A   1      41.808  27.869  33.456  1.00  0.00     0.010 A 
ATOM     95  C   UNL A   1      42.784  29.488  34.966  1.00  0.00     0.010 A 
ATOM     96  C   UNL A   1      41.705  26.953  34.516  1.00  0.00     0.020 A 
ATOM     97  C   UNL A   1      42.702  28.578  36.018  1.00  0.00     0.020 A 
ATOM     98  C   UNL A   1      42.153  27.317  35.793  1.00  0.00     0.054 A 
BRANCH  98  99
ATOM     99  S   UNL A   1      42.045  26.127  37.158  1.00  0.00     0.124 S 
ATOM    100  O   UNL A   1      42.367  24.862  36.503  1.00  0.00    -0.237 OA
ATOM    101  O   UNL A   1      43.046  26.622  38.100  1.00  0.00    -0.237 OA
ATOM    102  O   UNL A   1      40.662  26.249  37.618  1.00  0.00    -0.744 OA
ENDBRANCH  98  99
ENDBRANCH  72  93
ENDBRANCH  46  47
ENDBRANCH  38  41
ENDBRANCH  36  37
ENDBRANCH   1  36
TORSDOF 19
ENDMDL
MODEL 2
REMARK VINA RESULT:     -12.0      1.797      2.407
REMARK SMILES COc1ccc(-c2c(C(=O)NCCCNC(=O)c3ccc(-c4c5nc(c(-c6ccc(S(=O)(=O)[O-])cc6)c6ccc([nH]6)c(-c6ccc(S(=O)(=O)[O-])cc6)c6nc(c(-c7ccc(S(=O)(=O)[O-])cc7)c7ccc4[nH]7)C=C6)C=C5)cc3)sc3c2N=C(O)C[C@H]3c2ccc(OC)c(OC)c2)cc1
REMARK SMILES IDX 13 1 12 2 11 3 9 4 10 5 8 7 7 8 80 9 78 10 79 11 81 12 85 13
REMARK SMILES IDX 82 14 84 15 6 16 3 17 4 18 97 19 5 20 96 21 2 22 1 23 86 24
REMARK SMILES IDX 87 25 95 26 88 27 92 28 89 29 93 30 94 31 90 32 91 33 83 34
REMARK SMILES IDX 14 36 15 37 16 38 17 40 18 41 19 42 77 43 20 44 76 45 21 46
REMARK SMILES IDX 22 47 23 48 70 49 24 50 75 51 69 52 71 53 25 54 74 55 68 56
REMARK SMILES IDX 67 57 26 59 56 60 37 61 55 62 38 63 41 64 54 65 72 66 39 67
REMARK SMILES IDX 40 68 53 70 73 71 42 72 27 73 28 74 36 75 29 76 35 77 30 78
REMARK SMILES IDX 31 79 32 80 33 81 34 82 57 83 58 84 66 85 59 86 65 87 60 88
REMARK SMILES IDX 61 89 62 90 63 91 64 92 43 93 44 94 52 95 45 96 51 97 46 98
REMARK SMILES IDX 47 99 48 100 49 101 50 102
REMARK H PARENT 11 6 83 35 15 39 71 58 41 69
REMARK Flexibility Score: inf
ROOT
ATOM      1  C   UNL A   1      39.123  24.310  26.659  1.00  0.00     0.042 C 
ENDROOT
BRANCH   1   2
ATOM      2  C   UNL A   1      37.967  23.392  26.350  1.00  0.00     0.118 C 
BRANCH   2   3
ATOM      3  N   UNL A   1      38.151  22.036  25.933  1.00  0.00    -0.351 N 
ATOM      4  C   UNL A   1      37.337  21.379  25.020  1.00  0.00     0.262 C 
ATOM      5  O   UNL A   1      37.768  20.294  24.612  1.00  0.00    -0.268 OA
ATOM      6  H   UNL A   1      38.905  21.536  26.319  1.00  0.00     0.163 HD
BRANCH   4   7
ATOM      7  C   UNL A   1      36.003  21.892  24.649  1.00  0.00     0.102 A 
ATOM      8  C   UNL A   1      34.689  21.392  24.585  1.00  0.00     0.031 A 
ATOM      9  C   UNL A   1      33.815  22.338  23.964  1.00  0.00     0.090 A 
ATOM     10  S   UNL A   1      36.033  23.554  24.115  1.00  0.00    -0.131 S 
ATOM     11  C   UNL A   1      34.394  23.542  23.702  1.00  0.00     0.040 A 
ATOM     12  N   UNL A   1      32.477  22.044  23.669  1.00  0.00    -0.216 NA
ATOM     13  C   UNL A   1      33.676  24.722  23.153  1.00  0.00     0.071 C 
ATOM     14  C   UNL A   1      31.842  22.953  23.012  1.00  0.00     0.186 C 
ATOM     15  C   UNL A   1      32.338  24.293  22.532  1.00  0.00     0.111 C 
BRANCH   8  16
ATOM     16  C   UNL A   1      34.256  20.032  24.928  1.00  0.00    -0.014 A 
ATOM     17  C   UNL A   1      32.996  17.555  25.329  1.00  0.00     0.118 A 
ATOM     18  C   UNL A   1      34.092  17.669  24.462  1.00  0.00     0.047 A 
ATOM     19  C   UNL A   1      32.604  18.654  26.085  1.00  0.00     0.047 A 
ATOM     20  C   UNL A   1      34.723  18.904  24.252  1.00  0.00     0.012 A 
ATOM     21  C   UNL A   1      33.247  19.878  25.902  1.00  0.00     0.012 A 
BRANCH  17  22
ATOM     22  O   UNL A   1      32.366  16.342  25.337  1.00  0.00    -0.497 OA
ATOM     23  C   UNL A   1      33.165  15.212  25.698  1.00  0.00     0.278 C 
ENDBRANCH  17  22
ENDBRANCH   8  16
BRANCH  13  24
ATOM     24  C   UNL A   1      33.472  25.797  24.211  1.00  0.00    -0.035 A 
ATOM     25  C   UNL A   1      34.142  25.760  25.437  1.00  0.00     0.008 A 
ATOM     26  C   UNL A   1      32.597  26.865  23.949  1.00  0.00     0.054 A 
ATOM     27  C   UNL A   1      33.932  26.767  26.375  1.00  0.00     0.051 A 
ATOM     28  C   UNL A   1      32.367  27.879  24.891  1.00  0.00     0.161 A 
ATOM     29  C   UNL A   1      33.049  27.826  26.121  1.00  0.00     0.160 A 
BRANCH  28  30
ATOM     30  O   UNL A   1      31.485  28.905  24.671  1.00  0.00    -0.493 OA
ATOM     31  C   UNL A   1      30.979  29.084  23.354  1.00  0.00     0.278 C 
ENDBRANCH  28  30
BRANCH  29  32
ATOM     32  O   UNL A   1      32.970  28.690  27.182  1.00  0.00    -0.493 OA
ATOM     33  C   UNL A   1      33.215  30.068  26.954  1.00  0.00     0.278 C 
ENDBRANCH  29  32
ENDBRANCH  13  24
BRANCH  14  34
ATOM     34  O   UNL A   1      30.573  22.680  22.638  1.00  0.00    -0.496 OA
ATOM     35  H   UNL A   1      30.311  21.794  22.481  1.00  0.00     0.294 HD
ENDBRANCH  14  34
ENDBRANCH   4   7
ENDBRANCH   2   3
ENDBRANCH   1   2
BRANCH   1  36
ATOM     36  C   UNL A   1      39.961  23.836  27.819  1.00  0.00     0.118 C 
BRANCH  36  37
ATOM     37  N   UNL A   1      41.000  22.833  27.524  1.00  0.00    -0.352 N 
ATOM     38  C   UNL A   1      42.293  23.096  27.071  1.00  0.00     0.251 C 
ATOM     39  H   UNL A   1      40.759  21.888  27.661  1.00  0.00     0.163 HD
ATOM     40  O   UNL A   1      43.024  22.226  26.616  1.00  0.00    -0.269 OA
BRANCH  38  41
ATOM     41  C   UNL A   1      42.744  24.496  27.175  1.00  0.00     0.039 A 
ATOM     42  C   UNL A   1      42.522  25.427  26.162  1.00  0.00     0.014 A 
ATOM     43  C   UNL A   1      43.072  24.889  28.463  1.00  0.00     0.014 A 
ATOM     44  C   UNL A   1      42.462  26.775  26.518  1.00  0.00     0.010 A 
ATOM     45  C   UNL A   1      42.708  26.152  28.837  1.00  0.00     0.010 A 
ATOM     46  C   UNL A   1      42.472  27.127  27.880  1.00  0.00    -0.014 A 
BRANCH  46  47
ATOM     47  C   UNL A   1      42.123  28.469  28.347  1.00  0.00     0.031 A 
ATOM     48  C   UNL A   1      43.128  29.519  28.039  1.00  0.00     0.074 A 
ATOM     49  C   UNL A   1      40.926  28.795  28.892  1.00  0.00     0.049 A 
ATOM     50  N   UNL A   1      44.107  29.878  28.800  1.00  0.00    -0.248 NA
ATOM     51  C   UNL A   1      43.186  30.108  26.692  1.00  0.00     0.031 C 
ATOM     52  C   UNL A   1      39.714  27.967  29.021  1.00  0.00     0.029 A 
ATOM     53  N   UNL A   1      40.511  29.989  29.399  1.00  0.00    -0.354 N 
ATOM     54  C   UNL A   1      44.712  30.949  28.158  1.00  0.00     0.074 A 
ATOM     55  C   UNL A   1      44.271  30.885  26.787  1.00  0.00     0.031 C 
ATOM     56  C   UNL A   1      38.653  28.737  29.342  1.00  0.00     0.029 A 
ATOM     57  C   UNL A   1      39.150  30.053  29.679  1.00  0.00     0.049 A 
ATOM     58  H   UNL A   1      41.124  30.743  29.555  1.00  0.00     0.167 HD
ATOM     59  C   UNL A   1      45.248  31.972  28.882  1.00  0.00     0.031 A 
ATOM     60  C   UNL A   1      38.474  31.072  30.259  1.00  0.00     0.031 A 
ATOM     61  C   UNL A   1      45.209  31.669  30.293  1.00  0.00     0.049 A 
ATOM     62  C   UNL A   1      39.458  31.812  31.076  1.00  0.00     0.074 A 
ATOM     63  C   UNL A   1      45.872  30.833  31.162  1.00  0.00     0.029 A 
ATOM     64  N   UNL A   1      44.027  32.034  30.892  1.00  0.00    -0.354 N 
ATOM     65  N   UNL A   1      40.057  31.285  32.109  1.00  0.00    -0.248 NA
ATOM     66  C   UNL A   1      40.081  33.010  30.534  1.00  0.00     0.031 C 
ATOM     67  C   UNL A   1      44.938  30.528  32.198  1.00  0.00     0.029 A 
ATOM     68  C   UNL A   1      43.756  31.233  31.969  1.00  0.00     0.049 A 
ATOM     69  H   UNL A   1      43.452  32.773  30.587  1.00  0.00     0.167 HD
ATOM     70  C   UNL A   1      41.335  31.808  32.067  1.00  0.00     0.074 A 
ATOM     71  C   UNL A   1      41.240  32.976  31.198  1.00  0.00     0.031 C 
ATOM     72  C   UNL A   1      42.410  31.081  32.490  1.00  0.00     0.031 A 
BRANCH  59  73
ATOM     73  C   UNL A   1      45.328  33.413  28.431  1.00  0.00    -0.014 A 
ATOM     74  C   UNL A   1      45.740  34.386  29.368  1.00  0.00     0.010 A 
ATOM     75  C   UNL A   1      44.751  33.884  27.235  1.00  0.00     0.010 A 
ATOM     76  C   UNL A   1      45.540  35.754  29.140  1.00  0.00     0.020 A 
ATOM     77  C   UNL A   1      44.579  35.248  26.982  1.00  0.00     0.020 A 
ATOM     78  C   UNL A   1      44.952  36.175  27.948  1.00  0.00     0.054 A 
BRANCH  78  79
ATOM     79  S   UNL A   1      44.639  37.938  27.689  1.00  0.00     0.124 S 
ATOM     80  O   UNL A   1      43.444  37.915  26.852  1.00  0.00    -0.237 OA
ATOM     81  O   UNL A   1      44.448  38.419  29.055  1.00  0.00    -0.237 OA
ATOM     82  O   UNL A   1      45.857  38.408  27.033  1.00  0.00    -0.744 OA
ENDBRANCH  78  79
ENDBRANCH  59  73
BRANCH  60  83
ATOM     83  C   UNL A   1      37.116  31.576  29.962  1.00  0.00    -0.014 A 
ATOM     84  C   UNL A   1      36.373  32.263  30.938  1.00  0.00     0.010 A 
ATOM     85  C   UNL A   1      36.687  31.661  28.621  1.00  0.00     0.010 A 
ATOM     86  C   UNL A   1      35.290  33.082  30.576  1.00  0.00     0.020 A 
ATOM     87  C   UNL A   1      35.608  32.475  28.254  1.00  0.00     0.020 A 
ATOM     88  C   UNL A   1      34.932  33.205  29.231  1.00  0.00     0.054 A 
BRANCH  88  89
ATOM     89  S   UNL A   1      33.669  34.423  28.755  1.00  0.00     0.124 S 
ATOM     90  O   UNL A   1      32.855  33.672  27.806  1.00  0.00    -0.237 OA
ATOM     91  O   UNL A   1      33.028  34.732  30.031  1.00  0.00    -0.237 OA
ATOM     92  O   UNL A   1      34.446  35.517  28.176  1.00  0.00    -0.744 OA
ENDBRANCH  88  89
ENDBRANCH  60  83
BRANCH  72  93
ATOM     93  C   UNL A   1      42.166  29.968  33.475  1.00  0.00    -0.014 A 
ATOM     94  C   UNL A   1      41.750  28.667  33.137  1.00  0.00     0.010 A 
ATOM     95  C   UNL A   1      42.463  30.252  34.820  1.00  0.00     0.010 A 
ATOM     96  C   UNL A   1      41.617  27.683  34.132  1.00  0.00     0.020 A 
ATOM     97  C   UNL A   1      42.351  29.276  35.807  1.00  0.00     0.020 A 
ATOM     98  C   UNL A   1      41.918  27.997  35.463  1.00  0.00     0.054 A 
BRANCH  98  99
ATOM     99  S   UNL A   1      41.774  26.721  36.745  1.00  0.00     0.124 S 
ATOM    100  O   UNL A   1      41.805  25.485  35.968  1.00  0.00    -0.237 OA
ATOM    101  O   UNL A   1      42.944  26.969  37.583  1.00  0.00    -0.237 OA
ATOM    102  O   UNL A   1      40.492  27.015  37.385  1.00  0.00    -0.744 OA
ENDBRANCH  98  99
ENDBRANCH  72  93
ENDBRANCH  46  47
ENDBRANCH  38  41
ENDBRANCH  36  37
ENDBRANCH   1  36
TORSDOF 19
ENDMDL
MODEL 3
REMARK VINA RESULT:     -11.9      1.530      2.170
REMARK SMILES COc1ccc(-c2c(C(=O)NCCCNC(=O)c3ccc(-c4c5nc(c(-c6ccc(S(=O)(=O)[O-])cc6)c6ccc([nH]6)c(-c6ccc(S(=O)(=O)[O-])cc6)c6nc(c(-c7ccc(S(=O)(=O)[O-])cc7)c7ccc4[nH]7)C=C6)C=C5)cc3)sc3c2N=C(O)C[C@H]3c2ccc(OC)c(OC)c2)cc1
REMARK SMILES IDX 13 1 12 2 11 3 9 4 10 5 8 7 7 8 80 9 78 10 79 11 81 12 85 13
REMARK SMILES IDX 82 14 84 15 6 16 3 17 4 18 97 19 5 20 96 21 2 22 1 23 86 24
REMARK SMILES IDX 87 25 95 26 88 27 92 28 89 29 93 30 94 31 90 32 91 33 83 34
REMARK SMILES IDX 14 36 15 37 16 38 17 40 18 41 19 42 77 43 20 44 76 45 21 46
REMARK SMILES IDX 22 47 23 48 70 49 24 50 75 51 69 52 71 53 25 54 74 55 68 56
REMARK SMILES IDX 67 57 26 59 56 60 37 61 55 62 38 63 41 64 54 65 72 66 39 67
REMARK SMILES IDX 40 68 53 70 73 71 42 72 27 73 28 74 36 75 29 76 35 77 30 78
REMARK SMILES IDX 31 79 32 80 33 81 34 82 57 83 58 84 66 85 59 86 65 87 60 88
REMARK SMILES IDX 61 89 62 90 63 91 64 92 43 93 44 94 52 95 45 96 51 97 46 98
REMARK SMILES IDX 47 99 48 100 49 101 50 102
REMARK H PARENT 11 6 83 35 15 39 71 58 41 69
REMARK Flexibility Score: inf
ROOT
ATOM      1  C   UNL A   1      36.826  23.764  26.074  1.00  0.00     0.042 C 
ENDROOT
BRANCH   1   2
ATOM      2  C   UNL A   1      36.083  22.573  26.625  1.00  0.00     0.118 C 
BRANCH   2   3
ATOM      3  N   UNL A   1      34.958  22.706  27.500  1.00  0.00    -0.351 N 
ATOM      4  C   UNL A   1      33.657  22.938  27.074  1.00  0.00     0.262 C 
ATOM      5  O   UNL A   1      32.785  22.805  27.941  1.00  0.00    -0.268 OA
ATOM      6  H   UNL A   1      35.117  22.627  28.467  1.00  0.00     0.163 HD
BRANCH   4   7
ATOM      7  C   UNL A   1      33.353  23.416  25.710  1.00  0.00     0.102 A 
ATOM      8  C   UNL A   1      33.135  22.844  24.443  1.00  0.00     0.031 A 
ATOM      9  C   UNL A   1      33.057  23.854  23.435  1.00  0.00     0.090 A 
ATOM     10  S   UNL A   1      33.260  25.156  25.600  1.00  0.00    -0.131 S 
ATOM     11  C   UNL A   1      33.070  25.126  23.921  1.00  0.00     0.040 A 
ATOM     12  N   UNL A   1      32.964  23.550  22.071  1.00  0.00    -0.216 NA
ATOM     13  C   UNL A   1      32.902  26.348  23.090  1.00  0.00     0.071 C 
ATOM     14  C   UNL A   1      33.011  24.560  21.273  1.00  0.00     0.186 C 
ATOM     15  C   UNL A   1      33.140  26.024  21.608  1.00  0.00     0.111 C 
BRANCH   8  16
ATOM     16  C   UNL A   1      33.155  21.412  24.119  1.00  0.00    -0.014 A 
ATOM     17  C   UNL A   1      33.052  18.609  23.993  1.00  0.00     0.118 A 
ATOM     18  C   UNL A   1      32.095  19.391  23.331  1.00  0.00     0.047 A 
ATOM     19  C   UNL A   1      34.127  19.227  24.620  1.00  0.00     0.047 A 
ATOM     20  C   UNL A   1      32.137  20.793  23.394  1.00  0.00     0.012 A 
ATOM     21  C   UNL A   1      34.190  20.620  24.661  1.00  0.00     0.012 A 
BRANCH  17  22
ATOM     22  O   UNL A   1      32.823  17.261  23.991  1.00  0.00    -0.497 OA
ATOM     23  C   UNL A   1      32.780  16.620  25.268  1.00  0.00     0.278 C 
ENDBRANCH  17  22
ENDBRANCH   8  16
BRANCH  13  24
ATOM     24  C   UNL A   1      31.537  26.987  23.302  1.00  0.00    -0.035 A 
ATOM     25  C   UNL A   1      30.467  26.275  23.853  1.00  0.00     0.008 A 
ATOM     26  C   UNL A   1      31.343  28.332  22.947  1.00  0.00     0.054 A 
ATOM     27  C   UNL A   1      29.237  26.900  24.035  1.00  0.00     0.051 A 
ATOM     28  C   UNL A   1      30.104  28.969  23.114  1.00  0.00     0.161 A 
ATOM     29  C   UNL A   1      29.038  28.238  23.670  1.00  0.00     0.160 A 
BRANCH  28  30
ATOM     30  O   UNL A   1      29.885  30.268  22.735  1.00  0.00    -0.493 OA
ATOM     31  C   UNL A   1      29.358  30.509  21.436  1.00  0.00     0.278 C 
ENDBRANCH  28  30
BRANCH  29  32
ATOM     32  O   UNL A   1      27.752  28.646  23.909  1.00  0.00    -0.493 OA
ATOM     33  C   UNL A   1      26.689  27.933  23.297  1.00  0.00     0.278 C 
ENDBRANCH  29  32
ENDBRANCH  13  24
BRANCH  14  34
ATOM     34  O   UNL A   1      33.003  24.308  19.946  1.00  0.00    -0.496 OA
ATOM     35  H   UNL A   1      33.132  23.433  19.634  1.00  0.00     0.294 HD
ENDBRANCH  14  34
ENDBRANCH   4   7
ENDBRANCH   2   3
ENDBRANCH   1   2
BRANCH   1  36
ATOM     36  C   UNL A   1      38.320  23.566  26.043  1.00  0.00     0.118 C 
BRANCH  36  37
ATOM     37  N   UNL A   1      38.878  22.557  26.960  1.00  0.00    -0.352 N 
ATOM     38  C   UNL A   1      40.171  22.545  27.484  1.00  0.00     0.251 C 
ATOM     39  H   UNL A   1      38.281  21.821  27.229  1.00  0.00     0.163 HD
ATOM     40  O   UNL A   1      40.650  21.565  28.040  1.00  0.00    -0.269 OA
BRANCH  38  41
ATOM     41  C   UNL A   1      40.939  23.795  27.340  1.00  0.00     0.039 A 
ATOM     42  C   UNL A   1      40.569  24.796  26.444  1.00  0.00     0.014 A 
ATOM     43  C   UNL A   1      41.817  24.043  28.383  1.00  0.00     0.014 A 
ATOM     44  C   UNL A   1      40.964  26.104  26.729  1.00  0.00     0.010 A 
ATOM     45  C   UNL A   1      41.928  25.338  28.806  1.00  0.00     0.010 A 
ATOM     46  C   UNL A   1      41.577  26.382  27.964  1.00  0.00    -0.014 A 
BRANCH  46  47
ATOM     47  C   UNL A   1      41.756  27.747  28.464  1.00  0.00     0.031 A 
ATOM     48  C   UNL A   1      43.031  28.396  28.063  1.00  0.00     0.074 A 
ATOM     49  C   UNL A   1      40.798  28.446  29.118  1.00  0.00     0.049 A 
ATOM     50  N   UNL A   1      44.136  28.371  28.730  1.00  0.00    -0.248 NA
ATOM     51  C   UNL A   1      43.171  28.973  26.717  1.00  0.00     0.031 C 
ATOM     52  C   UNL A   1      39.391  28.082  29.359  1.00  0.00     0.029 A 
ATOM     53  N   UNL A   1      40.868  29.693  29.663  1.00  0.00    -0.354 N 
ATOM     54  C   UNL A   1      45.015  29.188  28.034  1.00  0.00     0.074 A 
ATOM     55  C   UNL A   1      44.462  29.326  26.711  1.00  0.00     0.031 C 
ATOM     56  C   UNL A   1      38.694  29.160  29.778  1.00  0.00     0.029 A 
ATOM     57  C   UNL A   1      39.643  30.212  30.068  1.00  0.00     0.049 A 
ATOM     58  H   UNL A   1      41.715  30.184  29.761  1.00  0.00     0.167 HD
ATOM     59  C   UNL A   1      45.933  29.940  28.706  1.00  0.00     0.031 A 
ATOM     60  C   UNL A   1      39.414  31.381  30.710  1.00  0.00     0.031 A 
ATOM     61  C   UNL A   1      45.916  29.623  30.114  1.00  0.00     0.049 A 
ATOM     62  C   UNL A   1      40.661  31.710  31.432  1.00  0.00     0.074 A 
ATOM     63  C   UNL A   1      46.322  28.581  30.916  1.00  0.00     0.029 A 
ATOM     64  N   UNL A   1      44.990  30.352  30.821  1.00  0.00    -0.354 N 
ATOM     65  N   UNL A   1      41.129  30.976  32.404  1.00  0.00    -0.248 NA
ATOM     66  C   UNL A   1      41.610  32.638  30.835  1.00  0.00     0.031 C 
ATOM     67  C   UNL A   1      45.435  28.583  32.035  1.00  0.00     0.029 A 
ATOM     68  C   UNL A   1      44.554  29.659  31.918  1.00  0.00     0.049 A 
ATOM     69  H   UNL A   1      44.681  31.253  30.571  1.00  0.00     0.167 HD
ATOM     70  C   UNL A   1      42.500  31.028  32.243  1.00  0.00     0.074 A 
ATOM     71  C   UNL A   1      42.739  32.185  31.387  1.00  0.00     0.031 C 
ATOM     72  C   UNL A   1      43.290  29.962  32.563  1.00  0.00     0.031 A 
BRANCH  59  73
ATOM     73  C   UNL A   1      46.467  31.280  28.251  1.00  0.00    -0.014 A 
ATOM     74  C   UNL A   1      45.681  32.429  28.488  1.00  0.00     0.010 A 
ATOM     75  C   UNL A   1      47.552  31.421  27.363  1.00  0.00     0.010 A 
ATOM     76  C   UNL A   1      45.939  33.640  27.832  1.00  0.00     0.020 A 
ATOM     77  C   UNL A   1      47.838  32.634  26.731  1.00  0.00     0.020 A 
ATOM     78  C   UNL A   1      47.014  33.731  26.951  1.00  0.00     0.054 A 
BRANCH  78  79
ATOM     79  S   UNL A   1      47.300  35.281  26.060  1.00  0.00     0.124 S 
ATOM     80  O   UNL A   1      47.577  36.211  27.150  1.00  0.00    -0.237 OA
ATOM     81  O   UNL A   1      48.439  34.940  25.211  1.00  0.00    -0.237 OA
ATOM     82  O   UNL A   1      46.043  35.502  25.348  1.00  0.00    -0.744 OA
ENDBRANCH  78  79
ENDBRANCH  59  73
BRANCH  60  83
ATOM     83  C   UNL A   1      38.294  32.332  30.542  1.00  0.00    -0.014 A 
ATOM     84  C   UNL A   1      38.275  33.240  29.468  1.00  0.00     0.010 A 
ATOM     85  C   UNL A   1      37.095  32.122  31.253  1.00  0.00     0.010 A 
ATOM     86  C   UNL A   1      37.077  33.851  29.061  1.00  0.00     0.020 A 
ATOM     87  C   UNL A   1      35.897  32.728  30.852  1.00  0.00     0.020 A 
ATOM     88  C   UNL A   1      35.889  33.568  29.739  1.00  0.00     0.054 A 
BRANCH  88  89
ATOM     89  S   UNL A   1      34.316  34.197  29.078  1.00  0.00     0.124 S 
ATOM     90  O   UNL A   1      33.826  33.058  28.307  1.00  0.00    -0.237 OA
ATOM     91  O   UNL A   1      33.564  34.510  30.291  1.00  0.00    -0.237 OA
ATOM     92  O   UNL A   1      34.715  35.357  28.284  1.00  0.00    -0.744 OA
ENDBRANCH  88  89
ENDBRANCH  60  83
BRANCH  72  93
ATOM     93  C   UNL A   1      42.764  28.969  33.565  1.00  0.00    -0.014 A 
ATOM     94  C   UNL A   1      41.928  27.878  33.261  1.00  0.00     0.010 A 
ATOM     95  C   UNL A   1      43.221  29.118  34.887  1.00  0.00     0.010 A 
ATOM     96  C   UNL A   1      41.549  26.971  34.265  1.00  0.00     0.020 A 
ATOM     97  C   UNL A   1      42.864  28.212  35.883  1.00  0.00     0.020 A 
ATOM     98  C   UNL A   1      42.021  27.147  35.572  1.00  0.00     0.054 A 
BRANCH  98  99
ATOM     99  S   UNL A   1      41.555  25.963  36.865  1.00  0.00     0.124 S 
ATOM    100  O   UNL A   1      41.122  24.801  36.092  1.00  0.00    -0.237 OA
ATOM    101  O   UNL A   1      42.797  25.794  37.614  1.00  0.00    -0.237 OA
ATOM    102  O   UNL A   1      40.489  26.647  37.597  1.00  0.00    -0.744 OA
ENDBRANCH  98  99
ENDBRANCH  72  93
ENDBRANCH  46  47
ENDBRANCH  38  41
ENDBRANCH  36  37
ENDBRANCH   1  36
TORSDOF 19
ENDMDL
