MODEL 1
REMARK VINA RESULT:     -11.2      0.000      0.000
REMARK SMILES [NH3+][C@@H](CCC1=c2ccccc2=NC1)C(=O)NCCCNC(=O)c1ccc(-c2c3nc(c(-c4ccc(S(=O)(=O)[O-])cc4)c4ccc([nH]4)c(-c4ccc(S(=O)(=O)[O-])cc4)c4nc(c(-c5ccc(S(=O)(=O)[O-])cc5)c5ccc2[nH]5)C=C4)C=C3)cc1
REMARK SMILES IDX 18 1 17 2 16 3 14 4 15 5 2 7 1 8 3 12 4 13 5 14 6 15 13 16
REMARK SMILES IDX 7 17 11 18 12 19 8 20 10 21 9 22 19 23 20 24 21 25 22 27
REMARK SMILES IDX 23 28 24 29 82 30 25 31 81 32 26 33 27 34 28 35 75 36 29 37
REMARK SMILES IDX 80 38 74 39 76 40 30 41 79 42 73 43 72 44 31 46 61 47 42 48
REMARK SMILES IDX 60 49 43 50 46 51 59 52 77 53 44 54 45 55 58 57 78 58 47 59
REMARK SMILES IDX 32 60 33 61 41 62 34 63 40 64 35 65 36 66 37 67 38 68 39 69
REMARK SMILES IDX 62 70 63 71 71 72 64 73 70 74 65 75 66 76 67 77 68 78 69 79
REMARK SMILES IDX 48 80 49 81 57 82 50 83 56 84 51 85 52 86 53 87 54 88 55 89
REMARK H PARENT 16 6 1 9 1 10 1 11 20 26 76 45 46 56
REMARK Flexibility Score: inf
ROOT
ATOM      1  C   UNL A   1      33.823  34.159  28.450  1.00  0.00     0.042 C 
ENDROOT
BRANCH   1   2
ATOM      2  C   UNL A   1      33.619  34.552  29.895  1.00  0.00     0.118 C 
BRANCH   2   3
ATOM      3  N   UNL A   1      33.187  35.919  30.002  1.00  0.00    -0.351 N 
ATOM      4  C   UNL A   1      33.151  36.708  31.107  1.00  0.00     0.278 C 
ATOM      5  O   UNL A   1      32.943  37.912  30.947  1.00  0.00    -0.268 OA
ATOM      6  H   UNL A   1      32.879  36.338  29.165  1.00  0.00     0.163 HD
BRANCH   4   7
ATOM      7  C   UNL A   1      33.341  36.103  32.507  1.00  0.00     0.271 C 
BRANCH   7   8
ATOM      8  N   UNL A   1      32.335  35.069  32.830  1.00  0.00    -0.347 N 
ATOM      9  H   UNL A   1      32.485  34.733  33.782  1.00  0.00     0.345 HD
ATOM     10  H   UNL A   1      32.428  34.289  32.178  1.00  0.00     0.345 HD
ATOM     11  H   UNL A   1      31.400  35.467  32.752  1.00  0.00     0.345 HD
ENDBRANCH   7   8
BRANCH   7  12
ATOM     12  C   UNL A   1      34.789  35.746  32.904  1.00  0.00     0.080 C 
BRANCH  12  13
ATOM     13  C   UNL A   1      35.179  34.524  33.799  1.00  0.00     0.040 C 
BRANCH  13  14
ATOM     14  C   UNL A   1      36.494  33.792  33.589  1.00  0.00    -0.039 C 
ATOM     15  C   UNL A   1      37.164  33.502  32.454  1.00  0.00     0.001 A 
ATOM     16  C   UNL A   1      37.318  33.423  34.852  1.00  0.00     0.174 C 
ATOM     17  C   UNL A   1      37.161  33.959  30.658  1.00  0.00     0.010 A 
ATOM     18  C   UNL A   1      38.863  33.181  33.271  1.00  0.00     0.065 A 
ATOM     19  N   UNL A   1      38.760  33.065  34.555  1.00  0.00    -0.280 NA
ATOM     20  C   UNL A   1      38.566  34.259  29.862  1.00  0.00     0.001 A 
ATOM     21  C   UNL A   1      40.423  33.464  32.188  1.00  0.00     0.028 A 
ATOM     22  C   UNL A   1      40.271  34.044  30.718  1.00  0.00     0.002 A 
ENDBRANCH  13  14
ENDBRANCH  12  13
ENDBRANCH   7  12
ENDBRANCH   4   7
ENDBRANCH   2   3
ENDBRANCH   1   2
BRANCH   1  23
ATOM     23  C   UNL A   1      34.577  32.579  28.302  1.00  0.00     0.118 C 
BRANCH  23  24
ATOM     24  N   UNL A   1      35.149  31.195  29.763  1.00  0.00    -0.352 N 
ATOM     25  C   UNL A   1      36.296  30.444  30.467  1.00  0.00     0.251 C 
ATOM     26  H   UNL A   1      34.316  30.886  30.189  1.00  0.00     0.163 HD
ATOM     27  O   UNL A   1      35.911  29.653  31.343  1.00  0.00    -0.269 OA
BRANCH  25  28
ATOM     28  C   UNL A   1      37.841  30.422  30.177  1.00  0.00     0.039 A 
ATOM     29  C   UNL A   1      38.408  30.589  28.917  1.00  0.00     0.014 A 
ATOM     30  C   UNL A   1      38.788  30.205  31.194  1.00  0.00     0.014 A 
ATOM     31  C   UNL A   1      39.668  30.079  28.591  1.00  0.00     0.010 A 
ATOM     32  C   UNL A   1      40.170  29.954  30.895  1.00  0.00     0.010 A 
ATOM     33  C   UNL A   1      40.613  29.794  29.570  1.00  0.00    -0.014 A 
BRANCH  33  34
ATOM     34  C   UNL A   1      41.992  29.368  29.116  1.00  0.00     0.031 A 
ATOM     35  C   UNL A   1      42.235  27.978  28.565  1.00  0.00     0.074 A 
ATOM     36  C   UNL A   1      43.003  30.271  29.026  1.00  0.00     0.049 A 
ATOM     37  N   UNL A   1      43.347  27.445  28.120  1.00  0.00    -0.248 NA
ATOM     38  C   UNL A   1      41.074  27.079  28.476  1.00  0.00     0.031 C 
ATOM     39  C   UNL A   1      42.899  31.688  29.395  1.00  0.00     0.029 A 
ATOM     40  N   UNL A   1      44.294  30.171  28.544  1.00  0.00    -0.354 N 
ATOM     41  C   UNL A   1      43.029  26.145  27.733  1.00  0.00     0.074 A 
ATOM     42  C   UNL A   1      41.620  25.965  28.004  1.00  0.00     0.031 C 
ATOM     43  C   UNL A   1      44.018  32.332  29.039  1.00  0.00     0.029 A 
ATOM     44  C   UNL A   1      44.994  31.365  28.556  1.00  0.00     0.049 A 
ATOM     45  H   UNL A   1      44.682  29.327  28.220  1.00  0.00     0.167 HD
ATOM     46  C   UNL A   1      43.834  25.192  27.199  1.00  0.00     0.031 A 
ATOM     47  C   UNL A   1      46.278  31.665  28.262  1.00  0.00     0.031 A 
ATOM     48  C   UNL A   1      45.232  25.387  26.904  1.00  0.00     0.049 A 
ATOM     49  C   UNL A   1      47.185  30.561  27.795  1.00  0.00     0.074 A 
ATOM     50  C   UNL A   1      46.138  24.468  26.402  1.00  0.00     0.029 A 
ATOM     51  N   UNL A   1      45.926  26.578  27.066  1.00  0.00    -0.354 N 
ATOM     52  N   UNL A   1      46.876  29.318  27.512  1.00  0.00    -0.248 NA
ATOM     53  C   UNL A   1      48.608  30.884  27.619  1.00  0.00     0.031 C 
ATOM     54  C   UNL A   1      47.393  25.074  26.347  1.00  0.00     0.029 A 
ATOM     55  C   UNL A   1      47.256  26.403  26.713  1.00  0.00     0.049 A 
ATOM     56  H   UNL A   1      45.533  27.423  27.384  1.00  0.00     0.167 HD
ATOM     57  C   UNL A   1      48.061  28.714  27.112  1.00  0.00     0.074 A 
ATOM     58  C   UNL A   1      49.089  29.734  27.160  1.00  0.00     0.031 C 
ATOM     59  C   UNL A   1      48.275  27.425  26.750  1.00  0.00     0.031 A 
BRANCH  46  60
ATOM     60  C   UNL A   1      43.253  23.821  26.930  1.00  0.00    -0.014 A 
ATOM     61  C   UNL A   1      43.114  22.909  27.994  1.00  0.00     0.010 A 
ATOM     62  C   UNL A   1      42.956  23.388  25.625  1.00  0.00     0.010 A 
ATOM     63  C   UNL A   1      42.736  21.584  27.759  1.00  0.00     0.020 A 
ATOM     64  C   UNL A   1      42.539  22.072  25.389  1.00  0.00     0.020 A 
ATOM     65  C   UNL A   1      42.459  21.172  26.454  1.00  0.00     0.054 A 
BRANCH  65  66
ATOM     66  S   UNL A   1      42.015  19.436  26.165  1.00  0.00     0.124 S 
ATOM     67  O   UNL A   1      42.390  18.806  27.428  1.00  0.00    -0.237 OA
ATOM     68  O   UNL A   1      40.581  19.516  25.898  1.00  0.00    -0.237 OA
ATOM     69  O   UNL A   1      42.834  19.061  25.013  1.00  0.00    -0.744 OA
ENDBRANCH  65  66
ENDBRANCH  46  60
BRANCH  47  70
ATOM     70  C   UNL A   1      46.780  33.066  28.447  1.00  0.00    -0.014 A 
ATOM     71  C   UNL A   1      46.751  33.980  27.374  1.00  0.00     0.010 A 
ATOM     72  C   UNL A   1      47.352  33.484  29.663  1.00  0.00     0.010 A 
ATOM     73  C   UNL A   1      47.361  35.234  27.476  1.00  0.00     0.020 A 
ATOM     74  C   UNL A   1      47.925  34.758  29.787  1.00  0.00     0.020 A 
ATOM     75  C   UNL A   1      47.961  35.608  28.679  1.00  0.00     0.054 A 
BRANCH  75  76
ATOM     76  S   UNL A   1      48.818  37.206  28.757  1.00  0.00     0.124 S 
ATOM     77  O   UNL A   1      48.744  37.515  30.183  1.00  0.00    -0.237 OA
ATOM     78  O   UNL A   1      50.149  36.877  28.254  1.00  0.00    -0.237 OA
ATOM     79  O   UNL A   1      48.020  38.068  27.889  1.00  0.00    -0.744 OA
ENDBRANCH  75  76
ENDBRANCH  47  70
BRANCH  59  80
ATOM     80  C   UNL A   1      49.672  27.012  26.361  1.00  0.00    -0.014 A 
ATOM     81  C   UNL A   1      50.123  27.232  25.045  1.00  0.00     0.010 A 
ATOM     82  C   UNL A   1      50.476  26.264  27.241  1.00  0.00     0.010 A 
ATOM     83  C   UNL A   1      51.316  26.662  24.597  1.00  0.00     0.020 A 
ATOM     84  C   UNL A   1      51.690  25.726  26.808  1.00  0.00     0.020 A 
ATOM     85  C   UNL A   1      52.085  25.900  25.479  1.00  0.00     0.054 A 
BRANCH  85  86
ATOM     86  S   UNL A   1      53.592  25.106  24.856  1.00  0.00     0.124 S 
ATOM     87  O   UNL A   1      53.501  25.358  23.421  1.00  0.00    -0.237 OA
ATOM     88  O   UNL A   1      54.648  25.833  25.558  1.00  0.00    -0.237 OA
ATOM     89  O   UNL A   1      53.436  23.710  25.256  1.00  0.00    -0.744 OA
ENDBRANCH  85  86
ENDBRANCH  59  80
ENDBRANCH  33  34
ENDBRANCH  25  28
ENDBRANCH  23  24
ENDBRANCH   1  23
TORSDOF 17
ENDMDL
MODEL 2
REMARK VINA RESULT:     -11.0      5.875     14.121
REMARK SMILES [NH3+][C@@H](CCC1=c2ccccc2=NC1)C(=O)NCCCNC(=O)c1ccc(-c2c3nc(c(-c4ccc(S(=O)(=O)[O-])cc4)c4ccc([nH]4)c(-c4ccc(S(=O)(=O)[O-])cc4)c4nc(c(-c5ccc(S(=O)(=O)[O-])cc5)c5ccc2[nH]5)C=C4)C=C3)cc1
REMARK SMILES IDX 18 1 17 2 16 3 14 4 15 5 2 7 1 8 3 12 4 13 5 14 6 15 13 16
REMARK SMILES IDX 7 17 11 18 12 19 8 20 10 21 9 22 19 23 20 24 21 25 22 27
REMARK SMILES IDX 23 28 24 29 82 30 25 31 81 32 26 33 27 34 28 35 75 36 29 37
REMARK SMILES IDX 80 38 74 39 76 40 30 41 79 42 73 43 72 44 31 46 61 47 42 48
REMARK SMILES IDX 60 49 43 50 46 51 59 52 77 53 44 54 45 55 58 57 78 58 47 59
REMARK SMILES IDX 32 60 33 61 41 62 34 63 40 64 35 65 36 66 37 67 38 68 39 69
REMARK SMILES IDX 62 70 63 71 71 72 64 73 70 74 65 75 66 76 67 77 68 78 69 79
REMARK SMILES IDX 48 80 49 81 57 82 50 83 56 84 51 85 52 86 53 87 54 88 55 89
REMARK H PARENT 16 6 1 9 1 10 1 11 20 26 76 45 46 56
REMARK Flexibility Score: inf
ROOT
ATOM      1  C   UNL A   1      40.644  20.760  26.577  1.00  0.00     0.042 C 
ENDROOT
BRANCH   1   2
ATOM      2  C   UNL A   1      42.133  20.793  26.315  1.00  0.00     0.118 C 
BRANCH   2   3
ATOM      3  N   UNL A   1      42.523  19.737  25.421  1.00  0.00    -0.351 N 
ATOM      4  C   UNL A   1      43.776  19.338  25.085  1.00  0.00     0.278 C 
ATOM      5  O   UNL A   1      43.896  18.281  24.462  1.00  0.00    -0.268 OA
ATOM      6  H   UNL A   1      41.786  19.239  24.999  1.00  0.00     0.163 HD
BRANCH   4   7
ATOM      7  C   UNL A   1      44.996  20.197  25.452  1.00  0.00     0.271 C 
BRANCH   7   8
ATOM      8  N   UNL A   1      46.199  19.392  25.758  1.00  0.00    -0.347 N 
ATOM      9  H   UNL A   1      47.020  19.998  25.771  1.00  0.00     0.345 HD
ATOM     10  H   UNL A   1      46.319  18.674  25.043  1.00  0.00     0.345 HD
ATOM     11  H   UNL A   1      46.088  18.949  26.670  1.00  0.00     0.345 HD
ENDBRANCH   7   8
BRANCH   7  12
ATOM     12  C   UNL A   1      45.252  21.432  24.562  1.00  0.00     0.080 C 
BRANCH  12  13
ATOM     13  C   UNL A   1      46.005  22.718  25.038  1.00  0.00     0.040 C 
BRANCH  13  14
ATOM     14  C   UNL A   1      45.237  23.941  25.511  1.00  0.00    -0.039 C 
ATOM     15  C   UNL A   1      44.284  24.064  26.459  1.00  0.00     0.001 A 
ATOM     16  C   UNL A   1      45.677  25.322  24.956  1.00  0.00     0.174 C 
ATOM     17  C   UNL A   1      43.551  23.094  27.857  1.00  0.00     0.010 A 
ATOM     18  C   UNL A   1      44.450  25.954  26.699  1.00  0.00     0.065 A 
ATOM     19  N   UNL A   1      45.145  26.496  25.752  1.00  0.00    -0.280 NA
ATOM     20  C   UNL A   1      43.238  23.804  29.304  1.00  0.00     0.001 A 
ATOM     21  C   UNL A   1      43.941  26.667  28.408  1.00  0.00     0.028 A 
ATOM     22  C   UNL A   1      43.511  25.685  29.579  1.00  0.00     0.002 A 
ENDBRANCH  13  14
ENDBRANCH  12  13
ENDBRANCH   7  12
ENDBRANCH   4   7
ENDBRANCH   2   3
ENDBRANCH   1   2
BRANCH   1  23
ATOM     23  C   UNL A   1      39.998  22.363  26.887  1.00  0.00     0.118 C 
BRANCH  23  24
ATOM     24  N   UNL A   1      40.545  24.230  26.117  1.00  0.00    -0.352 N 
ATOM     25  C   UNL A   1      40.679  25.747  26.353  1.00  0.00     0.251 C 
ATOM     26  H   UNL A   1      40.853  24.067  25.195  1.00  0.00     0.163 HD
ATOM     27  O   UNL A   1      41.101  26.370  25.366  1.00  0.00    -0.269 OA
BRANCH  25  28
ATOM     28  C   UNL A   1      40.257  26.638  27.577  1.00  0.00     0.039 A 
ATOM     29  C   UNL A   1      40.566  27.988  27.713  1.00  0.00     0.014 A 
ATOM     30  C   UNL A   1      39.533  26.117  28.665  1.00  0.00     0.014 A 
ATOM     31  C   UNL A   1      40.645  28.616  28.960  1.00  0.00     0.010 A 
ATOM     32  C   UNL A   1      39.353  26.865  29.878  1.00  0.00     0.010 A 
ATOM     33  C   UNL A   1      39.994  28.102  30.075  1.00  0.00    -0.014 A 
BRANCH  33  34
ATOM     34  C   UNL A   1      40.029  28.916  31.350  1.00  0.00     0.031 A 
ATOM     35  C   UNL A   1      41.208  28.829  32.296  1.00  0.00     0.074 A 
ATOM     36  C   UNL A   1      39.093  29.871  31.589  1.00  0.00     0.049 A 
ATOM     37  N   UNL A   1      41.414  29.462  33.426  1.00  0.00    -0.248 NA
ATOM     38  C   UNL A   1      42.315  27.939  31.911  1.00  0.00     0.031 C 
ATOM     39  C   UNL A   1      37.958  30.174  30.709  1.00  0.00     0.029 A 
ATOM     40  N   UNL A   1      38.964  30.811  32.594  1.00  0.00    -0.354 N 
ATOM     41  C   UNL A   1      42.647  29.022  33.901  1.00  0.00     0.074 A 
ATOM     42  C   UNL A   1      43.143  28.061  32.941  1.00  0.00     0.031 C 
ATOM     43  C   UNL A   1      37.322  31.267  31.150  1.00  0.00     0.029 A 
ATOM     44  C   UNL A   1      37.892  31.668  32.429  1.00  0.00     0.049 A 
ATOM     45  H   UNL A   1      39.581  30.865  33.360  1.00  0.00     0.167 HD
ATOM     46  C   UNL A   1      43.307  29.386  35.029  1.00  0.00     0.031 A 
ATOM     47  C   UNL A   1      37.380  32.641  33.216  1.00  0.00     0.031 A 
ATOM     48  C   UNL A   1      42.821  30.367  35.969  1.00  0.00     0.049 A 
ATOM     49  C   UNL A   1      38.058  32.937  34.524  1.00  0.00     0.074 A 
ATOM     50  C   UNL A   1      43.399  30.771  37.161  1.00  0.00     0.029 A 
ATOM     51  N   UNL A   1      41.657  31.109  35.822  1.00  0.00    -0.354 N 
ATOM     52  N   UNL A   1      39.183  32.448  34.988  1.00  0.00    -0.248 NA
ATOM     53  C   UNL A   1      37.401  33.897  35.424  1.00  0.00     0.031 C 
ATOM     54  C   UNL A   1      42.543  31.685  37.775  1.00  0.00     0.029 A 
ATOM     55  C   UNL A   1      41.480  31.935  36.922  1.00  0.00     0.049 A 
ATOM     56  H   UNL A   1      41.046  31.056  35.052  1.00  0.00     0.167 HD
ATOM     57  C   UNL A   1      39.378  33.050  36.225  1.00  0.00     0.074 A 
ATOM     58  C   UNL A   1      38.270  33.961  36.426  1.00  0.00     0.031 C 
ATOM     59  C   UNL A   1      40.381  32.852  37.115  1.00  0.00     0.031 A 
BRANCH  46  60
ATOM     60  C   UNL A   1      44.615  28.700  35.357  1.00  0.00    -0.014 A 
ATOM     61  C   UNL A   1      44.603  27.534  36.148  1.00  0.00     0.010 A 
ATOM     62  C   UNL A   1      45.853  29.259  34.995  1.00  0.00     0.010 A 
ATOM     63  C   UNL A   1      45.796  26.966  36.606  1.00  0.00     0.020 A 
ATOM     64  C   UNL A   1      47.051  28.672  35.418  1.00  0.00     0.020 A 
ATOM     65  C   UNL A   1      47.013  27.546  36.245  1.00  0.00     0.054 A 
BRANCH  65  66
ATOM     66  S   UNL A   1      48.548  26.821  36.889  1.00  0.00     0.124 S 
ATOM     67  O   UNL A   1      48.049  25.733  37.725  1.00  0.00    -0.237 OA
ATOM     68  O   UNL A   1      49.242  26.414  35.669  1.00  0.00    -0.237 OA
ATOM     69  O   UNL A   1      49.173  27.927  37.611  1.00  0.00    -0.744 OA
ENDBRANCH  65  66
ENDBRANCH  46  60
BRANCH  47  70
ATOM     70  C   UNL A   1      36.137  33.366  32.796  1.00  0.00    -0.014 A 
ATOM     71  C   UNL A   1      36.225  34.530  32.004  1.00  0.00     0.010 A 
ATOM     72  C   UNL A   1      34.865  32.952  33.232  1.00  0.00     0.010 A 
ATOM     73  C   UNL A   1      35.096  35.310  31.738  1.00  0.00     0.020 A 
ATOM     74  C   UNL A   1      33.721  33.705  32.930  1.00  0.00     0.020 A 
ATOM     75  C   UNL A   1      33.851  34.901  32.220  1.00  0.00     0.054 A 
BRANCH  75  76
ATOM     76  S   UNL A   1      32.418  35.976  31.934  1.00  0.00     0.124 S 
ATOM     77  O   UNL A   1      32.826  37.205  32.610  1.00  0.00    -0.237 OA
ATOM     78  O   UNL A   1      32.361  36.050  30.476  1.00  0.00    -0.237 OA
ATOM     79  O   UNL A   1      31.314  35.254  32.563  1.00  0.00    -0.744 OA
ENDBRANCH  75  76
ENDBRANCH  47  70
BRANCH  59  80
ATOM     80  C   UNL A   1      40.360  33.631  38.405  1.00  0.00    -0.014 A 
ATOM     81  C   UNL A   1      39.674  33.112  39.521  1.00  0.00     0.010 A 
ATOM     82  C   UNL A   1      40.873  34.940  38.468  1.00  0.00     0.010 A 
ATOM     83  C   UNL A   1      39.447  33.905  40.647  1.00  0.00     0.020 A 
ATOM     84  C   UNL A   1      40.683  35.722  39.610  1.00  0.00     0.020 A 
ATOM     85  C   UNL A   1      39.942  35.211  40.678  1.00  0.00     0.054 A 
BRANCH  85  86
ATOM     86  S   UNL A   1      39.570  36.248  42.118  1.00  0.00     0.124 S 
ATOM     87  O   UNL A   1      38.285  35.713  42.559  1.00  0.00    -0.237 OA
ATOM     88  O   UNL A   1      40.701  35.979  43.004  1.00  0.00    -0.237 OA
ATOM     89  O   UNL A   1      39.527  37.600  41.568  1.00  0.00    -0.744 OA
ENDBRANCH  85  86
ENDBRANCH  59  80
ENDBRANCH  33  34
ENDBRANCH  25  28
ENDBRANCH  23  24
ENDBRANCH   1  23
TORSDOF 17
ENDMDL
MODEL 3
REMARK VINA RESULT:     -11.0      0.503      8.425
REMARK SMILES [NH3+][C@@H](CCC1=c2ccccc2=NC1)C(=O)NCCCNC(=O)c1ccc(-c2c3nc(c(-c4ccc(S(=O)(=O)[O-])cc4)c4ccc([nH]4)c(-c4ccc(S(=O)(=O)[O-])cc4)c4nc(c(-c5ccc(S(=O)(=O)[O-])cc5)c5ccc2[nH]5)C=C4)C=C3)cc1
REMARK SMILES IDX 18 1 17 2 16 3 14 4 15 5 2 7 1 8 3 12 4 13 5 14 6 15 13 16
REMARK SMILES IDX 7 17 11 18 12 19 8 20 10 21 9 22 19 23 20 24 21 25 22 27
REMARK SMILES IDX 23 28 24 29 82 30 25 31 81 32 26 33 27 34 28 35 75 36 29 37
REMARK SMILES IDX 80 38 74 39 76 40 30 41 79 42 73 43 72 44 31 46 61 47 42 48
REMARK SMILES IDX 60 49 43 50 46 51 59 52 77 53 44 54 45 55 58 57 78 58 47 59
REMARK SMILES IDX 32 60 33 61 41 62 34 63 40 64 35 65 36 66 37 67 38 68 39 69
REMARK SMILES IDX 62 70 63 71 71 72 64 73 70 74 65 75 66 76 67 77 68 78 69 79
REMARK SMILES IDX 48 80 49 81 57 82 50 83 56 84 51 85 52 86 53 87 54 88 55 89
REMARK H PARENT 16 6 1 9 1 10 1 11 20 26 76 45 46 56
REMARK Flexibility Score: inf
ROOT
ATOM      1  C   UNL A   1      33.896  34.220  28.400  1.00  0.00     0.042 C 
ENDROOT
BRANCH   1   2
ATOM      2  C   UNL A   1      33.661  34.555  29.856  1.00  0.00     0.118 C 
BRANCH   2   3
ATOM      3  N   UNL A   1      33.185  35.903  30.005  1.00  0.00    -0.351 N 
ATOM      4  C   UNL A   1      33.165  36.671  31.125  1.00  0.00     0.278 C 
ATOM      5  O   UNL A   1      32.906  37.869  30.997  1.00  0.00    -0.268 OA
ATOM      6  H   UNL A   1      32.829  36.324  29.190  1.00  0.00     0.163 HD
BRANCH   4   7
ATOM      7  C   UNL A   1      33.432  36.049  32.505  1.00  0.00     0.271 C 
BRANCH   7   8
ATOM      8  N   UNL A   1      32.438  35.021  32.878  1.00  0.00    -0.347 N 
ATOM      9  H   UNL A   1      31.629  35.088  32.259  1.00  0.00     0.345 HD
ATOM     10  H   UNL A   1      32.139  35.170  33.842  1.00  0.00     0.345 HD
ATOM     11  H   UNL A   1      32.857  34.095  32.791  1.00  0.00     0.345 HD
ENDBRANCH   7   8
BRANCH   7  12
ATOM     12  C   UNL A   1      34.898  35.674  32.810  1.00  0.00     0.080 C 
BRANCH  12  13
ATOM     13  C   UNL A   1      35.330  34.437  33.665  1.00  0.00     0.040 C 
BRANCH  13  14
ATOM     14  C   UNL A   1      36.641  33.719  33.391  1.00  0.00    -0.039 C 
ATOM     15  C   UNL A   1      37.261  33.443  32.224  1.00  0.00     0.001 A 
ATOM     16  C   UNL A   1      37.523  33.347  34.612  1.00  0.00     0.174 C 
ATOM     17  C   UNL A   1      37.174  33.915  30.434  1.00  0.00     0.010 A 
ATOM     18  C   UNL A   1      38.998  33.132  32.962  1.00  0.00     0.065 A 
ATOM     19  N   UNL A   1      38.953  33.004  34.249  1.00  0.00    -0.280 NA
ATOM     20  C   UNL A   1      38.540  34.235  29.579  1.00  0.00     0.001 A 
ATOM     21  C   UNL A   1      40.506  33.437  31.813  1.00  0.00     0.028 A 
ATOM     22  C   UNL A   1      40.283  34.028  30.356  1.00  0.00     0.002 A 
ENDBRANCH  13  14
ENDBRANCH  12  13
ENDBRANCH   7  12
ENDBRANCH   4   7
ENDBRANCH   2   3
ENDBRANCH   1   2
BRANCH   1  23
ATOM     23  C   UNL A   1      34.466  32.572  28.191  1.00  0.00     0.118 C 
BRANCH  23  24
ATOM     24  N   UNL A   1      35.097  31.155  29.595  1.00  0.00    -0.352 N 
ATOM     25  C   UNL A   1      36.270  30.380  30.225  1.00  0.00     0.251 C 
ATOM     26  H   UNL A   1      34.284  30.847  30.059  1.00  0.00     0.163 HD
ATOM     27  O   UNL A   1      35.923  29.577  31.106  1.00  0.00    -0.269 OA
BRANCH  25  28
ATOM     28  C   UNL A   1      37.798  30.346  29.853  1.00  0.00     0.039 A 
ATOM     29  C   UNL A   1      38.297  30.475  28.561  1.00  0.00     0.014 A 
ATOM     30  C   UNL A   1      38.798  30.158  30.824  1.00  0.00     0.014 A 
ATOM     31  C   UNL A   1      39.538  29.953  28.183  1.00  0.00     0.010 A 
ATOM     32  C   UNL A   1      40.162  29.895  30.460  1.00  0.00     0.010 A 
ATOM     33  C   UNL A   1      40.534  29.696  29.118  1.00  0.00    -0.014 A 
BRANCH  33  34
ATOM     34  C   UNL A   1      41.887  29.254  28.604  1.00  0.00     0.031 A 
ATOM     35  C   UNL A   1      43.094  30.162  28.708  1.00  0.00     0.074 A 
ATOM     36  C   UNL A   1      42.090  27.972  28.201  1.00  0.00     0.049 A 
ATOM     37  N   UNL A   1      44.331  29.945  28.330  1.00  0.00    -0.248 NA
ATOM     38  C   UNL A   1      42.894  31.475  29.342  1.00  0.00     0.031 C 
ATOM     39  C   UNL A   1      41.058  26.929  28.164  1.00  0.00     0.029 A 
ATOM     40  N   UNL A   1      43.228  27.295  27.807  1.00  0.00    -0.354 N 
ATOM     41  C   UNL A   1      45.044  31.098  28.648  1.00  0.00     0.074 A 
ATOM     42  C   UNL A   1      44.100  32.019  29.241  1.00  0.00     0.031 C 
ATOM     43  C   UNL A   1      41.618  25.748  27.874  1.00  0.00     0.029 A 
ATOM     44  C   UNL A   1      43.023  25.952  27.547  1.00  0.00     0.049 A 
ATOM     45  H   UNL A   1      44.108  27.729  27.719  1.00  0.00     0.167 HD
ATOM     46  C   UNL A   1      46.361  31.365  28.465  1.00  0.00     0.031 A 
ATOM     47  C   UNL A   1      43.836  24.988  27.062  1.00  0.00     0.031 A 
ATOM     48  C   UNL A   1      47.304  30.431  27.899  1.00  0.00     0.049 A 
ATOM     49  C   UNL A   1      45.262  25.344  26.746  1.00  0.00     0.074 A 
ATOM     50  C   UNL A   1      48.650  30.626  27.636  1.00  0.00     0.029 A 
ATOM     51  N   UNL A   1      47.012  29.127  27.523  1.00  0.00    -0.354 N 
ATOM     52  N   UNL A   1      45.893  26.470  26.982  1.00  0.00    -0.248 NA
ATOM     53  C   UNL A   1      46.085  24.319  26.088  1.00  0.00     0.031 C 
ATOM     54  C   UNL A   1      49.147  29.477  27.021  1.00  0.00     0.029 A 
ATOM     55  C   UNL A   1      48.142  28.523  26.993  1.00  0.00     0.049 A 
ATOM     56  H   UNL A   1      46.133  28.695  27.619  1.00  0.00     0.167 HD
ATOM     57  C   UNL A   1      47.188  26.285  26.517  1.00  0.00     0.074 A 
ATOM     58  C   UNL A   1      47.262  24.929  26.010  1.00  0.00     0.031 C 
ATOM     59  C   UNL A   1      48.217  27.167  26.501  1.00  0.00     0.031 A 
BRANCH  46  60
ATOM     60  C   UNL A   1      46.881  32.737  28.835  1.00  0.00    -0.014 A 
ATOM     61  C   UNL A   1      46.817  33.777  27.888  1.00  0.00     0.010 A 
ATOM     62  C   UNL A   1      47.536  32.974  30.056  1.00  0.00     0.010 A 
ATOM     63  C   UNL A   1      47.431  35.009  28.132  1.00  0.00     0.020 A 
ATOM     64  C   UNL A   1      48.119  34.219  30.322  1.00  0.00     0.020 A 
ATOM     65  C   UNL A   1      48.087  35.218  29.346  1.00  0.00     0.054 A 
BRANCH  65  66
ATOM     66  S   UNL A   1      48.918  36.808  29.625  1.00  0.00     0.124 S 
ATOM     67  O   UNL A   1      50.017  36.431  30.509  1.00  0.00    -0.237 OA
ATOM     68  O   UNL A   1      49.302  37.206  28.272  1.00  0.00    -0.237 OA
ATOM     69  O   UNL A   1      47.880  37.635  30.236  1.00  0.00    -0.744 OA
ENDBRANCH  65  66
ENDBRANCH  46  60
BRANCH  47  70
ATOM     70  C   UNL A   1      43.298  23.611  26.810  1.00  0.00    -0.014 A 
ATOM     71  C   UNL A   1      42.989  22.759  27.891  1.00  0.00     0.010 A 
ATOM     72  C   UNL A   1      43.153  23.110  25.504  1.00  0.00     0.010 A 
ATOM     73  C   UNL A   1      42.643  21.422  27.680  1.00  0.00     0.020 A 
ATOM     74  C   UNL A   1      42.762  21.781  25.284  1.00  0.00     0.020 A 
ATOM     75  C   UNL A   1      42.549  20.936  26.375  1.00  0.00     0.054 A 
BRANCH  75  76
ATOM     76  S   UNL A   1      42.181  19.175  26.132  1.00  0.00     0.124 S 
ATOM     77  O   UNL A   1      40.746  19.204  25.861  1.00  0.00    -0.237 OA
ATOM     78  O   UNL A   1      43.029  18.827  24.995  1.00  0.00    -0.237 OA
ATOM     79  O   UNL A   1      42.564  18.565  27.403  1.00  0.00    -0.744 OA
ENDBRANCH  75  76
ENDBRANCH  47  70
BRANCH  59  80
ATOM     80  C   UNL A   1      49.537  26.720  25.927  1.00  0.00    -0.014 A 
ATOM     81  C   UNL A   1      50.513  26.163  26.776  1.00  0.00     0.010 A 
ATOM     82  C   UNL A   1      49.875  26.997  24.590  1.00  0.00     0.010 A 
ATOM     83  C   UNL A   1      51.815  25.950  26.320  1.00  0.00     0.020 A 
ATOM     84  C   UNL A   1      51.166  26.748  24.118  1.00  0.00     0.020 A 
ATOM     85  C   UNL A   1      52.136  26.259  24.996  1.00  0.00     0.054 A 
BRANCH  85  86
ATOM     86  S   UNL A   1      53.851  26.046  24.446  1.00  0.00     0.124 S 
ATOM     87  O   UNL A   1      54.545  27.093  25.190  1.00  0.00    -0.237 OA
ATOM     88  O   UNL A   1      54.150  24.676  24.856  1.00  0.00    -0.237 OA
ATOM     89  O   UNL A   1      53.778  26.253  23.001  1.00  0.00    -0.744 OA
ENDBRANCH  85  86
ENDBRANCH  59  80
ENDBRANCH  33  34
ENDBRANCH  25  28
ENDBRANCH  23  24
ENDBRANCH   1  23
TORSDOF 17
ENDMDL
