MODEL 1
REMARK VINA RESULT:     -14.5      0.000      0.000
REMARK SMILES COc1ccc(-c2[nH]nc3nc(-c4ccc(C(F)(F)F)cc4)cc(C(=O)NCCCNC(=O)c4ccc(-c5c6nc(c(-c7ccc(S(=O)(=O)[O-])cc7)c7ccc([nH]7)c(-c7ccc(S(=O)(=O)[O-])cc7)c7nc(c(-c8ccc(S(=O)(=O)[O-])cc8)c8ccc5[nH]8)C=C7)C=C6)cc4)c23)cc1
REMARK SMILES IDX 29 1 28 2 27 3 25 4 26 5 24 7 7 8 8 9 94 10 9 11 10 13 11 14
REMARK SMILES IDX 23 15 12 16 6 17 3 18 4 19 96 20 5 21 95 22 2 23 1 24 13 25
REMARK SMILES IDX 14 26 22 27 15 28 21 29 16 30 17 31 18 32 19 33 20 34 30 35
REMARK SMILES IDX 31 36 32 37 33 39 34 40 35 41 93 42 36 43 92 44 37 45 38 46
REMARK SMILES IDX 39 47 86 48 40 49 91 50 85 51 87 52 41 53 90 54 84 55 83 56
REMARK SMILES IDX 42 58 72 59 53 60 71 61 54 62 57 63 70 64 88 65 55 66 56 67
REMARK SMILES IDX 69 69 89 70 58 71 43 72 44 73 52 74 45 75 51 76 46 77 47 78
REMARK SMILES IDX 48 79 49 80 50 81 73 82 74 83 82 84 75 85 81 86 76 87 77 88
REMARK SMILES IDX 78 89 79 90 80 91 59 92 60 93 68 94 61 95 67 96 62 97 63 98
REMARK SMILES IDX 64 99 65 100 66 101
REMARK H PARENT 27 6 8 12 31 38 87 57 57 68
REMARK Flexibility Score: inf
ROOT
ATOM      1  C   UNL A   1      36.719  21.899  24.470  1.00  0.00     0.042 C 
ENDROOT
BRANCH   1   2
ATOM      2  C   UNL A   1      35.363  22.553  24.765  1.00  0.00     0.118 C 
BRANCH   2   3
ATOM      3  N   UNL A   1      34.911  23.415  23.686  1.00  0.00    -0.352 N 
ATOM      4  C   UNL A   1      34.170  24.570  23.618  1.00  0.00     0.252 C 
ATOM      5  O   UNL A   1      34.252  25.152  22.544  1.00  0.00    -0.269 OA
ATOM      6  H   UNL A   1      35.203  23.098  22.801  1.00  0.00     0.163 HD
BRANCH   4   7
ATOM      7  C   UNL A   1      33.398  25.138  24.751  1.00  0.00     0.055 A 
ATOM      8  C   UNL A   1      31.510  23.481  25.097  1.00  0.00     0.075 A 
ATOM      9  N   UNL A   1      30.356  23.599  25.835  1.00  0.00    -0.275 N 
ATOM     10  C   UNL A   1      32.173  24.683  25.276  1.00  0.00     0.059 A 
ATOM     11  N   UNL A   1      30.229  24.751  26.513  1.00  0.00    -0.154 NA
ATOM     12  H   UNL A   1      29.672  22.891  25.863  1.00  0.00     0.190 HD
ATOM     13  C   UNL A   1      31.349  25.410  26.216  1.00  0.00     0.182 A 
ATOM     14  N   UNL A   1      31.692  26.630  26.710  1.00  0.00    -0.226 NA
ATOM     15  C   UNL A   1      33.763  26.311  25.415  1.00  0.00     0.043 A 
ATOM     16  C   UNL A   1      32.913  27.034  26.284  1.00  0.00     0.074 A 
BRANCH   8  17
ATOM     17  C   UNL A   1      31.830  22.226  24.430  1.00  0.00     0.001 A 
ATOM     18  C   UNL A   1      32.223  19.764  23.140  1.00  0.00     0.118 A 
ATOM     19  C   UNL A   1      32.316  19.861  24.530  1.00  0.00     0.047 A 
ATOM     20  C   UNL A   1      31.964  20.909  22.389  1.00  0.00     0.047 A 
ATOM     21  C   UNL A   1      32.134  21.085  25.176  1.00  0.00     0.014 A 
ATOM     22  C   UNL A   1      31.777  22.138  23.031  1.00  0.00     0.014 A 
BRANCH  18  23
ATOM     23  O   UNL A   1      32.355  18.495  22.653  1.00  0.00    -0.497 OA
ATOM     24  C   UNL A   1      33.337  17.673  23.276  1.00  0.00     0.278 C 
ENDBRANCH  18  23
ENDBRANCH   8  17
BRANCH  16  25
ATOM     25  C   UNL A   1      33.354  28.383  26.675  1.00  0.00     0.000 A 
ATOM     26  C   UNL A   1      32.451  29.434  26.862  1.00  0.00     0.011 A 
ATOM     27  C   UNL A   1      34.712  28.607  26.981  1.00  0.00     0.011 A 
ATOM     28  C   UNL A   1      32.887  30.662  27.374  1.00  0.00     0.014 A 
ATOM     29  C   UNL A   1      35.148  29.829  27.492  1.00  0.00     0.014 A 
ATOM     30  C   UNL A   1      34.237  30.870  27.702  1.00  0.00     0.056 A 
BRANCH  30  31
ATOM     31  C   UNL A   1      34.692  32.192  28.271  1.00  0.00     0.416 C 
ATOM     32  F   UNL A   1      34.073  32.496  29.446  1.00  0.00    -0.166 F 
ATOM     33  F   UNL A   1      36.028  32.218  28.533  1.00  0.00    -0.166 F 
ATOM     34  F   UNL A   1      34.456  33.250  27.444  1.00  0.00    -0.166 F 
ENDBRANCH  30  31
ENDBRANCH  16  25
ENDBRANCH   4   7
ENDBRANCH   2   3
ENDBRANCH   1   2
BRANCH   1  35
ATOM     35  C   UNL A   1      37.845  22.600  25.207  1.00  0.00     0.118 C 
BRANCH  35  36
ATOM     36  N   UNL A   1      38.586  21.680  26.077  1.00  0.00    -0.352 N 
ATOM     37  C   UNL A   1      39.689  21.930  26.875  1.00  0.00     0.251 C 
ATOM     38  H   UNL A   1      38.250  20.755  26.096  1.00  0.00     0.163 HD
ATOM     39  O   UNL A   1      40.377  21.013  27.285  1.00  0.00    -0.269 OA
BRANCH  37  40
ATOM     40  C   UNL A   1      40.005  23.328  27.212  1.00  0.00     0.039 A 
ATOM     41  C   UNL A   1      39.031  24.331  27.188  1.00  0.00     0.014 A 
ATOM     42  C   UNL A   1      41.308  23.611  27.603  1.00  0.00     0.014 A 
ATOM     43  C   UNL A   1      39.376  25.602  27.643  1.00  0.00     0.010 A 
ATOM     44  C   UNL A   1      41.582  24.783  28.245  1.00  0.00     0.010 A 
ATOM     45  C   UNL A   1      40.651  25.809  28.189  1.00  0.00    -0.014 A 
BRANCH  45  46
ATOM     46  C   UNL A   1      41.030  27.067  28.812  1.00  0.00     0.031 A 
ATOM     47  C   UNL A   1      42.172  27.749  28.156  1.00  0.00     0.074 A 
ATOM     48  C   UNL A   1      40.258  27.670  29.742  1.00  0.00     0.049 A 
ATOM     49  N   UNL A   1      43.368  27.872  28.622  1.00  0.00    -0.248 NA
ATOM     50  C   UNL A   1      42.027  28.196  26.760  1.00  0.00     0.031 C 
ATOM     51  C   UNL A   1      38.945  27.248  30.251  1.00  0.00     0.029 A 
ATOM     52  N   UNL A   1      40.425  28.878  30.338  1.00  0.00    -0.354 N 
ATOM     53  C   UNL A   1      44.063  28.627  27.687  1.00  0.00     0.074 A 
ATOM     54  C   UNL A   1      43.267  28.608  26.485  1.00  0.00     0.031 C 
ATOM     55  C   UNL A   1      38.340  28.289  30.865  1.00  0.00     0.029 A 
ATOM     56  C   UNL A   1      39.280  29.392  30.943  1.00  0.00     0.049 A 
ATOM     57  H   UNL A   1      41.286  29.354  30.343  1.00  0.00     0.167 HD
ATOM     58  C   UNL A   1      45.104  29.423  28.058  1.00  0.00     0.031 A 
ATOM     59  C   UNL A   1      39.111  30.649  31.431  1.00  0.00     0.031 A 
ATOM     60  C   UNL A   1      45.494  29.174  29.425  1.00  0.00     0.049 A 
ATOM     61  C   UNL A   1      40.467  31.203  31.670  1.00  0.00     0.074 A 
ATOM     62  C   UNL A   1      45.945  28.067  30.117  1.00  0.00     0.029 A 
ATOM     63  N   UNL A   1      45.010  30.048  30.373  1.00  0.00    -0.354 N 
ATOM     64  N   UNL A   1      41.273  30.721  32.572  1.00  0.00    -0.248 NA
ATOM     65  C   UNL A   1      41.109  31.941  30.592  1.00  0.00     0.031 C 
ATOM     66  C   UNL A   1      45.274  28.123  31.373  1.00  0.00     0.029 A 
ATOM     67  C   UNL A   1      44.528  29.303  31.420  1.00  0.00     0.049 A 
ATOM     68  H   UNL A   1      45.009  31.031  30.311  1.00  0.00     0.167 HD
ATOM     69  C   UNL A   1      42.510  30.674  31.946  1.00  0.00     0.074 A 
ATOM     70  C   UNL A   1      42.373  31.539  30.774  1.00  0.00     0.031 C 
ATOM     71  C   UNL A   1      43.424  29.709  32.267  1.00  0.00     0.031 A 
BRANCH  58  72
ATOM     72  C   UNL A   1      45.501  30.688  27.345  1.00  0.00    -0.014 A 
ATOM     73  C   UNL A   1      46.867  30.921  27.091  1.00  0.00     0.010 A 
ATOM     74  C   UNL A   1      44.618  31.770  27.153  1.00  0.00     0.010 A 
ATOM     75  C   UNL A   1      47.331  32.188  26.719  1.00  0.00     0.020 A 
ATOM     76  C   UNL A   1      45.065  33.027  26.742  1.00  0.00     0.020 A 
ATOM     77  C   UNL A   1      46.424  33.236  26.557  1.00  0.00     0.054 A 
BRANCH  77  78
ATOM     78  S   UNL A   1      47.045  34.888  26.160  1.00  0.00     0.124 S 
ATOM     79  O   UNL A   1      47.805  34.639  24.939  1.00  0.00    -0.237 OA
ATOM     80  O   UNL A   1      45.810  35.649  25.996  1.00  0.00    -0.237 OA
ATOM     81  O   UNL A   1      47.841  35.244  27.333  1.00  0.00    -0.744 OA
ENDBRANCH  77  78
ENDBRANCH  58  72
BRANCH  59  82
ATOM     82  C   UNL A   1      37.892  31.497  31.374  1.00  0.00    -0.014 A 
ATOM     83  C   UNL A   1      36.664  31.061  31.913  1.00  0.00     0.010 A 
ATOM     84  C   UNL A   1      38.015  32.863  31.062  1.00  0.00     0.010 A 
ATOM     85  C   UNL A   1      35.630  31.974  32.202  1.00  0.00     0.020 A 
ATOM     86  C   UNL A   1      36.995  33.770  31.350  1.00  0.00     0.020 A 
ATOM     87  C   UNL A   1      35.816  33.333  31.942  1.00  0.00     0.054 A 
BRANCH  87  88
ATOM     88  S   UNL A   1      34.589  34.554  32.500  1.00  0.00     0.124 S 
ATOM     89  O   UNL A   1      33.609  33.723  33.189  1.00  0.00    -0.237 OA
ATOM     90  O   UNL A   1      35.383  35.438  33.348  1.00  0.00    -0.237 OA
ATOM     91  O   UNL A   1      34.119  35.157  31.251  1.00  0.00    -0.744 OA
ENDBRANCH  87  88
ENDBRANCH  59  82
BRANCH  71  92
ATOM     92  C   UNL A   1      43.155  28.850  33.487  1.00  0.00    -0.014 A 
ATOM     93  C   UNL A   1      43.739  29.066  34.752  1.00  0.00     0.010 A 
ATOM     94  C   UNL A   1      42.169  27.857  33.373  1.00  0.00     0.010 A 
ATOM     95  C   UNL A   1      43.381  28.277  35.856  1.00  0.00     0.020 A 
ATOM     96  C   UNL A   1      41.792  27.082  34.472  1.00  0.00     0.020 A 
ATOM     97  C   UNL A   1      42.412  27.282  35.705  1.00  0.00     0.054 A 
BRANCH  97  98
ATOM     98  S   UNL A   1      41.950  26.258  37.130  1.00  0.00     0.124 S 
ATOM     99  O   UNL A   1      43.007  26.556  38.091  1.00  0.00    -0.237 OA
ATOM    100  O   UNL A   1      40.623  26.762  37.477  1.00  0.00    -0.237 OA
ATOM    101  O   UNL A   1      41.965  24.896  36.599  1.00  0.00    -0.744 OA
ENDBRANCH  97  98
ENDBRANCH  71  92
ENDBRANCH  45  46
ENDBRANCH  37  40
ENDBRANCH  35  36
ENDBRANCH   1  35
TORSDOF 17
ENDMDL
MODEL 2
REMARK VINA RESULT:     -14.4      3.568      9.511
REMARK SMILES COc1ccc(-c2[nH]nc3nc(-c4ccc(C(F)(F)F)cc4)cc(C(=O)NCCCNC(=O)c4ccc(-c5c6nc(c(-c7ccc(S(=O)(=O)[O-])cc7)c7ccc([nH]7)c(-c7ccc(S(=O)(=O)[O-])cc7)c7nc(c(-c8ccc(S(=O)(=O)[O-])cc8)c8ccc5[nH]8)C=C7)C=C6)cc4)c23)cc1
REMARK SMILES IDX 29 1 28 2 27 3 25 4 26 5 24 7 7 8 8 9 94 10 9 11 10 13 11 14
REMARK SMILES IDX 23 15 12 16 6 17 3 18 4 19 96 20 5 21 95 22 2 23 1 24 13 25
REMARK SMILES IDX 14 26 22 27 15 28 21 29 16 30 17 31 18 32 19 33 20 34 30 35
REMARK SMILES IDX 31 36 32 37 33 39 34 40 35 41 93 42 36 43 92 44 37 45 38 46
REMARK SMILES IDX 39 47 86 48 40 49 91 50 85 51 87 52 41 53 90 54 84 55 83 56
REMARK SMILES IDX 42 58 72 59 53 60 71 61 54 62 57 63 70 64 88 65 55 66 56 67
REMARK SMILES IDX 69 69 89 70 58 71 43 72 44 73 52 74 45 75 51 76 46 77 47 78
REMARK SMILES IDX 48 79 49 80 50 81 73 82 74 83 82 84 75 85 81 86 76 87 77 88
REMARK SMILES IDX 78 89 79 90 80 91 59 92 60 93 68 94 61 95 67 96 62 97 63 98
REMARK SMILES IDX 64 99 65 100 66 101
REMARK H PARENT 27 6 8 12 31 38 87 57 57 68
REMARK Flexibility Score: inf
ROOT
ATOM      1  C   UNL A   1      32.055  29.306  26.906  1.00  0.00     0.042 C 
ENDROOT
BRANCH   1   2
ATOM      2  C   UNL A   1      32.284  28.205  25.863  1.00  0.00     0.118 C 
BRANCH   2   3
ATOM      3  N   UNL A   1      31.695  26.935  26.252  1.00  0.00    -0.352 N 
ATOM      4  C   UNL A   1      31.984  25.617  25.994  1.00  0.00     0.252 C 
ATOM      5  O   UNL A   1      31.425  24.827  26.745  1.00  0.00    -0.269 OA
ATOM      6  H   UNL A   1      30.909  27.044  26.834  1.00  0.00     0.163 HD
BRANCH   4   7
ATOM      7  C   UNL A   1      32.948  25.156  24.965  1.00  0.00     0.055 A 
ATOM      8  C   UNL A   1      31.765  25.612  22.769  1.00  0.00     0.075 A 
ATOM      9  N   UNL A   1      32.061  25.177  21.499  1.00  0.00    -0.275 N 
ATOM     10  C   UNL A   1      32.750  25.065  23.574  1.00  0.00     0.059 A 
ATOM     11  N   UNL A   1      33.174  24.432  21.398  1.00  0.00    -0.154 NA
ATOM     12  H   UNL A   1      31.499  25.395  20.721  1.00  0.00     0.190 HD
ATOM     13  C   UNL A   1      33.631  24.386  22.650  1.00  0.00     0.182 A 
ATOM     14  N   UNL A   1      34.777  23.767  23.041  1.00  0.00    -0.226 NA
ATOM     15  C   UNL A   1      34.210  24.642  25.273  1.00  0.00     0.043 A 
ATOM     16  C   UNL A   1      35.025  23.930  24.362  1.00  0.00     0.074 A 
BRANCH   8  17
ATOM     17  C   UNL A   1      30.664  26.540  22.989  1.00  0.00     0.001 A 
ATOM     18  C   UNL A   1      28.449  28.249  23.220  1.00  0.00     0.118 A 
ATOM     19  C   UNL A   1      29.631  28.695  22.623  1.00  0.00     0.047 A 
ATOM     20  C   UNL A   1      28.385  26.955  23.732  1.00  0.00     0.047 A 
ATOM     21  C   UNL A   1      30.739  27.853  22.517  1.00  0.00     0.014 A 
ATOM     22  C   UNL A   1      29.492  26.106  23.625  1.00  0.00     0.014 A 
BRANCH  18  23
ATOM     23  O   UNL A   1      27.427  29.156  23.193  1.00  0.00    -0.497 OA
ATOM     24  C   UNL A   1      27.757  30.475  22.770  1.00  0.00     0.278 C 
ENDBRANCH  18  23
ENDBRANCH   8  17
BRANCH  16  25
ATOM     25  C   UNL A   1      36.189  23.225  24.924  1.00  0.00     0.000 A 
ATOM     26  C   UNL A   1      36.546  21.937  24.512  1.00  0.00     0.011 A 
ATOM     27  C   UNL A   1      37.042  23.899  25.822  1.00  0.00     0.011 A 
ATOM     28  C   UNL A   1      37.738  21.353  24.959  1.00  0.00     0.014 A 
ATOM     29  C   UNL A   1      38.231  23.320  26.267  1.00  0.00     0.014 A 
ATOM     30  C   UNL A   1      38.597  22.042  25.833  1.00  0.00     0.056 A 
BRANCH  30  31
ATOM     31  C   UNL A   1      39.888  21.410  26.292  1.00  0.00     0.416 C 
ATOM     32  F   UNL A   1      40.230  21.779  27.557  1.00  0.00    -0.166 F 
ATOM     33  F   UNL A   1      39.831  20.049  26.300  1.00  0.00    -0.166 F 
ATOM     34  F   UNL A   1      40.959  21.731  25.511  1.00  0.00    -0.166 F 
ENDBRANCH  30  31
ENDBRANCH  16  25
ENDBRANCH   4   7
ENDBRANCH   2   3
ENDBRANCH   1   2
BRANCH   1  35
ATOM     35  C   UNL A   1      33.359  29.732  27.556  1.00  0.00     0.118 C 
BRANCH  35  36
ATOM     36  N   UNL A   1      33.675  31.137  27.280  1.00  0.00    -0.352 N 
ATOM     37  C   UNL A   1      34.777  31.878  27.672  1.00  0.00     0.251 C 
ATOM     38  H   UNL A   1      33.011  31.621  26.737  1.00  0.00     0.163 HD
ATOM     39  O   UNL A   1      34.748  33.095  27.638  1.00  0.00    -0.269 OA
BRANCH  37  40
ATOM     40  C   UNL A   1      35.977  31.158  28.128  1.00  0.00     0.039 A 
ATOM     41  C   UNL A   1      36.257  29.853  27.712  1.00  0.00     0.014 A 
ATOM     42  C   UNL A   1      36.856  31.844  28.958  1.00  0.00     0.014 A 
ATOM     43  C   UNL A   1      37.473  29.284  28.082  1.00  0.00     0.010 A 
ATOM     44  C   UNL A   1      38.124  31.374  29.134  1.00  0.00     0.010 A 
ATOM     45  C   UNL A   1      38.409  30.065  28.777  1.00  0.00    -0.014 A 
BRANCH  45  46
ATOM     46  C   UNL A   1      39.751  29.588  29.069  1.00  0.00     0.031 A 
ATOM     47  C   UNL A   1      40.027  29.402  30.515  1.00  0.00     0.074 A 
ATOM     48  C   UNL A   1      40.574  29.123  28.105  1.00  0.00     0.049 A 
ATOM     49  N   UNL A   1      40.795  30.129  31.252  1.00  0.00    -0.248 NA
ATOM     50  C   UNL A   1      39.239  28.412  31.269  1.00  0.00     0.031 C 
ATOM     51  C   UNL A   1      40.301  28.965  26.669  1.00  0.00     0.029 A 
ATOM     52  N   UNL A   1      41.803  28.560  28.229  1.00  0.00    -0.354 N 
ATOM     53  C   UNL A   1      40.781  29.541  32.510  1.00  0.00     0.074 A 
ATOM     54  C   UNL A   1      39.657  28.638  32.517  1.00  0.00     0.031 C 
ATOM     55  C   UNL A   1      41.212  28.130  26.123  1.00  0.00     0.029 A 
ATOM     56  C   UNL A   1      42.225  27.833  27.119  1.00  0.00     0.049 A 
ATOM     57  H   UNL A   1      42.353  28.658  29.040  1.00  0.00     0.167 HD
ATOM     58  C   UNL A   1      41.849  29.647  33.349  1.00  0.00     0.031 A 
ATOM     59  C   UNL A   1      43.306  27.013  27.045  1.00  0.00     0.031 A 
ATOM     60  C   UNL A   1      42.809  30.605  32.857  1.00  0.00     0.049 A 
ATOM     61  C   UNL A   1      44.221  27.407  28.145  1.00  0.00     0.074 A 
ATOM     62  C   UNL A   1      42.765  31.953  32.559  1.00  0.00     0.029 A 
ATOM     63  N   UNL A   1      43.898  30.098  32.184  1.00  0.00    -0.354 N 
ATOM     64  N   UNL A   1      44.821  28.563  28.178  1.00  0.00    -0.248 NA
ATOM     65  C   UNL A   1      44.077  26.745  29.433  1.00  0.00     0.031 C 
ATOM     66  C   UNL A   1      43.520  32.084  31.357  1.00  0.00     0.029 A 
ATOM     67  C   UNL A   1      44.063  30.838  31.039  1.00  0.00     0.049 A 
ATOM     68  H   UNL A   1      44.458  29.340  32.471  1.00  0.00     0.167 HD
ATOM     69  C   UNL A   1      44.698  28.983  29.495  1.00  0.00     0.074 A 
ATOM     70  C   UNL A   1      44.334  27.779  30.242  1.00  0.00     0.031 C 
ATOM     71  C   UNL A   1      44.607  30.312  29.803  1.00  0.00     0.031 A 
BRANCH  58  72
ATOM     72  C   UNL A   1      42.224  28.615  34.379  1.00  0.00    -0.014 A 
ATOM     73  C   UNL A   1      42.453  29.035  35.704  1.00  0.00     0.010 A 
ATOM     74  C   UNL A   1      42.615  27.303  34.044  1.00  0.00     0.010 A 
ATOM     75  C   UNL A   1      43.093  28.203  36.630  1.00  0.00     0.020 A 
ATOM     76  C   UNL A   1      43.216  26.450  34.971  1.00  0.00     0.020 A 
ATOM     77  C   UNL A   1      43.479  26.917  36.251  1.00  0.00     0.054 A 
BRANCH  77  78
ATOM     78  S   UNL A   1      44.381  25.883  37.430  1.00  0.00     0.124 S 
ATOM     79  O   UNL A   1      45.764  26.276  37.177  1.00  0.00    -0.237 OA
ATOM     80  O   UNL A   1      43.822  26.314  38.708  1.00  0.00    -0.237 OA
ATOM     81  O   UNL A   1      44.032  24.522  37.028  1.00  0.00    -0.744 OA
ENDBRANCH  77  78
ENDBRANCH  58  72
BRANCH  59  82
ATOM     82  C   UNL A   1      43.429  25.722  26.319  1.00  0.00    -0.014 A 
ATOM     83  C   UNL A   1      44.389  25.533  25.305  1.00  0.00     0.010 A 
ATOM     84  C   UNL A   1      42.800  24.576  26.839  1.00  0.00     0.010 A 
ATOM     85  C   UNL A   1      44.764  24.240  24.886  1.00  0.00     0.020 A 
ATOM     86  C   UNL A   1      43.171  23.294  26.430  1.00  0.00     0.020 A 
ATOM     87  C   UNL A   1      44.167  23.125  25.475  1.00  0.00     0.054 A 
BRANCH  87  88
ATOM     88  S   UNL A   1      44.781  21.452  25.109  1.00  0.00     0.124 S 
ATOM     89  O   UNL A   1      46.148  21.501  25.614  1.00  0.00    -0.237 OA
ATOM     90  O   UNL A   1      43.856  20.604  25.856  1.00  0.00    -0.237 OA
ATOM     91  O   UNL A   1      44.662  21.358  23.653  1.00  0.00    -0.744 OA
ENDBRANCH  87  88
ENDBRANCH  59  82
BRANCH  71  92
ATOM     92  C   UNL A   1      44.890  31.319  28.706  1.00  0.00    -0.014 A 
ATOM     93  C   UNL A   1      43.894  31.920  27.907  1.00  0.00     0.010 A 
ATOM     94  C   UNL A   1      46.213  31.768  28.566  1.00  0.00     0.010 A 
ATOM     95  C   UNL A   1      44.224  32.905  26.964  1.00  0.00     0.020 A 
ATOM     96  C   UNL A   1      46.546  32.763  27.644  1.00  0.00     0.020 A 
ATOM     97  C   UNL A   1      45.554  33.314  26.833  1.00  0.00     0.054 A 
BRANCH  97  98
ATOM     98  S   UNL A   1      45.984  34.585  25.611  1.00  0.00     0.124 S 
ATOM     99  O   UNL A   1      45.153  34.221  24.468  1.00  0.00    -0.237 OA
ATOM    100  O   UNL A   1      45.615  35.827  26.287  1.00  0.00    -0.237 OA
ATOM    101  O   UNL A   1      47.421  34.403  25.412  1.00  0.00    -0.744 OA
ENDBRANCH  97  98
ENDBRANCH  71  92
ENDBRANCH  45  46
ENDBRANCH  37  40
ENDBRANCH  35  36
ENDBRANCH   1  35
TORSDOF 17
ENDMDL
MODEL 3
REMARK VINA RESULT:     -13.9      4.019      8.118
REMARK SMILES COc1ccc(-c2[nH]nc3nc(-c4ccc(C(F)(F)F)cc4)cc(C(=O)NCCCNC(=O)c4ccc(-c5c6nc(c(-c7ccc(S(=O)(=O)[O-])cc7)c7ccc([nH]7)c(-c7ccc(S(=O)(=O)[O-])cc7)c7nc(c(-c8ccc(S(=O)(=O)[O-])cc8)c8ccc5[nH]8)C=C7)C=C6)cc4)c23)cc1
REMARK SMILES IDX 29 1 28 2 27 3 25 4 26 5 24 7 7 8 8 9 94 10 9 11 10 13 11 14
REMARK SMILES IDX 23 15 12 16 6 17 3 18 4 19 96 20 5 21 95 22 2 23 1 24 13 25
REMARK SMILES IDX 14 26 22 27 15 28 21 29 16 30 17 31 18 32 19 33 20 34 30 35
REMARK SMILES IDX 31 36 32 37 33 39 34 40 35 41 93 42 36 43 92 44 37 45 38 46
REMARK SMILES IDX 39 47 86 48 40 49 91 50 85 51 87 52 41 53 90 54 84 55 83 56
REMARK SMILES IDX 42 58 72 59 53 60 71 61 54 62 57 63 70 64 88 65 55 66 56 67
REMARK SMILES IDX 69 69 89 70 58 71 43 72 44 73 52 74 45 75 51 76 46 77 47 78
REMARK SMILES IDX 48 79 49 80 50 81 73 82 74 83 82 84 75 85 81 86 76 87 77 88
REMARK SMILES IDX 78 89 79 90 80 91 59 92 60 93 68 94 61 95 67 96 62 97 63 98
REMARK SMILES IDX 64 99 65 100 66 101
REMARK H PARENT 27 6 8 12 31 38 87 57 57 68
REMARK Flexibility Score: inf
ROOT
ATOM      1  C   UNL A   1      31.747  29.720  26.116  1.00  0.00     0.042 C 
ENDROOT
BRANCH   1   2
ATOM      2  C   UNL A   1      32.516  28.461  25.695  1.00  0.00     0.118 C 
BRANCH   2   3
ATOM      3  N   UNL A   1      31.878  27.237  26.148  1.00  0.00    -0.352 N 
ATOM      4  C   UNL A   1      32.106  25.897  25.947  1.00  0.00     0.252 C 
ATOM      5  O   UNL A   1      31.524  25.168  26.739  1.00  0.00    -0.269 OA
ATOM      6  H   UNL A   1      31.106  27.407  26.734  1.00  0.00     0.163 HD
BRANCH   4   7
ATOM      7  C   UNL A   1      33.034  25.349  24.927  1.00  0.00     0.055 A 
ATOM      8  C   UNL A   1      31.815  25.708  22.732  1.00  0.00     0.075 A 
ATOM      9  N   UNL A   1      32.071  25.189  21.485  1.00  0.00    -0.275 N 
ATOM     10  C   UNL A   1      32.802  25.181  23.548  1.00  0.00     0.059 A 
ATOM     11  N   UNL A   1      33.160  24.408  21.406  1.00  0.00    -0.154 NA
ATOM     12  H   UNL A   1      31.497  25.376  20.707  1.00  0.00     0.190 HD
ATOM     13  C   UNL A   1      33.644  24.424  22.649  1.00  0.00     0.182 A 
ATOM     14  N   UNL A   1      34.781  23.796  23.052  1.00  0.00    -0.226 NA
ATOM     15  C   UNL A   1      34.288  24.818  25.239  1.00  0.00     0.043 A 
ATOM     16  C   UNL A   1      35.063  24.030  24.356  1.00  0.00     0.074 A 
BRANCH   8  17
ATOM     17  C   UNL A   1      30.745  26.678  22.919  1.00  0.00     0.001 A 
ATOM     18  C   UNL A   1      28.586  28.464  23.090  1.00  0.00     0.118 A 
ATOM     19  C   UNL A   1      29.776  28.846  22.466  1.00  0.00     0.047 A 
ATOM     20  C   UNL A   1      28.486  27.196  23.660  1.00  0.00     0.047 A 
ATOM     21  C   UNL A   1      30.857  27.966  22.390  1.00  0.00     0.014 A 
ATOM     22  C   UNL A   1      29.566  26.309  23.582  1.00  0.00     0.014 A 
BRANCH  18  23
ATOM     23  O   UNL A   1      27.592  29.400  23.031  1.00  0.00    -0.497 OA
ATOM     24  C   UNL A   1      27.969  30.747  23.295  1.00  0.00     0.278 C 
ENDBRANCH  18  23
ENDBRANCH   8  17
BRANCH  16  25
ATOM     25  C   UNL A   1      36.219  23.326  24.935  1.00  0.00     0.000 A 
ATOM     26  C   UNL A   1      36.533  22.008  24.592  1.00  0.00     0.011 A 
ATOM     27  C   UNL A   1      37.107  24.026  25.776  1.00  0.00     0.011 A 
ATOM     28  C   UNL A   1      37.719  21.418  25.048  1.00  0.00     0.014 A 
ATOM     29  C   UNL A   1      38.289  23.442  26.231  1.00  0.00     0.014 A 
ATOM     30  C   UNL A   1      38.613  22.131  25.864  1.00  0.00     0.056 A 
BRANCH  30  31
ATOM     31  C   UNL A   1      39.897  21.491  26.334  1.00  0.00     0.416 C 
ATOM     32  F   UNL A   1      39.906  20.142  26.148  1.00  0.00    -0.166 F 
ATOM     33  F   UNL A   1      40.990  21.969  25.677  1.00  0.00    -0.166 F 
ATOM     34  F   UNL A   1      40.148  21.684  27.660  1.00  0.00    -0.166 F 
ENDBRANCH  30  31
ENDBRANCH  16  25
ENDBRANCH   4   7
ENDBRANCH   2   3
ENDBRANCH   1   2
BRANCH   1  35
ATOM     35  C   UNL A   1      32.549  30.557  27.095  1.00  0.00     0.118 C 
BRANCH  35  36
ATOM     36  N   UNL A   1      32.201  31.980  27.011  1.00  0.00    -0.352 N 
ATOM     37  C   UNL A   1      32.747  33.054  27.692  1.00  0.00     0.251 C 
ATOM     38  H   UNL A   1      31.477  32.201  26.381  1.00  0.00     0.163 HD
ATOM     39  O   UNL A   1      32.151  34.115  27.755  1.00  0.00    -0.269 OA
BRANCH  37  40
ATOM     40  C   UNL A   1      34.061  32.880  28.333  1.00  0.00     0.039 A 
ATOM     41  C   UNL A   1      34.226  32.091  29.475  1.00  0.00     0.014 A 
ATOM     42  C   UNL A   1      35.151  33.497  27.731  1.00  0.00     0.014 A 
ATOM     43  C   UNL A   1      35.517  31.870  29.949  1.00  0.00     0.010 A 
ATOM     44  C   UNL A   1      36.416  33.107  28.061  1.00  0.00     0.010 A 
ATOM     45  C   UNL A   1      36.607  32.368  29.219  1.00  0.00    -0.014 A 
BRANCH  45  46
ATOM     46  C   UNL A   1      37.982  32.056  29.572  1.00  0.00     0.031 A 
ATOM     47  C   UNL A   1      38.387  30.664  29.258  1.00  0.00     0.074 A 
ATOM     48  C   UNL A   1      38.871  33.012  29.919  1.00  0.00     0.049 A 
ATOM     49  N   UNL A   1      38.607  29.716  30.104  1.00  0.00    -0.248 NA
ATOM     50  C   UNL A   1      38.383  30.220  27.854  1.00  0.00     0.031 C 
ATOM     51  C   UNL A   1      38.673  34.468  29.966  1.00  0.00     0.029 A 
ATOM     52  N   UNL A   1      40.197  32.892  30.178  1.00  0.00    -0.354 N 
ATOM     53  C   UNL A   1      39.011  28.621  29.351  1.00  0.00     0.074 A 
ATOM     54  C   UNL A   1      38.646  28.918  27.988  1.00  0.00     0.031 C 
ATOM     55  C   UNL A   1      39.873  35.089  29.982  1.00  0.00     0.029 A 
ATOM     56  C   UNL A   1      40.912  34.085  30.119  1.00  0.00     0.049 A 
ATOM     57  H   UNL A   1      40.622  32.029  30.392  1.00  0.00     0.167 HD
ATOM     58  C   UNL A   1      39.846  27.679  29.869  1.00  0.00     0.031 A 
ATOM     59  C   UNL A   1      42.264  34.227  30.138  1.00  0.00     0.031 A 
ATOM     60  C   UNL A   1      40.021  27.857  31.290  1.00  0.00     0.049 A 
ATOM     61  C   UNL A   1      42.819  32.984  30.730  1.00  0.00     0.074 A 
ATOM     62  C   UNL A   1      39.169  27.862  32.377  1.00  0.00     0.029 A 
ATOM     63  N   UNL A   1      41.163  28.514  31.694  1.00  0.00    -0.354 N 
ATOM     64  N   UNL A   1      42.613  32.645  31.971  1.00  0.00    -0.248 NA
ATOM     65  C   UNL A   1      43.162  31.889  29.835  1.00  0.00     0.031 C 
ATOM     66  C   UNL A   1      39.636  28.929  33.200  1.00  0.00     0.029 A 
ATOM     67  C   UNL A   1      40.797  29.451  32.627  1.00  0.00     0.049 A 
ATOM     68  H   UNL A   1      42.077  28.342  31.371  1.00  0.00     0.167 HD
ATOM     69  C   UNL A   1      42.332  31.288  31.920  1.00  0.00     0.074 A 
ATOM     70  C   UNL A   1      42.794  30.855  30.601  1.00  0.00     0.031 C 
ATOM     71  C   UNL A   1      41.484  30.712  32.825  1.00  0.00     0.031 A 
BRANCH  58  72
ATOM     72  C   UNL A   1      40.812  26.862  29.054  1.00  0.00    -0.014 A 
ATOM     73  C   UNL A   1      40.344  25.695  28.419  1.00  0.00     0.010 A 
ATOM     74  C   UNL A   1      42.209  27.050  29.103  1.00  0.00     0.010 A 
ATOM     75  C   UNL A   1      41.230  24.737  27.912  1.00  0.00     0.020 A 
ATOM     76  C   UNL A   1      43.101  26.122  28.563  1.00  0.00     0.020 A 
ATOM     77  C   UNL A   1      42.606  24.956  27.997  1.00  0.00     0.054 A 
BRANCH  77  78
ATOM     78  S   UNL A   1      43.741  23.673  27.416  1.00  0.00     0.124 S 
ATOM     79  O   UNL A   1      43.232  22.489  28.100  1.00  0.00    -0.237 OA
ATOM     80  O   UNL A   1      43.534  23.711  25.971  1.00  0.00    -0.237 OA
ATOM     81  O   UNL A   1      45.048  24.145  27.866  1.00  0.00    -0.744 OA
ENDBRANCH  77  78
ENDBRANCH  58  72
BRANCH  59  82
ATOM     82  C   UNL A   1      43.094  35.198  29.378  1.00  0.00    -0.014 A 
ATOM     83  C   UNL A   1      42.902  35.411  27.997  1.00  0.00     0.010 A 
ATOM     84  C   UNL A   1      43.871  36.138  30.078  1.00  0.00     0.010 A 
ATOM     85  C   UNL A   1      43.402  36.565  27.362  1.00  0.00     0.020 A 
ATOM     86  C   UNL A   1      44.365  37.284  29.453  1.00  0.00     0.020 A 
ATOM     87  C   UNL A   1      44.110  37.511  28.105  1.00  0.00     0.054 A 
BRANCH  87  88
ATOM     88  S   UNL A   1      44.579  39.103  27.362  1.00  0.00     0.124 S 
ATOM     89  O   UNL A   1      43.564  39.280  26.329  1.00  0.00    -0.237 OA
ATOM     90  O   UNL A   1      44.500  40.019  28.496  1.00  0.00    -0.237 OA
ATOM     91  O   UNL A   1      45.933  38.858  26.862  1.00  0.00    -0.744 OA
ENDBRANCH  87  88
ENDBRANCH  59  82
BRANCH  71  92
ATOM     92  C   UNL A   1      41.055  31.535  34.025  1.00  0.00    -0.014 A 
ATOM     93  C   UNL A   1      39.979  32.446  34.016  1.00  0.00     0.010 A 
ATOM     94  C   UNL A   1      41.696  31.276  35.247  1.00  0.00     0.010 A 
ATOM     95  C   UNL A   1      39.590  33.114  35.187  1.00  0.00     0.020 A 
ATOM     96  C   UNL A   1      41.301  31.921  36.421  1.00  0.00     0.020 A 
ATOM     97  C   UNL A   1      40.263  32.851  36.384  1.00  0.00     0.054 A 
BRANCH  97  98
ATOM     98  S   UNL A   1      39.764  33.716  37.900  1.00  0.00     0.124 S 
ATOM     99  O   UNL A   1      40.614  34.903  37.882  1.00  0.00    -0.237 OA
ATOM    100  O   UNL A   1      38.340  33.959  37.684  1.00  0.00    -0.237 OA
ATOM    101  O   UNL A   1      40.066  32.757  38.962  1.00  0.00    -0.744 OA
ENDBRANCH  97  98
ENDBRANCH  71  92
ENDBRANCH  45  46
ENDBRANCH  37  40
ENDBRANCH  35  36
ENDBRANCH   1  35
TORSDOF 17
ENDMDL
