MODEL 1
REMARK VINA RESULT:     -12.0      0.000      0.000
REMARK SMILES O=C(NCCCNC(=O)c1cccc(S(=O)(=O)Nc2ccccc2N2CCOCC2)c1)c1ccc(-c2c3nc(c(-c4ccc(S(=O)(=O)[O-])cc4)c4ccc([nH]4)c(-c4ccc(S(=O)(=O)[O-])cc4)c4nc(c(-c5ccc(S(=O)(=O)[O-])cc5)c5ccc2[nH]5)C=C4)C=C3)cc1
REMARK SMILES IDX 5 1 4 2 3 3 1 4 2 5 32 7 33 8 91 9 34 10 90 11 35 12 36 13
REMARK SMILES IDX 37 14 84 15 38 16 89 17 83 18 85 19 39 20 88 21 82 22 81 23
REMARK SMILES IDX 40 25 70 26 51 27 69 28 52 29 55 30 68 31 86 32 53 33 54 34
REMARK SMILES IDX 67 36 87 37 56 38 41 39 42 40 50 41 43 42 49 43 44 44 45 45
REMARK SMILES IDX 46 46 47 47 48 48 71 49 72 50 80 51 73 52 79 53 74 54 75 55
REMARK SMILES IDX 76 56 77 57 78 58 57 59 58 60 66 61 59 62 65 63 60 64 61 65
REMARK SMILES IDX 62 66 63 67 64 68 6 69 7 70 8 71 9 73 10 74 11 75 31 76
REMARK SMILES IDX 12 77 14 78 13 79 15 80 16 81 17 82 18 83 19 85 20 86 24 87
REMARK SMILES IDX 21 88 23 89 22 90 25 91 26 92 30 93 27 94 29 95 28 96
REMARK H PARENT 3 6 85 24 55 35 7 72 18 84
REMARK Flexibility Score: inf
ROOT
ATOM      1  C   UNL A   1      40.459  21.716  26.958  1.00  0.00     0.042 C 
ENDROOT
BRANCH   1   2
ATOM      2  C   UNL A   1      40.517  23.201  27.283  1.00  0.00     0.118 C 
BRANCH   2   3
ATOM      3  N   UNL A   1      41.109  24.007  26.223  1.00  0.00    -0.352 N 
ATOM      4  O   UNL A   1      41.650  25.839  25.032  1.00  0.00    -0.269 OA
ATOM      5  C   UNL A   1      41.240  25.373  26.091  1.00  0.00     0.251 C 
ATOM      6  H   UNL A   1      41.479  23.488  25.472  1.00  0.00     0.163 HD
BRANCH   5   7
ATOM      7  C   UNL A   1      40.831  26.272  27.196  1.00  0.00     0.039 A 
ATOM      8  C   UNL A   1      41.247  27.596  27.219  1.00  0.00     0.014 A 
ATOM      9  C   UNL A   1      40.050  25.780  28.245  1.00  0.00     0.014 A 
ATOM     10  C   UNL A   1      41.143  28.330  28.389  1.00  0.00     0.010 A 
ATOM     11  C   UNL A   1      39.788  26.590  29.359  1.00  0.00     0.010 A 
ATOM     12  C   UNL A   1      40.391  27.852  29.472  1.00  0.00    -0.014 A 
BRANCH  12  13
ATOM     13  C   UNL A   1      40.243  28.723  30.673  1.00  0.00     0.031 A 
ATOM     14  C   UNL A   1      41.210  28.641  31.829  1.00  0.00     0.074 A 
ATOM     15  C   UNL A   1      39.271  29.659  30.677  1.00  0.00     0.049 A 
ATOM     16  N   UNL A   1      41.254  29.375  32.913  1.00  0.00    -0.248 NA
ATOM     17  C   UNL A   1      42.249  27.601  31.774  1.00  0.00     0.031 C 
ATOM     18  C   UNL A   1      38.268  29.839  29.619  1.00  0.00     0.029 A 
ATOM     19  N   UNL A   1      38.993  30.670  31.560  1.00  0.00    -0.354 N 
ATOM     20  C   UNL A   1      42.287  28.857  33.687  1.00  0.00     0.074 A 
ATOM     21  C   UNL A   1      42.838  27.738  32.955  1.00  0.00     0.031 C 
ATOM     22  C   UNL A   1      37.565  30.954  29.859  1.00  0.00     0.029 A 
ATOM     23  C   UNL A   1      37.990  31.511  31.135  1.00  0.00     0.049 A 
ATOM     24  H   UNL A   1      39.466  30.783  32.417  1.00  0.00     0.167 HD
ATOM     25  C   UNL A   1      42.734  29.274  34.896  1.00  0.00     0.031 A 
ATOM     26  C   UNL A   1      37.455  32.605  31.707  1.00  0.00     0.031 A 
ATOM     27  C   UNL A   1      42.201  30.407  35.608  1.00  0.00     0.049 A 
ATOM     28  C   UNL A   1      37.972  33.048  33.042  1.00  0.00     0.074 A 
ATOM     29  C   UNL A   1      42.607  30.929  36.825  1.00  0.00     0.029 A 
ATOM     30  N   UNL A   1      41.150  31.199  35.167  1.00  0.00    -0.354 N 
ATOM     31  N   UNL A   1      38.951  32.541  33.752  1.00  0.00    -0.248 NA
ATOM     32  C   UNL A   1      37.308  34.203  33.657  1.00  0.00     0.031 C 
ATOM     33  C   UNL A   1      41.772  32.005  37.142  1.00  0.00     0.029 A 
ATOM     34  C   UNL A   1      40.881  32.190  36.096  1.00  0.00     0.049 A 
ATOM     35  H   UNL A   1      40.666  31.074  34.319  1.00  0.00     0.167 HD
ATOM     36  C   UNL A   1      39.029  33.324  34.896  1.00  0.00     0.074 A 
ATOM     37  C   UNL A   1      38.014  34.351  34.769  1.00  0.00     0.031 C 
ATOM     38  C   UNL A   1      39.862  33.200  35.958  1.00  0.00     0.031 A 
BRANCH  25  39
ATOM     39  C   UNL A   1      43.830  28.473  35.554  1.00  0.00    -0.014 A 
ATOM     40  C   UNL A   1      43.548  27.466  36.493  1.00  0.00     0.010 A 
ATOM     41  C   UNL A   1      45.169  28.710  35.188  1.00  0.00     0.010 A 
ATOM     42  C   UNL A   1      44.587  26.740  37.087  1.00  0.00     0.020 A 
ATOM     43  C   UNL A   1      46.209  27.969  35.759  1.00  0.00     0.020 A 
ATOM     44  C   UNL A   1      45.911  27.001  36.720  1.00  0.00     0.054 A 
BRANCH  44  45
ATOM     45  S   UNL A   1      47.240  26.037  37.494  1.00  0.00     0.124 S 
ATOM     46  O   UNL A   1      47.261  26.587  38.847  1.00  0.00    -0.237 OA
ATOM     47  O   UNL A   1      46.750  24.666  37.381  1.00  0.00    -0.237 OA
ATOM     48  O   UNL A   1      48.412  26.345  36.679  1.00  0.00    -0.744 OA
ENDBRANCH  44  45
ENDBRANCH  25  39
BRANCH  26  49
ATOM     49  C   UNL A   1      36.356  33.337  31.021  1.00  0.00    -0.014 A 
ATOM     50  C   UNL A   1      35.095  33.471  31.629  1.00  0.00     0.010 A 
ATOM     51  C   UNL A   1      36.578  33.938  29.768  1.00  0.00     0.010 A 
ATOM     52  C   UNL A   1      34.076  34.183  30.991  1.00  0.00     0.020 A 
ATOM     53  C   UNL A   1      35.573  34.678  29.144  1.00  0.00     0.020 A 
ATOM     54  C   UNL A   1      34.323  34.787  29.754  1.00  0.00     0.054 A 
BRANCH  54  55
ATOM     55  S   UNL A   1      33.008  35.762  28.973  1.00  0.00     0.124 S 
ATOM     56  O   UNL A   1      33.769  36.801  28.288  1.00  0.00    -0.237 OA
ATOM     57  O   UNL A   1      32.354  34.781  28.111  1.00  0.00    -0.237 OA
ATOM     58  O   UNL A   1      32.203  36.216  30.106  1.00  0.00    -0.744 OA
ENDBRANCH  54  55
ENDBRANCH  26  49
BRANCH  38  59
ATOM     59  C   UNL A   1      39.728  34.226  37.049  1.00  0.00    -0.014 A 
ATOM     60  C   UNL A   1      38.910  33.996  38.169  1.00  0.00     0.010 A 
ATOM     61  C   UNL A   1      40.448  35.430  36.957  1.00  0.00     0.010 A 
ATOM     62  C   UNL A   1      38.780  34.974  39.158  1.00  0.00     0.020 A 
ATOM     63  C   UNL A   1      40.342  36.399  37.958  1.00  0.00     0.020 A 
ATOM     64  C   UNL A   1      39.493  36.172  39.043  1.00  0.00     0.054 A 
BRANCH  64  65
ATOM     65  S   UNL A   1      39.325  37.419  40.348  1.00  0.00     0.124 S 
ATOM     66  O   UNL A   1      38.310  38.308  39.788  1.00  0.00    -0.237 OA
ATOM     67  O   UNL A   1      38.900  36.627  41.499  1.00  0.00    -0.237 OA
ATOM     68  O   UNL A   1      40.665  37.991  40.453  1.00  0.00    -0.744 OA
ENDBRANCH  64  65
ENDBRANCH  38  59
ENDBRANCH  12  13
ENDBRANCH   5   7
ENDBRANCH   2   3
ENDBRANCH   1   2
BRANCH   1  69
ATOM     69  C   UNL A   1      41.751  20.997  27.293  1.00  0.00     0.118 C 
BRANCH  69  70
ATOM     70  N   UNL A   1      41.727  19.597  26.881  1.00  0.00    -0.352 N 
ATOM     71  C   UNL A   1      42.539  18.905  26.024  1.00  0.00     0.251 C 
ATOM     72  H   UNL A   1      41.008  19.060  27.287  1.00  0.00     0.163 HD
ATOM     73  O   UNL A   1      42.242  17.756  25.703  1.00  0.00    -0.269 OA
BRANCH  71  74
ATOM     74  C   UNL A   1      43.807  19.486  25.541  1.00  0.00     0.041 A 
ATOM     75  C   UNL A   1      44.939  18.681  25.408  1.00  0.00     0.014 A 
ATOM     76  C   UNL A   1      43.920  20.863  25.368  1.00  0.00     0.036 A 
ATOM     77  C   UNL A   1      46.168  19.262  25.080  1.00  0.00     0.002 A 
ATOM     78  C   UNL A   1      45.145  21.454  25.095  1.00  0.00     0.088 A 
ATOM     79  C   UNL A   1      46.276  20.652  24.927  1.00  0.00     0.022 A 
BRANCH  78  80
ATOM     80  S   UNL A   1      45.190  23.208  24.843  1.00  0.00     0.261 S 
ATOM     81  O   UNL A   1      46.155  23.475  23.799  1.00  0.00    -0.201 OA
ATOM     82  O   UNL A   1      43.817  23.656  24.705  1.00  0.00    -0.201 OA
BRANCH  80  83
ATOM     83  N   UNL A   1      45.834  23.944  26.237  1.00  0.00    -0.278 N 
ATOM     84  H   UNL A   1      46.800  24.122  26.303  1.00  0.00     0.180 HD
BRANCH  83  85
ATOM     85  C   UNL A   1      44.951  24.303  27.322  1.00  0.00     0.072 A 
ATOM     86  C   UNL A   1      44.325  23.304  28.076  1.00  0.00     0.029 A 
ATOM     87  C   UNL A   1      44.813  25.675  27.671  1.00  0.00     0.061 A 
ATOM     88  C   UNL A   1      43.559  23.650  29.191  1.00  0.00     0.002 A 
ATOM     89  C   UNL A   1      44.063  25.988  28.813  1.00  0.00     0.028 A 
ATOM     90  C   UNL A   1      43.434  24.988  29.561  1.00  0.00     0.002 A 
BRANCH  87  91
ATOM     91  N   UNL A   1      45.426  26.660  26.916  1.00  0.00    -0.365 N 
ATOM     92  C   UNL A   1      44.905  26.930  25.571  1.00  0.00     0.145 C 
ATOM     93  C   UNL A   1      46.194  27.765  27.496  1.00  0.00     0.145 C 
ATOM     94  C   UNL A   1      46.071  27.337  24.663  1.00  0.00     0.181 C 
ATOM     95  C   UNL A   1      47.304  28.161  26.503  1.00  0.00     0.181 C 
ATOM     96  O   UNL A   1      46.773  28.474  25.200  1.00  0.00    -0.378 OA
ENDBRANCH  87  91
ENDBRANCH  83  85
ENDBRANCH  80  83
ENDBRANCH  78  80
ENDBRANCH  71  74
ENDBRANCH  69  70
ENDBRANCH   1  69
TORSDOF 17
ENDMDL
MODEL 2
REMARK VINA RESULT:     -11.4      3.459      4.259
REMARK SMILES O=C(NCCCNC(=O)c1cccc(S(=O)(=O)Nc2ccccc2N2CCOCC2)c1)c1ccc(-c2c3nc(c(-c4ccc(S(=O)(=O)[O-])cc4)c4ccc([nH]4)c(-c4ccc(S(=O)(=O)[O-])cc4)c4nc(c(-c5ccc(S(=O)(=O)[O-])cc5)c5ccc2[nH]5)C=C4)C=C3)cc1
REMARK SMILES IDX 5 1 4 2 3 3 1 4 2 5 32 7 33 8 91 9 34 10 90 11 35 12 36 13
REMARK SMILES IDX 37 14 84 15 38 16 89 17 83 18 85 19 39 20 88 21 82 22 81 23
REMARK SMILES IDX 40 25 70 26 51 27 69 28 52 29 55 30 68 31 86 32 53 33 54 34
REMARK SMILES IDX 67 36 87 37 56 38 41 39 42 40 50 41 43 42 49 43 44 44 45 45
REMARK SMILES IDX 46 46 47 47 48 48 71 49 72 50 80 51 73 52 79 53 74 54 75 55
REMARK SMILES IDX 76 56 77 57 78 58 57 59 58 60 66 61 59 62 65 63 60 64 61 65
REMARK SMILES IDX 62 66 63 67 64 68 6 69 7 70 8 71 9 73 10 74 11 75 31 76
REMARK SMILES IDX 12 77 14 78 13 79 15 80 16 81 17 82 18 83 19 85 20 86 24 87
REMARK SMILES IDX 21 88 23 89 22 90 25 91 26 92 30 93 27 94 29 95 28 96
REMARK H PARENT 3 6 85 24 55 35 7 72 18 84
REMARK Flexibility Score: inf
ROOT
ATOM      1  C   UNL A   1      40.575  21.208  27.392  1.00  0.00     0.042 C 
ENDROOT
BRANCH   1   2
ATOM      2  C   UNL A   1      40.414  21.811  26.004  1.00  0.00     0.118 C 
BRANCH   2   3
ATOM      3  N   UNL A   1      39.067  22.298  25.734  1.00  0.00    -0.352 N 
ATOM      4  O   UNL A   1      37.235  23.596  25.886  1.00  0.00    -0.269 OA
ATOM      5  C   UNL A   1      38.433  23.463  26.112  1.00  0.00     0.251 C 
ATOM      6  H   UNL A   1      38.515  21.693  25.187  1.00  0.00     0.163 HD
BRANCH   5   7
ATOM      7  C   UNL A   1      39.179  24.515  26.840  1.00  0.00     0.039 A 
ATOM      8  C   UNL A   1      39.135  24.581  28.226  1.00  0.00     0.014 A 
ATOM      9  C   UNL A   1      39.908  25.474  26.131  1.00  0.00     0.014 A 
ATOM     10  C   UNL A   1      39.552  25.732  28.874  1.00  0.00     0.010 A 
ATOM     11  C   UNL A   1      40.490  26.552  26.812  1.00  0.00     0.010 A 
ATOM     12  C   UNL A   1      40.260  26.728  28.185  1.00  0.00    -0.014 A 
BRANCH  12  13
ATOM     13  C   UNL A   1      40.758  27.904  28.953  1.00  0.00     0.031 A 
ATOM     14  C   UNL A   1      42.200  28.009  29.387  1.00  0.00     0.074 A 
ATOM     15  C   UNL A   1      39.912  28.930  29.184  1.00  0.00     0.049 A 
ATOM     16  N   UNL A   1      42.800  28.997  30.002  1.00  0.00    -0.248 NA
ATOM     17  C   UNL A   1      43.078  26.861  29.112  1.00  0.00     0.031 C 
ATOM     18  C   UNL A   1      38.491  28.951  28.818  1.00  0.00     0.029 A 
ATOM     19  N   UNL A   1      40.124  30.172  29.726  1.00  0.00    -0.354 N 
ATOM     20  C   UNL A   1      44.105  28.573  30.229  1.00  0.00     0.074 A 
ATOM     21  C   UNL A   1      44.209  27.233  29.697  1.00  0.00     0.031 C 
ATOM     22  C   UNL A   1      37.992  30.174  29.040  1.00  0.00     0.029 A 
ATOM     23  C   UNL A   1      39.023  30.994  29.661  1.00  0.00     0.049 A 
ATOM     24  H   UNL A   1      40.982  30.448  30.122  1.00  0.00     0.167 HD
ATOM     25  C   UNL A   1      45.122  29.238  30.829  1.00  0.00     0.031 A 
ATOM     26  C   UNL A   1      38.847  32.266  30.066  1.00  0.00     0.031 A 
ATOM     27  C   UNL A   1      45.023  30.585  31.331  1.00  0.00     0.049 A 
ATOM     28  C   UNL A   1      39.990  32.980  30.720  1.00  0.00     0.074 A 
ATOM     29  C   UNL A   1      46.006  31.357  31.926  1.00  0.00     0.029 A 
ATOM     30  N   UNL A   1      43.874  31.363  31.294  1.00  0.00    -0.354 N 
ATOM     31  N   UNL A   1      41.215  32.556  30.921  1.00  0.00    -0.248 NA
ATOM     32  C   UNL A   1      39.727  34.339  31.208  1.00  0.00     0.031 C 
ATOM     33  C   UNL A   1      45.440  32.583  32.291  1.00  0.00     0.029 A 
ATOM     34  C   UNL A   1      44.119  32.597  31.873  1.00  0.00     0.049 A 
ATOM     35  H   UNL A   1      43.012  31.079  30.913  1.00  0.00     0.167 HD
ATOM     36  C   UNL A   1      41.874  33.604  31.552  1.00  0.00     0.074 A 
ATOM     37  C   UNL A   1      40.918  34.686  31.674  1.00  0.00     0.031 C 
ATOM     38  C   UNL A   1      43.154  33.660  31.994  1.00  0.00     0.031 A 
BRANCH  25  39
ATOM     39  C   UNL A   1      46.427  28.505  31.016  1.00  0.00    -0.014 A 
ATOM     40  C   UNL A   1      47.487  28.635  30.101  1.00  0.00     0.010 A 
ATOM     41  C   UNL A   1      46.606  27.699  32.157  1.00  0.00     0.010 A 
ATOM     42  C   UNL A   1      48.685  27.941  30.301  1.00  0.00     0.020 A 
ATOM     43  C   UNL A   1      47.811  27.024  32.375  1.00  0.00     0.020 A 
ATOM     44  C   UNL A   1      48.837  27.136  31.435  1.00  0.00     0.054 A 
BRANCH  44  45
ATOM     45  S   UNL A   1      50.406  26.256  31.679  1.00  0.00     0.124 S 
ATOM     46  O   UNL A   1      51.053  26.430  30.380  1.00  0.00    -0.237 OA
ATOM     47  O   UNL A   1      51.015  26.987  32.787  1.00  0.00    -0.237 OA
ATOM     48  O   UNL A   1      49.992  24.890  31.990  1.00  0.00    -0.744 OA
ENDBRANCH  44  45
ENDBRANCH  25  39
BRANCH  26  49
ATOM     49  C   UNL A   1      37.526  32.926  29.878  1.00  0.00    -0.014 A 
ATOM     50  C   UNL A   1      37.237  33.626  28.693  1.00  0.00     0.010 A 
ATOM     51  C   UNL A   1      36.535  32.824  30.871  1.00  0.00     0.010 A 
ATOM     52  C   UNL A   1      35.986  34.220  28.511  1.00  0.00     0.020 A 
ATOM     53  C   UNL A   1      35.272  33.388  30.679  1.00  0.00     0.020 A 
ATOM     54  C   UNL A   1      35.008  34.093  29.504  1.00  0.00     0.054 A 
BRANCH  54  55
ATOM     55  S   UNL A   1      33.369  34.815  29.221  1.00  0.00     0.124 S 
ATOM     56  O   UNL A   1      33.706  36.132  28.691  1.00  0.00    -0.237 OA
ATOM     57  O   UNL A   1      32.770  33.882  28.270  1.00  0.00    -0.237 OA
ATOM     58  O   UNL A   1      32.762  34.810  30.551  1.00  0.00    -0.744 OA
ENDBRANCH  54  55
ENDBRANCH  26  49
BRANCH  38  59
ATOM     59  C   UNL A   1      43.599  34.953  32.620  1.00  0.00    -0.014 A 
ATOM     60  C   UNL A   1      44.128  35.996  31.841  1.00  0.00     0.010 A 
ATOM     61  C   UNL A   1      43.468  35.129  34.010  1.00  0.00     0.010 A 
ATOM     62  C   UNL A   1      44.560  37.179  32.448  1.00  0.00     0.020 A 
ATOM     63  C   UNL A   1      43.872  36.320  34.616  1.00  0.00     0.020 A 
ATOM     64  C   UNL A   1      44.434  37.330  33.832  1.00  0.00     0.054 A 
BRANCH  64  65
ATOM     65  S   UNL A   1      44.982  38.880  34.596  1.00  0.00     0.124 S 
ATOM     66  O   UNL A   1      44.510  39.874  33.635  1.00  0.00    -0.237 OA
ATOM     67  O   UNL A   1      44.290  38.871  35.882  1.00  0.00    -0.237 OA
ATOM     68  O   UNL A   1      46.434  38.731  34.676  1.00  0.00    -0.744 OA
ENDBRANCH  64  65
ENDBRANCH  38  59
ENDBRANCH  12  13
ENDBRANCH   5   7
ENDBRANCH   2   3
ENDBRANCH   1   2
BRANCH   1  69
ATOM     69  C   UNL A   1      41.927  20.551  27.586  1.00  0.00     0.118 C 
BRANCH  69  70
ATOM     70  N   UNL A   1      41.950  19.177  27.094  1.00  0.00    -0.352 N 
ATOM     71  C   UNL A   1      42.738  18.581  26.148  1.00  0.00     0.251 C 
ATOM     72  H   UNL A   1      41.288  18.579  27.512  1.00  0.00     0.163 HD
ATOM     73  O   UNL A   1      42.481  17.437  25.778  1.00  0.00    -0.269 OA
BRANCH  71  74
ATOM     74  C   UNL A   1      43.939  19.258  25.620  1.00  0.00     0.041 A 
ATOM     75  C   UNL A   1      45.162  18.588  25.589  1.00  0.00     0.014 A 
ATOM     76  C   UNL A   1      43.890  20.612  25.301  1.00  0.00     0.036 A 
ATOM     77  C   UNL A   1      46.320  19.276  25.215  1.00  0.00     0.002 A 
ATOM     78  C   UNL A   1      45.041  21.317  24.981  1.00  0.00     0.088 A 
ATOM     79  C   UNL A   1      46.265  20.645  24.915  1.00  0.00     0.022 A 
BRANCH  78  80
ATOM     80  S   UNL A   1      44.882  23.026  24.543  1.00  0.00     0.261 S 
ATOM     81  O   UNL A   1      46.054  23.392  23.777  1.00  0.00    -0.201 OA
ATOM     82  O   UNL A   1      43.555  23.202  23.982  1.00  0.00    -0.201 OA
BRANCH  80  83
ATOM     83  N   UNL A   1      44.970  23.965  25.960  1.00  0.00    -0.278 N 
ATOM     84  H   UNL A   1      45.072  23.530  26.837  1.00  0.00     0.180 HD
BRANCH  83  85
ATOM     85  C   UNL A   1      44.892  25.404  25.865  1.00  0.00     0.072 A 
ATOM     86  C   UNL A   1      43.689  26.018  25.498  1.00  0.00     0.029 A 
ATOM     87  C   UNL A   1      46.020  26.180  26.246  1.00  0.00     0.061 A 
ATOM     88  C   UNL A   1      43.586  27.410  25.512  1.00  0.00     0.002 A 
ATOM     89  C   UNL A   1      45.876  27.574  26.279  1.00  0.00     0.028 A 
ATOM     90  C   UNL A   1      44.674  28.185  25.906  1.00  0.00     0.002 A 
BRANCH  87  91
ATOM     91  N   UNL A   1      47.211  25.569  26.598  1.00  0.00    -0.365 N 
ATOM     92  C   UNL A   1      47.219  24.682  27.767  1.00  0.00     0.145 C 
ATOM     93  C   UNL A   1      48.310  25.332  25.656  1.00  0.00     0.145 C 
ATOM     94  C   UNL A   1      48.582  24.790  28.460  1.00  0.00     0.181 C 
ATOM     95  C   UNL A   1      49.639  25.393  26.434  1.00  0.00     0.181 C 
ATOM     96  O   UNL A   1      49.653  24.479  27.548  1.00  0.00    -0.378 OA
ENDBRANCH  87  91
ENDBRANCH  83  85
ENDBRANCH  80  83
ENDBRANCH  78  80
ENDBRANCH  71  74
ENDBRANCH  69  70
ENDBRANCH   1  69
TORSDOF 17
ENDMDL
MODEL 3
REMARK VINA RESULT:     -11.3      6.631     13.778
REMARK SMILES O=C(NCCCNC(=O)c1cccc(S(=O)(=O)Nc2ccccc2N2CCOCC2)c1)c1ccc(-c2c3nc(c(-c4ccc(S(=O)(=O)[O-])cc4)c4ccc([nH]4)c(-c4ccc(S(=O)(=O)[O-])cc4)c4nc(c(-c5ccc(S(=O)(=O)[O-])cc5)c5ccc2[nH]5)C=C4)C=C3)cc1
REMARK SMILES IDX 5 1 4 2 3 3 1 4 2 5 32 7 33 8 91 9 34 10 90 11 35 12 36 13
REMARK SMILES IDX 37 14 84 15 38 16 89 17 83 18 85 19 39 20 88 21 82 22 81 23
REMARK SMILES IDX 40 25 70 26 51 27 69 28 52 29 55 30 68 31 86 32 53 33 54 34
REMARK SMILES IDX 67 36 87 37 56 38 41 39 42 40 50 41 43 42 49 43 44 44 45 45
REMARK SMILES IDX 46 46 47 47 48 48 71 49 72 50 80 51 73 52 79 53 74 54 75 55
REMARK SMILES IDX 76 56 77 57 78 58 57 59 58 60 66 61 59 62 65 63 60 64 61 65
REMARK SMILES IDX 62 66 63 67 64 68 6 69 7 70 8 71 9 73 10 74 11 75 31 76
REMARK SMILES IDX 12 77 14 78 13 79 15 80 16 81 17 82 18 83 19 85 20 86 24 87
REMARK SMILES IDX 21 88 23 89 22 90 25 91 26 92 30 93 27 94 29 95 28 96
REMARK H PARENT 3 6 85 24 55 35 7 72 18 84
REMARK Flexibility Score: inf
ROOT
ATOM      1  C   UNL A   1      34.371  28.652  27.214  1.00  0.00     0.042 C 
ENDROOT
BRANCH   1   2
ATOM      2  C   UNL A   1      35.132  29.917  27.580  1.00  0.00     0.118 C 
BRANCH   2   3
ATOM      3  N   UNL A   1      35.302  30.100  29.017  1.00  0.00    -0.352 N 
ATOM      4  O   UNL A   1      36.229  29.925  31.060  1.00  0.00    -0.269 OA
ATOM      5  C   UNL A   1      36.367  29.819  29.845  1.00  0.00     0.251 C 
ATOM      6  H   UNL A   1      34.523  30.492  29.474  1.00  0.00     0.163 HD
BRANCH   5   7
ATOM      7  C   UNL A   1      37.645  29.332  29.277  1.00  0.00     0.039 A 
ATOM      8  C   UNL A   1      38.516  28.571  30.046  1.00  0.00     0.014 A 
ATOM      9  C   UNL A   1      38.002  29.666  27.967  1.00  0.00     0.014 A 
ATOM     10  C   UNL A   1      39.827  28.399  29.634  1.00  0.00     0.010 A 
ATOM     11  C   UNL A   1      39.273  29.329  27.483  1.00  0.00     0.010 A 
ATOM     12  C   UNL A   1      40.225  28.751  28.336  1.00  0.00    -0.014 A 
BRANCH  12  13
ATOM     13  C   UNL A   1      41.627  28.463  27.921  1.00  0.00     0.031 A 
ATOM     14  C   UNL A   1      42.707  29.512  28.014  1.00  0.00     0.074 A 
ATOM     15  C   UNL A   1      41.942  27.208  27.536  1.00  0.00     0.049 A 
ATOM     16  N   UNL A   1      43.986  29.396  27.754  1.00  0.00    -0.248 NA
ATOM     17  C   UNL A   1      42.308  30.864  28.436  1.00  0.00     0.031 C 
ATOM     18  C   UNL A   1      40.986  26.102  27.401  1.00  0.00     0.029 A 
ATOM     19  N   UNL A   1      43.150  26.629  27.242  1.00  0.00    -0.354 N 
ATOM     20  C   UNL A   1      44.532  30.663  27.933  1.00  0.00     0.074 A 
ATOM     21  C   UNL A   1      43.444  31.537  28.314  1.00  0.00     0.031 C 
ATOM     22  C   UNL A   1      41.654  24.965  27.164  1.00  0.00     0.029 A 
ATOM     23  C   UNL A   1      43.070  25.273  27.024  1.00  0.00     0.049 A 
ATOM     24  H   UNL A   1      43.993  27.135  27.192  1.00  0.00     0.167 HD
ATOM     25  C   UNL A   1      45.819  31.061  27.792  1.00  0.00     0.031 A 
ATOM     26  C   UNL A   1      44.023  24.369  26.731  1.00  0.00     0.031 A 
ATOM     27  C   UNL A   1      46.904  30.180  27.442  1.00  0.00     0.049 A 
ATOM     28  C   UNL A   1      45.440  24.835  26.587  1.00  0.00     0.074 A 
ATOM     29  C   UNL A   1      48.248  30.481  27.306  1.00  0.00     0.029 A 
ATOM     30  N   UNL A   1      46.772  28.824  27.177  1.00  0.00    -0.354 N 
ATOM     31  N   UNL A   1      45.929  26.039  26.764  1.00  0.00    -0.248 NA
ATOM     32  C   UNL A   1      46.431  23.826  26.197  1.00  0.00     0.031 C 
ATOM     33  C   UNL A   1      48.921  29.320  26.913  1.00  0.00     0.029 A 
ATOM     34  C   UNL A   1      48.005  28.281  26.859  1.00  0.00     0.049 A 
ATOM     35  H   UNL A   1      45.925  28.323  27.210  1.00  0.00     0.167 HD
ATOM     36  C   UNL A   1      47.292  25.929  26.516  1.00  0.00     0.074 A 
ATOM     37  C   UNL A   1      47.548  24.538  26.202  1.00  0.00     0.031 C 
ATOM     38  C   UNL A   1      48.242  26.895  26.541  1.00  0.00     0.031 A 
BRANCH  25  39
ATOM     39  C   UNL A   1      46.124  32.527  27.974  1.00  0.00    -0.014 A 
ATOM     40  C   UNL A   1      46.424  33.069  29.236  1.00  0.00     0.010 A 
ATOM     41  C   UNL A   1      46.152  33.370  26.846  1.00  0.00     0.010 A 
ATOM     42  C   UNL A   1      46.702  34.433  29.374  1.00  0.00     0.020 A 
ATOM     43  C   UNL A   1      46.455  34.728  26.975  1.00  0.00     0.020 A 
ATOM     44  C   UNL A   1      46.710  35.255  28.242  1.00  0.00     0.054 A 
BRANCH  44  45
ATOM     45  S   UNL A   1      47.087  37.019  28.444  1.00  0.00     0.124 S 
ATOM     46  O   UNL A   1      48.429  37.107  27.872  1.00  0.00    -0.237 OA
ATOM     47  O   UNL A   1      46.031  37.664  27.670  1.00  0.00    -0.237 OA
ATOM     48  O   UNL A   1      47.012  37.227  29.889  1.00  0.00    -0.744 OA
ENDBRANCH  44  45
ENDBRANCH  25  39
BRANCH  26  49
ATOM     49  C   UNL A   1      43.654  22.941  26.536  1.00  0.00    -0.014 A 
ATOM     50  C   UNL A   1      44.026  22.258  25.365  1.00  0.00     0.010 A 
ATOM     51  C   UNL A   1      42.960  22.244  27.543  1.00  0.00     0.010 A 
ATOM     52  C   UNL A   1      43.701  20.909  25.200  1.00  0.00     0.020 A 
ATOM     53  C   UNL A   1      42.663  20.888  27.397  1.00  0.00     0.020 A 
ATOM     54  C   UNL A   1      43.025  20.230  26.221  1.00  0.00     0.054 A 
BRANCH  54  55
ATOM     55  S   UNL A   1      42.670  18.463  26.016  1.00  0.00     0.124 S 
ATOM     56  O   UNL A   1      43.018  17.931  27.329  1.00  0.00    -0.237 OA
ATOM     57  O   UNL A   1      41.246  18.462  25.688  1.00  0.00    -0.237 OA
ATOM     58  O   UNL A   1      43.552  18.064  24.922  1.00  0.00    -0.744 OA
ENDBRANCH  54  55
ENDBRANCH  26  49
BRANCH  38  59
ATOM     59  C   UNL A   1      49.654  26.466  26.253  1.00  0.00    -0.014 A 
ATOM     60  C   UNL A   1      50.449  25.864  27.243  1.00  0.00     0.010 A 
ATOM     61  C   UNL A   1      50.184  26.655  24.964  1.00  0.00     0.010 A 
ATOM     62  C   UNL A   1      51.768  25.497  26.960  1.00  0.00     0.020 A 
ATOM     63  C   UNL A   1      51.492  26.264  24.670  1.00  0.00     0.020 A 
ATOM     64  C   UNL A   1      52.281  25.705  25.676  1.00  0.00     0.054 A 
BRANCH  64  65
ATOM     65  S   UNL A   1      53.989  25.204  25.326  1.00  0.00     0.124 S 
ATOM     66  O   UNL A   1      54.338  26.077  24.209  1.00  0.00    -0.237 OA
ATOM     67  O   UNL A   1      54.674  25.488  26.584  1.00  0.00    -0.237 OA
ATOM     68  O   UNL A   1      53.870  23.785  24.995  1.00  0.00    -0.744 OA
ENDBRANCH  64  65
ENDBRANCH  38  59
ENDBRANCH  12  13
ENDBRANCH   5   7
ENDBRANCH   2   3
ENDBRANCH   1   2
BRANCH   1  69
ATOM     69  C   UNL A   1      33.366  28.880  26.103  1.00  0.00     0.118 C 
BRANCH  69  70
ATOM     70  N   UNL A   1      34.011  29.200  24.832  1.00  0.00    -0.352 N 
ATOM     71  C   UNL A   1      33.944  28.577  23.616  1.00  0.00     0.251 C 
ATOM     72  H   UNL A   1      34.589  29.997  24.854  1.00  0.00     0.163 HD
ATOM     73  O   UNL A   1      34.697  28.933  22.711  1.00  0.00    -0.269 OA
BRANCH  71  74
ATOM     74  C   UNL A   1      32.931  27.537  23.347  1.00  0.00     0.041 A 
ATOM     75  C   UNL A   1      31.575  27.825  23.507  1.00  0.00     0.014 A 
ATOM     76  C   UNL A   1      33.330  26.229  23.088  1.00  0.00     0.036 A 
ATOM     77  C   UNL A   1      30.631  26.802  23.382  1.00  0.00     0.002 A 
ATOM     78  C   UNL A   1      32.404  25.198  23.016  1.00  0.00     0.088 A 
ATOM     79  C   UNL A   1      31.043  25.483  23.141  1.00  0.00     0.022 A 
BRANCH  78  80
ATOM     80  S   UNL A   1      32.994  23.570  22.635  1.00  0.00     0.261 S 
ATOM     81  O   UNL A   1      33.242  23.517  21.211  1.00  0.00    -0.201 OA
ATOM     82  O   UNL A   1      34.056  23.269  23.576  1.00  0.00    -0.201 OA
BRANCH  80  83
ATOM     83  N   UNL A   1      31.734  22.457  22.905  1.00  0.00    -0.278 N 
ATOM     84  H   UNL A   1      30.806  22.693  22.679  1.00  0.00     0.180 HD
BRANCH  83  85
ATOM     85  C   UNL A   1      32.040  21.162  23.469  1.00  0.00     0.072 A 
ATOM     86  C   UNL A   1      32.281  20.071  22.627  1.00  0.00     0.029 A 
ATOM     87  C   UNL A   1      32.192  21.045  24.878  1.00  0.00     0.061 A 
ATOM     88  C   UNL A   1      32.682  18.849  23.170  1.00  0.00     0.002 A 
ATOM     89  C   UNL A   1      32.625  19.814  25.389  1.00  0.00     0.028 A 
ATOM     90  C   UNL A   1      32.860  18.723  24.547  1.00  0.00     0.002 A 
BRANCH  87  91
ATOM     91  N   UNL A   1      31.943  22.124  25.707  1.00  0.00    -0.365 N 
ATOM     92  C   UNL A   1      30.560  22.368  26.137  1.00  0.00     0.145 C 
ATOM     93  C   UNL A   1      32.957  22.732  26.574  1.00  0.00     0.145 C 
ATOM     94  C   UNL A   1      30.345  23.878  26.276  1.00  0.00     0.181 C 
ATOM     95  C   UNL A   1      32.640  24.233  26.718  1.00  0.00     0.181 C 
ATOM     96  O   UNL A   1      31.296  24.456  27.191  1.00  0.00    -0.378 OA
ENDBRANCH  87  91
ENDBRANCH  83  85
ENDBRANCH  80  83
ENDBRANCH  78  80
ENDBRANCH  71  74
ENDBRANCH  69  70
ENDBRANCH   1  69
TORSDOF 17
ENDMDL
