MODEL 1
REMARK VINA RESULT:     -13.0      0.000      0.000
REMARK SMILES O=C(NCCCNC(=O)[C@@H]1[C@H](C(=O)Nc2ccccc2Cc2ccccc2)[C@H]2C=C[C@@H]1O2)c1ccc(-c2c3nc(c(-c4ccc(S(=O)(=O)[O-])cc4)c4ccc([nH]4)c(-c4ccc(S(=O)(=O)[O-])cc4)c4nc(c(-c5ccc(S(=O)(=O)[O-])cc5)c5ccc2[nH]5)C=C4)C=C3)cc1
REMARK SMILES IDX 5 1 4 2 3 3 1 4 2 5 33 7 34 8 92 9 35 10 91 11 36 12 37 13
REMARK SMILES IDX 38 14 85 15 39 16 90 17 84 18 86 19 40 20 89 21 83 22 82 23
REMARK SMILES IDX 41 25 71 26 52 27 70 28 53 29 56 30 69 31 87 32 54 33 55 34
REMARK SMILES IDX 68 36 88 37 57 38 42 39 43 40 51 41 44 42 50 43 45 44 46 45
REMARK SMILES IDX 47 46 48 47 49 48 72 49 73 50 81 51 74 52 80 53 75 54 76 55
REMARK SMILES IDX 77 56 78 57 79 58 58 59 59 60 67 61 60 62 66 63 61 64 62 65
REMARK SMILES IDX 63 66 64 67 65 68 6 69 7 70 8 71 9 73 10 74 11 75 31 76
REMARK SMILES IDX 28 77 30 78 32 79 29 80 12 81 13 82 14 83 15 85 16 86 20 87
REMARK SMILES IDX 17 88 19 89 18 90 21 91 22 92 23 93 27 94 24 95 26 96 25 97
REMARK H PARENT 3 6 86 24 56 35 7 72 14 84
REMARK Flexibility Score: inf
ROOT
ATOM      1  C   UNL A   1      35.598  23.164  24.726  1.00  0.00     0.042 C 
ENDROOT
BRANCH   1   2
ATOM      2  C   UNL A   1      37.042  23.663  24.977  1.00  0.00     0.118 C 
BRANCH   2   3
ATOM      3  N   UNL A   1      38.006  22.655  25.378  1.00  0.00    -0.352 N 
ATOM      4  O   UNL A   1      39.922  21.905  26.300  1.00  0.00    -0.269 OA
ATOM      5  C   UNL A   1      39.143  22.827  26.161  1.00  0.00     0.251 C 
ATOM      6  H   UNL A   1      37.836  21.739  25.058  1.00  0.00     0.163 HD
BRANCH   5   7
ATOM      7  C   UNL A   1      39.438  24.152  26.790  1.00  0.00     0.039 A 
ATOM      8  C   UNL A   1      39.091  24.438  28.111  1.00  0.00     0.014 A 
ATOM      9  C   UNL A   1      40.151  25.106  26.051  1.00  0.00     0.014 A 
ATOM     10  C   UNL A   1      39.377  25.690  28.664  1.00  0.00     0.010 A 
ATOM     11  C   UNL A   1      40.509  26.332  26.633  1.00  0.00     0.010 A 
ATOM     12  C   UNL A   1      40.132  26.634  27.950  1.00  0.00    -0.014 A 
BRANCH  12  13
ATOM     13  C   UNL A   1      40.659  27.854  28.628  1.00  0.00     0.031 A 
ATOM     14  C   UNL A   1      42.053  27.905  29.195  1.00  0.00     0.074 A 
ATOM     15  C   UNL A   1      39.832  28.908  28.791  1.00  0.00     0.049 A 
ATOM     16  N   UNL A   1      42.618  28.847  29.910  1.00  0.00    -0.248 NA
ATOM     17  C   UNL A   1      42.919  26.745  28.942  1.00  0.00     0.031 C 
ATOM     18  C   UNL A   1      38.453  28.982  28.302  1.00  0.00     0.029 A 
ATOM     19  N   UNL A   1      40.021  30.115  29.417  1.00  0.00    -0.354 N 
ATOM     20  C   UNL A   1      43.894  28.384  30.217  1.00  0.00     0.074 A 
ATOM     21  C   UNL A   1      44.011  27.068  29.625  1.00  0.00     0.031 C 
ATOM     22  C   UNL A   1      37.934  30.176  28.613  1.00  0.00     0.029 A 
ATOM     23  C   UNL A   1      38.907  30.925  29.397  1.00  0.00     0.049 A 
ATOM     24  H   UNL A   1      40.870  30.378  29.840  1.00  0.00     0.167 HD
ATOM     25  C   UNL A   1      44.872  29.000  30.929  1.00  0.00     0.031 A 
ATOM     26  C   UNL A   1      38.670  32.118  29.972  1.00  0.00     0.031 A 
ATOM     27  C   UNL A   1      44.738  30.306  31.525  1.00  0.00     0.049 A 
ATOM     28  C   UNL A   1      39.751  32.757  30.793  1.00  0.00     0.074 A 
ATOM     29  C   UNL A   1      45.683  31.030  32.234  1.00  0.00     0.029 A 
ATOM     30  N   UNL A   1      43.587  31.082  31.494  1.00  0.00    -0.354 N 
ATOM     31  N   UNL A   1      40.960  32.316  31.044  1.00  0.00    -0.248 NA
ATOM     32  C   UNL A   1      39.437  34.052  31.408  1.00  0.00     0.031 C 
ATOM     33  C   UNL A   1      45.083  32.211  32.685  1.00  0.00     0.029 A 
ATOM     34  C   UNL A   1      43.788  32.260  32.196  1.00  0.00     0.049 A 
ATOM     35  H   UNL A   1      42.751  30.832  31.040  1.00  0.00     0.167 HD
ATOM     36  C   UNL A   1      41.561  33.292  31.830  1.00  0.00     0.074 A 
ATOM     37  C   UNL A   1      40.588  34.352  31.994  1.00  0.00     0.031 C 
ATOM     38  C   UNL A   1      42.807  33.305  32.364  1.00  0.00     0.031 A 
BRANCH  25  39
ATOM     39  C   UNL A   1      46.167  28.250  31.137  1.00  0.00    -0.014 A 
ATOM     40  C   UNL A   1      47.251  28.394  30.251  1.00  0.00     0.010 A 
ATOM     41  C   UNL A   1      46.317  27.415  32.262  1.00  0.00     0.010 A 
ATOM     42  C   UNL A   1      48.436  27.679  30.456  1.00  0.00     0.020 A 
ATOM     43  C   UNL A   1      47.511  26.723  32.488  1.00  0.00     0.020 A 
ATOM     44  C   UNL A   1      48.556  26.844  31.571  1.00  0.00     0.054 A 
BRANCH  44  45
ATOM     45  S   UNL A   1      50.104  25.927  31.809  1.00  0.00     0.124 S 
ATOM     46  O   UNL A   1      50.919  26.899  32.534  1.00  0.00    -0.237 OA
ATOM     47  O   UNL A   1      49.673  24.767  32.585  1.00  0.00    -0.237 OA
ATOM     48  O   UNL A   1      50.550  25.634  30.450  1.00  0.00    -0.744 OA
ENDBRANCH  44  45
ENDBRANCH  25  39
BRANCH  26  49
ATOM     49  C   UNL A   1      37.344  32.770  29.795  1.00  0.00    -0.014 A 
ATOM     50  C   UNL A   1      36.373  32.697  30.808  1.00  0.00     0.010 A 
ATOM     51  C   UNL A   1      37.061  33.510  28.630  1.00  0.00     0.010 A 
ATOM     52  C   UNL A   1      35.146  33.348  30.661  1.00  0.00     0.020 A 
ATOM     53  C   UNL A   1      35.849  34.190  28.493  1.00  0.00     0.020 A 
ATOM     54  C   UNL A   1      34.894  34.097  29.508  1.00  0.00     0.054 A 
BRANCH  54  55
ATOM     55  S   UNL A   1      33.321  34.992  29.375  1.00  0.00     0.124 S 
ATOM     56  O   UNL A   1      32.809  34.910  30.738  1.00  0.00    -0.237 OA
ATOM     57  O   UNL A   1      33.751  36.318  28.937  1.00  0.00    -0.237 OA
ATOM     58  O   UNL A   1      32.576  34.226  28.378  1.00  0.00    -0.744 OA
ENDBRANCH  54  55
ENDBRANCH  26  49
BRANCH  38  59
ATOM     59  C   UNL A   1      43.203  34.528  33.151  1.00  0.00    -0.014 A 
ATOM     60  C   UNL A   1      43.727  35.669  32.517  1.00  0.00     0.010 A 
ATOM     61  C   UNL A   1      43.012  34.545  34.545  1.00  0.00     0.010 A 
ATOM     62  C   UNL A   1      44.085  36.792  33.269  1.00  0.00     0.020 A 
ATOM     63  C   UNL A   1      43.338  35.677  35.294  1.00  0.00     0.020 A 
ATOM     64  C   UNL A   1      43.886  36.790  34.652  1.00  0.00     0.054 A 
BRANCH  64  65
ATOM     65  S   UNL A   1      44.319  38.275  35.598  1.00  0.00     0.124 S 
ATOM     66  O   UNL A   1      43.677  38.015  36.884  1.00  0.00    -0.237 OA
ATOM     67  O   UNL A   1      45.779  38.235  35.605  1.00  0.00    -0.237 OA
ATOM     68  O   UNL A   1      43.735  39.365  34.820  1.00  0.00    -0.744 OA
ENDBRANCH  64  65
ENDBRANCH  38  59
ENDBRANCH  12  13
ENDBRANCH   5   7
ENDBRANCH   2   3
ENDBRANCH   1   2
BRANCH   1  69
ATOM     69  C   UNL A   1      34.956  23.231  23.247  1.00  0.00     0.117 C 
BRANCH  69  70
ATOM     70  N   UNL A   1      33.818  24.216  22.577  1.00  0.00    -0.356 N 
ATOM     71  C   UNL A   1      33.065  25.424  22.481  1.00  0.00     0.227 C 
ATOM     72  H   UNL A   1      33.462  23.673  21.837  1.00  0.00     0.163 HD
ATOM     73  O   UNL A   1      32.512  25.481  21.353  1.00  0.00    -0.275 OA
BRANCH  71  74
ATOM     74  C   UNL A   1      32.604  26.861  23.553  1.00  0.00     0.127 C 
ATOM     75  C   UNL A   1      31.876  26.325  24.782  1.00  0.00     0.127 C 
ATOM     76  C   UNL A   1      31.750  28.269  23.507  1.00  0.00     0.155 C 
ATOM     77  C   UNL A   1      30.979  27.456  25.324  1.00  0.00     0.155 C 
ATOM     78  C   UNL A   1      32.241  29.190  24.598  1.00  0.00     0.004 C 
ATOM     79  O   UNL A   1      30.461  27.958  24.080  1.00  0.00    -0.365 OA
ATOM     80  C   UNL A   1      31.752  28.679  25.732  1.00  0.00     0.004 C 
BRANCH  75  81
ATOM     81  C   UNL A   1      30.996  25.279  24.231  1.00  0.00     0.231 C 
ATOM     82  O   UNL A   1      30.170  25.567  23.358  1.00  0.00    -0.274 OA
ATOM     83  N   UNL A   1      31.157  23.966  24.593  1.00  0.00    -0.325 N 
ATOM     84  H   UNL A   1      30.472  23.421  24.143  1.00  0.00     0.169 HD
BRANCH  83  85
ATOM     85  C   UNL A   1      32.004  23.090  25.428  1.00  0.00     0.044 A 
ATOM     86  C   UNL A   1      32.496  24.000  26.410  1.00  0.00     0.026 A 
ATOM     87  C   UNL A   1      32.439  21.598  25.501  1.00  0.00    -0.020 A 
ATOM     88  C   UNL A   1      33.201  23.599  27.518  1.00  0.00     0.002 A 
ATOM     89  C   UNL A   1      33.020  21.272  26.759  1.00  0.00     0.006 A 
ATOM     90  C   UNL A   1      33.403  22.245  27.716  1.00  0.00     0.000 A 
BRANCH  87  91
ATOM     91  C   UNL A   1      32.439  20.094  24.416  1.00  0.00     0.073 C 
BRANCH  91  92
ATOM     92  C   UNL A   1      32.963  18.493  24.610  1.00  0.00    -0.044 A 
ATOM     93  C   UNL A   1      32.606  17.615  25.676  1.00  0.00     0.004 A 
ATOM     94  C   UNL A   1      33.827  17.850  23.709  1.00  0.00     0.004 A 
ATOM     95  C   UNL A   1      32.785  16.209  25.652  1.00  0.00     0.000 A 
ATOM     96  C   UNL A   1      34.028  16.443  23.665  1.00  0.00     0.000 A 
ATOM     97  C   UNL A   1      33.460  15.610  24.612  1.00  0.00     0.000 A 
ENDBRANCH  91  92
ENDBRANCH  87  91
ENDBRANCH  83  85
ENDBRANCH  75  81
ENDBRANCH  71  74
ENDBRANCH  69  70
ENDBRANCH   1  69
TORSDOF 17
ENDMDL
MODEL 2
REMARK VINA RESULT:     -12.5      2.993      5.446
REMARK SMILES O=C(NCCCNC(=O)[C@@H]1[C@H](C(=O)Nc2ccccc2Cc2ccccc2)[C@H]2C=C[C@@H]1O2)c1ccc(-c2c3nc(c(-c4ccc(S(=O)(=O)[O-])cc4)c4ccc([nH]4)c(-c4ccc(S(=O)(=O)[O-])cc4)c4nc(c(-c5ccc(S(=O)(=O)[O-])cc5)c5ccc2[nH]5)C=C4)C=C3)cc1
REMARK SMILES IDX 5 1 4 2 3 3 1 4 2 5 33 7 34 8 92 9 35 10 91 11 36 12 37 13
REMARK SMILES IDX 38 14 85 15 39 16 90 17 84 18 86 19 40 20 89 21 83 22 82 23
REMARK SMILES IDX 41 25 71 26 52 27 70 28 53 29 56 30 69 31 87 32 54 33 55 34
REMARK SMILES IDX 68 36 88 37 57 38 42 39 43 40 51 41 44 42 50 43 45 44 46 45
REMARK SMILES IDX 47 46 48 47 49 48 72 49 73 50 81 51 74 52 80 53 75 54 76 55
REMARK SMILES IDX 77 56 78 57 79 58 58 59 59 60 67 61 60 62 66 63 61 64 62 65
REMARK SMILES IDX 63 66 64 67 65 68 6 69 7 70 8 71 9 73 10 74 11 75 31 76
REMARK SMILES IDX 28 77 30 78 32 79 29 80 12 81 13 82 14 83 15 85 16 86 20 87
REMARK SMILES IDX 17 88 19 89 18 90 21 91 22 92 23 93 27 94 24 95 26 96 25 97
REMARK H PARENT 3 6 86 24 56 35 7 72 14 84
REMARK Flexibility Score: inf
ROOT
ATOM      1  C   UNL A   1      36.950  23.686  24.633  1.00  0.00     0.042 C 
ENDROOT
BRANCH   1   2
ATOM      2  C   UNL A   1      37.284  23.175  26.056  1.00  0.00     0.118 C 
BRANCH   2   3
ATOM      3  N   UNL A   1      38.314  22.157  26.145  1.00  0.00    -0.352 N 
ATOM      4  O   UNL A   1      40.418  21.389  26.404  1.00  0.00    -0.269 OA
ATOM      5  C   UNL A   1      39.647  22.323  26.504  1.00  0.00     0.251 C 
ATOM      6  H   UNL A   1      38.037  21.238  25.924  1.00  0.00     0.163 HD
BRANCH   5   7
ATOM      7  C   UNL A   1      40.149  23.655  26.963  1.00  0.00     0.039 A 
ATOM      8  C   UNL A   1      40.755  23.829  28.209  1.00  0.00     0.014 A 
ATOM      9  C   UNL A   1      40.075  24.745  26.085  1.00  0.00     0.014 A 
ATOM     10  C   UNL A   1      41.207  25.091  28.609  1.00  0.00     0.010 A 
ATOM     11  C   UNL A   1      40.602  25.992  26.454  1.00  0.00     0.010 A 
ATOM     12  C   UNL A   1      41.181  26.176  27.718  1.00  0.00    -0.014 A 
BRANCH  12  13
ATOM     13  C   UNL A   1      41.897  27.443  28.046  1.00  0.00     0.031 A 
ATOM     14  C   UNL A   1      43.383  27.587  27.852  1.00  0.00     0.074 A 
ATOM     15  C   UNL A   1      41.194  28.457  28.595  1.00  0.00     0.049 A 
ATOM     16  N   UNL A   1      44.167  28.579  28.194  1.00  0.00    -0.248 NA
ATOM     17  C   UNL A   1      44.083  26.467  27.205  1.00  0.00     0.031 C 
ATOM     18  C   UNL A   1      39.751  28.441  28.850  1.00  0.00     0.029 A 
ATOM     19  N   UNL A   1      41.591  29.691  29.045  1.00  0.00    -0.354 N 
ATOM     20  C   UNL A   1      45.455  28.195  27.832  1.00  0.00     0.074 A 
ATOM     21  C   UNL A   1      45.346  26.869  27.261  1.00  0.00     0.031 C 
ATOM     22  C   UNL A   1      39.380  29.615  29.375  1.00  0.00     0.029 A 
ATOM     23  C   UNL A   1      40.564  30.439  29.576  1.00  0.00     0.049 A 
ATOM     24  H   UNL A   1      42.520  30.012  28.993  1.00  0.00     0.167 HD
ATOM     25  C   UNL A   1      46.616  28.884  27.967  1.00  0.00     0.031 A 
ATOM     26  C   UNL A   1      40.568  31.636  30.191  1.00  0.00     0.031 A 
ATOM     27  C   UNL A   1      46.713  30.200  28.550  1.00  0.00     0.049 A 
ATOM     28  C   UNL A   1      41.871  32.357  30.371  1.00  0.00     0.074 A 
ATOM     29  C   UNL A   1      47.837  30.996  28.700  1.00  0.00     0.029 A 
ATOM     30  N   UNL A   1      45.650  30.912  29.091  1.00  0.00    -0.354 N 
ATOM     31  N   UNL A   1      43.072  31.989  29.994  1.00  0.00    -0.248 NA
ATOM     32  C   UNL A   1      41.821  33.653  31.059  1.00  0.00     0.031 C 
ATOM     33  C   UNL A   1      47.466  32.157  29.386  1.00  0.00     0.029 A 
ATOM     34  C   UNL A   1      46.097  32.121  29.600  1.00  0.00     0.049 A 
ATOM     35  H   UNL A   1      44.716  30.603  29.108  1.00  0.00     0.167 HD
ATOM     36  C   UNL A   1      43.920  33.020  30.379  1.00  0.00     0.074 A 
ATOM     37  C   UNL A   1      43.090  34.032  31.001  1.00  0.00     0.031 C 
ATOM     38  C   UNL A   1      45.264  33.117  30.229  1.00  0.00     0.031 A 
BRANCH  25  39
ATOM     39  C   UNL A   1      47.889  28.211  27.510  1.00  0.00    -0.014 A 
ATOM     40  C   UNL A   1      48.686  27.465  28.398  1.00  0.00     0.010 A 
ATOM     41  C   UNL A   1      48.276  28.294  26.159  1.00  0.00     0.010 A 
ATOM     42  C   UNL A   1      49.869  26.861  27.957  1.00  0.00     0.020 A 
ATOM     43  C   UNL A   1      49.441  27.665  25.705  1.00  0.00     0.020 A 
ATOM     44  C   UNL A   1      50.241  26.971  26.614  1.00  0.00     0.054 A 
BRANCH  44  45
ATOM     45  S   UNL A   1      51.782  26.180  26.071  1.00  0.00     0.124 S 
ATOM     46  O   UNL A   1      51.592  24.806  26.532  1.00  0.00    -0.237 OA
ATOM     47  O   UNL A   1      51.743  26.365  24.623  1.00  0.00    -0.237 OA
ATOM     48  O   UNL A   1      52.824  26.930  26.766  1.00  0.00    -0.744 OA
ENDBRANCH  44  45
ENDBRANCH  25  39
BRANCH  26  49
ATOM     49  C   UNL A   1      39.289  32.210  30.691  1.00  0.00    -0.014 A 
ATOM     50  C   UNL A   1      38.739  31.772  31.907  1.00  0.00     0.010 A 
ATOM     51  C   UNL A   1      38.638  33.235  29.976  1.00  0.00     0.010 A 
ATOM     52  C   UNL A   1      37.562  32.344  32.399  1.00  0.00     0.020 A 
ATOM     53  C   UNL A   1      37.481  33.833  30.481  1.00  0.00     0.020 A 
ATOM     54  C   UNL A   1      36.945  33.377  31.686  1.00  0.00     0.054 A 
BRANCH  54  55
ATOM     55  S   UNL A   1      35.460  34.152  32.384  1.00  0.00     0.124 S 
ATOM     56  O   UNL A   1      36.019  35.301  33.087  1.00  0.00    -0.237 OA
ATOM     57  O   UNL A   1      34.676  34.458  31.190  1.00  0.00    -0.237 OA
ATOM     58  O   UNL A   1      34.899  33.107  33.237  1.00  0.00    -0.744 OA
ENDBRANCH  54  55
ENDBRANCH  26  49
BRANCH  38  59
ATOM     59  C   UNL A   1      45.919  34.383  30.716  1.00  0.00    -0.014 A 
ATOM     60  C   UNL A   1      46.433  34.486  32.021  1.00  0.00     0.010 A 
ATOM     61  C   UNL A   1      46.054  35.475  29.838  1.00  0.00     0.010 A 
ATOM     62  C   UNL A   1      47.040  35.671  32.450  1.00  0.00     0.020 A 
ATOM     63  C   UNL A   1      46.688  36.648  30.253  1.00  0.00     0.020 A 
ATOM     64  C   UNL A   1      47.165  36.743  31.562  1.00  0.00     0.054 A 
BRANCH  64  65
ATOM     65  S   UNL A   1      47.993  38.254  32.129  1.00  0.00     0.124 S 
ATOM     66  O   UNL A   1      48.049  38.046  33.573  1.00  0.00    -0.237 OA
ATOM     67  O   UNL A   1      49.277  38.193  31.435  1.00  0.00    -0.237 OA
ATOM     68  O   UNL A   1      47.103  39.325  31.687  1.00  0.00    -0.744 OA
ENDBRANCH  64  65
ENDBRANCH  38  59
ENDBRANCH  12  13
ENDBRANCH   5   7
ENDBRANCH   2   3
ENDBRANCH   1   2
BRANCH   1  69
ATOM     69  C   UNL A   1      35.963  22.844  23.673  1.00  0.00     0.117 C 
BRANCH  69  70
ATOM     70  N   UNL A   1      34.406  23.091  23.196  1.00  0.00    -0.356 N 
ATOM     71  C   UNL A   1      33.017  23.329  23.424  1.00  0.00     0.227 C 
ATOM     72  H   UNL A   1      34.467  23.055  22.214  1.00  0.00     0.163 HD
ATOM     73  O   UNL A   1      32.482  23.725  22.358  1.00  0.00    -0.275 OA
BRANCH  71  74
ATOM     74  C   UNL A   1      31.784  23.138  24.791  1.00  0.00     0.127 C 
ATOM     75  C   UNL A   1      31.478  24.523  25.355  1.00  0.00     0.127 C 
ATOM     76  C   UNL A   1      31.582  22.369  26.233  1.00  0.00     0.155 C 
ATOM     77  C   UNL A   1      30.990  24.339  26.806  1.00  0.00     0.155 C 
ATOM     78  C   UNL A   1      30.109  22.269  26.547  1.00  0.00     0.004 C 
ATOM     79  O   UNL A   1      31.931  23.342  27.243  1.00  0.00    -0.365 OA
ATOM     80  C   UNL A   1      29.745  23.503  26.910  1.00  0.00     0.004 C 
BRANCH  75  81
ATOM     81  C   UNL A   1      32.800  25.173  25.404  1.00  0.00     0.231 C 
ATOM     82  O   UNL A   1      33.802  24.507  25.683  1.00  0.00    -0.274 OA
ATOM     83  N   UNL A   1      32.948  26.485  25.035  1.00  0.00    -0.325 N 
ATOM     84  H   UNL A   1      33.889  26.748  25.150  1.00  0.00     0.169 HD
BRANCH  83  85
ATOM     85  C   UNL A   1      32.180  27.639  24.524  1.00  0.00     0.044 A 
ATOM     86  C   UNL A   1      31.717  27.154  23.264  1.00  0.00     0.026 A 
ATOM     87  C   UNL A   1      31.789  29.079  24.963  1.00  0.00    -0.020 A 
ATOM     88  C   UNL A   1      30.804  27.827  22.491  1.00  0.00     0.002 A 
ATOM     89  C   UNL A   1      30.727  29.608  24.178  1.00  0.00     0.006 A 
ATOM     90  C   UNL A   1      30.272  29.008  22.977  1.00  0.00     0.000 A 
BRANCH  87  91
ATOM     91  C   UNL A   1      32.312  30.340  26.219  1.00  0.00     0.073 C 
BRANCH  91  92
ATOM     92  C   UNL A   1      33.714  30.583  27.141  1.00  0.00    -0.044 A 
ATOM     93  C   UNL A   1      34.021  31.742  27.915  1.00  0.00     0.004 A 
ATOM     94  C   UNL A   1      34.746  29.636  27.240  1.00  0.00     0.004 A 
ATOM     95  C   UNL A   1      35.021  31.794  28.919  1.00  0.00     0.000 A 
ATOM     96  C   UNL A   1      35.763  29.667  28.234  1.00  0.00     0.000 A 
ATOM     97  C   UNL A   1      35.870  30.728  29.114  1.00  0.00     0.000 A 
ENDBRANCH  91  92
ENDBRANCH  87  91
ENDBRANCH  83  85
ENDBRANCH  75  81
ENDBRANCH  71  74
ENDBRANCH  69  70
ENDBRANCH   1  69
TORSDOF 17
ENDMDL
MODEL 3
REMARK VINA RESULT:     -12.2      6.469     11.187
REMARK SMILES O=C(NCCCNC(=O)[C@@H]1[C@H](C(=O)Nc2ccccc2Cc2ccccc2)[C@H]2C=C[C@@H]1O2)c1ccc(-c2c3nc(c(-c4ccc(S(=O)(=O)[O-])cc4)c4ccc([nH]4)c(-c4ccc(S(=O)(=O)[O-])cc4)c4nc(c(-c5ccc(S(=O)(=O)[O-])cc5)c5ccc2[nH]5)C=C4)C=C3)cc1
REMARK SMILES IDX 5 1 4 2 3 3 1 4 2 5 33 7 34 8 92 9 35 10 91 11 36 12 37 13
REMARK SMILES IDX 38 14 85 15 39 16 90 17 84 18 86 19 40 20 89 21 83 22 82 23
REMARK SMILES IDX 41 25 71 26 52 27 70 28 53 29 56 30 69 31 87 32 54 33 55 34
REMARK SMILES IDX 68 36 88 37 57 38 42 39 43 40 51 41 44 42 50 43 45 44 46 45
REMARK SMILES IDX 47 46 48 47 49 48 72 49 73 50 81 51 74 52 80 53 75 54 76 55
REMARK SMILES IDX 77 56 78 57 79 58 58 59 59 60 67 61 60 62 66 63 61 64 62 65
REMARK SMILES IDX 63 66 64 67 65 68 6 69 7 70 8 71 9 73 10 74 11 75 31 76
REMARK SMILES IDX 28 77 30 78 32 79 29 80 12 81 13 82 14 83 15 85 16 86 20 87
REMARK SMILES IDX 17 88 19 89 18 90 21 91 22 92 23 93 27 94 24 95 26 96 25 97
REMARK H PARENT 3 6 86 24 56 35 7 72 14 84
REMARK Flexibility Score: inf
ROOT
ATOM      1  C   UNL A   1      50.449  25.217  26.881  1.00  0.00     0.042 C 
ENDROOT
BRANCH   1   2
ATOM      2  C   UNL A   1      51.171  26.549  27.198  1.00  0.00     0.118 C 
BRANCH   2   3
ATOM      3  N   UNL A   1      51.419  27.427  26.069  1.00  0.00    -0.352 N 
ATOM      4  O   UNL A   1      50.925  29.065  24.601  1.00  0.00    -0.269 OA
ATOM      5  C   UNL A   1      50.653  28.507  25.646  1.00  0.00     0.251 C 
ATOM      6  H   UNL A   1      52.225  27.234  25.538  1.00  0.00     0.163 HD
BRANCH   5   7
ATOM      7  C   UNL A   1      49.468  28.956  26.441  1.00  0.00     0.039 A 
ATOM      8  C   UNL A   1      48.173  28.526  26.147  1.00  0.00     0.014 A 
ATOM      9  C   UNL A   1      49.676  29.774  27.560  1.00  0.00     0.014 A 
ATOM     10  C   UNL A   1      47.087  28.971  26.908  1.00  0.00     0.010 A 
ATOM     11  C   UNL A   1      48.596  30.154  28.372  1.00  0.00     0.010 A 
ATOM     12  C   UNL A   1      47.290  29.750  28.059  1.00  0.00    -0.014 A 
BRANCH  12  13
ATOM     13  C   UNL A   1      46.170  30.002  29.010  1.00  0.00     0.031 A 
ATOM     14  C   UNL A   1      45.396  31.294  29.000  1.00  0.00     0.074 A 
ATOM     15  C   UNL A   1      45.896  29.068  29.945  1.00  0.00     0.049 A 
ATOM     16  N   UNL A   1      44.473  31.709  29.832  1.00  0.00    -0.248 NA
ATOM     17  C   UNL A   1      45.708  32.250  27.927  1.00  0.00     0.031 C 
ATOM     18  C   UNL A   1      46.581  27.779  30.075  1.00  0.00     0.029 A 
ATOM     19  N   UNL A   1      44.981  29.054  30.968  1.00  0.00    -0.354 N 
ATOM     20  C   UNL A   1      44.113  32.983  29.404  1.00  0.00     0.074 A 
ATOM     21  C   UNL A   1      44.933  33.278  28.248  1.00  0.00     0.031 C 
ATOM     22  C   UNL A   1      46.043  27.089  31.088  1.00  0.00     0.029 A 
ATOM     23  C   UNL A   1      45.034  27.914  31.738  1.00  0.00     0.049 A 
ATOM     24  H   UNL A   1      44.348  29.789  31.136  1.00  0.00     0.167 HD
ATOM     25  C   UNL A   1      43.188  33.826  29.930  1.00  0.00     0.031 A 
ATOM     26  C   UNL A   1      44.378  27.575  32.863  1.00  0.00     0.031 A 
ATOM     27  C   UNL A   1      42.387  33.526  31.091  1.00  0.00     0.049 A 
ATOM     28  C   UNL A   1      43.395  28.543  33.452  1.00  0.00     0.074 A 
ATOM     29  C   UNL A   1      41.399  34.298  31.679  1.00  0.00     0.029 A 
ATOM     30  N   UNL A   1      42.486  32.366  31.849  1.00  0.00    -0.354 N 
ATOM     31  N   UNL A   1      43.048  29.729  33.013  1.00  0.00    -0.248 NA
ATOM     32  C   UNL A   1      42.715  28.129  34.685  1.00  0.00     0.031 C 
ATOM     33  C   UNL A   1      40.948  33.636  32.827  1.00  0.00     0.029 A 
ATOM     34  C   UNL A   1      41.601  32.417  32.914  1.00  0.00     0.049 A 
ATOM     35  H   UNL A   1      43.096  31.618  31.657  1.00  0.00     0.167 HD
ATOM     36  C   UNL A   1      42.091  30.196  33.906  1.00  0.00     0.074 A 
ATOM     37  C   UNL A   1      41.903  29.155  34.897  1.00  0.00     0.031 C 
ATOM     38  C   UNL A   1      41.429  31.379  33.903  1.00  0.00     0.031 A 
BRANCH  25  39
ATOM     39  C   UNL A   1      43.018  35.178  29.276  1.00  0.00    -0.014 A 
ATOM     40  C   UNL A   1      43.834  36.270  29.622  1.00  0.00     0.010 A 
ATOM     41  C   UNL A   1      42.049  35.348  28.269  1.00  0.00     0.010 A 
ATOM     42  C   UNL A   1      43.649  37.516  29.013  1.00  0.00     0.020 A 
ATOM     43  C   UNL A   1      41.881  36.583  27.634  1.00  0.00     0.020 A 
ATOM     44  C   UNL A   1      42.670  37.666  28.027  1.00  0.00     0.054 A 
BRANCH  44  45
ATOM     45  S   UNL A   1      42.452  39.295  27.258  1.00  0.00     0.124 S 
ATOM     46  O   UNL A   1      43.772  39.532  26.678  1.00  0.00    -0.237 OA
ATOM     47  O   UNL A   1      41.380  39.053  26.296  1.00  0.00    -0.237 OA
ATOM     48  O   UNL A   1      42.099  40.166  28.375  1.00  0.00    -0.744 OA
ENDBRANCH  44  45
ENDBRANCH  25  39
BRANCH  26  49
ATOM     49  C   UNL A   1      44.649  26.259  33.505  1.00  0.00    -0.014 A 
ATOM     50  C   UNL A   1      44.110  25.079  32.967  1.00  0.00     0.010 A 
ATOM     51  C   UNL A   1      45.492  26.175  34.632  1.00  0.00     0.010 A 
ATOM     52  C   UNL A   1      44.403  23.840  33.543  1.00  0.00     0.020 A 
ATOM     53  C   UNL A   1      45.815  24.935  35.189  1.00  0.00     0.020 A 
ATOM     54  C   UNL A   1      45.260  23.775  34.646  1.00  0.00     0.054 A 
BRANCH  54  55
ATOM     55  S   UNL A   1      45.682  22.148  35.328  1.00  0.00     0.124 S 
ATOM     56  O   UNL A   1      45.643  22.402  36.764  1.00  0.00    -0.237 OA
ATOM     57  O   UNL A   1      44.614  21.301  34.804  1.00  0.00    -0.237 OA
ATOM     58  O   UNL A   1      47.008  21.879  34.776  1.00  0.00    -0.744 OA
ENDBRANCH  54  55
ENDBRANCH  26  49
BRANCH  38  59
ATOM     59  C   UNL A   1      40.409  31.598  34.989  1.00  0.00    -0.014 A 
ATOM     60  C   UNL A   1      39.124  31.031  34.911  1.00  0.00     0.010 A 
ATOM     61  C   UNL A   1      40.757  32.354  36.123  1.00  0.00     0.010 A 
ATOM     62  C   UNL A   1      38.194  31.247  35.933  1.00  0.00     0.020 A 
ATOM     63  C   UNL A   1      39.842  32.545  37.161  1.00  0.00     0.020 A 
ATOM     64  C   UNL A   1      38.560  32.000  37.052  1.00  0.00     0.054 A 
BRANCH  64  65
ATOM     65  S   UNL A   1      37.351  32.229  38.384  1.00  0.00     0.124 S 
ATOM     66  O   UNL A   1      36.956  30.854  38.676  1.00  0.00    -0.237 OA
ATOM     67  O   UNL A   1      38.139  32.891  39.420  1.00  0.00    -0.237 OA
ATOM     68  O   UNL A   1      36.314  33.058  37.773  1.00  0.00    -0.744 OA
ENDBRANCH  64  65
ENDBRANCH  38  59
ENDBRANCH  12  13
ENDBRANCH   5   7
ENDBRANCH   2   3
ENDBRANCH   1   2
BRANCH   1  69
ATOM     69  C   UNL A   1      48.896  25.212  26.445  1.00  0.00     0.117 C 
BRANCH  69  70
ATOM     70  N   UNL A   1      47.510  24.927  27.287  1.00  0.00    -0.356 N 
ATOM     71  C   UNL A   1      46.104  25.028  27.516  1.00  0.00     0.227 C 
ATOM     72  H   UNL A   1      47.822  24.395  28.054  1.00  0.00     0.163 HD
ATOM     73  O   UNL A   1      45.757  24.166  28.363  1.00  0.00    -0.275 OA
BRANCH  71  74
ATOM     74  C   UNL A   1      44.689  26.104  27.001  1.00  0.00     0.127 C 
ATOM     75  C   UNL A   1      43.955  25.412  25.856  1.00  0.00     0.127 C 
ATOM     76  C   UNL A   1      44.373  27.624  26.451  1.00  0.00     0.155 C 
ATOM     77  C   UNL A   1      43.228  26.501  25.042  1.00  0.00     0.155 C 
ATOM     78  C   UNL A   1      42.932  27.972  26.738  1.00  0.00     0.004 C 
ATOM     79  O   UNL A   1      44.262  27.501  25.016  1.00  0.00    -0.365 OA
ATOM     80  C   UNL A   1      42.220  27.270  25.850  1.00  0.00     0.004 C 
BRANCH  75  81
ATOM     81  C   UNL A   1      45.047  24.880  25.021  1.00  0.00     0.231 C 
ATOM     82  O   UNL A   1      45.973  25.620  24.675  1.00  0.00    -0.274 OA
ATOM     83  N   UNL A   1      45.106  23.544  24.715  1.00  0.00    -0.325 N 
ATOM     84  H   UNL A   1      45.886  23.380  24.138  1.00  0.00     0.169 HD
BRANCH  83  85
ATOM     85  C   UNL A   1      44.401  22.268  24.954  1.00  0.00     0.044 A 
ATOM     86  C   UNL A   1      45.311  21.318  24.403  1.00  0.00     0.026 A 
ATOM     87  C   UNL A   1      43.074  21.759  25.587  1.00  0.00    -0.020 A 
ATOM     88  C   UNL A   1      45.160  19.962  24.550  1.00  0.00     0.002 A 
ATOM     89  C   UNL A   1      43.102  20.356  25.829  1.00  0.00     0.006 A 
ATOM     90  C   UNL A   1      44.100  19.495  25.308  1.00  0.00     0.000 A 
BRANCH  87  91
ATOM     91  C   UNL A   1      41.434  22.442  26.117  1.00  0.00     0.073 C 
BRANCH  91  92
ATOM     92  C   UNL A   1      40.950  23.660  27.194  1.00  0.00    -0.044 A 
ATOM     93  C   UNL A   1      41.731  24.201  28.257  1.00  0.00     0.004 A 
ATOM     94  C   UNL A   1      39.691  24.280  27.141  1.00  0.00     0.004 A 
ATOM     95  C   UNL A   1      41.443  25.418  28.926  1.00  0.00     0.000 A 
ATOM     96  C   UNL A   1      39.374  25.497  27.804  1.00  0.00     0.000 A 
ATOM     97  C   UNL A   1      40.276  26.099  28.662  1.00  0.00     0.000 A 
ENDBRANCH  91  92
ENDBRANCH  87  91
ENDBRANCH  83  85
ENDBRANCH  75  81
ENDBRANCH  71  74
ENDBRANCH  69  70
ENDBRANCH   1  69
TORSDOF 17
ENDMDL
