MODEL 1
REMARK VINA RESULT:     -13.1      0.000      0.000
REMARK SMILES O=C(NCCCNC(=O)c1ccc(-c2c3nc(c(-c4ccc(S(=O)(=O)[O-])cc4)c4ccc([nH]4)c(-c4ccc(S(=O)(=O)[O-])cc4)c4nc(c(-c5ccc(S(=O)(=O)[O-])cc5)c5ccc2[nH]5)C=C4)C=C3)cc1)C1=Cc2cc(Cl)cc(-c3ccccc3)c2O[C@@H]1C(F)(F)F
REMARK SMILES IDX 6 1 5 2 4 3 3 4 1 5 2 6 70 8 71 9 86 10 72 11 85 12 73 13
REMARK SMILES IDX 84 14 74 15 77 16 75 17 76 18 87 19 88 20 89 21 90 22 78 23
REMARK SMILES IDX 79 24 83 25 80 26 82 27 81 28 7 29 8 30 9 32 10 33 11 34
REMARK SMILES IDX 69 35 12 36 68 37 13 38 14 39 15 40 62 41 16 42 67 43 61 44
REMARK SMILES IDX 63 45 17 46 66 47 60 48 59 49 18 51 48 52 29 53 47 54 30 55
REMARK SMILES IDX 33 56 46 57 64 58 31 59 32 60 45 62 65 63 34 64 19 65 20 66
REMARK SMILES IDX 28 67 21 68 27 69 22 70 23 71 24 72 25 73 26 74 49 75 50 76
REMARK SMILES IDX 58 77 51 78 57 79 52 80 53 81 54 82 55 83 56 84 35 85 36 86
REMARK SMILES IDX 44 87 37 88 43 89 38 90 39 91 40 92 41 93 42 94
REMARK H PARENT 3 7 7 31 63 50 33 61
REMARK Flexibility Score: inf
ROOT
ATOM      1  C   UNL A   1      33.229  28.996  26.970  1.00  0.00     0.118 C 
ENDROOT
BRANCH   1   2
ATOM      2  C   UNL A   1      31.808  28.442  26.932  1.00  0.00     0.042 C 
BRANCH   2   3
ATOM      3  C   UNL A   1      31.683  27.221  26.019  1.00  0.00     0.118 C 
BRANCH   3   4
ATOM      4  N   UNL A   1      31.238  26.021  26.737  1.00  0.00    -0.352 N 
ATOM      5  O   UNL A   1      31.368  23.878  27.481  1.00  0.00    -0.270 OA
ATOM      6  C   UNL A   1      31.693  24.730  26.663  1.00  0.00     0.251 C 
ATOM      7  H   UNL A   1      30.497  26.165  27.369  1.00  0.00     0.163 HD
BRANCH   6   8
ATOM      8  C   UNL A   1      32.656  24.431  25.594  1.00  0.00     0.067 C 
ATOM      9  C   UNL A   1      33.948  24.674  25.836  1.00  0.00     0.025 C 
ATOM     10  C   UNL A   1      32.190  23.564  24.471  1.00  0.00     0.314 C 
ATOM     11  C   UNL A   1      34.862  23.658  25.305  1.00  0.00     0.019 A 
ATOM     12  O   UNL A   1      33.009  22.376  24.351  1.00  0.00    -0.475 OA
ATOM     13  C   UNL A   1      36.193  23.705  25.724  1.00  0.00     0.032 A 
ATOM     14  C   UNL A   1      34.320  22.468  24.768  1.00  0.00     0.135 A 
ATOM     15  C   UNL A   1      36.949  22.539  25.713  1.00  0.00     0.042 A 
ATOM     16  C   UNL A   1      35.063  21.273  24.813  1.00  0.00     0.026 A 
ATOM     17  Cl  UNL A   1      38.537  22.560  26.373  1.00  0.00    -0.084 Cl
ATOM     18  C   UNL A   1      36.386  21.334  25.293  1.00  0.00     0.033 A 
BRANCH  10  19
ATOM     19  C   UNL A   1      32.096  24.343  23.148  1.00  0.00     0.429 C 
ATOM     20  F   UNL A   1      32.534  23.595  22.105  1.00  0.00    -0.167 F 
ATOM     21  F   UNL A   1      30.820  24.695  22.860  1.00  0.00    -0.167 F 
ATOM     22  F   UNL A   1      32.830  25.481  23.156  1.00  0.00    -0.167 F 
ENDBRANCH  10  19
BRANCH  16  23
ATOM     23  C   UNL A   1      34.450  19.954  24.576  1.00  0.00    -0.015 A 
ATOM     24  C   UNL A   1      35.250  18.799  24.606  1.00  0.00     0.009 A 
ATOM     25  C   UNL A   1      33.089  19.792  24.298  1.00  0.00     0.009 A 
ATOM     26  C   UNL A   1      34.738  17.534  24.322  1.00  0.00     0.001 A 
ATOM     27  C   UNL A   1      32.566  18.522  24.019  1.00  0.00     0.001 A 
ATOM     28  C   UNL A   1      33.392  17.397  24.019  1.00  0.00     0.000 A 
ENDBRANCH  16  23
ENDBRANCH   6   8
ENDBRANCH   3   4
ENDBRANCH   2   3
ENDBRANCH   1   2
BRANCH   1  29
ATOM     29  N   UNL A   1      33.373  30.282  27.629  1.00  0.00    -0.352 N 
ATOM     30  C   UNL A   1      34.472  30.831  28.264  1.00  0.00     0.251 C 
ATOM     31  H   UNL A   1      32.567  30.848  27.624  1.00  0.00     0.163 HD
ATOM     32  O   UNL A   1      34.368  31.943  28.779  1.00  0.00    -0.269 OA
BRANCH  30  33
ATOM     33  C   UNL A   1      35.737  30.076  28.431  1.00  0.00     0.039 A 
ATOM     34  C   UNL A   1      36.635  30.067  27.354  1.00  0.00     0.014 A 
ATOM     35  C   UNL A   1      36.101  29.453  29.622  1.00  0.00     0.014 A 
ATOM     36  C   UNL A   1      37.926  29.568  27.522  1.00  0.00     0.010 A 
ATOM     37  C   UNL A   1      37.418  29.065  29.828  1.00  0.00     0.010 A 
ATOM     38  C   UNL A   1      38.349  29.142  28.789  1.00  0.00    -0.014 A 
BRANCH  38  39
ATOM     39  C   UNL A   1      39.771  28.829  29.061  1.00  0.00     0.031 A 
ATOM     40  C   UNL A   1      40.672  29.870  29.661  1.00  0.00     0.074 A 
ATOM     41  C   UNL A   1      40.259  27.638  28.659  1.00  0.00     0.049 A 
ATOM     42  N   UNL A   1      41.956  29.810  29.896  1.00  0.00    -0.248 NA
ATOM     43  C   UNL A   1      40.061  31.167  29.995  1.00  0.00     0.031 C 
ATOM     44  C   UNL A   1      39.489  26.592  27.975  1.00  0.00     0.029 A 
ATOM     45  N   UNL A   1      41.516  27.100  28.763  1.00  0.00    -0.354 N 
ATOM     46  C   UNL A   1      42.312  31.069  30.367  1.00  0.00     0.074 A 
ATOM     47  C   UNL A   1      41.120  31.887  30.333  1.00  0.00     0.031 C 
ATOM     48  C   UNL A   1      40.276  25.524  27.769  1.00  0.00     0.029 A 
ATOM     49  C   UNL A   1      41.611  25.820  28.270  1.00  0.00     0.049 A 
ATOM     50  H   UNL A   1      42.278  27.586  29.154  1.00  0.00     0.167 HD
ATOM     51  C   UNL A   1      43.518  31.496  30.813  1.00  0.00     0.031 A 
ATOM     52  C   UNL A   1      42.658  24.975  28.240  1.00  0.00     0.031 A 
ATOM     53  C   UNL A   1      44.680  30.651  30.876  1.00  0.00     0.049 A 
ATOM     54  C   UNL A   1      43.958  25.433  28.836  1.00  0.00     0.074 A 
ATOM     55  C   UNL A   1      45.938  30.945  31.371  1.00  0.00     0.029 A 
ATOM     56  N   UNL A   1      44.716  29.333  30.443  1.00  0.00    -0.354 N 
ATOM     57  N   UNL A   1      44.260  26.607  29.341  1.00  0.00    -0.248 NA
ATOM     58  C   UNL A   1      45.049  24.453  28.881  1.00  0.00     0.031 C 
ATOM     59  C   UNL A   1      46.741  29.808  31.215  1.00  0.00     0.029 A 
ATOM     60  C   UNL A   1      45.972  28.797  30.660  1.00  0.00     0.049 A 
ATOM     61  H   UNL A   1      43.958  28.850  30.039  1.00  0.00     0.167 HD
ATOM     62  C   UNL A   1      45.572  26.501  29.784  1.00  0.00     0.074 A 
ATOM     63  C   UNL A   1      45.996  25.141  29.505  1.00  0.00     0.031 C 
ATOM     64  C   UNL A   1      46.358  27.439  30.367  1.00  0.00     0.031 A 
BRANCH  51  65
ATOM     65  C   UNL A   1      43.620  32.930  31.262  1.00  0.00    -0.014 A 
ATOM     66  C   UNL A   1      43.893  33.961  30.343  1.00  0.00     0.010 A 
ATOM     67  C   UNL A   1      43.459  33.254  32.621  1.00  0.00     0.010 A 
ATOM     68  C   UNL A   1      44.069  35.276  30.783  1.00  0.00     0.020 A 
ATOM     69  C   UNL A   1      43.603  34.573  33.061  1.00  0.00     0.020 A 
ATOM     70  C   UNL A   1      43.933  35.572  32.141  1.00  0.00     0.054 A 
BRANCH  70  71
ATOM     71  S   UNL A   1      44.179  37.284  32.689  1.00  0.00     0.124 S 
ATOM     72  O   UNL A   1      45.495  37.212  33.317  1.00  0.00    -0.237 OA
ATOM     73  O   UNL A   1      44.121  38.035  31.437  1.00  0.00    -0.237 OA
ATOM     74  O   UNL A   1      43.063  37.518  33.603  1.00  0.00    -0.744 OA
ENDBRANCH  70  71
ENDBRANCH  51  65
BRANCH  52  75
ATOM     75  C   UNL A   1      42.494  23.604  27.683  1.00  0.00    -0.014 A 
ATOM     76  C   UNL A   1      42.861  23.328  26.353  1.00  0.00     0.010 A 
ATOM     77  C   UNL A   1      42.016  22.555  28.489  1.00  0.00     0.010 A 
ATOM     78  C   UNL A   1      42.737  22.036  25.834  1.00  0.00     0.020 A 
ATOM     79  C   UNL A   1      41.915  21.255  27.982  1.00  0.00     0.020 A 
ATOM     80  C   UNL A   1      42.267  21.006  26.654  1.00  0.00     0.054 A 
BRANCH  80  81
ATOM     81  S   UNL A   1      42.176  19.322  25.981  1.00  0.00     0.124 S 
ATOM     82  O   UNL A   1      40.743  19.162  25.754  1.00  0.00    -0.237 OA
ATOM     83  O   UNL A   1      43.001  19.416  24.778  1.00  0.00    -0.237 OA
ATOM     84  O   UNL A   1      42.739  18.498  27.048  1.00  0.00    -0.744 OA
ENDBRANCH  80  81
ENDBRANCH  52  75
BRANCH  64  85
ATOM     85  C   UNL A   1      47.743  27.011  30.762  1.00  0.00    -0.014 A 
ATOM     86  C   UNL A   1      48.833  27.197  29.894  1.00  0.00     0.010 A 
ATOM     87  C   UNL A   1      47.957  26.449  32.032  1.00  0.00     0.010 A 
ATOM     88  C   UNL A   1      50.112  26.788  30.278  1.00  0.00     0.020 A 
ATOM     89  C   UNL A   1      49.237  26.062  32.428  1.00  0.00     0.020 A 
ATOM     90  C   UNL A   1      50.304  26.219  31.540  1.00  0.00     0.054 A 
BRANCH  90  91
ATOM     91  S   UNL A   1      51.978  25.720  32.028  1.00  0.00     0.124 S 
ATOM     92  O   UNL A   1      52.746  26.022  30.823  1.00  0.00    -0.237 OA
ATOM     93  O   UNL A   1      52.248  26.579  33.178  1.00  0.00    -0.237 OA
ATOM     94  O   UNL A   1      51.836  24.300  32.340  1.00  0.00    -0.744 OA
ENDBRANCH  90  91
ENDBRANCH  64  85
ENDBRANCH  38  39
ENDBRANCH  30  33
ENDBRANCH   1  29
TORSDOF 15
ENDMDL
MODEL 2
REMARK VINA RESULT:     -12.8      0.753      8.094
REMARK SMILES O=C(NCCCNC(=O)c1ccc(-c2c3nc(c(-c4ccc(S(=O)(=O)[O-])cc4)c4ccc([nH]4)c(-c4ccc(S(=O)(=O)[O-])cc4)c4nc(c(-c5ccc(S(=O)(=O)[O-])cc5)c5ccc2[nH]5)C=C4)C=C3)cc1)C1=Cc2cc(Cl)cc(-c3ccccc3)c2O[C@@H]1C(F)(F)F
REMARK SMILES IDX 6 1 5 2 4 3 3 4 1 5 2 6 70 8 71 9 86 10 72 11 85 12 73 13
REMARK SMILES IDX 84 14 74 15 77 16 75 17 76 18 87 19 88 20 89 21 90 22 78 23
REMARK SMILES IDX 79 24 83 25 80 26 82 27 81 28 7 29 8 30 9 32 10 33 11 34
REMARK SMILES IDX 69 35 12 36 68 37 13 38 14 39 15 40 62 41 16 42 67 43 61 44
REMARK SMILES IDX 63 45 17 46 66 47 60 48 59 49 18 51 48 52 29 53 47 54 30 55
REMARK SMILES IDX 33 56 46 57 64 58 31 59 32 60 45 62 65 63 34 64 19 65 20 66
REMARK SMILES IDX 28 67 21 68 27 69 22 70 23 71 24 72 25 73 26 74 49 75 50 76
REMARK SMILES IDX 58 77 51 78 57 79 52 80 53 81 54 82 55 83 56 84 35 85 36 86
REMARK SMILES IDX 44 87 37 88 43 89 38 90 39 91 40 92 41 93 42 94
REMARK H PARENT 3 7 7 31 63 50 33 61
REMARK Flexibility Score: inf
ROOT
ATOM      1  C   UNL A   1      33.280  28.669  27.178  1.00  0.00     0.118 C 
ENDROOT
BRANCH   1   2
ATOM      2  C   UNL A   1      33.502  28.552  25.672  1.00  0.00     0.042 C 
BRANCH   2   3
ATOM      3  C   UNL A   1      32.477  27.634  25.002  1.00  0.00     0.118 C 
BRANCH   3   4
ATOM      4  N   UNL A   1      31.950  26.614  25.915  1.00  0.00    -0.352 N 
ATOM      5  O   UNL A   1      31.945  24.643  27.047  1.00  0.00    -0.270 OA
ATOM      6  C   UNL A   1      32.335  25.310  26.097  1.00  0.00     0.251 C 
ATOM      7  H   UNL A   1      31.205  26.910  26.486  1.00  0.00     0.163 HD
BRANCH   6   8
ATOM      8  C   UNL A   1      33.303  24.769  25.133  1.00  0.00     0.067 C 
ATOM      9  C   UNL A   1      34.602  24.930  25.401  1.00  0.00     0.025 C 
ATOM     10  C   UNL A   1      32.797  23.788  24.127  1.00  0.00     0.314 C 
ATOM     11  C   UNL A   1      35.434  23.768  25.072  1.00  0.00     0.019 A 
ATOM     12  O   UNL A   1      33.503  22.527  24.224  1.00  0.00    -0.475 OA
ATOM     13  C   UNL A   1      36.747  23.758  25.546  1.00  0.00     0.032 A 
ATOM     14  C   UNL A   1      34.801  22.564  24.688  1.00  0.00     0.135 A 
ATOM     15  C   UNL A   1      37.387  22.542  25.745  1.00  0.00     0.042 A 
ATOM     16  C   UNL A   1      35.424  21.328  24.945  1.00  0.00     0.026 A 
ATOM     17  Cl  UNL A   1      38.946  22.520  26.473  1.00  0.00    -0.084 Cl
ATOM     18  C   UNL A   1      36.728  21.342  25.477  1.00  0.00     0.033 A 
BRANCH  10  19
ATOM     19  C   UNL A   1      32.827  24.365  22.701  1.00  0.00     0.429 C 
ATOM     20  F   UNL A   1      33.703  25.396  22.607  1.00  0.00    -0.167 F 
ATOM     21  F   UNL A   1      33.221  23.441  21.792  1.00  0.00    -0.167 F 
ATOM     22  F   UNL A   1      31.621  24.831  22.298  1.00  0.00    -0.167 F 
ENDBRANCH  10  19
BRANCH  16  23
ATOM     23  C   UNL A   1      34.696  20.048  24.873  1.00  0.00    -0.015 A 
ATOM     24  C   UNL A   1      35.380  18.879  24.496  1.00  0.00     0.009 A 
ATOM     25  C   UNL A   1      33.330  19.939  25.148  1.00  0.00     0.009 A 
ATOM     26  C   UNL A   1      34.730  17.656  24.345  1.00  0.00     0.001 A 
ATOM     27  C   UNL A   1      32.671  18.710  25.005  1.00  0.00     0.001 A 
ATOM     28  C   UNL A   1      33.368  17.574  24.592  1.00  0.00     0.000 A 
ENDBRANCH  16  23
ENDBRANCH   6   8
ENDBRANCH   3   4
ENDBRANCH   2   3
ENDBRANCH   1   2
BRANCH   1  29
ATOM     29  N   UNL A   1      33.405  30.011  27.718  1.00  0.00    -0.352 N 
ATOM     30  C   UNL A   1      34.519  30.662  28.215  1.00  0.00     0.251 C 
ATOM     31  H   UNL A   1      32.573  30.536  27.731  1.00  0.00     0.163 HD
ATOM     32  O   UNL A   1      34.396  31.808  28.646  1.00  0.00    -0.269 OA
BRANCH  30  33
ATOM     33  C   UNL A   1      35.832  29.983  28.341  1.00  0.00     0.039 A 
ATOM     34  C   UNL A   1      36.713  30.068  27.254  1.00  0.00     0.014 A 
ATOM     35  C   UNL A   1      36.250  29.344  29.505  1.00  0.00     0.014 A 
ATOM     36  C   UNL A   1      38.035  29.646  27.390  1.00  0.00     0.010 A 
ATOM     37  C   UNL A   1      37.591  29.033  29.682  1.00  0.00     0.010 A 
ATOM     38  C   UNL A   1      38.502  29.204  28.635  1.00  0.00    -0.014 A 
BRANCH  38  39
ATOM     39  C   UNL A   1      39.944  28.972  28.880  1.00  0.00     0.031 A 
ATOM     40  C   UNL A   1      40.572  27.659  28.510  1.00  0.00     0.074 A 
ATOM     41  C   UNL A   1      40.648  29.916  29.537  1.00  0.00     0.049 A 
ATOM     42  N   UNL A   1      41.793  27.243  28.718  1.00  0.00    -0.248 NA
ATOM     43  C   UNL A   1      39.700  26.663  27.864  1.00  0.00     0.031 C 
ATOM     44  C   UNL A   1      40.107  31.189  30.030  1.00  0.00     0.029 A 
ATOM     45  N   UNL A   1      41.967  29.958  29.908  1.00  0.00    -0.354 N 
ATOM     46  C   UNL A   1      41.825  25.928  28.267  1.00  0.00     0.074 A 
ATOM     47  C   UNL A   1      40.488  25.599  27.824  1.00  0.00     0.031 C 
ATOM     48  C   UNL A   1      41.096  31.903  30.590  1.00  0.00     0.029 A 
ATOM     49  C   UNL A   1      42.328  31.130  30.530  1.00  0.00     0.049 A 
ATOM     50  H   UNL A   1      42.595  29.218  29.744  1.00  0.00     0.167 HD
ATOM     51  C   UNL A   1      42.880  25.081  28.203  1.00  0.00     0.031 A 
ATOM     52  C   UNL A   1      43.526  31.538  30.989  1.00  0.00     0.031 A 
ATOM     53  C   UNL A   1      44.210  25.444  28.612  1.00  0.00     0.049 A 
ATOM     54  C   UNL A   1      44.704  30.624  30.812  1.00  0.00     0.074 A 
ATOM     55  C   UNL A   1      45.373  24.701  28.532  1.00  0.00     0.029 A 
ATOM     56  N   UNL A   1      44.553  26.671  29.163  1.00  0.00    -0.354 N 
ATOM     57  N   UNL A   1      44.730  29.407  30.320  1.00  0.00    -0.248 NA
ATOM     58  C   UNL A   1      46.013  31.140  31.228  1.00  0.00     0.031 C 
ATOM     59  C   UNL A   1      46.417  25.473  29.058  1.00  0.00     0.029 A 
ATOM     60  C   UNL A   1      45.910  26.709  29.426  1.00  0.00     0.049 A 
ATOM     61  H   UNL A   1      43.922  27.407  29.340  1.00  0.00     0.167 HD
ATOM     62  C   UNL A   1      46.063  29.018  30.347  1.00  0.00     0.074 A 
ATOM     63  C   UNL A   1      46.812  30.138  30.886  1.00  0.00     0.031 C 
ATOM     64  C   UNL A   1      46.620  27.842  29.965  1.00  0.00     0.031 A 
BRANCH  51  65
ATOM     65  C   UNL A   1      42.622  23.695  27.672  1.00  0.00    -0.014 A 
ATOM     66  C   UNL A   1      42.222  22.652  28.528  1.00  0.00     0.010 A 
ATOM     67  C   UNL A   1      42.796  23.424  26.303  1.00  0.00     0.010 A 
ATOM     68  C   UNL A   1      42.066  21.352  28.038  1.00  0.00     0.020 A 
ATOM     69  C   UNL A   1      42.612  22.131  25.803  1.00  0.00     0.020 A 
ATOM     70  C   UNL A   1      42.273  21.097  26.680  1.00  0.00     0.054 A 
BRANCH  70  71
ATOM     71  S   UNL A   1      42.078  19.400  26.072  1.00  0.00     0.124 S 
ATOM     72  O   UNL A   1      40.637  19.326  25.845  1.00  0.00    -0.237 OA
ATOM     73  O   UNL A   1      42.904  19.392  24.868  1.00  0.00    -0.237 OA
ATOM     74  O   UNL A   1      42.579  18.579  27.172  1.00  0.00    -0.744 OA
ENDBRANCH  70  71
ENDBRANCH  51  65
BRANCH  52  75
ATOM     75  C   UNL A   1      43.670  32.891  31.595  1.00  0.00    -0.014 A 
ATOM     76  C   UNL A   1      44.001  33.998  30.792  1.00  0.00     0.010 A 
ATOM     77  C   UNL A   1      43.431  33.091  32.966  1.00  0.00     0.010 A 
ATOM     78  C   UNL A   1      44.108  35.275  31.351  1.00  0.00     0.020 A 
ATOM     79  C   UNL A   1      43.512  34.372  33.525  1.00  0.00     0.020 A 
ATOM     80  C   UNL A   1      43.860  35.455  32.714  1.00  0.00     0.054 A 
BRANCH  80  81
ATOM     81  S   UNL A   1      43.939  37.131  33.407  1.00  0.00     0.124 S 
ATOM     82  O   UNL A   1      45.244  37.127  34.063  1.00  0.00    -0.237 OA
ATOM     83  O   UNL A   1      43.832  37.972  32.217  1.00  0.00    -0.237 OA
ATOM     84  O   UNL A   1      42.786  37.184  34.303  1.00  0.00    -0.744 OA
ENDBRANCH  80  81
ENDBRANCH  52  75
BRANCH  64  85
ATOM     85  C   UNL A   1      48.112  27.728  30.094  1.00  0.00    -0.014 A 
ATOM     86  C   UNL A   1      48.702  27.240  31.273  1.00  0.00     0.010 A 
ATOM     87  C   UNL A   1      48.929  28.080  29.005  1.00  0.00     0.010 A 
ATOM     88  C   UNL A   1      50.091  27.146  31.375  1.00  0.00     0.020 A 
ATOM     89  C   UNL A   1      50.317  27.964  29.096  1.00  0.00     0.020 A 
ATOM     90  C   UNL A   1      50.890  27.513  30.287  1.00  0.00     0.054 A 
BRANCH  90  91
ATOM     91  S   UNL A   1      52.690  27.357  30.432  1.00  0.00     0.124 S 
ATOM     92  O   UNL A   1      53.113  28.754  30.462  1.00  0.00    -0.237 OA
ATOM     93  O   UNL A   1      52.851  26.623  31.684  1.00  0.00    -0.237 OA
ATOM     94  O   UNL A   1      53.068  26.615  29.231  1.00  0.00    -0.744 OA
ENDBRANCH  90  91
ENDBRANCH  64  85
ENDBRANCH  38  39
ENDBRANCH  30  33
ENDBRANCH   1  29
TORSDOF 15
ENDMDL
MODEL 3
REMARK VINA RESULT:     -12.7      2.952      9.532
REMARK SMILES O=C(NCCCNC(=O)c1ccc(-c2c3nc(c(-c4ccc(S(=O)(=O)[O-])cc4)c4ccc([nH]4)c(-c4ccc(S(=O)(=O)[O-])cc4)c4nc(c(-c5ccc(S(=O)(=O)[O-])cc5)c5ccc2[nH]5)C=C4)C=C3)cc1)C1=Cc2cc(Cl)cc(-c3ccccc3)c2O[C@@H]1C(F)(F)F
REMARK SMILES IDX 6 1 5 2 4 3 3 4 1 5 2 6 70 8 71 9 86 10 72 11 85 12 73 13
REMARK SMILES IDX 84 14 74 15 77 16 75 17 76 18 87 19 88 20 89 21 90 22 78 23
REMARK SMILES IDX 79 24 83 25 80 26 82 27 81 28 7 29 8 30 9 32 10 33 11 34
REMARK SMILES IDX 69 35 12 36 68 37 13 38 14 39 15 40 62 41 16 42 67 43 61 44
REMARK SMILES IDX 63 45 17 46 66 47 60 48 59 49 18 51 48 52 29 53 47 54 30 55
REMARK SMILES IDX 33 56 46 57 64 58 31 59 32 60 45 62 65 63 34 64 19 65 20 66
REMARK SMILES IDX 28 67 21 68 27 69 22 70 23 71 24 72 25 73 26 74 49 75 50 76
REMARK SMILES IDX 58 77 51 78 57 79 52 80 53 81 54 82 55 83 56 84 35 85 36 86
REMARK SMILES IDX 44 87 37 88 43 89 38 90 39 91 40 92 41 93 42 94
REMARK H PARENT 3 7 7 31 63 50 33 61
REMARK Flexibility Score: inf
ROOT
ATOM      1  C   UNL A   1      37.218  23.037  25.074  1.00  0.00     0.118 C 
ENDROOT
BRANCH   1   2
ATOM      2  C   UNL A   1      36.060  23.123  26.064  1.00  0.00     0.042 C 
BRANCH   2   3
ATOM      3  C   UNL A   1      34.702  22.908  25.392  1.00  0.00     0.118 C 
BRANCH   3   4
ATOM      4  N   UNL A   1      34.608  23.567  24.084  1.00  0.00    -0.352 N 
ATOM      5  O   UNL A   1      34.220  25.284  22.647  1.00  0.00    -0.270 OA
ATOM      6  C   UNL A   1      34.032  24.762  23.739  1.00  0.00     0.251 C 
ATOM      7  H   UNL A   1      35.023  23.075  23.339  1.00  0.00     0.163 HD
BRANCH   6   8
ATOM      8  C   UNL A   1      33.231  25.430  24.774  1.00  0.00     0.067 C 
ATOM      9  C   UNL A   1      33.878  26.180  25.671  1.00  0.00     0.025 C 
ATOM     10  C   UNL A   1      31.757  25.521  24.552  1.00  0.00     0.314 C 
ATOM     11  C   UNL A   1      33.188  27.424  26.026  1.00  0.00     0.019 A 
ATOM     12  O   UNL A   1      31.311  26.898  24.547  1.00  0.00    -0.475 OA
ATOM     13  C   UNL A   1      33.903  28.373  26.759  1.00  0.00     0.032 A 
ATOM     14  C   UNL A   1      32.041  27.801  25.291  1.00  0.00     0.135 A 
ATOM     15  C   UNL A   1      33.545  29.713  26.667  1.00  0.00     0.042 A 
ATOM     16  C   UNL A   1      31.713  29.163  25.148  1.00  0.00     0.026 A 
ATOM     17  Cl  UNL A   1      34.518  30.899  27.444  1.00  0.00    -0.084 Cl
ATOM     18  C   UNL A   1      32.485  30.108  25.851  1.00  0.00     0.033 A 
BRANCH  10  19
ATOM     19  C   UNL A   1      30.974  24.658  25.557  1.00  0.00     0.429 C 
ATOM     20  F   UNL A   1      29.858  25.297  25.988  1.00  0.00    -0.167 F 
ATOM     21  F   UNL A   1      30.561  23.492  25.006  1.00  0.00    -0.167 F 
ATOM     22  F   UNL A   1      31.700  24.344  26.656  1.00  0.00    -0.167 F 
ENDBRANCH  10  19
BRANCH  16  23
ATOM     23  C   UNL A   1      30.742  29.638  24.145  1.00  0.00    -0.015 A 
ATOM     24  C   UNL A   1      29.941  30.758  24.429  1.00  0.00     0.009 A 
ATOM     25  C   UNL A   1      30.561  29.008  22.910  1.00  0.00     0.009 A 
ATOM     26  C   UNL A   1      28.960  31.210  23.549  1.00  0.00     0.001 A 
ATOM     27  C   UNL A   1      29.580  29.462  22.017  1.00  0.00     0.001 A 
ATOM     28  C   UNL A   1      28.773  30.554  22.341  1.00  0.00     0.000 A 
ENDBRANCH  16  23
ENDBRANCH   6   8
ENDBRANCH   3   4
ENDBRANCH   2   3
ENDBRANCH   1   2
BRANCH   1  29
ATOM     29  N   UNL A   1      38.386  22.319  25.551  1.00  0.00    -0.352 N 
ATOM     30  C   UNL A   1      39.418  22.751  26.363  1.00  0.00     0.251 C 
ATOM     31  H   UNL A   1      38.453  21.383  25.253  1.00  0.00     0.163 HD
ATOM     32  O   UNL A   1      40.331  21.972  26.632  1.00  0.00    -0.269 OA
BRANCH  30  33
ATOM     33  C   UNL A   1      39.510  24.156  26.831  1.00  0.00     0.039 A 
ATOM     34  C   UNL A   1      39.029  24.445  28.115  1.00  0.00     0.014 A 
ATOM     35  C   UNL A   1      40.117  25.168  26.090  1.00  0.00     0.014 A 
ATOM     36  C   UNL A   1      39.286  25.687  28.696  1.00  0.00     0.010 A 
ATOM     37  C   UNL A   1      40.476  26.359  26.706  1.00  0.00     0.010 A 
ATOM     38  C   UNL A   1      40.086  26.620  28.022  1.00  0.00    -0.014 A 
BRANCH  38  39
ATOM     39  C   UNL A   1      40.573  27.846  28.696  1.00  0.00     0.031 A 
ATOM     40  C   UNL A   1      41.968  27.899  29.252  1.00  0.00     0.074 A 
ATOM     41  C   UNL A   1      39.708  28.861  28.895  1.00  0.00     0.049 A 
ATOM     42  N   UNL A   1      42.543  28.848  29.941  1.00  0.00    -0.248 NA
ATOM     43  C   UNL A   1      42.811  26.709  29.049  1.00  0.00     0.031 C 
ATOM     44  C   UNL A   1      38.299  28.870  28.482  1.00  0.00     0.029 A 
ATOM     45  N   UNL A   1      39.879  30.082  29.495  1.00  0.00    -0.354 N 
ATOM     46  C   UNL A   1      43.797  28.356  30.286  1.00  0.00     0.074 A 
ATOM     47  C   UNL A   1      43.876  27.005  29.778  1.00  0.00     0.031 C 
ATOM     48  C   UNL A   1      37.753  30.055  28.795  1.00  0.00     0.029 A 
ATOM     49  C   UNL A   1      38.756  30.875  29.460  1.00  0.00     0.049 A 
ATOM     50  H   UNL A   1      40.726  30.363  29.911  1.00  0.00     0.167 HD
ATOM     51  C   UNL A   1      44.800  28.984  30.945  1.00  0.00     0.031 A 
ATOM     52  C   UNL A   1      38.563  32.131  29.905  1.00  0.00     0.031 A 
ATOM     53  C   UNL A   1      44.712  30.343  31.406  1.00  0.00     0.049 A 
ATOM     54  C   UNL A   1      39.723  32.846  30.538  1.00  0.00     0.074 A 
ATOM     55  C   UNL A   1      45.682  31.112  32.023  1.00  0.00     0.029 A 
ATOM     56  N   UNL A   1      43.585  31.143  31.280  1.00  0.00    -0.354 N 
ATOM     57  N   UNL A   1      40.926  32.388  30.797  1.00  0.00    -0.248 NA
ATOM     58  C   UNL A   1      39.510  34.247  30.919  1.00  0.00     0.031 C 
ATOM     59  C   UNL A   1      45.131  32.372  32.291  1.00  0.00     0.029 A 
ATOM     60  C   UNL A   1      43.833  32.398  31.804  1.00  0.00     0.049 A 
ATOM     61  H   UNL A   1      42.733  30.858  30.876  1.00  0.00     0.167 HD
ATOM     62  C   UNL A   1      41.623  33.453  31.352  1.00  0.00     0.074 A 
ATOM     63  C   UNL A   1      40.711  34.581  31.372  1.00  0.00     0.031 C 
ATOM     64  C   UNL A   1      42.899  33.497  31.808  1.00  0.00     0.031 A 
BRANCH  51  65
ATOM     65  C   UNL A   1      46.061  28.198  31.193  1.00  0.00    -0.014 A 
ATOM     66  C   UNL A   1      47.115  28.203  30.260  1.00  0.00     0.010 A 
ATOM     67  C   UNL A   1      46.192  27.431  32.365  1.00  0.00     0.010 A 
ATOM     68  C   UNL A   1      48.245  27.406  30.460  1.00  0.00     0.020 A 
ATOM     69  C   UNL A   1      47.335  26.656  32.584  1.00  0.00     0.020 A 
ATOM     70  C   UNL A   1      48.343  26.628  31.617  1.00  0.00     0.054 A 
BRANCH  70  71
ATOM     71  S   UNL A   1      49.814  25.591  31.847  1.00  0.00     0.124 S 
ATOM     72  O   UNL A   1      50.812  26.575  32.260  1.00  0.00    -0.237 OA
ATOM     73  O   UNL A   1      49.389  24.655  32.884  1.00  0.00    -0.237 OA
ATOM     74  O   UNL A   1      50.030  25.000  30.529  1.00  0.00    -0.744 OA
ENDBRANCH  70  71
ENDBRANCH  51  65
BRANCH  52  75
ATOM     75  C   UNL A   1      37.247  32.798  29.708  1.00  0.00    -0.014 A 
ATOM     76  C   UNL A   1      36.318  32.862  30.762  1.00  0.00     0.010 A 
ATOM     77  C   UNL A   1      36.932  33.415  28.485  1.00  0.00     0.010 A 
ATOM     78  C   UNL A   1      35.093  33.515  30.593  1.00  0.00     0.020 A 
ATOM     79  C   UNL A   1      35.718  34.091  28.318  1.00  0.00     0.020 A 
ATOM     80  C   UNL A   1      34.801  34.127  29.371  1.00  0.00     0.054 A 
BRANCH  80  81
ATOM     81  S   UNL A   1      33.234  35.025  29.192  1.00  0.00     0.124 S 
ATOM     82  O   UNL A   1      33.685  36.336  28.734  1.00  0.00    -0.237 OA
ATOM     83  O   UNL A   1      32.518  34.221  28.203  1.00  0.00    -0.237 OA
ATOM     84  O   UNL A   1      32.666  34.992  30.538  1.00  0.00    -0.744 OA
ENDBRANCH  80  81
ENDBRANCH  52  75
BRANCH  64  85
ATOM     85  C   UNL A   1      43.384  34.816  32.337  1.00  0.00    -0.014 A 
ATOM     86  C   UNL A   1      43.215  35.160  33.690  1.00  0.00     0.010 A 
ATOM     87  C   UNL A   1      44.046  35.707  31.474  1.00  0.00     0.010 A 
ATOM     88  C   UNL A   1      43.667  36.393  34.162  1.00  0.00     0.020 A 
ATOM     89  C   UNL A   1      44.521  36.929  31.949  1.00  0.00     0.020 A 
ATOM     90  C   UNL A   1      44.313  37.272  33.287  1.00  0.00     0.054 A 
BRANCH  90  91
ATOM     91  S   UNL A   1      44.917  38.857  33.927  1.00  0.00     0.124 S 
ATOM     92  O   UNL A   1      46.054  38.439  34.744  1.00  0.00    -0.237 OA
ATOM     93  O   UNL A   1      45.254  39.590  32.709  1.00  0.00    -0.237 OA
ATOM     94  O   UNL A   1      43.775  39.385  34.669  1.00  0.00    -0.744 OA
ENDBRANCH  90  91
ENDBRANCH  64  85
ENDBRANCH  38  39
ENDBRANCH  30  33
ENDBRANCH   1  29
TORSDOF 15
ENDMDL
