MODEL 1
REMARK VINA RESULT:     -12.2      0.000      0.000
REMARK SMILES C[C@H](NC(=O)[C@]1(C)Sc2ccccc2NC1=O)C(=O)NCCCNC(=O)c1ccc(-c2c3nc(c(-c4ccc(S(=O)(=O)[O-])cc4)c4ccc([nH]4)c(-c4ccc(S(=O)(=O)[O-])cc4)c4nc(c(-c5ccc(S(=O)(=O)[O-])cc5)c5ccc2[nH]5)C=C4)C=C3)cc1
REMARK SMILES IDX 22 1 21 2 20 3 18 4 19 5 2 7 1 8 3 9 4 10 5 12 6 13 8 14
REMARK SMILES IDX 16 15 7 16 9 17 15 18 17 19 10 20 14 21 11 23 13 24 12 25
REMARK SMILES IDX 23 26 24 27 25 28 26 30 27 31 28 32 86 33 29 34 85 35 30 36
REMARK SMILES IDX 31 37 32 38 79 39 33 40 84 41 78 42 80 43 34 44 83 45 77 46
REMARK SMILES IDX 76 47 35 49 65 50 46 51 64 52 47 53 50 54 63 55 81 56 48 57
REMARK SMILES IDX 49 58 62 60 82 61 51 62 36 63 37 64 45 65 38 66 44 67 39 68
REMARK SMILES IDX 40 69 41 70 42 71 43 72 66 73 67 74 75 75 68 76 74 77 69 78
REMARK SMILES IDX 70 79 71 80 72 81 73 82 52 83 53 84 61 85 54 86 60 87 55 88
REMARK SMILES IDX 56 89 57 90 58 91 59 92
REMARK H PARENT 20 6 3 11 15 22 24 29 80 48 50 59
REMARK Flexibility Score: inf
ROOT
ATOM      1  C   UNL A   1      34.832  23.689  25.565  1.00  0.00     0.042 C 
ENDROOT
BRANCH   1   2
ATOM      2  C   UNL A   1      34.193  22.992  26.758  1.00  0.00     0.117 C 
BRANCH   2   3
ATOM      3  N   UNL A   1      32.720  23.248  26.939  1.00  0.00    -0.354 N 
ATOM      4  C   UNL A   1      31.500  23.672  26.552  1.00  0.00     0.242 C 
ATOM      5  O   UNL A   1      30.688  23.320  27.444  1.00  0.00    -0.273 OA
ATOM      6  H   UNL A   1      32.555  22.925  27.854  1.00  0.00     0.163 HD
BRANCH   4   7
ATOM      7  C   UNL A   1      30.788  24.382  25.269  1.00  0.00     0.168 C 
ATOM      8  C   UNL A   1      31.017  23.600  23.961  1.00  0.00     0.041 C 
BRANCH   7   9
ATOM      9  N   UNL A   1      30.117  25.707  24.968  1.00  0.00    -0.343 N 
ATOM     10  C   UNL A   1      30.081  26.653  23.973  1.00  0.00     0.246 C 
ATOM     11  H   UNL A   1      29.530  25.971  25.714  1.00  0.00     0.164 HD
ATOM     12  O   UNL A   1      28.953  27.110  23.736  1.00  0.00    -0.273 OA
BRANCH  10  13
ATOM     13  C   UNL A   1      31.317  27.249  23.291  1.00  0.00     0.175 C 
ATOM     14  S   UNL A   1      32.865  27.006  24.259  1.00  0.00    -0.097 SA
ATOM     15  C   UNL A   1      31.020  28.670  22.994  1.00  0.00     0.250 C 
ATOM     16  C   UNL A   1      31.529  26.531  21.937  1.00  0.00     0.045 C 
ATOM     17  C   UNL A   1      32.900  28.447  25.293  1.00  0.00     0.032 A 
ATOM     18  N   UNL A   1      31.176  29.552  24.015  1.00  0.00    -0.323 N 
ATOM     19  O   UNL A   1      30.414  29.012  21.977  1.00  0.00    -0.273 OA
ATOM     20  C   UNL A   1      33.822  28.545  26.337  1.00  0.00     0.017 A 
ATOM     21  C   UNL A   1      32.009  29.491  25.118  1.00  0.00     0.054 A 
ATOM     22  H   UNL A   1      30.610  30.355  23.963  1.00  0.00     0.170 HD
ATOM     23  C   UNL A   1      33.786  29.622  27.235  1.00  0.00     0.001 A 
ATOM     24  C   UNL A   1      31.930  30.540  26.048  1.00  0.00     0.027 A 
ATOM     25  C   UNL A   1      32.811  30.603  27.114  1.00  0.00     0.002 A 
ENDBRANCH  10  13
ENDBRANCH   7   9
ENDBRANCH   4   7
ENDBRANCH   2   3
ENDBRANCH   1   2
BRANCH   1  26
ATOM     26  C   UNL A   1      36.291  24.061  25.696  1.00  0.00     0.118 C 
BRANCH  26  27
ATOM     27  N   UNL A   1      37.223  22.936  25.711  1.00  0.00    -0.352 N 
ATOM     28  C   UNL A   1      38.540  22.885  26.150  1.00  0.00     0.251 C 
ATOM     29  H   UNL A   1      36.866  22.089  25.357  1.00  0.00     0.163 HD
ATOM     30  O   UNL A   1      39.184  21.853  26.000  1.00  0.00    -0.269 OA
BRANCH  28  31
ATOM     31  C   UNL A   1      39.181  24.080  26.767  1.00  0.00     0.039 A 
ATOM     32  C   UNL A   1      39.041  24.328  28.126  1.00  0.00     0.014 A 
ATOM     33  C   UNL A   1      39.904  24.989  25.986  1.00  0.00     0.014 A 
ATOM     34  C   UNL A   1      39.344  25.578  28.637  1.00  0.00     0.010 A 
ATOM     35  C   UNL A   1      40.406  26.169  26.563  1.00  0.00     0.010 A 
ATOM     36  C   UNL A   1      40.093  26.497  27.890  1.00  0.00    -0.014 A 
BRANCH  36  37
ATOM     37  C   UNL A   1      40.582  27.727  28.579  1.00  0.00     0.031 A 
ATOM     38  C   UNL A   1      42.036  27.920  28.923  1.00  0.00     0.074 A 
ATOM     39  C   UNL A   1      39.696  28.721  28.818  1.00  0.00     0.049 A 
ATOM     40  N   UNL A   1      42.606  28.945  29.506  1.00  0.00    -0.248 NA
ATOM     41  C   UNL A   1      42.971  26.833  28.588  1.00  0.00     0.031 C 
ATOM     42  C   UNL A   1      38.260  28.653  28.516  1.00  0.00     0.029 A 
ATOM     43  N   UNL A   1      39.860  29.996  29.300  1.00  0.00    -0.354 N 
ATOM     44  C   UNL A   1      43.950  28.613  29.641  1.00  0.00     0.074 A 
ATOM     45  C   UNL A   1      44.110  27.283  29.099  1.00  0.00     0.031 C 
ATOM     46  C   UNL A   1      37.711  29.860  28.685  1.00  0.00     0.029 A 
ATOM     47  C   UNL A   1      38.710  30.755  29.250  1.00  0.00     0.049 A 
ATOM     48  H   UNL A   1      40.716  30.335  29.647  1.00  0.00     0.167 HD
ATOM     49  C   UNL A   1      44.954  29.359  30.163  1.00  0.00     0.031 A 
ATOM     50  C   UNL A   1      38.462  32.023  29.636  1.00  0.00     0.031 A 
ATOM     51  C   UNL A   1      44.776  30.700  30.666  1.00  0.00     0.049 A 
ATOM     52  C   UNL A   1      39.584  32.815  30.235  1.00  0.00     0.074 A 
ATOM     53  C   UNL A   1      45.731  31.540  31.214  1.00  0.00     0.029 A 
ATOM     54  N   UNL A   1      43.580  31.402  30.668  1.00  0.00    -0.354 N 
ATOM     55  N   UNL A   1      40.839  32.465  30.384  1.00  0.00    -0.248 NA
ATOM     56  C   UNL A   1      39.263  34.156  30.733  1.00  0.00     0.031 C 
ATOM     57  C   UNL A   1      45.100  32.720  31.608  1.00  0.00     0.029 A 
ATOM     58  C   UNL A   1      43.768  32.655  31.229  1.00  0.00     0.049 A 
ATOM     59  H   UNL A   1      42.723  31.061  30.321  1.00  0.00     0.167 HD
ATOM     60  C   UNL A   1      41.463  33.547  30.988  1.00  0.00     0.074 A 
ATOM     61  C   UNL A   1      40.452  34.574  31.151  1.00  0.00     0.031 C 
ATOM     62  C   UNL A   1      42.754  33.671  31.379  1.00  0.00     0.031 A 
BRANCH  49  63
ATOM     63  C   UNL A   1      46.339  28.763  30.235  1.00  0.00    -0.014 A 
ATOM     64  C   UNL A   1      47.221  28.923  29.147  1.00  0.00     0.010 A 
ATOM     65  C   UNL A   1      46.727  27.940  31.307  1.00  0.00     0.010 A 
ATOM     66  C   UNL A   1      48.443  28.244  29.112  1.00  0.00     0.020 A 
ATOM     67  C   UNL A   1      47.964  27.285  31.290  1.00  0.00     0.020 A 
ATOM     68  C   UNL A   1      48.802  27.419  30.180  1.00  0.00     0.054 A 
BRANCH  68  69
ATOM     69  S   UNL A   1      50.375  26.518  30.098  1.00  0.00     0.124 S 
ATOM     70  O   UNL A   1      51.262  27.500  29.485  1.00  0.00    -0.237 OA
ATOM     71  O   UNL A   1      50.642  26.214  31.501  1.00  0.00    -0.237 OA
ATOM     72  O   UNL A   1      50.061  25.356  29.270  1.00  0.00    -0.744 OA
ENDBRANCH  68  69
ENDBRANCH  49  63
BRANCH  50  73
ATOM     73  C   UNL A   1      37.092  32.585  29.459  1.00  0.00    -0.014 A 
ATOM     74  C   UNL A   1      36.697  33.121  28.217  1.00  0.00     0.010 A 
ATOM     75  C   UNL A   1      36.217  32.696  30.553  1.00  0.00     0.010 A 
ATOM     76  C   UNL A   1      35.499  33.829  28.093  1.00  0.00     0.020 A 
ATOM     77  C   UNL A   1      34.996  33.369  30.423  1.00  0.00     0.020 A 
ATOM     78  C   UNL A   1      34.664  33.963  29.203  1.00  0.00     0.054 A 
BRANCH  78  79
ATOM     79  S   UNL A   1      33.149  34.946  29.036  1.00  0.00     0.124 S 
ATOM     80  O   UNL A   1      32.407  34.186  28.033  1.00  0.00    -0.237 OA
ATOM     81  O   UNL A   1      32.596  34.912  30.387  1.00  0.00    -0.237 OA
ATOM     82  O   UNL A   1      33.634  36.252  28.597  1.00  0.00    -0.744 OA
ENDBRANCH  78  79
ENDBRANCH  50  73
BRANCH  62  83
ATOM     83  C   UNL A   1      43.175  34.965  32.022  1.00  0.00    -0.014 A 
ATOM     84  C   UNL A   1      42.837  35.214  33.365  1.00  0.00     0.010 A 
ATOM     85  C   UNL A   1      43.774  35.986  31.263  1.00  0.00     0.010 A 
ATOM     86  C   UNL A   1      43.045  36.476  33.926  1.00  0.00     0.020 A 
ATOM     87  C   UNL A   1      44.016  37.239  31.830  1.00  0.00     0.020 A 
ATOM     88  C   UNL A   1      43.622  37.485  33.149  1.00  0.00     0.054 A 
BRANCH  88  89
ATOM     89  S   UNL A   1      43.835  39.131  33.878  1.00  0.00     0.124 S 
ATOM     90  O   UNL A   1      42.592  39.797  33.498  1.00  0.00    -0.237 OA
ATOM     91  O   UNL A   1      43.983  38.835  35.300  1.00  0.00    -0.237 OA
ATOM     92  O   UNL A   1      45.041  39.640  33.228  1.00  0.00    -0.744 OA
ENDBRANCH  88  89
ENDBRANCH  62  83
ENDBRANCH  36  37
ENDBRANCH  28  31
ENDBRANCH  26  27
ENDBRANCH   1  26
TORSDOF 15
ENDMDL
MODEL 2
REMARK VINA RESULT:     -11.8      2.775      9.525
REMARK SMILES C[C@H](NC(=O)[C@]1(C)Sc2ccccc2NC1=O)C(=O)NCCCNC(=O)c1ccc(-c2c3nc(c(-c4ccc(S(=O)(=O)[O-])cc4)c4ccc([nH]4)c(-c4ccc(S(=O)(=O)[O-])cc4)c4nc(c(-c5ccc(S(=O)(=O)[O-])cc5)c5ccc2[nH]5)C=C4)C=C3)cc1
REMARK SMILES IDX 22 1 21 2 20 3 18 4 19 5 2 7 1 8 3 9 4 10 5 12 6 13 8 14
REMARK SMILES IDX 16 15 7 16 9 17 15 18 17 19 10 20 14 21 11 23 13 24 12 25
REMARK SMILES IDX 23 26 24 27 25 28 26 30 27 31 28 32 86 33 29 34 85 35 30 36
REMARK SMILES IDX 31 37 32 38 79 39 33 40 84 41 78 42 80 43 34 44 83 45 77 46
REMARK SMILES IDX 76 47 35 49 65 50 46 51 64 52 47 53 50 54 63 55 81 56 48 57
REMARK SMILES IDX 49 58 62 60 82 61 51 62 36 63 37 64 45 65 38 66 44 67 39 68
REMARK SMILES IDX 40 69 41 70 42 71 43 72 66 73 67 74 75 75 68 76 74 77 69 78
REMARK SMILES IDX 70 79 71 80 72 81 73 82 52 83 53 84 61 85 54 86 60 87 55 88
REMARK SMILES IDX 56 89 57 90 58 91 59 92
REMARK H PARENT 20 6 3 11 15 22 24 29 80 48 50 59
REMARK Flexibility Score: inf
ROOT
ATOM      1  C   UNL A   1      33.403  27.954  24.939  1.00  0.00     0.042 C 
ENDROOT
BRANCH   1   2
ATOM      2  C   UNL A   1      31.883  28.035  24.933  1.00  0.00     0.117 C 
BRANCH   2   3
ATOM      3  N   UNL A   1      31.183  26.913  24.212  1.00  0.00    -0.354 N 
ATOM      4  C   UNL A   1      31.120  25.829  23.413  1.00  0.00     0.242 C 
ATOM      5  O   UNL A   1      29.947  25.386  23.483  1.00  0.00    -0.273 OA
ATOM      6  H   UNL A   1      30.241  27.047  24.465  1.00  0.00     0.163 HD
BRANCH   4   7
ATOM      7  C   UNL A   1      32.110  24.903  22.506  1.00  0.00     0.168 C 
ATOM      8  C   UNL A   1      32.531  25.599  21.197  1.00  0.00     0.041 C 
BRANCH   7   9
ATOM      9  N   UNL A   1      32.583  23.464  22.502  1.00  0.00    -0.343 N 
ATOM     10  C   UNL A   1      32.412  22.310  23.228  1.00  0.00     0.246 C 
ATOM     11  H   UNL A   1      33.202  23.308  21.752  1.00  0.00     0.164 HD
ATOM     12  O   UNL A   1      32.305  21.281  22.545  1.00  0.00    -0.273 OA
BRANCH  10  13
ATOM     13  C   UNL A   1      32.502  22.220  24.755  1.00  0.00     0.175 C 
ATOM     14  S   UNL A   1      33.598  23.504  25.493  1.00  0.00    -0.097 SA
ATOM     15  C   UNL A   1      32.898  20.834  25.097  1.00  0.00     0.250 C 
ATOM     16  C   UNL A   1      31.092  22.454  25.347  1.00  0.00     0.045 C 
ATOM     17  C   UNL A   1      35.182  22.706  25.482  1.00  0.00     0.032 A 
ATOM     18  N   UNL A   1      34.222  20.541  25.017  1.00  0.00    -0.323 N 
ATOM     19  O   UNL A   1      32.074  19.922  25.188  1.00  0.00    -0.273 OA
ATOM     20  C   UNL A   1      36.340  23.430  25.776  1.00  0.00     0.017 A 
ATOM     21  C   UNL A   1      35.322  21.367  25.160  1.00  0.00     0.054 A 
ATOM     22  H   UNL A   1      34.430  19.597  24.827  1.00  0.00     0.170 HD
ATOM     23  C   UNL A   1      37.609  22.845  25.657  1.00  0.00     0.001 A 
ATOM     24  C   UNL A   1      36.591  20.794  24.981  1.00  0.00     0.027 A 
ATOM     25  C   UNL A   1      37.737  21.533  25.220  1.00  0.00     0.002 A 
ENDBRANCH  10  13
ENDBRANCH   7   9
ENDBRANCH   4   7
ENDBRANCH   2   3
ENDBRANCH   1   2
BRANCH   1  26
ATOM     26  C   UNL A   1      34.104  28.428  26.191  1.00  0.00     0.118 C 
BRANCH  26  27
ATOM     27  N   UNL A   1      33.642  29.710  26.719  1.00  0.00    -0.352 N 
ATOM     28  C   UNL A   1      34.261  30.570  27.617  1.00  0.00     0.251 C 
ATOM     29  H   UNL A   1      32.764  30.007  26.390  1.00  0.00     0.163 HD
ATOM     30  O   UNL A   1      33.665  31.570  27.999  1.00  0.00    -0.269 OA
BRANCH  28  31
ATOM     31  C   UNL A   1      35.623  30.269  28.140  1.00  0.00     0.039 A 
ATOM     32  C   UNL A   1      36.749  30.571  27.385  1.00  0.00     0.014 A 
ATOM     33  C   UNL A   1      35.792  29.649  29.384  1.00  0.00     0.014 A 
ATOM     34  C   UNL A   1      37.971  30.008  27.707  1.00  0.00     0.010 A 
ATOM     35  C   UNL A   1      37.076  29.269  29.812  1.00  0.00     0.010 A 
ATOM     36  C   UNL A   1      38.178  29.407  28.956  1.00  0.00    -0.014 A 
BRANCH  36  37
ATOM     37  C   UNL A   1      39.573  29.030  29.329  1.00  0.00     0.031 A 
ATOM     38  C   UNL A   1      40.401  29.874  30.263  1.00  0.00     0.074 A 
ATOM     39  C   UNL A   1      40.060  27.853  28.875  1.00  0.00     0.049 A 
ATOM     40  N   UNL A   1      41.621  29.660  30.689  1.00  0.00    -0.248 NA
ATOM     41  C   UNL A   1      39.803  31.117  30.778  1.00  0.00     0.031 C 
ATOM     42  C   UNL A   1      39.343  26.943  27.973  1.00  0.00     0.029 A 
ATOM     43  N   UNL A   1      41.226  27.180  29.146  1.00  0.00    -0.354 N 
ATOM     44  C   UNL A   1      41.948  30.753  31.485  1.00  0.00     0.074 A 
ATOM     45  C   UNL A   1      40.808  31.641  31.469  1.00  0.00     0.031 C 
ATOM     46  C   UNL A   1      40.012  25.789  27.880  1.00  0.00     0.029 A 
ATOM     47  C   UNL A   1      41.277  25.921  28.587  1.00  0.00     0.049 A 
ATOM     48  H   UNL A   1      41.954  27.560  29.688  1.00  0.00     0.167 HD
ATOM     49  C   UNL A   1      43.094  30.982  32.171  1.00  0.00     0.031 A 
ATOM     50  C   UNL A   1      42.237  24.975  28.609  1.00  0.00     0.031 A 
ATOM     51  C   UNL A   1      44.207  30.064  32.201  1.00  0.00     0.049 A 
ATOM     52  C   UNL A   1      43.505  25.267  29.352  1.00  0.00     0.074 A 
ATOM     53  C   UNL A   1      45.412  30.204  32.867  1.00  0.00     0.029 A 
ATOM     54  N   UNL A   1      44.248  28.835  31.558  1.00  0.00    -0.354 N 
ATOM     55  N   UNL A   1      43.804  26.323  30.070  1.00  0.00    -0.248 NA
ATOM     56  C   UNL A   1      44.568  24.260  29.280  1.00  0.00     0.031 C 
ATOM     57  C   UNL A   1      46.206  29.094  32.573  1.00  0.00     0.029 A 
ATOM     58  C   UNL A   1      45.466  28.219  31.793  1.00  0.00     0.049 A 
ATOM     59  H   UNL A   1      43.518  28.456  31.015  1.00  0.00     0.167 HD
ATOM     60  C   UNL A   1      45.090  26.107  30.542  1.00  0.00     0.074 A 
ATOM     61  C   UNL A   1      45.501  24.806  30.051  1.00  0.00     0.031 C 
ATOM     62  C   UNL A   1      45.860  26.920  31.303  1.00  0.00     0.031 A 
BRANCH  49  63
ATOM     63  C   UNL A   1      43.231  32.271  32.945  1.00  0.00    -0.014 A 
ATOM     64  C   UNL A   1      42.816  32.320  34.292  1.00  0.00     0.010 A 
ATOM     65  C   UNL A   1      43.642  33.461  32.319  1.00  0.00     0.010 A 
ATOM     66  C   UNL A   1      42.772  33.535  34.982  1.00  0.00     0.020 A 
ATOM     67  C   UNL A   1      43.630  34.674  33.018  1.00  0.00     0.020 A 
ATOM     68  C   UNL A   1      43.170  34.707  34.337  1.00  0.00     0.054 A 
BRANCH  68  69
ATOM     69  S   UNL A   1      43.069  36.279  35.239  1.00  0.00     0.124 S 
ATOM     70  O   UNL A   1      42.933  37.248  34.157  1.00  0.00    -0.237 OA
ATOM     71  O   UNL A   1      41.886  36.093  36.074  1.00  0.00    -0.237 OA
ATOM     72  O   UNL A   1      44.333  36.334  35.972  1.00  0.00    -0.744 OA
ENDBRANCH  68  69
ENDBRANCH  49  63
BRANCH  50  73
ATOM     73  C   UNL A   1      42.007  23.685  27.896  1.00  0.00    -0.014 A 
ATOM     74  C   UNL A   1      41.288  22.645  28.518  1.00  0.00     0.010 A 
ATOM     75  C   UNL A   1      42.600  23.444  26.645  1.00  0.00     0.010 A 
ATOM     76  C   UNL A   1      41.240  21.370  27.950  1.00  0.00     0.020 A 
ATOM     77  C   UNL A   1      42.518  22.178  26.050  1.00  0.00     0.020 A 
ATOM     78  C   UNL A   1      41.870  21.141  26.726  1.00  0.00     0.054 A 
BRANCH  78  79
ATOM     79  S   UNL A   1      41.854  19.461  26.042  1.00  0.00     0.124 S 
ATOM     80  O   UNL A   1      40.445  19.291  25.699  1.00  0.00    -0.237 OA
ATOM     81  O   UNL A   1      42.769  19.570  24.909  1.00  0.00    -0.237 OA
ATOM     82  O   UNL A   1      42.332  18.636  27.148  1.00  0.00    -0.744 OA
ENDBRANCH  78  79
ENDBRANCH  50  73
BRANCH  62  83
ATOM     83  C   UNL A   1      47.237  26.440  31.676  1.00  0.00    -0.014 A 
ATOM     84  C   UNL A   1      48.295  26.590  30.760  1.00  0.00     0.010 A 
ATOM     85  C   UNL A   1      47.454  25.718  32.863  1.00  0.00     0.010 A 
ATOM     86  C   UNL A   1      49.531  25.985  31.000  1.00  0.00     0.020 A 
ATOM     87  C   UNL A   1      48.699  25.141  33.123  1.00  0.00     0.020 A 
ATOM     88  C   UNL A   1      49.720  25.253  32.175  1.00  0.00     0.054 A 
BRANCH  88  89
ATOM     89  S   UNL A   1      51.314  24.432  32.443  1.00  0.00     0.124 S 
ATOM     90  O   UNL A   1      52.192  25.165  31.535  1.00  0.00    -0.237 OA
ATOM     91  O   UNL A   1      51.553  24.651  33.867  1.00  0.00    -0.237 OA
ATOM     92  O   UNL A   1      51.051  23.043  32.070  1.00  0.00    -0.744 OA
ENDBRANCH  88  89
ENDBRANCH  62  83
ENDBRANCH  36  37
ENDBRANCH  28  31
ENDBRANCH  26  27
ENDBRANCH   1  26
TORSDOF 15
ENDMDL
MODEL 3
REMARK VINA RESULT:     -11.8      2.717      8.415
REMARK SMILES C[C@H](NC(=O)[C@]1(C)Sc2ccccc2NC1=O)C(=O)NCCCNC(=O)c1ccc(-c2c3nc(c(-c4ccc(S(=O)(=O)[O-])cc4)c4ccc([nH]4)c(-c4ccc(S(=O)(=O)[O-])cc4)c4nc(c(-c5ccc(S(=O)(=O)[O-])cc5)c5ccc2[nH]5)C=C4)C=C3)cc1
REMARK SMILES IDX 22 1 21 2 20 3 18 4 19 5 2 7 1 8 3 9 4 10 5 12 6 13 8 14
REMARK SMILES IDX 16 15 7 16 9 17 15 18 17 19 10 20 14 21 11 23 13 24 12 25
REMARK SMILES IDX 23 26 24 27 25 28 26 30 27 31 28 32 86 33 29 34 85 35 30 36
REMARK SMILES IDX 31 37 32 38 79 39 33 40 84 41 78 42 80 43 34 44 83 45 77 46
REMARK SMILES IDX 76 47 35 49 65 50 46 51 64 52 47 53 50 54 63 55 81 56 48 57
REMARK SMILES IDX 49 58 62 60 82 61 51 62 36 63 37 64 45 65 38 66 44 67 39 68
REMARK SMILES IDX 40 69 41 70 42 71 43 72 66 73 67 74 75 75 68 76 74 77 69 78
REMARK SMILES IDX 70 79 71 80 72 81 73 82 52 83 53 84 61 85 54 86 60 87 55 88
REMARK SMILES IDX 56 89 57 90 58 91 59 92
REMARK H PARENT 20 6 3 11 15 22 24 29 80 48 50 59
REMARK Flexibility Score: inf
ROOT
ATOM      1  C   UNL A   1      33.059  27.351  25.794  1.00  0.00     0.042 C 
ENDROOT
BRANCH   1   2
ATOM      2  C   UNL A   1      33.175  28.058  24.451  1.00  0.00     0.117 C 
BRANCH   2   3
ATOM      3  N   UNL A   1      33.341  27.151  23.260  1.00  0.00    -0.354 N 
ATOM      4  C   UNL A   1      33.139  26.024  22.548  1.00  0.00     0.242 C 
ATOM      5  O   UNL A   1      33.636  26.212  21.410  1.00  0.00    -0.273 OA
ATOM      6  H   UNL A   1      33.927  27.676  22.668  1.00  0.00     0.163 HD
BRANCH   4   7
ATOM      7  C   UNL A   1      32.376  24.590  22.694  1.00  0.00     0.168 C 
ATOM      8  C   UNL A   1      30.897  24.749  23.097  1.00  0.00     0.041 C 
BRANCH   7   9
ATOM      9  N   UNL A   1      32.767  23.127  22.730  1.00  0.00    -0.343 N 
ATOM     10  C   UNL A   1      32.561  22.013  23.507  1.00  0.00     0.246 C 
ATOM     11  H   UNL A   1      33.346  22.908  21.964  1.00  0.00     0.164 HD
ATOM     12  O   UNL A   1      32.370  20.967  22.870  1.00  0.00    -0.273 OA
BRANCH  10  13
ATOM     13  C   UNL A   1      32.706  21.976  25.032  1.00  0.00     0.175 C 
ATOM     14  S   UNL A   1      33.738  23.350  25.695  1.00  0.00    -0.097 SA
ATOM     15  C   UNL A   1      33.204  20.630  25.400  1.00  0.00     0.250 C 
ATOM     16  C   UNL A   1      31.304  22.136  25.666  1.00  0.00     0.045 C 
ATOM     17  C   UNL A   1      35.371  22.657  25.652  1.00  0.00     0.032 A 
ATOM     18  N   UNL A   1      34.541  20.421  25.282  1.00  0.00    -0.323 N 
ATOM     19  O   UNL A   1      32.446  19.669  25.545  1.00  0.00    -0.273 OA
ATOM     20  C   UNL A   1      36.487  23.464  25.886  1.00  0.00     0.017 A 
ATOM     21  C   UNL A   1      35.588  21.321  25.363  1.00  0.00     0.054 A 
ATOM     22  H   UNL A   1      34.805  19.488  25.113  1.00  0.00     0.170 HD
ATOM     23  C   UNL A   1      37.787  22.959  25.739  1.00  0.00     0.001 A 
ATOM     24  C   UNL A   1      36.886  20.827  25.158  1.00  0.00     0.027 A 
ATOM     25  C   UNL A   1      37.988  21.646  25.336  1.00  0.00     0.002 A 
ENDBRANCH  10  13
ENDBRANCH   7   9
ENDBRANCH   4   7
ENDBRANCH   2   3
ENDBRANCH   1   2
BRANCH   1  26
ATOM     26  C   UNL A   1      33.752  28.003  26.968  1.00  0.00     0.118 C 
BRANCH  26  27
ATOM     27  N   UNL A   1      33.453  29.420  27.160  1.00  0.00    -0.352 N 
ATOM     28  C   UNL A   1      34.243  30.423  27.710  1.00  0.00     0.251 C 
ATOM     29  H   UNL A   1      32.562  29.707  26.857  1.00  0.00     0.163 HD
ATOM     30  O   UNL A   1      33.773  31.545  27.858  1.00  0.00    -0.269 OA
BRANCH  28  31
ATOM     31  C   UNL A   1      35.637  30.136  28.149  1.00  0.00     0.039 A 
ATOM     32  C   UNL A   1      36.701  30.328  27.278  1.00  0.00     0.014 A 
ATOM     33  C   UNL A   1      35.896  29.637  29.432  1.00  0.00     0.014 A 
ATOM     34  C   UNL A   1      37.934  29.765  27.556  1.00  0.00     0.010 A 
ATOM     35  C   UNL A   1      37.203  29.264  29.791  1.00  0.00     0.010 A 
ATOM     36  C   UNL A   1      38.233  29.285  28.838  1.00  0.00    -0.014 A 
BRANCH  36  37
ATOM     37  C   UNL A   1      39.646  28.907  29.134  1.00  0.00     0.031 A 
ATOM     38  C   UNL A   1      40.225  27.589  28.688  1.00  0.00     0.074 A 
ATOM     39  C   UNL A   1      40.437  29.818  29.745  1.00  0.00     0.049 A 
ATOM     40  N   UNL A   1      41.441  27.134  28.860  1.00  0.00    -0.248 NA
ATOM     41  C   UNL A   1      39.338  26.656  27.974  1.00  0.00     0.031 C 
ATOM     42  C   UNL A   1      39.989  31.136  30.212  1.00  0.00     0.029 A 
ATOM     43  N   UNL A   1      41.781  29.821  30.024  1.00  0.00    -0.354 N 
ATOM     44  C   UNL A   1      41.455  25.856  28.312  1.00  0.00     0.074 A 
ATOM     45  C   UNL A   1      40.121  25.595  27.820  1.00  0.00     0.031 C 
ATOM     46  C   UNL A   1      41.049  31.861  30.584  1.00  0.00     0.029 A 
ATOM     47  C   UNL A   1      42.236  31.020  30.529  1.00  0.00     0.049 A 
ATOM     48  H   UNL A   1      42.364  29.041  29.876  1.00  0.00     0.167 HD
ATOM     49  C   UNL A   1      42.492  24.988  28.224  1.00  0.00     0.031 A 
ATOM     50  C   UNL A   1      43.461  31.409  30.933  1.00  0.00     0.031 A 
ATOM     51  C   UNL A   1      43.825  25.284  28.691  1.00  0.00     0.049 A 
ATOM     52  C   UNL A   1      44.584  30.420  30.851  1.00  0.00     0.074 A 
ATOM     53  C   UNL A   1      44.946  24.472  28.646  1.00  0.00     0.029 A 
ATOM     54  N   UNL A   1      44.224  26.481  29.267  1.00  0.00    -0.354 N 
ATOM     55  N   UNL A   1      44.563  29.204  30.360  1.00  0.00    -0.248 NA
ATOM     56  C   UNL A   1      45.883  30.838  31.385  1.00  0.00     0.031 C 
ATOM     57  C   UNL A   1      46.002  25.151  29.255  1.00  0.00     0.029 A 
ATOM     58  C   UNL A   1      45.567  26.420  29.602  1.00  0.00     0.049 A 
ATOM     59  H   UNL A   1      43.639  27.260  29.415  1.00  0.00     0.167 HD
ATOM     60  C   UNL A   1      45.850  28.711  30.521  1.00  0.00     0.074 A 
ATOM     61  C   UNL A   1      46.631  29.771  31.128  1.00  0.00     0.031 C 
ATOM     62  C   UNL A   1      46.333  27.486  30.202  1.00  0.00     0.031 A 
BRANCH  49  63
ATOM     63  C   UNL A   1      42.252  23.629  27.612  1.00  0.00    -0.014 A 
ATOM     64  C   UNL A   1      41.742  22.587  28.413  1.00  0.00     0.010 A 
ATOM     65  C   UNL A   1      42.646  23.340  26.294  1.00  0.00     0.010 A 
ATOM     66  C   UNL A   1      41.668  21.280  27.923  1.00  0.00     0.020 A 
ATOM     67  C   UNL A   1      42.542  22.038  25.789  1.00  0.00     0.020 A 
ATOM     68  C   UNL A   1      42.079  21.011  26.616  1.00  0.00     0.054 A 
BRANCH  68  69
ATOM     69  S   UNL A   1      42.010  19.301  26.011  1.00  0.00     0.124 S 
ATOM     70  O   UNL A   1      42.567  18.554  27.134  1.00  0.00    -0.237 OA
ATOM     71  O   UNL A   1      40.583  19.107  25.767  1.00  0.00    -0.237 OA
ATOM     72  O   UNL A   1      42.838  19.330  24.807  1.00  0.00    -0.744 OA
ENDBRANCH  68  69
ENDBRANCH  49  63
BRANCH  50  73
ATOM     73  C   UNL A   1      43.654  32.796  31.448  1.00  0.00    -0.014 A 
ATOM     74  C   UNL A   1      44.050  33.831  30.578  1.00  0.00     0.010 A 
ATOM     75  C   UNL A   1      43.559  33.068  32.824  1.00  0.00     0.010 A 
ATOM     76  C   UNL A   1      44.429  35.079  31.077  1.00  0.00     0.020 A 
ATOM     77  C   UNL A   1      43.897  34.331  33.325  1.00  0.00     0.020 A 
ATOM     78  C   UNL A   1      44.365  35.315  32.451  1.00  0.00     0.054 A 
BRANCH  78  79
ATOM     79  S   UNL A   1      44.929  36.920  33.082  1.00  0.00     0.124 S 
ATOM     80  O   UNL A   1      46.168  37.118  32.335  1.00  0.00    -0.237 OA
ATOM     81  O   UNL A   1      43.828  37.808  32.722  1.00  0.00    -0.237 OA
ATOM     82  O   UNL A   1      45.094  36.686  34.514  1.00  0.00    -0.744 OA
ENDBRANCH  78  79
ENDBRANCH  50  73
BRANCH  62  83
ATOM     83  C   UNL A   1      47.784  27.205  30.488  1.00  0.00    -0.014 A 
ATOM     84  C   UNL A   1      48.155  26.695  31.746  1.00  0.00     0.010 A 
ATOM     85  C   UNL A   1      48.786  27.576  29.574  1.00  0.00     0.010 A 
ATOM     86  C   UNL A   1      49.502  26.606  32.105  1.00  0.00     0.020 A 
ATOM     87  C   UNL A   1      50.135  27.456  29.916  1.00  0.00     0.020 A 
ATOM     88  C   UNL A   1      50.483  27.000  31.191  1.00  0.00     0.054 A 
BRANCH  88  89
ATOM     89  S   UNL A   1      52.223  26.927  31.695  1.00  0.00     0.124 S 
ATOM     90  O   UNL A   1      52.783  25.988  30.727  1.00  0.00    -0.237 OA
ATOM     91  O   UNL A   1      52.657  28.314  31.553  1.00  0.00    -0.237 OA
ATOM     92  O   UNL A   1      52.160  26.441  33.072  1.00  0.00    -0.744 OA
ENDBRANCH  88  89
ENDBRANCH  62  83
ENDBRANCH  36  37
ENDBRANCH  28  31
ENDBRANCH  26  27
ENDBRANCH   1  26
TORSDOF 15
ENDMDL
