MODEL 1
REMARK VINA RESULT:     -11.6      0.000      0.000
REMARK SMILES CCc1cc(/C=C/C(=O)NCCCNC(=O)c2ccc(-c3c4nc(c(-c5ccc(S(=O)(=O)[O-])cc5)c5ccc([nH]5)c(-c5ccc(S(=O)(=O)[O-])cc5)c5nc(c(-c6ccc(S(=O)(=O)[O-])cc6)c6ccc3[nH]6)C=C5)C=C4)cc2)cc(C(=O)c2ccccc2)c1
REMARK SMILES IDX 12 1 11 2 10 3 8 4 9 5 7 7 6 8 5 9 3 10 4 11 87 12 78 13
REMARK SMILES IDX 77 14 2 15 1 16 79 17 80 18 81 19 82 20 86 21 83 22 85 23
REMARK SMILES IDX 84 24 13 25 14 26 15 27 16 29 17 30 18 31 76 32 19 33 75 34
REMARK SMILES IDX 20 35 21 36 22 37 69 38 23 39 74 40 68 41 70 42 24 43 73 44
REMARK SMILES IDX 67 45 66 46 25 48 55 49 36 50 54 51 37 52 40 53 53 54 71 55
REMARK SMILES IDX 38 56 39 57 52 59 72 60 41 61 26 62 27 63 35 64 28 65 34 66
REMARK SMILES IDX 29 67 30 68 31 69 32 70 33 71 56 72 57 73 65 74 58 75 64 76
REMARK SMILES IDX 59 77 60 78 61 79 62 80 63 81 42 82 43 83 51 84 44 85 50 86
REMARK SMILES IDX 45 87 46 88 47 89 48 90 49 91
REMARK H PARENT 10 6 14 28 70 47 40 58
REMARK Flexibility Score: inf
ROOT
ATOM      1  C   UNL A   1      35.085  29.083  27.603  1.00  0.00     0.042 C 
ENDROOT
BRANCH   1   2
ATOM      2  C   UNL A   1      34.085  29.089  26.449  1.00  0.00     0.118 C 
BRANCH   2   3
ATOM      3  N   UNL A   1      32.742  28.758  26.894  1.00  0.00    -0.352 N 
ATOM      4  C   UNL A   1      32.067  27.579  26.863  1.00  0.00     0.244 C 
ATOM      5  O   UNL A   1      30.981  27.484  27.432  1.00  0.00    -0.270 OA
ATOM      6  H   UNL A   1      32.239  29.510  27.281  1.00  0.00     0.163 HD
BRANCH   4   7
ATOM      7  C   UNL A   1      32.647  26.378  26.222  1.00  0.00     0.072 C 
ATOM      8  C   UNL A   1      32.238  25.123  26.449  1.00  0.00     0.014 C 
BRANCH   8   9
ATOM      9  C   UNL A   1      32.884  23.934  25.881  1.00  0.00    -0.024 A 
ATOM     10  C   UNL A   1      32.777  21.625  25.103  1.00  0.00    -0.047 A 
ATOM     11  C   UNL A   1      32.186  22.730  25.731  1.00  0.00     0.011 A 
ATOM     12  C   UNL A   1      34.089  21.730  24.628  1.00  0.00     0.016 A 
ATOM     13  C   UNL A   1      34.790  22.937  24.745  1.00  0.00     0.023 A 
ATOM     14  C   UNL A   1      34.187  24.031  25.380  1.00  0.00     0.020 A 
BRANCH  10  15
ATOM     15  C   UNL A   1      31.973  20.373  24.865  1.00  0.00     0.032 C 
ATOM     16  C   UNL A   1      32.696  19.444  23.898  1.00  0.00     0.009 C 
ENDBRANCH  10  15
BRANCH  13  17
ATOM     17  C   UNL A   1      36.179  23.087  24.231  1.00  0.00     0.193 C 
ATOM     18  O   UNL A   1      36.361  23.371  23.051  1.00  0.00    -0.289 OA
BRANCH  17  19
ATOM     19  C   UNL A   1      37.351  22.946  25.131  1.00  0.00     0.022 A 
ATOM     20  C   UNL A   1      38.023  21.721  25.160  1.00  0.00     0.012 A 
ATOM     21  C   UNL A   1      37.784  24.004  25.940  1.00  0.00     0.012 A 
ATOM     22  C   UNL A   1      39.159  21.569  25.956  1.00  0.00     0.001 A 
ATOM     23  C   UNL A   1      38.922  23.848  26.734  1.00  0.00     0.001 A 
ATOM     24  C   UNL A   1      39.613  22.635  26.735  1.00  0.00     0.000 A 
ENDBRANCH  17  19
ENDBRANCH  13  17
ENDBRANCH   8   9
ENDBRANCH   4   7
ENDBRANCH   2   3
ENDBRANCH   1   2
BRANCH   1  25
ATOM     25  C   UNL A   1      35.520  30.477  28.050  1.00  0.00     0.118 C 
BRANCH  25  26
ATOM     26  N   UNL A   1      35.496  30.618  29.497  1.00  0.00    -0.352 N 
ATOM     27  C   UNL A   1      36.424  30.254  30.440  1.00  0.00     0.251 C 
ATOM     28  H   UNL A   1      34.685  31.043  29.859  1.00  0.00     0.163 HD
ATOM     29  O   UNL A   1      36.103  30.256  31.625  1.00  0.00    -0.269 OA
BRANCH  27  30
ATOM     30  C   UNL A   1      37.797  29.861  30.048  1.00  0.00     0.039 A 
ATOM     31  C   UNL A   1      38.181  30.013  28.712  1.00  0.00     0.014 A 
ATOM     32  C   UNL A   1      38.680  29.282  30.965  1.00  0.00     0.014 A 
ATOM     33  C   UNL A   1      39.460  29.623  28.306  1.00  0.00     0.010 A 
ATOM     34  C   UNL A   1      39.977  28.955  30.573  1.00  0.00     0.010 A 
ATOM     35  C   UNL A   1      40.376  29.110  29.237  1.00  0.00    -0.014 A 
BRANCH  35  36
ATOM     36  C   UNL A   1      41.751  28.730  28.826  1.00  0.00     0.031 A 
ATOM     37  C   UNL A   1      42.846  29.763  28.770  1.00  0.00     0.074 A 
ATOM     38  C   UNL A   1      42.000  27.462  28.443  1.00  0.00     0.049 A 
ATOM     39  N   UNL A   1      44.093  29.622  28.402  1.00  0.00    -0.248 NA
ATOM     40  C   UNL A   1      42.484  31.137  29.153  1.00  0.00     0.031 C 
ATOM     41  C   UNL A   1      41.011  26.382  28.401  1.00  0.00     0.029 A 
ATOM     42  N   UNL A   1      43.159  26.869  28.008  1.00  0.00    -0.354 N 
ATOM     43  C   UNL A   1      44.657  30.891  28.484  1.00  0.00     0.074 A 
ATOM     44  C   UNL A   1      43.606  31.794  28.899  1.00  0.00     0.031 C 
ATOM     45  C   UNL A   1      41.610  25.255  27.984  1.00  0.00     0.029 A 
ATOM     46  C   UNL A   1      43.013  25.538  27.699  1.00  0.00     0.049 A 
ATOM     47  H   UNL A   1      44.013  27.351  27.927  1.00  0.00     0.167 HD
ATOM     48  C   UNL A   1      45.938  31.267  28.248  1.00  0.00     0.031 A 
ATOM     49  C   UNL A   1      43.906  24.643  27.234  1.00  0.00     0.031 A 
ATOM     50  C   UNL A   1      46.984  30.362  27.852  1.00  0.00     0.049 A 
ATOM     51  C   UNL A   1      45.328  25.075  27.012  1.00  0.00     0.074 A 
ATOM     52  C   UNL A   1      48.330  30.630  27.662  1.00  0.00     0.029 A 
ATOM     53  N   UNL A   1      46.804  29.014  27.582  1.00  0.00    -0.354 N 
ATOM     54  N   UNL A   1      45.862  26.263  27.172  1.00  0.00    -0.248 NA
ATOM     55  C   UNL A   1      46.271  24.043  26.562  1.00  0.00     0.031 C 
ATOM     56  C   UNL A   1      48.953  29.453  27.231  1.00  0.00     0.029 A 
ATOM     57  C   UNL A   1      48.007  28.442  27.203  1.00  0.00     0.049 A 
ATOM     58  H   UNL A   1      45.946  28.535  27.648  1.00  0.00     0.167 HD
ATOM     59  C   UNL A   1      47.207  26.118  26.861  1.00  0.00     0.074 A 
ATOM     60  C   UNL A   1      47.410  24.722  26.521  1.00  0.00     0.031 C 
ATOM     61  C   UNL A   1      48.189  27.054  26.856  1.00  0.00     0.031 A 
BRANCH  48  62
ATOM     62  C   UNL A   1      46.272  32.729  28.403  1.00  0.00    -0.014 A 
ATOM     63  C   UNL A   1      46.252  33.603  27.301  1.00  0.00     0.010 A 
ATOM     64  C   UNL A   1      46.586  33.242  29.674  1.00  0.00     0.010 A 
ATOM     65  C   UNL A   1      46.590  34.949  27.458  1.00  0.00     0.020 A 
ATOM     66  C   UNL A   1      46.897  34.595  29.841  1.00  0.00     0.020 A 
ATOM     67  C   UNL A   1      46.919  35.436  28.726  1.00  0.00     0.054 A 
BRANCH  67  68
ATOM     68  S   UNL A   1      47.350  37.189  28.905  1.00  0.00     0.124 S 
ATOM     69  O   UNL A   1      48.081  37.446  27.666  1.00  0.00    -0.237 OA
ATOM     70  O   UNL A   1      46.043  37.833  29.007  1.00  0.00    -0.237 OA
ATOM     71  O   UNL A   1      48.156  37.226  30.123  1.00  0.00    -0.744 OA
ENDBRANCH  67  68
ENDBRANCH  48  62
BRANCH  49  72
ATOM     72  C   UNL A   1      43.474  23.244  26.969  1.00  0.00    -0.014 A 
ATOM     73  C   UNL A   1      43.455  22.739  25.658  1.00  0.00     0.010 A 
ATOM     74  C   UNL A   1      43.122  22.398  28.035  1.00  0.00     0.010 A 
ATOM     75  C   UNL A   1      43.084  21.413  25.416  1.00  0.00     0.020 A 
ATOM     76  C   UNL A   1      42.773  21.065  27.801  1.00  0.00     0.020 A 
ATOM     77  C   UNL A   1      42.749  20.583  26.489  1.00  0.00     0.054 A 
BRANCH  77  78
ATOM     78  S   UNL A   1      42.340  18.846  26.160  1.00  0.00     0.124 S 
ATOM     79  O   UNL A   1      42.515  18.237  27.475  1.00  0.00    -0.237 OA
ATOM     80  O   UNL A   1      40.963  18.930  25.680  1.00  0.00    -0.237 OA
ATOM     81  O   UNL A   1      43.320  18.450  25.150  1.00  0.00    -0.744 OA
ENDBRANCH  77  78
ENDBRANCH  49  72
BRANCH  61  82
ATOM     82  C   UNL A   1      49.575  26.595  26.490  1.00  0.00    -0.014 A 
ATOM     83  C   UNL A   1      50.410  25.977  27.439  1.00  0.00     0.010 A 
ATOM     84  C   UNL A   1      50.033  26.751  25.170  1.00  0.00     0.010 A 
ATOM     85  C   UNL A   1      51.693  25.556  27.080  1.00  0.00     0.020 A 
ATOM     86  C   UNL A   1      51.305  26.308  24.801  1.00  0.00     0.020 A 
ATOM     87  C   UNL A   1      52.134  25.727  25.764  1.00  0.00     0.054 A 
BRANCH  87  88
ATOM     88  S   UNL A   1      53.793  25.147  25.315  1.00  0.00     0.124 S 
ATOM     89  O   UNL A   1      54.618  25.753  26.356  1.00  0.00    -0.237 OA
ATOM     90  O   UNL A   1      53.657  23.694  25.387  1.00  0.00    -0.237 OA
ATOM     91  O   UNL A   1      53.993  25.682  23.969  1.00  0.00    -0.744 OA
ENDBRANCH  87  88
ENDBRANCH  61  82
ENDBRANCH  35  36
ENDBRANCH  27  30
ENDBRANCH  25  26
ENDBRANCH   1  25
TORSDOF 17
ENDMDL
MODEL 2
REMARK VINA RESULT:     -11.6      2.963      4.292
REMARK SMILES CCc1cc(/C=C/C(=O)NCCCNC(=O)c2ccc(-c3c4nc(c(-c5ccc(S(=O)(=O)[O-])cc5)c5ccc([nH]5)c(-c5ccc(S(=O)(=O)[O-])cc5)c5nc(c(-c6ccc(S(=O)(=O)[O-])cc6)c6ccc3[nH]6)C=C5)C=C4)cc2)cc(C(=O)c2ccccc2)c1
REMARK SMILES IDX 12 1 11 2 10 3 8 4 9 5 7 7 6 8 5 9 3 10 4 11 87 12 78 13
REMARK SMILES IDX 77 14 2 15 1 16 79 17 80 18 81 19 82 20 86 21 83 22 85 23
REMARK SMILES IDX 84 24 13 25 14 26 15 27 16 29 17 30 18 31 76 32 19 33 75 34
REMARK SMILES IDX 20 35 21 36 22 37 69 38 23 39 74 40 68 41 70 42 24 43 73 44
REMARK SMILES IDX 67 45 66 46 25 48 55 49 36 50 54 51 37 52 40 53 53 54 71 55
REMARK SMILES IDX 38 56 39 57 52 59 72 60 41 61 26 62 27 63 35 64 28 65 34 66
REMARK SMILES IDX 29 67 30 68 31 69 32 70 33 71 56 72 57 73 65 74 58 75 64 76
REMARK SMILES IDX 59 77 60 78 61 79 62 80 63 81 42 82 43 83 51 84 44 85 50 86
REMARK SMILES IDX 45 87 46 88 47 89 48 90 49 91
REMARK H PARENT 10 6 14 28 70 47 40 58
REMARK Flexibility Score: inf
ROOT
ATOM      1  C   UNL A   1      32.553  27.581  27.049  1.00  0.00     0.042 C 
ENDROOT
BRANCH   1   2
ATOM      2  C   UNL A   1      31.724  27.391  25.780  1.00  0.00     0.118 C 
BRANCH   2   3
ATOM      3  N   UNL A   1      32.416  27.884  24.602  1.00  0.00    -0.352 N 
ATOM      4  C   UNL A   1      33.207  27.235  23.708  1.00  0.00     0.244 C 
ATOM      5  O   UNL A   1      33.578  27.817  22.689  1.00  0.00    -0.270 OA
ATOM      6  H   UNL A   1      32.292  28.843  24.422  1.00  0.00     0.163 HD
BRANCH   4   7
ATOM      7  C   UNL A   1      33.573  25.814  23.893  1.00  0.00     0.072 C 
ATOM      8  C   UNL A   1      34.601  25.384  24.638  1.00  0.00     0.014 C 
BRANCH   8   9
ATOM      9  C   UNL A   1      35.011  23.979  24.737  1.00  0.00    -0.024 A 
ATOM     10  C   UNL A   1      36.740  22.288  25.045  1.00  0.00    -0.047 A 
ATOM     11  C   UNL A   1      36.359  23.623  24.857  1.00  0.00     0.011 A 
ATOM     12  C   UNL A   1      35.754  21.297  25.106  1.00  0.00     0.016 A 
ATOM     13  C   UNL A   1      34.399  21.642  25.016  1.00  0.00     0.023 A 
ATOM     14  C   UNL A   1      34.034  22.981  24.823  1.00  0.00     0.020 A 
BRANCH  10  15
ATOM     15  C   UNL A   1      38.190  21.941  25.270  1.00  0.00     0.032 C 
ATOM     16  C   UNL A   1      38.755  22.724  26.448  1.00  0.00     0.009 C 
ENDBRANCH  10  15
BRANCH  13  17
ATOM     17  C   UNL A   1      33.325  20.614  25.098  1.00  0.00     0.193 C 
ATOM     18  O   UNL A   1      32.341  20.820  25.803  1.00  0.00    -0.289 OA
BRANCH  17  19
ATOM     19  C   UNL A   1      33.397  19.361  24.306  1.00  0.00     0.022 A 
ATOM     20  C   UNL A   1      34.395  18.433  24.619  1.00  0.00     0.012 A 
ATOM     21  C   UNL A   1      32.498  19.100  23.265  1.00  0.00     0.012 A 
ATOM     22  C   UNL A   1      34.461  17.223  23.928  1.00  0.00     0.001 A 
ATOM     23  C   UNL A   1      32.567  17.887  22.577  1.00  0.00     0.001 A 
ATOM     24  C   UNL A   1      33.541  16.947  22.914  1.00  0.00     0.000 A 
ENDBRANCH  17  19
ENDBRANCH  13  17
ENDBRANCH   8   9
ENDBRANCH   4   7
ENDBRANCH   2   3
ENDBRANCH   1   2
BRANCH   1  25
ATOM     25  C   UNL A   1      33.835  28.382  26.834  1.00  0.00     0.118 C 
BRANCH  25  26
ATOM     26  N   UNL A   1      33.680  29.777  27.216  1.00  0.00    -0.352 N 
ATOM     27  C   UNL A   1      34.492  30.586  27.970  1.00  0.00     0.251 C 
ATOM     28  H   UNL A   1      32.861  30.210  26.882  1.00  0.00     0.163 HD
ATOM     29  O   UNL A   1      34.059  31.665  28.364  1.00  0.00    -0.269 OA
BRANCH  27  30
ATOM     30  C   UNL A   1      35.874  30.176  28.311  1.00  0.00     0.039 A 
ATOM     31  C   UNL A   1      36.865  30.278  27.330  1.00  0.00     0.014 A 
ATOM     32  C   UNL A   1      36.185  29.631  29.561  1.00  0.00     0.014 A 
ATOM     33  C   UNL A   1      38.171  29.872  27.612  1.00  0.00     0.010 A 
ATOM     34  C   UNL A   1      37.502  29.287  29.863  1.00  0.00     0.010 A 
ATOM     35  C   UNL A   1      38.506  29.393  28.889  1.00  0.00    -0.014 A 
BRANCH  35  36
ATOM     36  C   UNL A   1      39.899  28.995  29.214  1.00  0.00     0.031 A 
ATOM     37  C   UNL A   1      40.841  29.975  29.861  1.00  0.00     0.074 A 
ATOM     38  C   UNL A   1      40.333  27.767  28.869  1.00  0.00     0.049 A 
ATOM     39  N   UNL A   1      42.099  29.817  30.185  1.00  0.00    -0.248 NA
ATOM     40  C   UNL A   1      40.308  31.314  30.160  1.00  0.00     0.031 C 
ATOM     41  C   UNL A   1      39.533  26.746  28.189  1.00  0.00     0.029 A 
ATOM     42  N   UNL A   1      41.559  27.171  29.036  1.00  0.00    -0.354 N 
ATOM     43  C   UNL A   1      42.514  31.040  30.700  1.00  0.00     0.074 A 
ATOM     44  C   UNL A   1      41.385  31.941  30.609  1.00  0.00     0.031 C 
ATOM     45  C   UNL A   1      40.281  25.646  28.014  1.00  0.00     0.029 A 
ATOM     46  C   UNL A   1      41.621  25.891  28.540  1.00  0.00     0.049 A 
ATOM     47  H   UNL A   1      42.320  27.619  29.471  1.00  0.00     0.167 HD
ATOM     48  C   UNL A   1      43.721  31.379  31.214  1.00  0.00     0.031 A 
ATOM     49  C   UNL A   1      42.640  25.013  28.507  1.00  0.00     0.031 A 
ATOM     50  C   UNL A   1      44.836  30.475  31.318  1.00  0.00     0.049 A 
ATOM     51  C   UNL A   1      43.960  25.398  29.114  1.00  0.00     0.074 A 
ATOM     52  C   UNL A   1      46.077  30.698  31.892  1.00  0.00     0.029 A 
ATOM     53  N   UNL A   1      44.848  29.175  30.835  1.00  0.00    -0.354 N 
ATOM     54  N   UNL A   1      44.309  26.535  29.669  1.00  0.00    -0.248 NA
ATOM     55  C   UNL A   1      45.017  24.379  29.104  1.00  0.00     0.031 C 
ATOM     56  C   UNL A   1      46.854  29.548  31.713  1.00  0.00     0.029 A 
ATOM     57  C   UNL A   1      46.081  28.592  31.076  1.00  0.00     0.049 A 
ATOM     58  H   UNL A   1      44.092  28.733  30.386  1.00  0.00     0.167 HD
ATOM     59  C   UNL A   1      45.621  26.361  30.092  1.00  0.00     0.074 A 
ATOM     60  C   UNL A   1      45.996  25.003  29.745  1.00  0.00     0.031 C 
ATOM     61  C   UNL A   1      46.442  27.244  30.712  1.00  0.00     0.031 A 
BRANCH  48  62
ATOM     62  C   UNL A   1      43.899  32.797  31.693  1.00  0.00    -0.014 A 
ATOM     63  C   UNL A   1      43.520  33.181  32.993  1.00  0.00     0.010 A 
ATOM     64  C   UNL A   1      44.475  33.755  30.839  1.00  0.00     0.010 A 
ATOM     65  C   UNL A   1      43.667  34.507  33.410  1.00  0.00     0.020 A 
ATOM     66  C   UNL A   1      44.650  35.076  31.263  1.00  0.00     0.020 A 
ATOM     67  C   UNL A   1      44.224  35.448  32.540  1.00  0.00     0.054 A 
BRANCH  67  68
ATOM     68  S   UNL A   1      44.408  37.161  33.108  1.00  0.00     0.124 S 
ATOM     69  O   UNL A   1      43.917  37.077  34.481  1.00  0.00    -0.237 OA
ATOM     70  O   UNL A   1      45.843  37.395  32.968  1.00  0.00    -0.237 OA
ATOM     71  O   UNL A   1      43.565  37.923  32.190  1.00  0.00    -0.744 OA
ENDBRANCH  67  68
ENDBRANCH  48  62
BRANCH  49  72
ATOM     72  C   UNL A   1      42.436  23.673  27.892  1.00  0.00    -0.014 A 
ATOM     73  C   UNL A   1      42.792  23.442  26.552  1.00  0.00     0.010 A 
ATOM     74  C   UNL A   1      41.924  22.611  28.658  1.00  0.00     0.010 A 
ATOM     75  C   UNL A   1      42.632  22.173  25.987  1.00  0.00     0.020 A 
ATOM     76  C   UNL A   1      41.785  21.336  28.105  1.00  0.00     0.020 A 
ATOM     77  C   UNL A   1      42.134  21.127  26.768  1.00  0.00     0.054 A 
BRANCH  77  78
ATOM     78  S   UNL A   1      42.003  19.471  26.036  1.00  0.00     0.124 S 
ATOM     79  O   UNL A   1      42.912  19.568  24.899  1.00  0.00    -0.237 OA
ATOM     80  O   UNL A   1      42.444  18.606  27.128  1.00  0.00    -0.237 OA
ATOM     81  O   UNL A   1      40.585  19.358  25.698  1.00  0.00    -0.744 OA
ENDBRANCH  77  78
ENDBRANCH  49  72
BRANCH  61  82
ATOM     82  C   UNL A   1      47.822  26.763  31.072  1.00  0.00    -0.014 A 
ATOM     83  C   UNL A   1      48.039  25.958  32.205  1.00  0.00     0.010 A 
ATOM     84  C   UNL A   1      48.910  27.091  30.243  1.00  0.00     0.010 A 
ATOM     85  C   UNL A   1      49.327  25.520  32.522  1.00  0.00     0.020 A 
ATOM     86  C   UNL A   1      50.196  26.632  30.544  1.00  0.00     0.020 A 
ATOM     87  C   UNL A   1      50.398  25.863  31.691  1.00  0.00     0.054 A 
BRANCH  87  88
ATOM     88  S   UNL A   1      52.057  25.258  32.107  1.00  0.00     0.124 S 
ATOM     89  O   UNL A   1      52.371  26.035  33.304  1.00  0.00    -0.237 OA
ATOM     90  O   UNL A   1      51.835  23.831  32.326  1.00  0.00    -0.237 OA
ATOM     91  O   UNL A   1      52.851  25.586  30.924  1.00  0.00    -0.744 OA
ENDBRANCH  87  88
ENDBRANCH  61  82
ENDBRANCH  35  36
ENDBRANCH  27  30
ENDBRANCH  25  26
ENDBRANCH   1  25
TORSDOF 17
ENDMDL
MODEL 3
REMARK VINA RESULT:     -11.5      4.802      5.994
REMARK SMILES CCc1cc(/C=C/C(=O)NCCCNC(=O)c2ccc(-c3c4nc(c(-c5ccc(S(=O)(=O)[O-])cc5)c5ccc([nH]5)c(-c5ccc(S(=O)(=O)[O-])cc5)c5nc(c(-c6ccc(S(=O)(=O)[O-])cc6)c6ccc3[nH]6)C=C5)C=C4)cc2)cc(C(=O)c2ccccc2)c1
REMARK SMILES IDX 12 1 11 2 10 3 8 4 9 5 7 7 6 8 5 9 3 10 4 11 87 12 78 13
REMARK SMILES IDX 77 14 2 15 1 16 79 17 80 18 81 19 82 20 86 21 83 22 85 23
REMARK SMILES IDX 84 24 13 25 14 26 15 27 16 29 17 30 18 31 76 32 19 33 75 34
REMARK SMILES IDX 20 35 21 36 22 37 69 38 23 39 74 40 68 41 70 42 24 43 73 44
REMARK SMILES IDX 67 45 66 46 25 48 55 49 36 50 54 51 37 52 40 53 53 54 71 55
REMARK SMILES IDX 38 56 39 57 52 59 72 60 41 61 26 62 27 63 35 64 28 65 34 66
REMARK SMILES IDX 29 67 30 68 31 69 32 70 33 71 56 72 57 73 65 74 58 75 64 76
REMARK SMILES IDX 59 77 60 78 61 79 62 80 63 81 42 82 43 83 51 84 44 85 50 86
REMARK SMILES IDX 45 87 46 88 47 89 48 90 49 91
REMARK H PARENT 10 6 14 28 70 47 40 58
REMARK Flexibility Score: inf
ROOT
ATOM      1  C   UNL A   1      32.751  27.449  26.748  1.00  0.00     0.042 C 
ENDROOT
BRANCH   1   2
ATOM      2  C   UNL A   1      31.726  27.150  25.655  1.00  0.00     0.118 C 
BRANCH   2   3
ATOM      3  N   UNL A   1      30.638  26.322  26.146  1.00  0.00    -0.352 N 
ATOM      4  C   UNL A   1      30.539  24.972  26.261  1.00  0.00     0.244 C 
ATOM      5  O   UNL A   1      29.574  24.480  26.844  1.00  0.00    -0.270 OA
ATOM      6  H   UNL A   1      29.843  26.820  26.442  1.00  0.00     0.163 HD
BRANCH   4   7
ATOM      7  C   UNL A   1      31.608  24.078  25.766  1.00  0.00     0.072 C 
ATOM      8  C   UNL A   1      31.611  22.745  25.906  1.00  0.00     0.014 C 
BRANCH   8   9
ATOM      9  C   UNL A   1      32.722  21.879  25.497  1.00  0.00    -0.024 A 
ATOM     10  C   UNL A   1      33.604  19.675  24.939  1.00  0.00    -0.047 A 
ATOM     11  C   UNL A   1      32.570  20.490  25.420  1.00  0.00     0.011 A 
ATOM     12  C   UNL A   1      34.808  20.264  24.538  1.00  0.00     0.016 A 
ATOM     13  C   UNL A   1      34.965  21.655  24.582  1.00  0.00     0.023 A 
ATOM     14  C   UNL A   1      33.924  22.456  25.070  1.00  0.00     0.020 A 
BRANCH  10  15
ATOM     15  C   UNL A   1      33.382  18.193  24.774  1.00  0.00     0.032 C 
ATOM     16  C   UNL A   1      33.257  17.829  23.301  1.00  0.00     0.009 C 
ENDBRANCH  10  15
BRANCH  13  17
ATOM     17  C   UNL A   1      36.226  22.313  24.142  1.00  0.00     0.193 C 
ATOM     18  O   UNL A   1      36.356  22.652  22.970  1.00  0.00    -0.289 OA
BRANCH  17  19
ATOM     19  C   UNL A   1      37.314  22.612  25.107  1.00  0.00     0.022 A 
ATOM     20  C   UNL A   1      38.256  21.614  25.376  1.00  0.00     0.012 A 
ATOM     21  C   UNL A   1      37.408  23.855  25.743  1.00  0.00     0.012 A 
ATOM     22  C   UNL A   1      39.320  21.877  26.238  1.00  0.00     0.001 A 
ATOM     23  C   UNL A   1      38.476  24.114  26.604  1.00  0.00     0.001 A 
ATOM     24  C   UNL A   1      39.435  23.130  26.844  1.00  0.00     0.000 A 
ENDBRANCH  17  19
ENDBRANCH  13  17
ENDBRANCH   8   9
ENDBRANCH   4   7
ENDBRANCH   2   3
ENDBRANCH   1   2
BRANCH   1  25
ATOM     25  C   UNL A   1      33.953  28.256  26.262  1.00  0.00     0.118 C 
BRANCH  25  26
ATOM     26  N   UNL A   1      33.758  29.687  26.438  1.00  0.00    -0.352 N 
ATOM     27  C   UNL A   1      34.410  30.577  27.254  1.00  0.00     0.251 C 
ATOM     28  H   UNL A   1      33.045  30.080  25.884  1.00  0.00     0.163 HD
ATOM     29  O   UNL A   1      33.932  31.696  27.416  1.00  0.00    -0.269 OA
BRANCH  27  30
ATOM     30  C   UNL A   1      35.671  30.206  27.936  1.00  0.00     0.039 A 
ATOM     31  C   UNL A   1      35.606  29.726  29.248  1.00  0.00     0.014 A 
ATOM     32  C   UNL A   1      36.914  30.391  27.323  1.00  0.00     0.014 A 
ATOM     33  C   UNL A   1      36.780  29.396  29.928  1.00  0.00     0.010 A 
ATOM     34  C   UNL A   1      38.080  29.999  27.978  1.00  0.00     0.010 A 
ATOM     35  C   UNL A   1      38.026  29.509  29.292  1.00  0.00    -0.014 A 
BRANCH  35  36
ATOM     36  C   UNL A   1      39.279  29.124  29.990  1.00  0.00     0.031 A 
ATOM     37  C   UNL A   1      39.725  29.865  31.223  1.00  0.00     0.074 A 
ATOM     38  C   UNL A   1      40.046  28.142  29.478  1.00  0.00     0.049 A 
ATOM     39  N   UNL A   1      40.804  29.692  31.942  1.00  0.00    -0.248 NA
ATOM     40  C   UNL A   1      38.860  30.959  31.691  1.00  0.00     0.031 C 
ATOM     41  C   UNL A   1      39.750  27.385  28.259  1.00  0.00     0.029 A 
ATOM     42  N   UNL A   1      41.238  27.618  29.912  1.00  0.00    -0.354 N 
ATOM     43  C   UNL A   1      40.761  30.669  32.931  1.00  0.00     0.074 A 
ATOM     44  C   UNL A   1      39.570  31.455  32.694  1.00  0.00     0.031 C 
ATOM     45  C   UNL A   1      40.721  26.482  28.056  1.00  0.00     0.029 A 
ATOM     46  C   UNL A   1      41.725  26.616  29.108  1.00  0.00     0.049 A 
ATOM     47  H   UNL A   1      41.699  27.930  30.724  1.00  0.00     0.167 HD
ATOM     48  C   UNL A   1      41.627  30.884  33.951  1.00  0.00     0.031 A 
ATOM     49  C   UNL A   1      42.853  25.887  29.201  1.00  0.00     0.031 A 
ATOM     50  C   UNL A   1      42.802  30.088  34.192  1.00  0.00     0.049 A 
ATOM     51  C   UNL A   1      43.782  26.119  30.359  1.00  0.00     0.074 A 
ATOM     52  C   UNL A   1      43.703  30.177  35.240  1.00  0.00     0.029 A 
ATOM     53  N   UNL A   1      43.243  29.060  33.373  1.00  0.00    -0.354 N 
ATOM     54  N   UNL A   1      43.683  26.997  31.330  1.00  0.00    -0.248 NA
ATOM     55  C   UNL A   1      44.966  25.255  30.443  1.00  0.00     0.031 C 
ATOM     56  C   UNL A   1      44.713  29.231  35.028  1.00  0.00     0.029 A 
ATOM     57  C   UNL A   1      44.414  28.521  33.878  1.00  0.00     0.049 A 
ATOM     58  H   UNL A   1      42.790  28.758  32.552  1.00  0.00     0.167 HD
ATOM     59  C   UNL A   1      44.781  26.777  32.151  1.00  0.00     0.074 A 
ATOM     60  C   UNL A   1      45.521  25.671  31.573  1.00  0.00     0.031 C 
ATOM     61  C   UNL A   1      45.146  27.429  33.283  1.00  0.00     0.031 A 
BRANCH  48  62
ATOM     62  C   UNL A   1      41.337  32.037  34.876  1.00  0.00    -0.014 A 
ATOM     63  C   UNL A   1      40.506  31.881  36.000  1.00  0.00     0.010 A 
ATOM     64  C   UNL A   1      41.925  33.292  34.632  1.00  0.00     0.010 A 
ATOM     65  C   UNL A   1      40.227  32.968  36.832  1.00  0.00     0.020 A 
ATOM     66  C   UNL A   1      41.671  34.376  35.479  1.00  0.00     0.020 A 
ATOM     67  C   UNL A   1      40.805  34.211  36.562  1.00  0.00     0.054 A 
BRANCH  67  68
ATOM     68  S   UNL A   1      40.431  35.606  37.660  1.00  0.00     0.124 S 
ATOM     69  O   UNL A   1      39.467  35.012  38.583  1.00  0.00    -0.237 OA
ATOM     70  O   UNL A   1      41.735  35.924  38.234  1.00  0.00    -0.237 OA
ATOM     71  O   UNL A   1      39.888  36.620  36.759  1.00  0.00    -0.744 OA
ENDBRANCH  67  68
ENDBRANCH  48  62
BRANCH  49  72
ATOM     72  C   UNL A   1      43.148  24.855  28.171  1.00  0.00    -0.014 A 
ATOM     73  C   UNL A   1      43.936  25.168  27.050  1.00  0.00     0.010 A 
ATOM     74  C   UNL A   1      42.676  23.540  28.330  1.00  0.00     0.010 A 
ATOM     75  C   UNL A   1      44.242  24.187  26.103  1.00  0.00     0.020 A 
ATOM     76  C   UNL A   1      42.998  22.550  27.397  1.00  0.00     0.020 A 
ATOM     77  C   UNL A   1      43.774  22.882  26.284  1.00  0.00     0.054 A 
BRANCH  77  78
ATOM     78  S   UNL A   1      44.242  21.608  25.081  1.00  0.00     0.124 S 
ATOM     79  O   UNL A   1      45.641  21.368  25.419  1.00  0.00    -0.237 OA
ATOM     80  O   UNL A   1      43.319  20.520  25.396  1.00  0.00    -0.237 OA
ATOM     81  O   UNL A   1      44.011  22.255  23.790  1.00  0.00    -0.744 OA
ENDBRANCH  77  78
ENDBRANCH  49  72
BRANCH  61  82
ATOM     82  C   UNL A   1      46.391  26.953  33.981  1.00  0.00    -0.014 A 
ATOM     83  C   UNL A   1      46.337  25.932  34.947  1.00  0.00     0.010 A 
ATOM     84  C   UNL A   1      47.636  27.508  33.637  1.00  0.00     0.010 A 
ATOM     85  C   UNL A   1      47.504  25.502  35.583  1.00  0.00     0.020 A 
ATOM     86  C   UNL A   1      48.808  27.062  34.253  1.00  0.00     0.020 A 
ATOM     87  C   UNL A   1      48.732  26.072  35.234  1.00  0.00     0.054 A 
BRANCH  87  88
ATOM     88  S   UNL A   1      50.237  25.476  36.053  1.00  0.00     0.124 S 
ATOM     89  O   UNL A   1      51.286  26.101  35.250  1.00  0.00    -0.237 OA
ATOM     90  O   UNL A   1      50.093  25.994  37.411  1.00  0.00    -0.237 OA
ATOM     91  O   UNL A   1      50.143  24.022  35.934  1.00  0.00    -0.744 OA
ENDBRANCH  87  88
ENDBRANCH  61  82
ENDBRANCH  35  36
ENDBRANCH  27  30
ENDBRANCH  25  26
ENDBRANCH   1  25
TORSDOF 17
ENDMDL
