MODEL 1
REMARK VINA RESULT:     -11.2      0.000      0.000
REMARK SMILES O=C(Nc1ccc2c(c1)OCO2)N[C@H]1C=C[C@@H](C(=O)NCCCNC(=O)c2ccc(-c3c4nc(c(-c5ccc(S(=O)(=O)[O-])cc5)c5ccc([nH]5)c(-c5ccc(S(=O)(=O)[O-])cc5)c5nc(c(-c6ccc(S(=O)(=O)[O-])cc6)c6ccc3[nH]6)C=C5)C=C4)cc2)C1
REMARK SMILES IDX 22 1 21 2 20 3 18 4 19 5 17 7 14 8 15 9 87 10 16 11 13 12
REMARK SMILES IDX 1 13 2 14 3 15 4 18 5 19 9 20 6 21 8 22 7 23 10 24 12 25
REMARK SMILES IDX 11 26 23 27 24 28 25 29 26 31 27 32 28 33 86 34 29 35 85 36
REMARK SMILES IDX 30 37 31 38 32 39 79 40 33 41 84 42 78 43 80 44 34 45 83 46
REMARK SMILES IDX 77 47 76 48 35 50 65 51 46 52 64 53 47 54 50 55 63 56 81 57
REMARK SMILES IDX 48 58 49 59 62 61 82 62 51 63 36 64 37 65 45 66 38 67 44 68
REMARK SMILES IDX 39 69 40 70 41 71 42 72 43 73 66 74 67 75 75 76 68 77 74 78
REMARK SMILES IDX 69 79 70 80 71 81 72 82 73 83 52 84 53 85 61 86 54 87 60 88
REMARK SMILES IDX 55 89 56 90 57 91 58 92 59 93
REMARK H PARENT 20 6 3 16 13 17 24 30 80 49 50 60
REMARK Flexibility Score: inf
ROOT
ATOM      1  C   UNL A   1      34.581  33.793  28.404  1.00  0.00     0.042 C 
ENDROOT
BRANCH   1   2
ATOM      2  C   UNL A   1      33.215  34.464  28.476  1.00  0.00     0.117 C 
BRANCH   2   3
ATOM      3  N   UNL A   1      33.330  35.912  28.476  1.00  0.00    -0.356 N 
ATOM      4  C   UNL A   1      33.199  36.826  29.473  1.00  0.00     0.227 C 
ATOM      5  O   UNL A   1      33.360  38.013  29.167  1.00  0.00    -0.274 OA
ATOM      6  H   UNL A   1      33.542  36.300  27.597  1.00  0.00     0.163 HD
BRANCH   4   7
ATOM      7  C   UNL A   1      32.914  36.445  30.928  1.00  0.00     0.103 C 
ATOM      8  C   UNL A   1      34.183  35.542  32.843  1.00  0.00     0.107 C 
ATOM      9  C   UNL A   1      34.043  37.030  32.895  1.00  0.00    -0.006 C 
ATOM     10  C   UNL A   1      33.608  35.183  31.457  1.00  0.00     0.047 C 
ATOM     11  C   UNL A   1      33.335  37.522  31.875  1.00  0.00    -0.016 C 
BRANCH   8  12
ATOM     12  N   UNL A   1      35.557  35.098  32.986  1.00  0.00    -0.332 N 
ATOM     13  O   UNL A   1      35.217  33.718  34.773  1.00  0.00    -0.248 OA
ATOM     14  C   UNL A   1      35.954  34.166  33.895  1.00  0.00     0.319 C 
ATOM     15  N   UNL A   1      37.202  33.633  33.769  1.00  0.00    -0.308 N 
ATOM     16  H   UNL A   1      37.359  32.875  34.376  1.00  0.00     0.171 HD
ATOM     17  H   UNL A   1      36.239  35.492  32.394  1.00  0.00     0.165 HD
BRANCH  15  18
ATOM     18  C   UNL A   1      38.314  33.928  32.959  1.00  0.00     0.046 A 
ATOM     19  C   UNL A   1      39.613  34.147  33.450  1.00  0.00     0.030 A 
ATOM     20  C   UNL A   1      38.085  33.983  31.578  1.00  0.00     0.076 A 
ATOM     21  C   UNL A   1      40.666  34.486  32.587  1.00  0.00     0.053 A 
ATOM     22  C   UNL A   1      39.131  34.346  30.753  1.00  0.00     0.167 A 
ATOM     23  C   UNL A   1      40.385  34.601  31.243  1.00  0.00     0.165 A 
ATOM     24  O   UNL A   1      39.055  34.512  29.405  1.00  0.00    -0.454 OA
ATOM     25  O   UNL A   1      41.261  34.960  30.267  1.00  0.00    -0.454 OA
ATOM     26  C   UNL A   1      40.386  35.005  29.112  1.00  0.00     0.468 C 
ENDBRANCH  15  18
ENDBRANCH   8  12
ENDBRANCH   4   7
ENDBRANCH   2   3
ENDBRANCH   1   2
BRANCH   1  27
ATOM     27  C   UNL A   1      34.654  32.464  29.143  1.00  0.00     0.118 C 
BRANCH  27  28
ATOM     28  N   UNL A   1      34.091  31.375  28.356  1.00  0.00    -0.352 N 
ATOM     29  C   UNL A   1      34.701  30.276  27.809  1.00  0.00     0.251 C 
ATOM     30  H   UNL A   1      33.123  31.439  28.191  1.00  0.00     0.163 HD
ATOM     31  O   UNL A   1      34.090  29.608  26.969  1.00  0.00    -0.269 OA
BRANCH  29  32
ATOM     32  C   UNL A   1      36.073  29.889  28.199  1.00  0.00     0.039 A 
ATOM     33  C   UNL A   1      36.300  29.388  29.484  1.00  0.00     0.014 A 
ATOM     34  C   UNL A   1      37.149  30.059  27.322  1.00  0.00     0.014 A 
ATOM     35  C   UNL A   1      37.589  29.007  29.868  1.00  0.00     0.010 A 
ATOM     36  C   UNL A   1      38.415  29.598  27.673  1.00  0.00     0.010 A 
ATOM     37  C   UNL A   1      38.654  29.080  28.954  1.00  0.00    -0.014 A 
BRANCH  37  38
ATOM     38  C   UNL A   1      40.022  28.630  29.318  1.00  0.00     0.031 A 
ATOM     39  C   UNL A   1      40.967  29.565  30.025  1.00  0.00     0.074 A 
ATOM     40  C   UNL A   1      40.446  27.409  28.940  1.00  0.00     0.049 A 
ATOM     41  N   UNL A   1      42.222  29.382  30.349  1.00  0.00    -0.248 NA
ATOM     42  C   UNL A   1      40.441  30.892  30.386  1.00  0.00     0.031 C 
ATOM     43  C   UNL A   1      39.650  26.428  28.200  1.00  0.00     0.029 A 
ATOM     44  N   UNL A   1      41.660  26.791  29.114  1.00  0.00    -0.354 N 
ATOM     45  C   UNL A   1      42.641  30.575  30.929  1.00  0.00     0.074 A 
ATOM     46  C   UNL A   1      41.523  31.491  30.862  1.00  0.00     0.031 C 
ATOM     47  C   UNL A   1      40.392  25.328  27.993  1.00  0.00     0.029 A 
ATOM     48  C   UNL A   1      41.724  25.539  28.552  1.00  0.00     0.049 A 
ATOM     49  H   UNL A   1      42.412  27.207  29.593  1.00  0.00     0.167 HD
ATOM     50  C   UNL A   1      43.840  30.877  31.485  1.00  0.00     0.031 A 
ATOM     51  C   UNL A   1      42.743  24.659  28.483  1.00  0.00     0.031 A 
ATOM     52  C   UNL A   1      44.949  29.964  31.557  1.00  0.00     0.049 A 
ATOM     53  C   UNL A   1      44.059  25.002  29.119  1.00  0.00     0.074 A 
ATOM     54  C   UNL A   1      46.185  30.154  32.149  1.00  0.00     0.029 A 
ATOM     55  N   UNL A   1      44.959  28.689  31.012  1.00  0.00    -0.354 N 
ATOM     56  N   UNL A   1      44.414  26.110  29.725  1.00  0.00    -0.248 NA
ATOM     57  C   UNL A   1      45.104  23.972  29.076  1.00  0.00     0.031 C 
ATOM     58  C   UNL A   1      46.960  29.010  31.923  1.00  0.00     0.029 A 
ATOM     59  C   UNL A   1      46.187  28.087  31.235  1.00  0.00     0.049 A 
ATOM     60  H   UNL A   1      44.206  28.273  30.536  1.00  0.00     0.167 HD
ATOM     61  C   UNL A   1      45.722  25.905  30.150  1.00  0.00     0.074 A 
ATOM     62  C   UNL A   1      46.087  24.561  29.746  1.00  0.00     0.031 C 
ATOM     63  C   UNL A   1      46.543  26.754  30.816  1.00  0.00     0.031 A 
BRANCH  50  64
ATOM     64  C   UNL A   1      44.004  32.268  32.045  1.00  0.00    -0.014 A 
ATOM     65  C   UNL A   1      43.814  32.528  33.415  1.00  0.00     0.010 A 
ATOM     66  C   UNL A   1      44.340  33.332  31.188  1.00  0.00     0.010 A 
ATOM     67  C   UNL A   1      43.886  33.834  33.906  1.00  0.00     0.020 A 
ATOM     68  C   UNL A   1      44.445  34.637  31.681  1.00  0.00     0.020 A 
ATOM     69  C   UNL A   1      44.188  34.882  33.032  1.00  0.00     0.054 A 
BRANCH  69  70
ATOM     70  S   UNL A   1      44.249  36.573  33.687  1.00  0.00     0.124 S 
ATOM     71  O   UNL A   1      45.262  37.188  32.834  1.00  0.00    -0.237 OA
ATOM     72  O   UNL A   1      42.883  37.048  33.480  1.00  0.00    -0.237 OA
ATOM     73  O   UNL A   1      44.637  36.390  35.083  1.00  0.00    -0.744 OA
ENDBRANCH  69  70
ENDBRANCH  50  64
BRANCH  51  74
ATOM     74  C   UNL A   1      42.529  23.363  27.788  1.00  0.00    -0.014 A 
ATOM     75  C   UNL A   1      43.011  23.164  26.484  1.00  0.00     0.010 A 
ATOM     76  C   UNL A   1      41.916  22.293  28.466  1.00  0.00     0.010 A 
ATOM     77  C   UNL A   1      42.901  21.911  25.874  1.00  0.00     0.020 A 
ATOM     78  C   UNL A   1      41.825  21.034  27.868  1.00  0.00     0.020 A 
ATOM     79  C   UNL A   1      42.323  20.850  26.577  1.00  0.00     0.054 A 
BRANCH  79  80
ATOM     80  S   UNL A   1      42.327  19.197  25.833  1.00  0.00     0.124 S 
ATOM     81  O   UNL A   1      42.905  18.383  26.896  1.00  0.00    -0.237 OA
ATOM     82  O   UNL A   1      40.909  18.974  25.559  1.00  0.00    -0.237 OA
ATOM     83  O   UNL A   1      43.155  19.368  24.642  1.00  0.00    -0.744 OA
ENDBRANCH  79  80
ENDBRANCH  51  74
BRANCH  63  84
ATOM     84  C   UNL A   1      47.919  26.252  31.168  1.00  0.00    -0.014 A 
ATOM     85  C   UNL A   1      49.002  26.419  30.286  1.00  0.00     0.010 A 
ATOM     86  C   UNL A   1      48.140  25.655  32.422  1.00  0.00     0.010 A 
ATOM     87  C   UNL A   1      50.277  25.970  30.642  1.00  0.00     0.020 A 
ATOM     88  C   UNL A   1      49.419  25.229  32.791  1.00  0.00     0.020 A 
ATOM     89  C   UNL A   1      50.477  25.378  31.893  1.00  0.00     0.054 A 
BRANCH  89  90
ATOM     90  S   UNL A   1      52.149  24.844  32.349  1.00  0.00     0.124 S 
ATOM     91  O   UNL A   1      52.950  25.390  31.257  1.00  0.00    -0.237 OA
ATOM     92  O   UNL A   1      52.345  25.478  33.651  1.00  0.00    -0.237 OA
ATOM     93  O   UNL A   1      52.051  23.386  32.382  1.00  0.00    -0.744 OA
ENDBRANCH  89  90
ENDBRANCH  63  84
ENDBRANCH  37  38
ENDBRANCH  29  32
ENDBRANCH  27  28
ENDBRANCH   1  27
TORSDOF 15
ENDMDL
MODEL 2
REMARK VINA RESULT:     -11.2      4.226     11.298
REMARK SMILES O=C(Nc1ccc2c(c1)OCO2)N[C@H]1C=C[C@@H](C(=O)NCCCNC(=O)c2ccc(-c3c4nc(c(-c5ccc(S(=O)(=O)[O-])cc5)c5ccc([nH]5)c(-c5ccc(S(=O)(=O)[O-])cc5)c5nc(c(-c6ccc(S(=O)(=O)[O-])cc6)c6ccc3[nH]6)C=C5)C=C4)cc2)C1
REMARK SMILES IDX 22 1 21 2 20 3 18 4 19 5 17 7 14 8 15 9 87 10 16 11 13 12
REMARK SMILES IDX 1 13 2 14 3 15 4 18 5 19 9 20 6 21 8 22 7 23 10 24 12 25
REMARK SMILES IDX 11 26 23 27 24 28 25 29 26 31 27 32 28 33 86 34 29 35 85 36
REMARK SMILES IDX 30 37 31 38 32 39 79 40 33 41 84 42 78 43 80 44 34 45 83 46
REMARK SMILES IDX 77 47 76 48 35 50 65 51 46 52 64 53 47 54 50 55 63 56 81 57
REMARK SMILES IDX 48 58 49 59 62 61 82 62 51 63 36 64 37 65 45 66 38 67 44 68
REMARK SMILES IDX 39 69 40 70 41 71 42 72 43 73 66 74 67 75 75 76 68 77 74 78
REMARK SMILES IDX 69 79 70 80 71 81 72 82 73 83 52 84 53 85 61 86 54 87 60 88
REMARK SMILES IDX 55 89 56 90 57 91 58 92 59 93
REMARK H PARENT 20 6 3 16 13 17 24 30 80 49 50 60
REMARK Flexibility Score: inf
ROOT
ATOM      1  C   UNL A   1      35.474  23.174  26.312  1.00  0.00     0.042 C 
ENDROOT
BRANCH   1   2
ATOM      2  C   UNL A   1      34.231  23.244  25.433  1.00  0.00     0.117 C 
BRANCH   2   3
ATOM      3  N   UNL A   1      33.337  22.127  25.681  1.00  0.00    -0.356 N 
ATOM      4  C   UNL A   1      32.322  21.603  24.944  1.00  0.00     0.227 C 
ATOM      5  O   UNL A   1      31.731  20.628  25.422  1.00  0.00    -0.274 OA
ATOM      6  H   UNL A   1      33.496  21.665  26.536  1.00  0.00     0.163 HD
BRANCH   4   7
ATOM      7  C   UNL A   1      31.929  22.133  23.563  1.00  0.00     0.103 C 
ATOM      8  C   UNL A   1      31.981  24.294  22.372  1.00  0.00     0.107 C 
ATOM      9  C   UNL A   1      33.146  23.421  22.032  1.00  0.00    -0.006 C 
ATOM     10  C   UNL A   1      31.288  23.526  23.517  1.00  0.00     0.047 C 
ATOM     11  C   UNL A   1      33.110  22.239  22.654  1.00  0.00    -0.016 C 
BRANCH   8  12
ATOM     12  N   UNL A   1      32.376  25.630  22.782  1.00  0.00    -0.332 N 
ATOM     13  O   UNL A   1      33.348  26.247  20.811  1.00  0.00    -0.248 OA
ATOM     14  C   UNL A   1      32.965  26.527  21.946  1.00  0.00     0.319 C 
ATOM     15  N   UNL A   1      33.051  27.825  22.352  1.00  0.00    -0.308 N 
ATOM     16  H   UNL A   1      33.363  28.430  21.641  1.00  0.00     0.171 HD
ATOM     17  H   UNL A   1      32.208  25.900  23.714  1.00  0.00     0.165 HD
BRANCH  15  18
ATOM     18  C   UNL A   1      32.791  28.490  23.564  1.00  0.00     0.046 A 
ATOM     19  C   UNL A   1      31.557  29.080  23.892  1.00  0.00     0.030 A 
ATOM     20  C   UNL A   1      33.841  28.538  24.490  1.00  0.00     0.076 A 
ATOM     21  C   UNL A   1      31.385  29.772  25.101  1.00  0.00     0.053 A 
ATOM     22  C   UNL A   1      33.655  29.248  25.659  1.00  0.00     0.167 A 
ATOM     23  C   UNL A   1      32.463  29.858  25.953  1.00  0.00     0.165 A 
ATOM     24  O   UNL A   1      34.593  29.448  26.623  1.00  0.00    -0.454 OA
ATOM     25  O   UNL A   1      32.498  30.518  27.141  1.00  0.00    -0.454 OA
ATOM     26  C   UNL A   1      33.888  30.344  27.515  1.00  0.00     0.468 C 
ENDBRANCH  15  18
ENDBRANCH   8  12
ENDBRANCH   4   7
ENDBRANCH   2   3
ENDBRANCH   1   2
BRANCH   1  27
ATOM     27  C   UNL A   1      36.763  23.536  25.587  1.00  0.00     0.118 C 
BRANCH  27  28
ATOM     28  N   UNL A   1      37.838  22.602  25.894  1.00  0.00    -0.352 N 
ATOM     29  C   UNL A   1      39.095  22.836  26.388  1.00  0.00     0.251 C 
ATOM     30  H   UNL A   1      37.629  21.656  25.719  1.00  0.00     0.163 HD
ATOM     31  O   UNL A   1      39.936  21.933  26.339  1.00  0.00    -0.269 OA
BRANCH  29  32
ATOM     32  C   UNL A   1      39.458  24.148  26.963  1.00  0.00     0.039 A 
ATOM     33  C   UNL A   1      39.078  24.446  28.275  1.00  0.00     0.014 A 
ATOM     34  C   UNL A   1      40.134  25.109  26.203  1.00  0.00     0.014 A 
ATOM     35  C   UNL A   1      39.422  25.677  28.840  1.00  0.00     0.010 A 
ATOM     36  C   UNL A   1      40.552  26.298  26.794  1.00  0.00     0.010 A 
ATOM     37  C   UNL A   1      40.190  26.603  28.114  1.00  0.00    -0.014 A 
BRANCH  37  38
ATOM     38  C   UNL A   1      40.615  27.896  28.709  1.00  0.00     0.031 A 
ATOM     39  C   UNL A   1      41.996  28.049  29.288  1.00  0.00     0.074 A 
ATOM     40  C   UNL A   1      39.733  28.909  28.805  1.00  0.00     0.049 A 
ATOM     41  N   UNL A   1      42.518  29.069  29.921  1.00  0.00    -0.248 NA
ATOM     42  C   UNL A   1      42.898  26.892  29.167  1.00  0.00     0.031 C 
ATOM     43  C   UNL A   1      38.346  28.871  28.336  1.00  0.00     0.029 A 
ATOM     44  N   UNL A   1      39.869  30.164  29.345  1.00  0.00    -0.354 N 
ATOM     45  C   UNL A   1      43.797  28.668  30.294  1.00  0.00     0.074 A 
ATOM     46  C   UNL A   1      43.950  27.295  29.864  1.00  0.00     0.031 C 
ATOM     47  C   UNL A   1      37.763  30.052  28.598  1.00  0.00     0.029 A 
ATOM     48  C   UNL A   1      38.720  30.915  29.284  1.00  0.00     0.049 A 
ATOM     49  H   UNL A   1      40.708  30.493  29.739  1.00  0.00     0.167 HD
ATOM     50  C   UNL A   1      44.765  29.382  30.920  1.00  0.00     0.031 A 
ATOM     51  C   UNL A   1      38.458  32.157  29.739  1.00  0.00     0.031 A 
ATOM     52  C   UNL A   1      44.614  30.748  31.342  1.00  0.00     0.049 A 
ATOM     53  C   UNL A   1      39.546  32.940  30.415  1.00  0.00     0.074 A 
ATOM     54  C   UNL A   1      45.552  31.577  31.932  1.00  0.00     0.029 A 
ATOM     55  N   UNL A   1      43.446  31.488  31.225  1.00  0.00    -0.354 N 
ATOM     56  N   UNL A   1      40.771  32.569  30.696  1.00  0.00    -0.248 NA
ATOM     57  C   UNL A   1      39.220  34.314  30.818  1.00  0.00     0.031 C 
ATOM     58  C   UNL A   1      44.938  32.803  32.214  1.00  0.00     0.029 A 
ATOM     59  C   UNL A   1      43.633  32.756  31.750  1.00  0.00     0.049 A 
ATOM     60  H   UNL A   1      42.609  31.160  30.827  1.00  0.00     0.167 HD
ATOM     61  C   UNL A   1      41.371  33.670  31.298  1.00  0.00     0.074 A 
ATOM     62  C   UNL A   1      40.376  34.725  31.323  1.00  0.00     0.031 C 
ATOM     63  C   UNL A   1      42.631  33.793  31.783  1.00  0.00     0.031 A 
BRANCH  50  64
ATOM     64  C   UNL A   1      46.069  28.675  31.194  1.00  0.00    -0.014 A 
ATOM     65  C   UNL A   1      47.126  28.713  30.266  1.00  0.00     0.010 A 
ATOM     66  C   UNL A   1      46.235  27.952  32.389  1.00  0.00     0.010 A 
ATOM     67  C   UNL A   1      48.296  27.984  30.493  1.00  0.00     0.020 A 
ATOM     68  C   UNL A   1      47.418  27.247  32.636  1.00  0.00     0.020 A 
ATOM     69  C   UNL A   1      48.429  27.245  31.672  1.00  0.00     0.054 A 
BRANCH  69  70
ATOM     70  S   UNL A   1      49.946  26.284  31.933  1.00  0.00     0.124 S 
ATOM     71  O   UNL A   1      49.607  25.508  33.123  1.00  0.00    -0.237 OA
ATOM     72  O   UNL A   1      50.057  25.516  30.695  1.00  0.00    -0.237 OA
ATOM     73  O   UNL A   1      50.973  27.304  32.125  1.00  0.00    -0.744 OA
ENDBRANCH  69  70
ENDBRANCH  50  64
BRANCH  51  74
ATOM     74  C   UNL A   1      37.098  32.722  29.545  1.00  0.00    -0.014 A 
ATOM     75  C   UNL A   1      36.245  32.927  30.643  1.00  0.00     0.010 A 
ATOM     76  C   UNL A   1      36.683  33.140  28.266  1.00  0.00     0.010 A 
ATOM     77  C   UNL A   1      35.009  33.555  30.471  1.00  0.00     0.020 A 
ATOM     78  C   UNL A   1      35.459  33.789  28.094  1.00  0.00     0.020 A 
ATOM     79  C   UNL A   1      34.631  33.996  29.199  1.00  0.00     0.054 A 
BRANCH  79  80
ATOM     80  S   UNL A   1      33.097  34.946  29.018  1.00  0.00     0.124 S 
ATOM     81  O   UNL A   1      33.594  36.259  28.622  1.00  0.00    -0.237 OA
ATOM     82  O   UNL A   1      32.385  34.195  27.986  1.00  0.00    -0.237 OA
ATOM     83  O   UNL A   1      32.497  34.868  30.347  1.00  0.00    -0.744 OA
ENDBRANCH  79  80
ENDBRANCH  51  74
BRANCH  63  84
ATOM     84  C   UNL A   1      43.018  35.124  32.372  1.00  0.00    -0.014 A 
ATOM     85  C   UNL A   1      43.605  36.127  31.579  1.00  0.00     0.010 A 
ATOM     86  C   UNL A   1      42.740  35.393  33.724  1.00  0.00     0.010 A 
ATOM     87  C   UNL A   1      43.933  37.366  32.137  1.00  0.00     0.020 A 
ATOM     88  C   UNL A   1      43.043  36.640  34.278  1.00  0.00     0.020 A 
ATOM     89  C   UNL A   1      43.650  37.614  33.483  1.00  0.00     0.054 A 
BRANCH  89  90
ATOM     90  S   UNL A   1      44.044  39.245  34.173  1.00  0.00     0.124 S 
ATOM     91  O   UNL A   1      45.328  39.537  33.544  1.00  0.00    -0.237 OA
ATOM     92  O   UNL A   1      42.921  40.064  33.722  1.00  0.00    -0.237 OA
ATOM     93  O   UNL A   1      44.094  39.008  35.614  1.00  0.00    -0.744 OA
ENDBRANCH  89  90
ENDBRANCH  63  84
ENDBRANCH  37  38
ENDBRANCH  29  32
ENDBRANCH  27  28
ENDBRANCH   1  27
TORSDOF 15
ENDMDL
MODEL 3
REMARK VINA RESULT:     -11.0      4.570      7.800
REMARK SMILES O=C(Nc1ccc2c(c1)OCO2)N[C@H]1C=C[C@@H](C(=O)NCCCNC(=O)c2ccc(-c3c4nc(c(-c5ccc(S(=O)(=O)[O-])cc5)c5ccc([nH]5)c(-c5ccc(S(=O)(=O)[O-])cc5)c5nc(c(-c6ccc(S(=O)(=O)[O-])cc6)c6ccc3[nH]6)C=C5)C=C4)cc2)C1
REMARK SMILES IDX 22 1 21 2 20 3 18 4 19 5 17 7 14 8 15 9 87 10 16 11 13 12
REMARK SMILES IDX 1 13 2 14 3 15 4 18 5 19 9 20 6 21 8 22 7 23 10 24 12 25
REMARK SMILES IDX 11 26 23 27 24 28 25 29 26 31 27 32 28 33 86 34 29 35 85 36
REMARK SMILES IDX 30 37 31 38 32 39 79 40 33 41 84 42 78 43 80 44 34 45 83 46
REMARK SMILES IDX 77 47 76 48 35 50 65 51 46 52 64 53 47 54 50 55 63 56 81 57
REMARK SMILES IDX 48 58 49 59 62 61 82 62 51 63 36 64 37 65 45 66 38 67 44 68
REMARK SMILES IDX 39 69 40 70 41 71 42 72 43 73 66 74 67 75 75 76 68 77 74 78
REMARK SMILES IDX 69 79 70 80 71 81 72 82 73 83 52 84 53 85 61 86 54 87 60 88
REMARK SMILES IDX 55 89 56 90 57 91 58 92 59 93
REMARK H PARENT 20 6 3 16 13 17 24 30 80 49 50 60
REMARK Flexibility Score: inf
ROOT
ATOM      1  C   UNL A   1      34.458  31.520  27.963  1.00  0.00     0.042 C 
ENDROOT
BRANCH   1   2
ATOM      2  C   UNL A   1      34.570  30.164  27.275  1.00  0.00     0.117 C 
BRANCH   2   3
ATOM      3  N   UNL A   1      33.472  29.287  27.641  1.00  0.00    -0.356 N 
ATOM      4  C   UNL A   1      32.485  28.720  26.898  1.00  0.00     0.227 C 
ATOM      5  O   UNL A   1      31.678  28.001  27.498  1.00  0.00    -0.274 OA
ATOM      6  H   UNL A   1      33.437  29.062  28.599  1.00  0.00     0.163 HD
BRANCH   4   7
ATOM      7  C   UNL A   1      32.370  28.897  25.382  1.00  0.00     0.103 C 
ATOM      8  C   UNL A   1      32.349  27.444  23.388  1.00  0.00     0.107 C 
ATOM      9  C   UNL A   1      30.975  27.828  23.834  1.00  0.00    -0.006 C 
ATOM     10  C   UNL A   1      33.251  27.988  24.515  1.00  0.00     0.047 C 
ATOM     11  C   UNL A   1      30.981  28.636  24.898  1.00  0.00    -0.016 C 
BRANCH   8  12
ATOM     12  N   UNL A   1      32.507  26.011  23.217  1.00  0.00    -0.332 N 
ATOM     13  O   UNL A   1      31.951  25.932  21.005  1.00  0.00    -0.248 OA
ATOM     14  C   UNL A   1      32.365  25.377  22.022  1.00  0.00     0.319 C 
ATOM     15  N   UNL A   1      32.791  24.087  21.922  1.00  0.00    -0.308 N 
ATOM     16  H   UNL A   1      32.779  23.749  20.997  1.00  0.00     0.171 HD
ATOM     17  H   UNL A   1      32.729  25.469  24.010  1.00  0.00     0.165 HD
BRANCH  15  18
ATOM     18  C   UNL A   1      33.245  23.132  22.850  1.00  0.00     0.046 A 
ATOM     19  C   UNL A   1      34.572  23.039  23.303  1.00  0.00     0.030 A 
ATOM     20  C   UNL A   1      32.286  22.239  23.350  1.00  0.00     0.076 A 
ATOM     21  C   UNL A   1      34.964  22.027  24.193  1.00  0.00     0.053 A 
ATOM     22  C   UNL A   1      32.703  21.237  24.202  1.00  0.00     0.167 A 
ATOM     23  C   UNL A   1      34.008  21.126  24.606  1.00  0.00     0.165 A 
ATOM     24  O   UNL A   1      31.914  20.255  24.716  1.00  0.00    -0.454 OA
ATOM     25  O   UNL A   1      34.209  20.061  25.427  1.00  0.00    -0.454 OA
ATOM     26  C   UNL A   1      32.895  19.447  25.411  1.00  0.00     0.468 C 
ENDBRANCH  15  18
ENDBRANCH   8  12
ENDBRANCH   4   7
ENDBRANCH   2   3
ENDBRANCH   1   2
BRANCH   1  27
ATOM     27  C   UNL A   1      35.686  31.902  28.778  1.00  0.00     0.118 C 
BRANCH  27  28
ATOM     28  N   UNL A   1      35.543  31.531  30.179  1.00  0.00    -0.352 N 
ATOM     29  C   UNL A   1      36.311  30.701  30.954  1.00  0.00     0.251 C 
ATOM     30  H   UNL A   1      34.776  31.941  30.641  1.00  0.00     0.163 HD
ATOM     31  O   UNL A   1      35.874  30.326  32.046  1.00  0.00    -0.269 OA
BRANCH  29  32
ATOM     32  C   UNL A   1      37.640  30.240  30.497  1.00  0.00     0.039 A 
ATOM     33  C   UNL A   1      37.897  30.158  29.125  1.00  0.00     0.014 A 
ATOM     34  C   UNL A   1      38.622  29.846  31.411  1.00  0.00     0.014 A 
ATOM     35  C   UNL A   1      39.150  29.736  28.674  1.00  0.00     0.010 A 
ATOM     36  C   UNL A   1      39.897  29.510  30.963  1.00  0.00     0.010 A 
ATOM     37  C   UNL A   1      40.172  29.437  29.590  1.00  0.00    -0.014 A 
BRANCH  37  38
ATOM     38  C   UNL A   1      41.530  29.039  29.137  1.00  0.00     0.031 A 
ATOM     39  C   UNL A   1      42.633  30.060  29.048  1.00  0.00     0.074 A 
ATOM     40  C   UNL A   1      41.752  27.776  28.724  1.00  0.00     0.049 A 
ATOM     41  N   UNL A   1      43.854  29.920  28.599  1.00  0.00    -0.248 NA
ATOM     42  C   UNL A   1      42.310  31.425  29.494  1.00  0.00     0.031 C 
ATOM     43  C   UNL A   1      40.754  26.704  28.703  1.00  0.00     0.029 A 
ATOM     44  N   UNL A   1      42.887  27.185  28.227  1.00  0.00    -0.354 N 
ATOM     45  C   UNL A   1      44.436  31.180  28.686  1.00  0.00     0.074 A 
ATOM     46  C   UNL A   1      43.417  32.081  29.179  1.00  0.00     0.031 C 
ATOM     47  C   UNL A   1      41.324  25.584  28.230  1.00  0.00     0.029 A 
ATOM     48  C   UNL A   1      42.713  25.867  27.880  1.00  0.00     0.049 A 
ATOM     49  H   UNL A   1      43.742  27.661  28.127  1.00  0.00     0.167 HD
ATOM     50  C   UNL A   1      45.708  31.553  28.400  1.00  0.00     0.031 A 
ATOM     51  C   UNL A   1      43.570  24.984  27.331  1.00  0.00     0.031 A 
ATOM     52  C   UNL A   1      46.722  30.656  27.916  1.00  0.00     0.049 A 
ATOM     53  C   UNL A   1      44.980  25.408  27.036  1.00  0.00     0.074 A 
ATOM     54  C   UNL A   1      48.054  30.922  27.651  1.00  0.00     0.029 A 
ATOM     55  N   UNL A   1      46.516  29.317  27.616  1.00  0.00    -0.354 N 
ATOM     56  N   UNL A   1      45.532  26.587  27.191  1.00  0.00    -0.248 NA
ATOM     57  C   UNL A   1      45.886  24.378  26.510  1.00  0.00     0.031 C 
ATOM     58  C   UNL A   1      48.642  29.756  27.147  1.00  0.00     0.029 A 
ATOM     59  C   UNL A   1      47.690  28.749  27.149  1.00  0.00     0.049 A 
ATOM     60  H   UNL A   1      45.661  28.842  27.719  1.00  0.00     0.167 HD
ATOM     61  C   UNL A   1      46.856  26.439  26.794  1.00  0.00     0.074 A 
ATOM     62  C   UNL A   1      47.025  25.051  26.410  1.00  0.00     0.031 C 
ATOM     63  C   UNL A   1      47.842  27.370  26.755  1.00  0.00     0.031 A 
BRANCH  50  64
ATOM     64  C   UNL A   1      46.056  33.007  28.597  1.00  0.00    -0.014 A 
ATOM     65  C   UNL A   1      46.548  33.478  29.829  1.00  0.00     0.010 A 
ATOM     66  C   UNL A   1      45.876  33.919  27.541  1.00  0.00     0.010 A 
ATOM     67  C   UNL A   1      46.785  34.841  30.024  1.00  0.00     0.020 A 
ATOM     68  C   UNL A   1      46.144  35.280  27.721  1.00  0.00     0.020 A 
ATOM     69  C   UNL A   1      46.569  35.735  28.972  1.00  0.00     0.054 A 
BRANCH  69  70
ATOM     70  S   UNL A   1      46.858  37.503  29.258  1.00  0.00     0.124 S 
ATOM     71  O   UNL A   1      46.760  38.044  27.904  1.00  0.00    -0.237 OA
ATOM     72  O   UNL A   1      45.767  37.867  30.159  1.00  0.00    -0.237 OA
ATOM     73  O   UNL A   1      48.192  37.545  29.849  1.00  0.00    -0.744 OA
ENDBRANCH  69  70
ENDBRANCH  50  64
BRANCH  51  74
ATOM     74  C   UNL A   1      43.097  23.605  27.044  1.00  0.00    -0.014 A 
ATOM     75  C   UNL A   1      42.807  23.208  25.727  1.00  0.00     0.010 A 
ATOM     76  C   UNL A   1      43.017  22.656  28.081  1.00  0.00     0.010 A 
ATOM     77  C   UNL A   1      42.464  21.882  25.448  1.00  0.00     0.020 A 
ATOM     78  C   UNL A   1      42.697  21.326  27.802  1.00  0.00     0.020 A 
ATOM     79  C   UNL A   1      42.427  20.946  26.486  1.00  0.00     0.054 A 
BRANCH  79  80
ATOM     80  S   UNL A   1      42.132  19.202  26.086  1.00  0.00     0.124 S 
ATOM     81  O   UNL A   1      42.501  18.536  27.331  1.00  0.00    -0.237 OA
ATOM     82  O   UNL A   1      40.709  19.194  25.756  1.00  0.00    -0.237 OA
ATOM     83  O   UNL A   1      43.020  18.965  24.951  1.00  0.00    -0.744 OA
ENDBRANCH  79  80
ENDBRANCH  51  74
BRANCH  63  84
ATOM     84  C   UNL A   1      49.202  26.918  26.295  1.00  0.00    -0.014 A 
ATOM     85  C   UNL A   1      50.059  26.204  27.151  1.00  0.00     0.010 A 
ATOM     86  C   UNL A   1      49.604  27.163  24.969  1.00  0.00     0.010 A 
ATOM     87  C   UNL A   1      51.308  25.769  26.696  1.00  0.00     0.020 A 
ATOM     88  C   UNL A   1      50.840  26.707  24.504  1.00  0.00     0.020 A 
ATOM     89  C   UNL A   1      51.690  26.024  25.376  1.00  0.00     0.054 A 
BRANCH  89  90
ATOM     90  S   UNL A   1      53.296  25.410  24.797  1.00  0.00     0.124 S 
ATOM     91  O   UNL A   1      53.283  24.031  25.275  1.00  0.00    -0.237 OA
ATOM     92  O   UNL A   1      53.200  25.576  23.348  1.00  0.00    -0.237 OA
ATOM     93  O   UNL A   1      54.260  26.289  25.455  1.00  0.00    -0.744 OA
ENDBRANCH  89  90
ENDBRANCH  63  84
ENDBRANCH  37  38
ENDBRANCH  29  32
ENDBRANCH  27  28
ENDBRANCH   1  27
TORSDOF 15
ENDMDL
