MODEL 1
REMARK VINA RESULT:     -12.5      0.000      0.000
REMARK SMILES O=C(Cc1ccccc1C(=O)NCCCNC(=O)c1ccc(-c2c3nc(c(-c4ccc(S(=O)(=O)[O-])cc4)c4ccc([nH]4)c(-c4ccc(S(=O)(=O)[O-])cc4)c4nc(c(-c5ccc(S(=O)(=O)[O-])cc5)c5ccc2[nH]5)C=C4)C=C3)cc1)Nc1cccc(OC[C@@H]2CCCO2)c1
REMARK SMILES IDX 10 1 11 2 12 3 9 5 4 6 5 7 6 8 8 9 7 10 3 11 2 12 1 13 79 14
REMARK SMILES IDX 80 16 81 17 92 18 82 19 84 20 83 21 85 22 86 23 87 24 88 25
REMARK SMILES IDX 91 26 89 27 90 28 13 29 14 30 15 31 16 32 17 33 18 35 19 36
REMARK SMILES IDX 20 37 78 38 21 39 77 40 22 41 23 42 24 43 71 44 25 45 76 46
REMARK SMILES IDX 70 47 72 48 26 49 75 50 69 51 68 52 27 54 57 55 38 56 56 57
REMARK SMILES IDX 39 58 42 59 55 60 73 61 40 62 41 63 54 65 74 66 43 67 28 68
REMARK SMILES IDX 29 69 37 70 30 71 36 72 31 73 32 74 33 75 34 76 35 77 58 78
REMARK SMILES IDX 59 79 67 80 60 81 66 82 61 83 62 84 63 85 64 86 65 87 44 88
REMARK SMILES IDX 45 89 53 90 46 91 52 92 47 93 48 94 49 95 50 96 51 97
REMARK H PARENT 12 4 79 15 16 34 72 53 42 64
REMARK Flexibility Score: inf
ROOT
ATOM      1  C   UNL A   1      36.383  22.795  23.594  1.00  0.00     0.251 C 
ATOM      2  O   UNL A   1      36.660  22.954  22.398  1.00  0.00    -0.269 OA
ATOM      3  N   UNL A   1      37.327  23.291  24.453  1.00  0.00    -0.352 N 
ATOM      4  H   UNL A   1      38.072  23.713  23.965  1.00  0.00     0.163 HD
ENDROOT
BRANCH   1   5
ATOM      5  C   UNL A   1      35.044  22.178  23.915  1.00  0.00     0.043 A 
ATOM      6  C   UNL A   1      33.747  22.512  23.457  1.00  0.00    -0.026 A 
ATOM      7  C   UNL A   1      32.635  21.816  23.993  1.00  0.00     0.005 A 
ATOM      8  C   UNL A   1      32.769  20.861  24.996  1.00  0.00     0.000 A 
ATOM      9  C   UNL A   1      35.142  21.199  24.938  1.00  0.00     0.014 A 
ATOM     10  C   UNL A   1      34.027  20.556  25.478  1.00  0.00     0.001 A 
BRANCH   6  11
ATOM     11  C   UNL A   1      33.471  23.559  22.417  1.00  0.00     0.136 C 
BRANCH  11  12
ATOM     12  C   UNL A   1      33.617  25.010  22.803  1.00  0.00     0.228 C 
ATOM     13  O   UNL A   1      33.886  25.859  21.955  1.00  0.00    -0.274 OA
ATOM     14  N   UNL A   1      33.391  25.284  24.147  1.00  0.00    -0.326 N 
ATOM     15  H   UNL A   1      33.445  24.559  24.810  1.00  0.00     0.169 HD
BRANCH  14  16
ATOM     16  C   UNL A   1      33.084  26.588  24.564  1.00  0.00     0.044 A 
ATOM     17  C   UNL A   1      33.862  27.240  25.511  1.00  0.00     0.026 A 
ATOM     18  C   UNL A   1      31.983  27.226  23.996  1.00  0.00     0.072 A 
ATOM     19  C   UNL A   1      33.593  28.581  25.796  1.00  0.00     0.006 A 
ATOM     20  C   UNL A   1      31.710  28.559  24.266  1.00  0.00     0.121 A 
ATOM     21  C   UNL A   1      32.530  29.238  25.165  1.00  0.00     0.046 A 
BRANCH  20  22
ATOM     22  O   UNL A   1      30.715  29.294  23.693  1.00  0.00    -0.491 OA
BRANCH  22  23
ATOM     23  C   UNL A   1      29.474  28.646  23.370  1.00  0.00     0.261 C 
BRANCH  23  24
ATOM     24  C   UNL A   1      28.575  29.474  22.433  1.00  0.00     0.156 C 
ATOM     25  C   UNL A   1      29.361  30.370  21.507  1.00  0.00     0.038 C 
ATOM     26  O   UNL A   1      27.781  30.418  23.199  1.00  0.00    -0.375 OA
ATOM     27  C   UNL A   1      28.345  31.411  21.120  1.00  0.00     0.031 C 
ATOM     28  C   UNL A   1      27.591  31.601  22.414  1.00  0.00     0.161 C 
ENDBRANCH  23  24
ENDBRANCH  22  23
ENDBRANCH  20  22
ENDBRANCH  14  16
ENDBRANCH  11  12
ENDBRANCH   6  11
ENDBRANCH   1   5
BRANCH   3  29
ATOM     29  C   UNL A   1      37.525  23.359  25.891  1.00  0.00     0.118 C 
BRANCH  29  30
ATOM     30  C   UNL A   1      38.724  22.495  26.313  1.00  0.00     0.042 C 
BRANCH  30  31
ATOM     31  C   UNL A   1      39.833  23.245  27.048  1.00  0.00     0.118 C 
BRANCH  31  32
ATOM     32  N   UNL A   1      40.742  23.909  26.129  1.00  0.00    -0.352 N 
ATOM     33  C   UNL A   1      41.216  25.199  26.081  1.00  0.00     0.251 C 
ATOM     34  H   UNL A   1      41.084  23.328  25.411  1.00  0.00     0.163 HD
ATOM     35  O   UNL A   1      41.799  25.552  25.055  1.00  0.00    -0.269 OA
BRANCH  33  36
ATOM     36  C   UNL A   1      41.053  26.176  27.195  1.00  0.00     0.039 A 
ATOM     37  C   UNL A   1      42.039  27.161  27.360  1.00  0.00     0.014 A 
ATOM     38  C   UNL A   1      40.027  26.101  28.137  1.00  0.00     0.014 A 
ATOM     39  C   UNL A   1      41.981  28.070  28.429  1.00  0.00     0.010 A 
ATOM     40  C   UNL A   1      39.922  27.064  29.150  1.00  0.00     0.010 A 
ATOM     41  C   UNL A   1      40.904  28.056  29.324  1.00  0.00    -0.014 A 
BRANCH  41  42
ATOM     42  C   UNL A   1      40.783  29.028  30.458  1.00  0.00     0.031 A 
ATOM     43  C   UNL A   1      41.541  28.793  31.740  1.00  0.00     0.074 A 
ATOM     44  C   UNL A   1      39.942  30.083  30.391  1.00  0.00     0.049 A 
ATOM     45  N   UNL A   1      41.455  29.435  32.878  1.00  0.00    -0.248 NA
ATOM     46  C   UNL A   1      42.539  27.710  31.739  1.00  0.00     0.031 C 
ATOM     47  C   UNL A   1      39.203  30.505  29.207  1.00  0.00     0.029 A 
ATOM     48  N   UNL A   1      39.521  30.966  31.360  1.00  0.00    -0.354 N 
ATOM     49  C   UNL A   1      42.412  28.866  33.708  1.00  0.00     0.074 A 
ATOM     50  C   UNL A   1      42.995  27.758  32.982  1.00  0.00     0.031 C 
ATOM     51  C   UNL A   1      38.333  31.474  29.537  1.00  0.00     0.029 A 
ATOM     52  C   UNL A   1      38.475  31.767  30.955  1.00  0.00     0.049 A 
ATOM     53  H   UNL A   1      39.927  31.020  32.255  1.00  0.00     0.167 HD
ATOM     54  C   UNL A   1      42.817  29.264  34.938  1.00  0.00     0.031 A 
ATOM     55  C   UNL A   1      37.703  32.635  31.636  1.00  0.00     0.031 A 
ATOM     56  C   UNL A   1      42.246  30.366  35.666  1.00  0.00     0.049 A 
ATOM     57  C   UNL A   1      38.054  32.955  33.060  1.00  0.00     0.074 A 
ATOM     58  C   UNL A   1      42.622  30.867  36.901  1.00  0.00     0.029 A 
ATOM     59  N   UNL A   1      41.180  31.137  35.230  1.00  0.00    -0.354 N 
ATOM     60  N   UNL A   1      39.008  32.446  33.801  1.00  0.00    -0.248 NA
ATOM     61  C   UNL A   1      37.275  34.013  33.718  1.00  0.00     0.031 C 
ATOM     62  C   UNL A   1      41.756  31.916  37.230  1.00  0.00     0.029 A 
ATOM     63  C   UNL A   1      40.874  32.099  36.178  1.00  0.00     0.049 A 
ATOM     64  H   UNL A   1      40.712  31.018  34.373  1.00  0.00     0.167 HD
ATOM     65  C   UNL A   1      38.996  33.179  34.981  1.00  0.00     0.074 A 
ATOM     66  C   UNL A   1      37.926  34.149  34.864  1.00  0.00     0.031 C 
ATOM     67  C   UNL A   1      39.821  33.074  36.051  1.00  0.00     0.031 A 
BRANCH  54  68
ATOM     68  C   UNL A   1      43.978  28.530  35.552  1.00  0.00    -0.014 A 
ATOM     69  C   UNL A   1      43.753  27.404  36.367  1.00  0.00     0.010 A 
ATOM     70  C   UNL A   1      45.299  28.920  35.273  1.00  0.00     0.010 A 
ATOM     71  C   UNL A   1      44.825  26.702  36.919  1.00  0.00     0.020 A 
ATOM     72  C   UNL A   1      46.378  28.203  35.804  1.00  0.00     0.020 A 
ATOM     73  C   UNL A   1      46.132  27.107  36.634  1.00  0.00     0.054 A 
BRANCH  73  74
ATOM     74  S   UNL A   1      47.507  26.153  37.335  1.00  0.00     0.124 S 
ATOM     75  O   UNL A   1      48.481  26.188  36.246  1.00  0.00    -0.237 OA
ATOM     76  O   UNL A   1      47.866  26.934  38.519  1.00  0.00    -0.237 OA
ATOM     77  O   UNL A   1      46.922  24.846  37.607  1.00  0.00    -0.744 OA
ENDBRANCH  73  74
ENDBRANCH  54  68
BRANCH  55  78
ATOM     78  C   UNL A   1      36.541  33.296  30.978  1.00  0.00    -0.014 A 
ATOM     79  C   UNL A   1      36.680  33.914  29.724  1.00  0.00     0.010 A 
ATOM     80  C   UNL A   1      35.293  33.346  31.630  1.00  0.00     0.010 A 
ATOM     81  C   UNL A   1      35.610  34.614  29.156  1.00  0.00     0.020 A 
ATOM     82  C   UNL A   1      34.214  34.025  31.054  1.00  0.00     0.020 A 
ATOM     83  C   UNL A   1      34.387  34.673  29.830  1.00  0.00     0.054 A 
BRANCH  83  84
ATOM     84  S   UNL A   1      33.023  35.605  29.079  1.00  0.00     0.124 S 
ATOM     85  O   UNL A   1      32.450  34.622  28.165  1.00  0.00    -0.237 OA
ATOM     86  O   UNL A   1      32.201  35.946  30.238  1.00  0.00    -0.237 OA
ATOM     87  O   UNL A   1      33.690  36.738  28.442  1.00  0.00    -0.744 OA
ENDBRANCH  83  84
ENDBRANCH  55  78
BRANCH  67  88
ATOM     88  C   UNL A   1      39.652  34.080  37.155  1.00  0.00    -0.014 A 
ATOM     89  C   UNL A   1      40.085  35.409  37.011  1.00  0.00     0.010 A 
ATOM     90  C   UNL A   1      39.015  33.691  38.348  1.00  0.00     0.010 A 
ATOM     91  C   UNL A   1      39.910  36.324  38.052  1.00  0.00     0.020 A 
ATOM     92  C   UNL A   1      38.812  34.609  39.380  1.00  0.00     0.020 A 
ATOM     93  C   UNL A   1      39.273  35.918  39.230  1.00  0.00     0.054 A 
BRANCH  93  94
ATOM     94  S   UNL A   1      39.013  37.137  40.546  1.00  0.00     0.124 S 
ATOM     95  O   UNL A   1      38.126  36.418  41.456  1.00  0.00    -0.237 OA
ATOM     96  O   UNL A   1      40.367  37.367  41.043  1.00  0.00    -0.237 OA
ATOM     97  O   UNL A   1      38.408  38.272  39.854  1.00  0.00    -0.744 OA
ENDBRANCH  93  94
ENDBRANCH  67  88
ENDBRANCH  41  42
ENDBRANCH  33  36
ENDBRANCH  31  32
ENDBRANCH  30  31
ENDBRANCH  29  30
ENDBRANCH   3  29
TORSDOF 19
ENDMDL
MODEL 2
REMARK VINA RESULT:     -11.6      6.132     12.210
REMARK SMILES O=C(Cc1ccccc1C(=O)NCCCNC(=O)c1ccc(-c2c3nc(c(-c4ccc(S(=O)(=O)[O-])cc4)c4ccc([nH]4)c(-c4ccc(S(=O)(=O)[O-])cc4)c4nc(c(-c5ccc(S(=O)(=O)[O-])cc5)c5ccc2[nH]5)C=C4)C=C3)cc1)Nc1cccc(OC[C@@H]2CCCO2)c1
REMARK SMILES IDX 10 1 11 2 12 3 9 5 4 6 5 7 6 8 8 9 7 10 3 11 2 12 1 13 79 14
REMARK SMILES IDX 80 16 81 17 92 18 82 19 84 20 83 21 85 22 86 23 87 24 88 25
REMARK SMILES IDX 91 26 89 27 90 28 13 29 14 30 15 31 16 32 17 33 18 35 19 36
REMARK SMILES IDX 20 37 78 38 21 39 77 40 22 41 23 42 24 43 71 44 25 45 76 46
REMARK SMILES IDX 70 47 72 48 26 49 75 50 69 51 68 52 27 54 57 55 38 56 56 57
REMARK SMILES IDX 39 58 42 59 55 60 73 61 40 62 41 63 54 65 74 66 43 67 28 68
REMARK SMILES IDX 29 69 37 70 30 71 36 72 31 73 32 74 33 75 34 76 35 77 58 78
REMARK SMILES IDX 59 79 67 80 60 81 66 82 61 83 62 84 63 85 64 86 65 87 44 88
REMARK SMILES IDX 45 89 53 90 46 91 52 92 47 93 48 94 49 95 50 96 51 97
REMARK H PARENT 12 4 79 15 16 34 72 53 42 64
REMARK Flexibility Score: inf
ROOT
ATOM      1  C   UNL A   1      34.364  34.072  32.582  1.00  0.00     0.251 C 
ATOM      2  O   UNL A   1      33.504  33.488  33.255  1.00  0.00    -0.269 OA
ATOM      3  N   UNL A   1      35.600  34.105  33.170  1.00  0.00    -0.352 N 
ATOM      4  H   UNL A   1      35.600  33.635  34.037  1.00  0.00     0.163 HD
ENDROOT
BRANCH   1   5
ATOM      5  C   UNL A   1      33.952  34.566  31.217  1.00  0.00     0.043 A 
ATOM      6  C   UNL A   1      34.265  34.068  29.929  1.00  0.00    -0.026 A 
ATOM      7  C   UNL A   1      33.813  34.785  28.794  1.00  0.00     0.005 A 
ATOM      8  C   UNL A   1      33.127  35.991  28.901  1.00  0.00     0.000 A 
ATOM      9  C   UNL A   1      33.251  35.797  31.287  1.00  0.00     0.014 A 
ATOM     10  C   UNL A   1      32.852  36.506  30.152  1.00  0.00     0.001 A 
BRANCH   6  11
ATOM     11  C   UNL A   1      35.042  32.806  29.686  1.00  0.00     0.136 C 
BRANCH  11  12
ATOM     12  C   UNL A   1      34.849  32.087  28.374  1.00  0.00     0.228 C 
ATOM     13  O   UNL A   1      35.671  32.210  27.467  1.00  0.00    -0.274 OA
ATOM     14  N   UNL A   1      33.722  31.278  28.309  1.00  0.00    -0.326 N 
ATOM     15  H   UNL A   1      32.979  31.421  28.940  1.00  0.00     0.169 HD
BRANCH  14  16
ATOM     16  C   UNL A   1      33.634  30.256  27.352  1.00  0.00     0.044 A 
ATOM     17  C   UNL A   1      34.443  29.130  27.428  1.00  0.00     0.026 A 
ATOM     18  C   UNL A   1      32.703  30.388  26.323  1.00  0.00     0.072 A 
ATOM     19  C   UNL A   1      34.226  28.084  26.528  1.00  0.00     0.006 A 
ATOM     20  C   UNL A   1      32.475  29.353  25.428  1.00  0.00     0.121 A 
ATOM     21  C   UNL A   1      33.238  28.192  25.542  1.00  0.00     0.046 A 
BRANCH  20  22
ATOM     22  O   UNL A   1      31.527  29.350  24.447  1.00  0.00    -0.491 OA
BRANCH  22  23
ATOM     23  C   UNL A   1      30.655  30.486  24.326  1.00  0.00     0.261 C 
BRANCH  23  24
ATOM     24  C   UNL A   1      29.496  30.265  23.335  1.00  0.00     0.156 C 
ATOM     25  C   UNL A   1      28.169  30.748  23.869  1.00  0.00     0.038 C 
ATOM     26  O   UNL A   1      29.267  28.846  23.133  1.00  0.00    -0.375 OA
ATOM     27  C   UNL A   1      27.182  29.974  23.037  1.00  0.00     0.031 C 
ATOM     28  C   UNL A   1      27.867  28.634  22.913  1.00  0.00     0.161 C 
ENDBRANCH  23  24
ENDBRANCH  22  23
ENDBRANCH  20  22
ENDBRANCH  14  16
ENDBRANCH  11  12
ENDBRANCH   6  11
ENDBRANCH   1   5
BRANCH   3  29
ATOM     29  C   UNL A   1      36.910  34.650  32.859  1.00  0.00     0.118 C 
BRANCH  29  30
ATOM     30  C   UNL A   1      37.832  33.556  32.301  1.00  0.00     0.042 C 
BRANCH  30  31
ATOM     31  C   UNL A   1      37.926  32.293  33.155  1.00  0.00     0.118 C 
BRANCH  31  32
ATOM     32  N   UNL A   1      37.003  31.263  32.708  1.00  0.00    -0.352 N 
ATOM     33  C   UNL A   1      37.095  30.319  31.712  1.00  0.00     0.251 C 
ATOM     34  H   UNL A   1      36.158  31.235  33.212  1.00  0.00     0.163 HD
ATOM     35  O   UNL A   1      36.065  29.720  31.400  1.00  0.00    -0.269 OA
BRANCH  33  36
ATOM     36  C   UNL A   1      38.365  29.999  30.999  1.00  0.00     0.039 A 
ATOM     37  C   UNL A   1      39.464  29.577  31.764  1.00  0.00     0.014 A 
ATOM     38  C   UNL A   1      38.546  30.190  29.629  1.00  0.00     0.014 A 
ATOM     39  C   UNL A   1      40.708  29.324  31.164  1.00  0.00     0.010 A 
ATOM     40  C   UNL A   1      39.761  29.849  29.020  1.00  0.00     0.010 A 
ATOM     41  C   UNL A   1      40.868  29.426  29.777  1.00  0.00    -0.014 A 
BRANCH  41  42
ATOM     42  C   UNL A   1      42.167  29.132  29.089  1.00  0.00     0.031 A 
ATOM     43  C   UNL A   1      42.507  27.719  28.685  1.00  0.00     0.074 A 
ATOM     44  C   UNL A   1      43.088  30.099  28.887  1.00  0.00     0.049 A 
ATOM     45  N   UNL A   1      43.634  27.245  28.217  1.00  0.00    -0.248 NA
ATOM     46  C   UNL A   1      41.438  26.714  28.806  1.00  0.00     0.031 C 
ATOM     47  C   UNL A   1      42.893  31.522  29.134  1.00  0.00     0.029 A 
ATOM     48  N   UNL A   1      44.400  30.026  28.476  1.00  0.00    -0.354 N 
ATOM     49  C   UNL A   1      43.396  25.903  27.946  1.00  0.00     0.074 A 
ATOM     50  C   UNL A   1      42.053  25.612  28.400  1.00  0.00     0.031 C 
ATOM     51  C   UNL A   1      44.060  32.172  28.995  1.00  0.00     0.029 A 
ATOM     52  C   UNL A   1      45.086  31.213  28.615  1.00  0.00     0.049 A 
ATOM     53  H   UNL A   1      44.809  29.205  28.117  1.00  0.00     0.167 HD
ATOM     54  C   UNL A   1      44.196  25.007  27.319  1.00  0.00     0.031 A 
ATOM     55  C   UNL A   1      46.391  31.510  28.466  1.00  0.00     0.031 A 
ATOM     56  C   UNL A   1      45.531  25.288  26.862  1.00  0.00     0.049 A 
ATOM     57  C   UNL A   1      47.316  30.460  27.924  1.00  0.00     0.074 A 
ATOM     58  C   UNL A   1      46.399  24.453  26.178  1.00  0.00     0.029 A 
ATOM     59  N   UNL A   1      46.192  26.493  27.038  1.00  0.00    -0.354 N 
ATOM     60  N   UNL A   1      47.049  29.214  27.616  1.00  0.00    -0.248 NA
ATOM     61  C   UNL A   1      48.699  30.870  27.642  1.00  0.00     0.031 C 
ATOM     62  C   UNL A   1      47.601  25.140  25.977  1.00  0.00     0.029 A 
ATOM     63  C   UNL A   1      47.463  26.419  26.492  1.00  0.00     0.049 A 
ATOM     64  H   UNL A   1      45.814  27.284  27.484  1.00  0.00     0.167 HD
ATOM     65  C   UNL A   1      48.205  28.718  27.028  1.00  0.00     0.074 A 
ATOM     66  C   UNL A   1      49.181  29.789  27.045  1.00  0.00     0.031 C 
ATOM     67  C   UNL A   1      48.424  27.492  26.495  1.00  0.00     0.031 A 
BRANCH  54  68
ATOM     68  C   UNL A   1      43.620  23.644  27.043  1.00  0.00    -0.014 A 
ATOM     69  C   UNL A   1      43.508  22.699  28.081  1.00  0.00     0.010 A 
ATOM     70  C   UNL A   1      43.132  23.320  25.765  1.00  0.00     0.010 A 
ATOM     71  C   UNL A   1      42.951  21.443  27.838  1.00  0.00     0.020 A 
ATOM     72  C   UNL A   1      42.549  22.071  25.524  1.00  0.00     0.020 A 
ATOM     73  C   UNL A   1      42.476  21.136  26.561  1.00  0.00     0.054 A 
BRANCH  73  74
ATOM     74  S   UNL A   1      41.722  19.509  26.284  1.00  0.00     0.124 S 
ATOM     75  O   UNL A   1      42.441  19.045  25.098  1.00  0.00    -0.237 OA
ATOM     76  O   UNL A   1      42.036  18.798  27.523  1.00  0.00    -0.237 OA
ATOM     77  O   UNL A   1      40.311  19.808  26.079  1.00  0.00    -0.744 OA
ENDBRANCH  73  74
ENDBRANCH  54  68
BRANCH  55  78
ATOM     78  C   UNL A   1      46.904  32.869  28.799  1.00  0.00    -0.014 A 
ATOM     79  C   UNL A   1      47.885  33.045  29.790  1.00  0.00     0.010 A 
ATOM     80  C   UNL A   1      46.376  34.002  28.151  1.00  0.00     0.010 A 
ATOM     81  C   UNL A   1      48.292  34.330  30.163  1.00  0.00     0.020 A 
ATOM     82  C   UNL A   1      46.798  35.288  28.506  1.00  0.00     0.020 A 
ATOM     83  C   UNL A   1      47.739  35.444  29.526  1.00  0.00     0.054 A 
BRANCH  83  84
ATOM     84  S   UNL A   1      48.271  37.099  30.045  1.00  0.00     0.124 S 
ATOM     85  O   UNL A   1      48.798  36.843  31.381  1.00  0.00    -0.237 OA
ATOM     86  O   UNL A   1      49.262  37.443  29.029  1.00  0.00    -0.237 OA
ATOM     87  O   UNL A   1      47.041  37.886  29.998  1.00  0.00    -0.744 OA
ENDBRANCH  83  84
ENDBRANCH  55  78
BRANCH  67  88
ATOM     88  C   UNL A   1      49.745  27.259  25.815  1.00  0.00    -0.014 A 
ATOM     89  C   UNL A   1      50.887  26.877  26.539  1.00  0.00     0.010 A 
ATOM     90  C   UNL A   1      49.831  27.392  24.417  1.00  0.00     0.010 A 
ATOM     91  C   UNL A   1      52.100  26.661  25.880  1.00  0.00     0.020 A 
ATOM     92  C   UNL A   1      51.033  27.150  23.750  1.00  0.00     0.020 A 
ATOM     93  C   UNL A   1      52.165  26.799  24.489  1.00  0.00     0.054 A 
BRANCH  93  94
ATOM     94  S   UNL A   1      53.738  26.465  23.652  1.00  0.00     0.124 S 
ATOM     95  O   UNL A   1      54.432  27.743  23.788  1.00  0.00    -0.237 OA
ATOM     96  O   UNL A   1      54.292  25.364  24.435  1.00  0.00    -0.237 OA
ATOM     97  O   UNL A   1      53.339  26.115  22.290  1.00  0.00    -0.744 OA
ENDBRANCH  93  94
ENDBRANCH  67  88
ENDBRANCH  41  42
ENDBRANCH  33  36
ENDBRANCH  31  32
ENDBRANCH  30  31
ENDBRANCH  29  30
ENDBRANCH   3  29
TORSDOF 19
ENDMDL
MODEL 3
REMARK VINA RESULT:     -11.1      6.131     12.444
REMARK SMILES O=C(Cc1ccccc1C(=O)NCCCNC(=O)c1ccc(-c2c3nc(c(-c4ccc(S(=O)(=O)[O-])cc4)c4ccc([nH]4)c(-c4ccc(S(=O)(=O)[O-])cc4)c4nc(c(-c5ccc(S(=O)(=O)[O-])cc5)c5ccc2[nH]5)C=C4)C=C3)cc1)Nc1cccc(OC[C@@H]2CCCO2)c1
REMARK SMILES IDX 10 1 11 2 12 3 9 5 4 6 5 7 6 8 8 9 7 10 3 11 2 12 1 13 79 14
REMARK SMILES IDX 80 16 81 17 92 18 82 19 84 20 83 21 85 22 86 23 87 24 88 25
REMARK SMILES IDX 91 26 89 27 90 28 13 29 14 30 15 31 16 32 17 33 18 35 19 36
REMARK SMILES IDX 20 37 78 38 21 39 77 40 22 41 23 42 24 43 71 44 25 45 76 46
REMARK SMILES IDX 70 47 72 48 26 49 75 50 69 51 68 52 27 54 57 55 38 56 56 57
REMARK SMILES IDX 39 58 42 59 55 60 73 61 40 62 41 63 54 65 74 66 43 67 28 68
REMARK SMILES IDX 29 69 37 70 30 71 36 72 31 73 32 74 33 75 34 76 35 77 58 78
REMARK SMILES IDX 59 79 67 80 60 81 66 82 61 83 62 84 63 85 64 86 65 87 44 88
REMARK SMILES IDX 45 89 53 90 46 91 52 92 47 93 48 94 49 95 50 96 51 97
REMARK H PARENT 12 4 79 15 16 34 72 53 42 64
REMARK Flexibility Score: inf
ROOT
ATOM      1  C   UNL A   1      34.585  33.670  31.939  1.00  0.00     0.251 C 
ATOM      2  O   UNL A   1      33.872  32.699  32.227  1.00  0.00    -0.269 OA
ATOM      3  N   UNL A   1      35.780  33.698  32.608  1.00  0.00    -0.352 N 
ATOM      4  H   UNL A   1      35.879  32.918  33.202  1.00  0.00     0.163 HD
ENDROOT
BRANCH   1   5
ATOM      5  C   UNL A   1      34.082  34.599  30.862  1.00  0.00     0.043 A 
ATOM      6  C   UNL A   1      34.116  34.471  29.453  1.00  0.00    -0.026 A 
ATOM      7  C   UNL A   1      33.646  35.548  28.661  1.00  0.00     0.005 A 
ATOM      8  C   UNL A   1      33.209  36.746  29.217  1.00  0.00     0.000 A 
ATOM      9  C   UNL A   1      33.631  35.834  31.394  1.00  0.00     0.014 A 
ATOM     10  C   UNL A   1      33.210  36.895  30.590  1.00  0.00     0.001 A 
BRANCH   6  11
ATOM     11  C   UNL A   1      34.611  33.249  28.735  1.00  0.00     0.136 C 
BRANCH  11  12
ATOM     12  C   UNL A   1      33.603  32.365  28.044  1.00  0.00     0.228 C 
ATOM     13  O   UNL A   1      32.681  32.856  27.396  1.00  0.00    -0.274 OA
ATOM     14  N   UNL A   1      33.831  31.000  28.177  1.00  0.00    -0.326 N 
ATOM     15  H   UNL A   1      34.404  30.668  28.906  1.00  0.00     0.169 HD
BRANCH  14  16
ATOM     16  C   UNL A   1      33.252  30.092  27.279  1.00  0.00     0.044 A 
ATOM     17  C   UNL A   1      32.121  30.429  26.548  1.00  0.00     0.026 A 
ATOM     18  C   UNL A   1      33.845  28.840  27.123  1.00  0.00     0.072 A 
ATOM     19  C   UNL A   1      31.660  29.541  25.572  1.00  0.00     0.006 A 
ATOM     20  C   UNL A   1      33.401  27.954  26.154  1.00  0.00     0.121 A 
ATOM     21  C   UNL A   1      32.307  28.315  25.370  1.00  0.00     0.046 A 
BRANCH  20  22
ATOM     22  O   UNL A   1      33.970  26.748  25.865  1.00  0.00    -0.491 OA
BRANCH  22  23
ATOM     23  C   UNL A   1      33.213  25.551  26.104  1.00  0.00     0.261 C 
BRANCH  23  24
ATOM     24  C   UNL A   1      33.801  24.305  25.415  1.00  0.00     0.156 C 
ATOM     25  C   UNL A   1      34.813  24.649  24.348  1.00  0.00     0.038 C 
ATOM     26  O   UNL A   1      32.770  23.606  24.669  1.00  0.00    -0.375 OA
ATOM     27  C   UNL A   1      34.822  23.409  23.496  1.00  0.00     0.031 C 
ATOM     28  C   UNL A   1      33.364  23.016  23.507  1.00  0.00     0.161 C 
ENDBRANCH  23  24
ENDBRANCH  22  23
ENDBRANCH  20  22
ENDBRANCH  14  16
ENDBRANCH  11  12
ENDBRANCH   6  11
ENDBRANCH   1   5
BRANCH   3  29
ATOM     29  C   UNL A   1      36.939  34.572  32.676  1.00  0.00     0.118 C 
BRANCH  29  30
ATOM     30  C   UNL A   1      38.236  33.748  32.698  1.00  0.00     0.042 C 
BRANCH  30  31
ATOM     31  C   UNL A   1      38.239  32.576  33.677  1.00  0.00     0.118 C 
BRANCH  31  32
ATOM     32  N   UNL A   1      37.288  31.546  33.297  1.00  0.00    -0.352 N 
ATOM     33  C   UNL A   1      37.317  30.591  32.308  1.00  0.00     0.251 C 
ATOM     34  H   UNL A   1      36.474  31.526  33.851  1.00  0.00     0.163 HD
ATOM     35  O   UNL A   1      36.268  29.993  32.064  1.00  0.00    -0.269 OA
BRANCH  33  36
ATOM     36  C   UNL A   1      38.541  30.256  31.525  1.00  0.00     0.039 A 
ATOM     37  C   UNL A   1      39.640  29.721  32.213  1.00  0.00     0.014 A 
ATOM     38  C   UNL A   1      38.683  30.539  30.166  1.00  0.00     0.014 A 
ATOM     39  C   UNL A   1      40.846  29.448  31.548  1.00  0.00     0.010 A 
ATOM     40  C   UNL A   1      39.855  30.181  29.486  1.00  0.00     0.010 A 
ATOM     41  C   UNL A   1      40.963  29.644  30.166  1.00  0.00    -0.014 A 
BRANCH  41  42
ATOM     42  C   UNL A   1      42.218  29.333  29.409  1.00  0.00     0.031 A 
ATOM     43  C   UNL A   1      42.506  27.919  28.969  1.00  0.00     0.074 A 
ATOM     44  C   UNL A   1      43.148  30.284  29.172  1.00  0.00     0.049 A 
ATOM     45  N   UNL A   1      43.597  27.428  28.437  1.00  0.00    -0.248 NA
ATOM     46  C   UNL A   1      41.424  26.934  29.132  1.00  0.00     0.031 C 
ATOM     47  C   UNL A   1      42.996  31.707  29.448  1.00  0.00     0.029 A 
ATOM     48  N   UNL A   1      44.435  30.189  28.693  1.00  0.00    -0.354 N 
ATOM     49  C   UNL A   1      43.318  26.096  28.161  1.00  0.00     0.074 A 
ATOM     50  C   UNL A   1      41.994  25.827  28.680  1.00  0.00     0.031 C 
ATOM     51  C   UNL A   1      44.168  32.334  29.258  1.00  0.00     0.029 A 
ATOM     52  C   UNL A   1      45.152  31.360  28.812  1.00  0.00     0.049 A 
ATOM     53  H   UNL A   1      44.808  29.365  28.303  1.00  0.00     0.167 HD
ATOM     54  C   UNL A   1      44.065  25.192  27.482  1.00  0.00     0.031 A 
ATOM     55  C   UNL A   1      46.455  31.631  28.600  1.00  0.00     0.031 A 
ATOM     56  C   UNL A   1      45.380  25.452  26.960  1.00  0.00     0.049 A 
ATOM     57  C   UNL A   1      47.328  30.570  27.997  1.00  0.00     0.074 A 
ATOM     58  C   UNL A   1      46.194  24.610  26.221  1.00  0.00     0.029 A 
ATOM     59  N   UNL A   1      46.075  26.641  27.117  1.00  0.00    -0.354 N 
ATOM     60  N   UNL A   1      47.019  29.335  27.687  1.00  0.00    -0.248 NA
ATOM     61  C   UNL A   1      48.703  30.956  27.650  1.00  0.00     0.031 C 
ATOM     62  C   UNL A   1      47.398  25.274  25.968  1.00  0.00     0.029 A 
ATOM     63  C   UNL A   1      47.314  26.548  26.506  1.00  0.00     0.049 A 
ATOM     64  H   UNL A   1      45.737  27.433  27.593  1.00  0.00     0.167 HD
ATOM     65  C   UNL A   1      48.132  28.823  27.033  1.00  0.00     0.074 A 
ATOM     66  C   UNL A   1      49.130  29.874  27.014  1.00  0.00     0.031 C 
ATOM     67  C   UNL A   1      48.297  27.601  26.474  1.00  0.00     0.031 A 
BRANCH  54  68
ATOM     68  C   UNL A   1      43.446  23.846  27.218  1.00  0.00    -0.014 A 
ATOM     69  C   UNL A   1      42.991  23.518  25.926  1.00  0.00     0.010 A 
ATOM     70  C   UNL A   1      43.370  22.882  28.237  1.00  0.00     0.010 A 
ATOM     71  C   UNL A   1      42.440  22.262  25.667  1.00  0.00     0.020 A 
ATOM     72  C   UNL A   1      42.842  21.612  27.975  1.00  0.00     0.020 A 
ATOM     73  C   UNL A   1      42.369  21.317  26.694  1.00  0.00     0.054 A 
BRANCH  73  74
ATOM     74  S   UNL A   1      41.682  19.680  26.318  1.00  0.00     0.124 S 
ATOM     75  O   UNL A   1      42.405  19.325  25.098  1.00  0.00    -0.237 OA
ATOM     76  O   UNL A   1      42.041  18.904  27.505  1.00  0.00    -0.237 OA
ATOM     77  O   UNL A   1      40.257  19.931  26.147  1.00  0.00    -0.744 OA
ENDBRANCH  73  74
ENDBRANCH  54  68
BRANCH  55  78
ATOM     78  C   UNL A   1      47.013  32.975  28.925  1.00  0.00    -0.014 A 
ATOM     79  C   UNL A   1      47.010  34.005  27.969  1.00  0.00     0.010 A 
ATOM     80  C   UNL A   1      47.591  33.214  30.186  1.00  0.00     0.010 A 
ATOM     81  C   UNL A   1      47.620  35.232  28.248  1.00  0.00     0.020 A 
ATOM     82  C   UNL A   1      48.181  34.449  30.478  1.00  0.00     0.020 A 
ATOM     83  C   UNL A   1      48.210  35.443  29.497  1.00  0.00     0.054 A 
BRANCH  83  84
ATOM     84  S   UNL A   1      49.012  37.038  29.825  1.00  0.00     0.124 S 
ATOM     85  O   UNL A   1      47.912  37.823  30.375  1.00  0.00    -0.237 OA
ATOM     86  O   UNL A   1      50.064  36.671  30.771  1.00  0.00    -0.237 OA
ATOM     87  O   UNL A   1      49.486  37.460  28.509  1.00  0.00    -0.744 OA
ENDBRANCH  83  84
ENDBRANCH  55  78
BRANCH  67  88
ATOM     88  C   UNL A   1      49.577  27.351  25.723  1.00  0.00    -0.014 A 
ATOM     89  C   UNL A   1      50.762  26.996  26.389  1.00  0.00     0.010 A 
ATOM     90  C   UNL A   1      49.577  27.439  24.319  1.00  0.00     0.010 A 
ATOM     91  C   UNL A   1      51.934  26.763  25.666  1.00  0.00     0.020 A 
ATOM     92  C   UNL A   1      50.739  27.179  23.590  1.00  0.00     0.020 A 
ATOM     93  C   UNL A   1      51.915  26.856  24.270  1.00  0.00     0.054 A 
BRANCH  93  94
ATOM     94  S   UNL A   1      53.436  26.501  23.351  1.00  0.00     0.124 S 
ATOM     95  O   UNL A   1      53.915  25.289  24.010  1.00  0.00    -0.237 OA
ATOM     96  O   UNL A   1      52.952  26.322  21.984  1.00  0.00    -0.237 OA
ATOM     97  O   UNL A   1      54.256  27.691  23.564  1.00  0.00    -0.744 OA
ENDBRANCH  93  94
ENDBRANCH  67  88
ENDBRANCH  41  42
ENDBRANCH  33  36
ENDBRANCH  31  32
ENDBRANCH  30  31
ENDBRANCH  29  30
ENDBRANCH   3  29
TORSDOF 19
ENDMDL
