MODEL 1
REMARK VINA RESULT:     -11.2      0.000      0.000
REMARK SMILES O=C(NCCCNC(=O)c1ccc(-c2c3nc(c(-c4ccc(S(=O)(=O)[O-])cc4)c4ccc([nH]4)c(-c4ccc(S(=O)(=O)[O-])cc4)c4nc(c(-c5ccc(S(=O)(=O)[O-])cc5)c5ccc2[nH]5)C=C4)C=C3)cc1)C1=C(C(=O)NCCC2=CCCCC2)CCCC1
REMARK SMILES IDX 4 1 3 2 1 3 2 4 70 6 71 7 86 8 83 9 85 10 84 11 72 12 73 13
REMARK SMILES IDX 74 14 75 16 76 17 77 18 78 19 82 20 79 21 81 22 80 23 5 24
REMARK SMILES IDX 6 25 7 26 8 27 9 29 10 30 11 31 69 32 12 33 68 34 13 35
REMARK SMILES IDX 14 36 15 37 62 38 16 39 67 40 61 41 63 42 17 43 66 44 60 45
REMARK SMILES IDX 59 46 18 48 48 49 29 50 47 51 30 52 33 53 46 54 64 55 31 56
REMARK SMILES IDX 32 57 45 59 65 60 34 61 19 62 20 63 28 64 21 65 27 66 22 67
REMARK SMILES IDX 23 68 24 69 25 70 26 71 49 72 50 73 58 74 51 75 57 76 52 77
REMARK SMILES IDX 53 78 54 79 55 80 56 81 35 82 36 83 44 84 37 85 43 86 38 87
REMARK SMILES IDX 39 88 40 89 41 90 42 91
REMARK H PARENT 3 5 74 15 7 28 63 47 33 58
REMARK Flexibility Score: inf
ROOT
ATOM      1  C   UNL A   1      35.164  24.575  25.536  1.00  0.00     0.118 C 
ENDROOT
BRANCH   1   2
ATOM      2  N   UNL A   1      34.475  24.773  24.270  1.00  0.00    -0.352 N 
ATOM      3  O   UNL A   1      33.197  25.751  22.724  1.00  0.00    -0.270 OA
ATOM      4  C   UNL A   1      33.608  25.740  23.883  1.00  0.00     0.247 C 
ATOM      5  H   UNL A   1      34.669  24.095  23.584  1.00  0.00     0.163 HD
BRANCH   4   6
ATOM      6  C   UNL A   1      33.092  26.723  24.864  1.00  0.00     0.026 C 
ATOM      7  C   UNL A   1      32.058  26.542  25.712  1.00  0.00     0.026 C 
ATOM      8  C   UNL A   1      33.908  28.000  24.817  1.00  0.00     0.042 C 
ATOM      9  C   UNL A   1      31.481  27.730  26.471  1.00  0.00     0.042 C 
ATOM     10  C   UNL A   1      33.517  29.037  25.864  1.00  0.00     0.005 C 
ATOM     11  C   UNL A   1      32.008  29.089  26.000  1.00  0.00     0.005 C 
BRANCH   7  12
ATOM     12  C   UNL A   1      31.264  25.288  25.942  1.00  0.00     0.247 C 
ATOM     13  O   UNL A   1      31.468  24.626  26.960  1.00  0.00    -0.270 OA
ATOM     14  N   UNL A   1      30.369  24.794  25.048  1.00  0.00    -0.352 N 
ATOM     15  H   UNL A   1      29.999  23.916  25.296  1.00  0.00     0.163 HD
BRANCH  14  16
ATOM     16  C   UNL A   1      29.852  25.316  23.793  1.00  0.00     0.120 C 
BRANCH  16  17
ATOM     17  C   UNL A   1      28.766  26.379  23.982  1.00  0.00     0.052 C 
BRANCH  17  18
ATOM     18  C   UNL A   1      28.959  27.713  23.277  1.00  0.00    -0.072 C 
ATOM     19  C   UNL A   1      28.006  28.659  23.167  1.00  0.00    -0.028 C 
ATOM     20  C   UNL A   1      30.354  27.945  22.739  1.00  0.00     0.031 C 
ATOM     21  C   UNL A   1      28.215  29.991  22.495  1.00  0.00     0.027 C 
ATOM     22  C   UNL A   1      30.661  29.410  22.423  1.00  0.00     0.005 C 
ATOM     23  C   UNL A   1      29.505  30.066  21.680  1.00  0.00     0.004 C 
ENDBRANCH  17  18
ENDBRANCH  16  17
ENDBRANCH  14  16
ENDBRANCH   7  12
ENDBRANCH   4   6
ENDBRANCH   1   2
BRANCH   1  24
ATOM     24  C   UNL A   1      35.928  23.260  25.575  1.00  0.00     0.042 C 
BRANCH  24  25
ATOM     25  C   UNL A   1      37.264  23.317  24.839  1.00  0.00     0.118 C 
BRANCH  25  26
ATOM     26  N   UNL A   1      38.296  22.460  25.410  1.00  0.00    -0.352 N 
ATOM     27  C   UNL A   1      39.292  22.776  26.307  1.00  0.00     0.251 C 
ATOM     28  H   UNL A   1      38.279  21.522  25.111  1.00  0.00     0.163 HD
ATOM     29  O   UNL A   1      40.125  21.935  26.635  1.00  0.00    -0.269 OA
BRANCH  27  30
ATOM     30  C   UNL A   1      39.386  24.156  26.831  1.00  0.00     0.039 A 
ATOM     31  C   UNL A   1      38.822  24.445  28.075  1.00  0.00     0.014 A 
ATOM     32  C   UNL A   1      40.108  25.133  26.141  1.00  0.00     0.014 A 
ATOM     33  C   UNL A   1      39.094  25.672  28.686  1.00  0.00     0.010 A 
ATOM     34  C   UNL A   1      40.455  26.314  26.790  1.00  0.00     0.010 A 
ATOM     35  C   UNL A   1      39.975  26.585  28.081  1.00  0.00    -0.014 A 
BRANCH  35  36
ATOM     36  C   UNL A   1      40.461  27.790  28.805  1.00  0.00     0.031 A 
ATOM     37  C   UNL A   1      41.818  27.797  29.456  1.00  0.00     0.074 A 
ATOM     38  C   UNL A   1      39.638  28.849  28.961  1.00  0.00     0.049 A 
ATOM     39  N   UNL A   1      42.365  28.718  30.207  1.00  0.00    -0.248 NA
ATOM     40  C   UNL A   1      42.656  26.604  29.261  1.00  0.00     0.031 C 
ATOM     41  C   UNL A   1      38.274  28.951  28.431  1.00  0.00     0.029 A 
ATOM     42  N   UNL A   1      39.822  30.039  29.622  1.00  0.00    -0.354 N 
ATOM     43  C   UNL A   1      43.599  28.208  30.592  1.00  0.00     0.074 A 
ATOM     44  C   UNL A   1      43.700  26.879  30.027  1.00  0.00     0.031 C 
ATOM     45  C   UNL A   1      37.760  30.146  28.763  1.00  0.00     0.029 A 
ATOM     46  C   UNL A   1      38.732  30.878  29.566  1.00  0.00     0.049 A 
ATOM     47  H   UNL A   1      40.655  30.270  30.092  1.00  0.00     0.167 HD
ATOM     48  C   UNL A   1      44.569  28.796  31.333  1.00  0.00     0.031 A 
ATOM     49  C   UNL A   1      38.530  32.094  30.108  1.00  0.00     0.031 A 
ATOM     50  C   UNL A   1      44.477  30.124  31.878  1.00  0.00     0.049 A 
ATOM     51  C   UNL A   1      39.619  32.726  30.928  1.00  0.00     0.074 A 
ATOM     52  C   UNL A   1      45.437  30.833  32.580  1.00  0.00     0.029 A 
ATOM     53  N   UNL A   1      43.362  30.943  31.788  1.00  0.00    -0.354 N 
ATOM     54  N   UNL A   1      40.806  32.252  31.221  1.00  0.00    -0.248 NA
ATOM     55  C   UNL A   1      39.342  34.056  31.489  1.00  0.00     0.031 C 
ATOM     56  C   UNL A   1      44.887  32.063  32.955  1.00  0.00     0.029 A 
ATOM     57  C   UNL A   1      43.601  32.140  32.445  1.00  0.00     0.049 A 
ATOM     58  H   UNL A   1      42.525  30.710  31.327  1.00  0.00     0.167 HD
ATOM     59  C   UNL A   1      41.423  33.233  31.990  1.00  0.00     0.074 A 
ATOM     60  C   UNL A   1      40.487  34.333  32.099  1.00  0.00     0.031 C 
ATOM     61  C   UNL A   1      42.655  33.220  32.557  1.00  0.00     0.031 A 
BRANCH  48  62
ATOM     62  C   UNL A   1      45.819  28.000  31.595  1.00  0.00    -0.014 A 
ATOM     63  C   UNL A   1      46.901  28.034  30.696  1.00  0.00     0.010 A 
ATOM     64  C   UNL A   1      45.929  27.236  32.771  1.00  0.00     0.010 A 
ATOM     65  C   UNL A   1      48.052  27.283  30.946  1.00  0.00     0.020 A 
ATOM     66  C   UNL A   1      47.089  26.504  33.037  1.00  0.00     0.020 A 
ATOM     67  C   UNL A   1      48.137  26.518  32.114  1.00  0.00     0.054 A 
BRANCH  67  68
ATOM     68  S   UNL A   1      49.649  25.566  32.421  1.00  0.00     0.124 S 
ATOM     69  O   UNL A   1      50.025  25.154  31.070  1.00  0.00    -0.237 OA
ATOM     70  O   UNL A   1      50.529  26.552  33.044  1.00  0.00    -0.237 OA
ATOM     71  O   UNL A   1      49.207  24.487  33.301  1.00  0.00    -0.744 OA
ENDBRANCH  67  68
ENDBRANCH  48  62
BRANCH  49  72
ATOM     72  C   UNL A   1      37.238  32.799  29.889  1.00  0.00    -0.014 A 
ATOM     73  C   UNL A   1      36.264  32.831  30.902  1.00  0.00     0.010 A 
ATOM     74  C   UNL A   1      36.981  33.455  28.671  1.00  0.00     0.010 A 
ATOM     75  C   UNL A   1      35.052  33.498  30.699  1.00  0.00     0.020 A 
ATOM     76  C   UNL A   1      35.780  34.143  28.473  1.00  0.00     0.020 A 
ATOM     77  C   UNL A   1      34.819  34.151  29.485  1.00  0.00     0.054 A 
BRANCH  77  78
ATOM     78  S   UNL A   1      33.265  35.062  29.263  1.00  0.00     0.124 S 
ATOM     79  O   UNL A   1      32.587  34.263  28.247  1.00  0.00    -0.237 OA
ATOM     80  O   UNL A   1      32.677  35.018  30.601  1.00  0.00    -0.237 OA
ATOM     81  O   UNL A   1      33.706  36.386  28.831  1.00  0.00    -0.744 OA
ENDBRANCH  77  78
ENDBRANCH  49  72
BRANCH  61  82
ATOM     82  C   UNL A   1      43.066  34.438  33.339  1.00  0.00    -0.014 A 
ATOM     83  C   UNL A   1      42.930  34.477  34.738  1.00  0.00     0.010 A 
ATOM     84  C   UNL A   1      43.641  35.535  32.672  1.00  0.00     0.010 A 
ATOM     85  C   UNL A   1      43.339  35.605  35.454  1.00  0.00     0.020 A 
ATOM     86  C   UNL A   1      44.073  36.654  33.388  1.00  0.00     0.020 A 
ATOM     87  C   UNL A   1      43.906  36.687  34.775  1.00  0.00     0.054 A 
BRANCH  87  88
ATOM     88  S   UNL A   1      44.473  38.120  35.732  1.00  0.00     0.124 S 
ATOM     89  O   UNL A   1      44.017  39.235  34.906  1.00  0.00    -0.237 OA
ATOM     90  O   UNL A   1      43.774  37.955  37.004  1.00  0.00    -0.237 OA
ATOM     91  O   UNL A   1      45.922  37.943  35.796  1.00  0.00    -0.744 OA
ENDBRANCH  87  88
ENDBRANCH  61  82
ENDBRANCH  35  36
ENDBRANCH  27  30
ENDBRANCH  25  26
ENDBRANCH  24  25
ENDBRANCH   1  24
TORSDOF 17
ENDMDL
MODEL 2
REMARK VINA RESULT:     -10.7      2.821      9.309
REMARK SMILES O=C(NCCCNC(=O)c1ccc(-c2c3nc(c(-c4ccc(S(=O)(=O)[O-])cc4)c4ccc([nH]4)c(-c4ccc(S(=O)(=O)[O-])cc4)c4nc(c(-c5ccc(S(=O)(=O)[O-])cc5)c5ccc2[nH]5)C=C4)C=C3)cc1)C1=C(C(=O)NCCC2=CCCCC2)CCCC1
REMARK SMILES IDX 4 1 3 2 1 3 2 4 70 6 71 7 86 8 83 9 85 10 84 11 72 12 73 13
REMARK SMILES IDX 74 14 75 16 76 17 77 18 78 19 82 20 79 21 81 22 80 23 5 24
REMARK SMILES IDX 6 25 7 26 8 27 9 29 10 30 11 31 69 32 12 33 68 34 13 35
REMARK SMILES IDX 14 36 15 37 62 38 16 39 67 40 61 41 63 42 17 43 66 44 60 45
REMARK SMILES IDX 59 46 18 48 48 49 29 50 47 51 30 52 33 53 46 54 64 55 31 56
REMARK SMILES IDX 32 57 45 59 65 60 34 61 19 62 20 63 28 64 21 65 27 66 22 67
REMARK SMILES IDX 23 68 24 69 25 70 26 71 49 72 50 73 58 74 51 75 57 76 52 77
REMARK SMILES IDX 53 78 54 79 55 80 56 81 35 82 36 83 44 84 37 85 43 86 38 87
REMARK SMILES IDX 39 88 40 89 41 90 42 91
REMARK H PARENT 3 5 74 15 7 28 63 47 33 58
REMARK Flexibility Score: inf
ROOT
ATOM      1  C   UNL A   1      32.464  26.945  26.261  1.00  0.00     0.118 C 
ENDROOT
BRANCH   1   2
ATOM      2  N   UNL A   1      31.073  26.542  26.399  1.00  0.00    -0.352 N 
ATOM      3  O   UNL A   1      29.295  25.200  26.530  1.00  0.00    -0.270 OA
ATOM      4  C   UNL A   1      30.497  25.319  26.302  1.00  0.00     0.247 C 
ATOM      5  H   UNL A   1      30.448  27.277  26.593  1.00  0.00     0.163 HD
BRANCH   4   6
ATOM      6  C   UNL A   1      31.286  24.152  25.843  1.00  0.00     0.026 C 
ATOM      7  C   UNL A   1      31.442  23.742  24.566  1.00  0.00     0.026 C 
ATOM      8  C   UNL A   1      31.943  23.458  27.020  1.00  0.00     0.042 C 
ATOM      9  C   UNL A   1      32.062  22.381  24.276  1.00  0.00     0.042 C 
ATOM     10  C   UNL A   1      32.862  22.302  26.638  1.00  0.00     0.005 C 
ATOM     11  C   UNL A   1      32.238  21.497  25.515  1.00  0.00     0.005 C 
BRANCH   7  12
ATOM     12  C   UNL A   1      30.955  24.417  23.317  1.00  0.00     0.247 C 
ATOM     13  O   UNL A   1      29.742  24.513  23.121  1.00  0.00    -0.270 OA
ATOM     14  N   UNL A   1      31.781  24.872  22.340  1.00  0.00    -0.352 N 
ATOM     15  H   UNL A   1      31.310  25.202  21.540  1.00  0.00     0.163 HD
BRANCH  14  16
ATOM     16  C   UNL A   1      33.229  24.964  22.250  1.00  0.00     0.120 C 
BRANCH  16  17
ATOM     17  C   UNL A   1      33.887  25.429  23.552  1.00  0.00     0.052 C 
BRANCH  17  18
ATOM     18  C   UNL A   1      34.871  24.480  24.220  1.00  0.00    -0.072 C 
ATOM     19  C   UNL A   1      35.386  24.661  25.451  1.00  0.00    -0.028 C 
ATOM     20  C   UNL A   1      35.201  23.244  23.412  1.00  0.00     0.031 C 
ATOM     21  C   UNL A   1      36.335  23.701  26.118  1.00  0.00     0.027 C 
ATOM     22  C   UNL A   1      35.830  22.116  24.231  1.00  0.00     0.005 C 
ATOM     23  C   UNL A   1      36.906  22.650  25.166  1.00  0.00     0.004 C 
ENDBRANCH  17  18
ENDBRANCH  16  17
ENDBRANCH  14  16
ENDBRANCH   7  12
ENDBRANCH   4   6
ENDBRANCH   1   2
BRANCH   1  24
ATOM     24  C   UNL A   1      32.819  28.107  27.175  1.00  0.00     0.042 C 
BRANCH  24  25
ATOM     25  C   UNL A   1      33.559  29.234  26.460  1.00  0.00     0.118 C 
BRANCH  25  26
ATOM     26  N   UNL A   1      33.579  30.494  27.193  1.00  0.00    -0.352 N 
ATOM     27  C   UNL A   1      34.550  30.999  28.030  1.00  0.00     0.251 C 
ATOM     28  H   UNL A   1      32.787  31.065  27.072  1.00  0.00     0.163 HD
ATOM     29  O   UNL A   1      34.371  32.060  28.622  1.00  0.00    -0.269 OA
BRANCH  27  30
ATOM     30  C   UNL A   1      35.788  30.222  28.257  1.00  0.00     0.039 A 
ATOM     31  C   UNL A   1      36.764  30.204  27.259  1.00  0.00     0.014 A 
ATOM     32  C   UNL A   1      36.022  29.595  29.483  1.00  0.00     0.014 A 
ATOM     33  C   UNL A   1      38.025  29.672  27.540  1.00  0.00     0.010 A 
ATOM     34  C   UNL A   1      37.305  29.152  29.791  1.00  0.00     0.010 A 
ATOM     35  C   UNL A   1      38.328  29.210  28.833  1.00  0.00    -0.014 A 
BRANCH  35  36
ATOM     36  C   UNL A   1      39.718  28.852  29.223  1.00  0.00     0.031 A 
ATOM     37  C   UNL A   1      40.611  29.862  29.891  1.00  0.00     0.074 A 
ATOM     38  C   UNL A   1      40.212  27.641  28.887  1.00  0.00     0.049 A 
ATOM     39  N   UNL A   1      41.875  29.758  30.212  1.00  0.00    -0.248 NA
ATOM     40  C   UNL A   1      40.014  31.168  30.213  1.00  0.00     0.031 C 
ATOM     41  C   UNL A   1      39.473  26.586  28.185  1.00  0.00     0.029 A 
ATOM     42  N   UNL A   1      41.457  27.095  29.078  1.00  0.00    -0.354 N 
ATOM     43  C   UNL A   1      42.231  30.988  30.753  1.00  0.00     0.074 A 
ATOM     44  C   UNL A   1      41.060  31.836  30.675  1.00  0.00     0.031 C 
ATOM     45  C   UNL A   1      40.268  25.515  28.033  1.00  0.00     0.029 A 
ATOM     46  C   UNL A   1      41.585  25.818  28.581  1.00  0.00     0.049 A 
ATOM     47  H   UNL A   1      42.190  27.572  29.528  1.00  0.00     0.167 HD
ATOM     48  C   UNL A   1      43.417  31.374  31.282  1.00  0.00     0.031 A 
ATOM     49  C   UNL A   1      42.643  24.985  28.555  1.00  0.00     0.031 A 
ATOM     50  C   UNL A   1      44.574  30.526  31.378  1.00  0.00     0.049 A 
ATOM     51  C   UNL A   1      43.950  25.435  29.147  1.00  0.00     0.074 A 
ATOM     52  C   UNL A   1      45.797  30.803  31.964  1.00  0.00     0.029 A 
ATOM     53  N   UNL A   1      44.657  29.237  30.873  1.00  0.00    -0.354 N 
ATOM     54  N   UNL A   1      44.242  26.581  29.715  1.00  0.00    -0.248 NA
ATOM     55  C   UNL A   1      45.067  24.482  29.095  1.00  0.00     0.031 C 
ATOM     56  C   UNL A   1      46.635  29.700  31.773  1.00  0.00     0.029 A 
ATOM     57  C   UNL A   1      45.919  28.716  31.110  1.00  0.00     0.049 A 
ATOM     58  H   UNL A   1      43.927  28.762  30.414  1.00  0.00     0.167 HD
ATOM     59  C   UNL A   1      45.575  26.479  30.100  1.00  0.00     0.074 A 
ATOM     60  C   UNL A   1      46.023  25.156  29.719  1.00  0.00     0.031 C 
ATOM     61  C   UNL A   1      46.356  27.403  30.713  1.00  0.00     0.031 A 
BRANCH  48  62
ATOM     62  C   UNL A   1      43.517  32.783  31.802  1.00  0.00    -0.014 A 
ATOM     63  C   UNL A   1      43.707  33.866  30.924  1.00  0.00     0.010 A 
ATOM     64  C   UNL A   1      43.386  33.032  33.180  1.00  0.00     0.010 A 
ATOM     65  C   UNL A   1      43.808  35.168  31.419  1.00  0.00     0.020 A 
ATOM     66  C   UNL A   1      43.462  34.336  33.677  1.00  0.00     0.020 A 
ATOM     67  C   UNL A   1      43.690  35.395  32.794  1.00  0.00     0.054 A 
BRANCH  67  68
ATOM     68  S   UNL A   1      43.809  37.097  33.408  1.00  0.00     0.124 S 
ATOM     69  O   UNL A   1      45.065  37.059  34.154  1.00  0.00    -0.237 OA
ATOM     70  O   UNL A   1      43.833  37.883  32.177  1.00  0.00    -0.237 OA
ATOM     71  O   UNL A   1      42.606  37.257  34.222  1.00  0.00    -0.744 OA
ENDBRANCH  67  68
ENDBRANCH  48  62
BRANCH  49  72
ATOM     72  C   UNL A   1      42.510  23.633  27.948  1.00  0.00    -0.014 A 
ATOM     73  C   UNL A   1      42.983  23.388  26.647  1.00  0.00     0.010 A 
ATOM     74  C   UNL A   1      41.924  22.580  28.673  1.00  0.00     0.010 A 
ATOM     75  C   UNL A   1      42.864  22.117  26.077  1.00  0.00     0.020 A 
ATOM     76  C   UNL A   1      41.824  21.301  28.117  1.00  0.00     0.020 A 
ATOM     77  C   UNL A   1      42.286  21.081  26.817  1.00  0.00     0.054 A 
BRANCH  77  78
ATOM     78  S   UNL A   1      42.194  19.424  26.083  1.00  0.00     0.124 S 
ATOM     79  O   UNL A   1      40.778  19.318  25.747  1.00  0.00    -0.237 OA
ATOM     80  O   UNL A   1      43.110  19.527  24.949  1.00  0.00    -0.237 OA
ATOM     81  O   UNL A   1      42.651  18.549  27.162  1.00  0.00    -0.744 OA
ENDBRANCH  77  78
ENDBRANCH  49  72
BRANCH  61  82
ATOM     82  C   UNL A   1      47.775  27.010  31.019  1.00  0.00    -0.014 A 
ATOM     83  C   UNL A   1      48.123  26.483  32.276  1.00  0.00     0.010 A 
ATOM     84  C   UNL A   1      48.762  27.123  30.023  1.00  0.00     0.010 A 
ATOM     85  C   UNL A   1      49.441  26.099  32.539  1.00  0.00     0.020 A 
ATOM     86  C   UNL A   1      50.074  26.718  30.275  1.00  0.00     0.020 A 
ATOM     87  C   UNL A   1      50.409  26.220  31.537  1.00  0.00     0.054 A 
BRANCH  87  88
ATOM     88  S   UNL A   1      52.102  25.672  31.886  1.00  0.00     0.124 S 
ATOM     89  O   UNL A   1      52.437  26.459  33.070  1.00  0.00    -0.237 OA
ATOM     90  O   UNL A   1      51.937  24.238  32.112  1.00  0.00    -0.237 OA
ATOM     91  O   UNL A   1      52.838  26.025  30.674  1.00  0.00    -0.744 OA
ENDBRANCH  87  88
ENDBRANCH  61  82
ENDBRANCH  35  36
ENDBRANCH  27  30
ENDBRANCH  25  26
ENDBRANCH  24  25
ENDBRANCH   1  24
TORSDOF 17
ENDMDL
MODEL 3
REMARK VINA RESULT:     -10.7      2.951      9.523
REMARK SMILES O=C(NCCCNC(=O)c1ccc(-c2c3nc(c(-c4ccc(S(=O)(=O)[O-])cc4)c4ccc([nH]4)c(-c4ccc(S(=O)(=O)[O-])cc4)c4nc(c(-c5ccc(S(=O)(=O)[O-])cc5)c5ccc2[nH]5)C=C4)C=C3)cc1)C1=C(C(=O)NCCC2=CCCCC2)CCCC1
REMARK SMILES IDX 4 1 3 2 1 3 2 4 70 6 71 7 86 8 83 9 85 10 84 11 72 12 73 13
REMARK SMILES IDX 74 14 75 16 76 17 77 18 78 19 82 20 79 21 81 22 80 23 5 24
REMARK SMILES IDX 6 25 7 26 8 27 9 29 10 30 11 31 69 32 12 33 68 34 13 35
REMARK SMILES IDX 14 36 15 37 62 38 16 39 67 40 61 41 63 42 17 43 66 44 60 45
REMARK SMILES IDX 59 46 18 48 48 49 29 50 47 51 30 52 33 53 46 54 64 55 31 56
REMARK SMILES IDX 32 57 45 59 65 60 34 61 19 62 20 63 28 64 21 65 27 66 22 67
REMARK SMILES IDX 23 68 24 69 25 70 26 71 49 72 50 73 58 74 51 75 57 76 52 77
REMARK SMILES IDX 53 78 54 79 55 80 56 81 35 82 36 83 44 84 37 85 43 86 38 87
REMARK SMILES IDX 39 88 40 89 41 90 42 91
REMARK H PARENT 3 5 74 15 7 28 63 47 33 58
REMARK Flexibility Score: inf
ROOT
ATOM      1  C   UNL A   1      31.531  27.284  26.421  1.00  0.00     0.118 C 
ENDROOT
BRANCH   1   2
ATOM      2  N   UNL A   1      31.372  25.974  27.034  1.00  0.00    -0.352 N 
ATOM      3  O   UNL A   1      31.472  23.757  27.269  1.00  0.00    -0.270 OA
ATOM      4  C   UNL A   1      31.612  24.735  26.538  1.00  0.00     0.247 C 
ATOM      5  H   UNL A   1      31.033  25.989  27.958  1.00  0.00     0.163 HD
BRANCH   4   6
ATOM      6  C   UNL A   1      31.957  24.553  25.109  1.00  0.00     0.026 C 
ATOM      7  C   UNL A   1      33.200  24.473  24.589  1.00  0.00     0.026 C 
ATOM      8  C   UNL A   1      30.701  24.439  24.268  1.00  0.00     0.042 C 
ATOM      9  C   UNL A   1      33.398  24.550  23.080  1.00  0.00     0.042 C 
ATOM     10  C   UNL A   1      30.953  24.146  22.793  1.00  0.00     0.005 C 
ATOM     11  C   UNL A   1      32.141  24.952  22.304  1.00  0.00     0.005 C 
BRANCH   7  12
ATOM     12  C   UNL A   1      34.507  24.442  25.327  1.00  0.00     0.247 C 
ATOM     13  O   UNL A   1      34.846  25.424  25.989  1.00  0.00    -0.270 OA
ATOM     14  N   UNL A   1      35.385  23.408  25.253  1.00  0.00    -0.352 N 
ATOM     15  H   UNL A   1      36.238  23.575  25.715  1.00  0.00     0.163 HD
BRANCH  14  16
ATOM     16  C   UNL A   1      35.303  22.102  24.622  1.00  0.00     0.120 C 
BRANCH  16  17
ATOM     17  C   UNL A   1      34.417  21.114  25.387  1.00  0.00     0.052 C 
BRANCH  17  18
ATOM     18  C   UNL A   1      34.086  19.794  24.707  1.00  0.00    -0.072 C 
ATOM     19  C   UNL A   1      34.901  18.722  24.692  1.00  0.00    -0.028 C 
ATOM     20  C   UNL A   1      32.712  19.738  24.077  1.00  0.00     0.031 C 
ATOM     21  C   UNL A   1      34.553  17.408  24.044  1.00  0.00     0.027 C 
ATOM     22  C   UNL A   1      32.224  18.319  23.780  1.00  0.00     0.005 C 
ATOM     23  C   UNL A   1      33.323  17.482  23.140  1.00  0.00     0.004 C 
ENDBRANCH  17  18
ENDBRANCH  16  17
ENDBRANCH  14  16
ENDBRANCH   7  12
ENDBRANCH   4   6
ENDBRANCH   1   2
BRANCH   1  24
ATOM     24  C   UNL A   1      31.864  28.359  27.444  1.00  0.00     0.042 C 
BRANCH  24  25
ATOM     25  C   UNL A   1      33.263  28.944  27.271  1.00  0.00     0.118 C 
BRANCH  25  26
ATOM     26  N   UNL A   1      33.396  30.320  27.736  1.00  0.00    -0.352 N 
ATOM     27  C   UNL A   1      34.488  30.949  28.290  1.00  0.00     0.251 C 
ATOM     28  H   UNL A   1      32.591  30.877  27.639  1.00  0.00     0.163 HD
ATOM     29  O   UNL A   1      34.403  32.108  28.689  1.00  0.00    -0.269 OA
BRANCH  27  30
ATOM     30  C   UNL A   1      35.752  30.198  28.456  1.00  0.00     0.039 A 
ATOM     31  C   UNL A   1      36.645  30.137  27.385  1.00  0.00     0.014 A 
ATOM     32  C   UNL A   1      36.094  29.641  29.690  1.00  0.00     0.014 A 
ATOM     33  C   UNL A   1      37.932  29.634  27.590  1.00  0.00     0.010 A 
ATOM     34  C   UNL A   1      37.403  29.228  29.916  1.00  0.00     0.010 A 
ATOM     35  C   UNL A   1      38.345  29.245  28.876  1.00  0.00    -0.014 A 
BRANCH  35  36
ATOM     36  C   UNL A   1      39.767  28.922  29.169  1.00  0.00     0.031 A 
ATOM     37  C   UNL A   1      40.686  29.966  29.746  1.00  0.00     0.074 A 
ATOM     38  C   UNL A   1      40.259  27.713  28.826  1.00  0.00     0.049 A 
ATOM     39  N   UNL A   1      41.973  29.893  29.975  1.00  0.00    -0.248 NA
ATOM     40  C   UNL A   1      40.088  31.267  30.081  1.00  0.00     0.031 C 
ATOM     41  C   UNL A   1      39.492  26.628  28.206  1.00  0.00     0.029 A 
ATOM     42  N   UNL A   1      41.526  27.195  28.936  1.00  0.00    -0.354 N 
ATOM     43  C   UNL A   1      42.341  31.142  30.459  1.00  0.00     0.074 A 
ATOM     44  C   UNL A   1      41.151  31.966  30.449  1.00  0.00     0.031 C 
ATOM     45  C   UNL A   1      40.295  25.569  28.019  1.00  0.00     0.029 A 
ATOM     46  C   UNL A   1      41.643  25.909  28.461  1.00  0.00     0.049 A 
ATOM     47  H   UNL A   1      42.281  27.697  29.320  1.00  0.00     0.167 HD
ATOM     48  C   UNL A   1      43.555  31.563  30.890  1.00  0.00     0.031 A 
ATOM     49  C   UNL A   1      42.714  25.097  28.375  1.00  0.00     0.031 A 
ATOM     50  C   UNL A   1      44.733  30.740  30.918  1.00  0.00     0.049 A 
ATOM     51  C   UNL A   1      44.050  25.585  28.858  1.00  0.00     0.074 A 
ATOM     52  C   UNL A   1      45.991  31.054  31.406  1.00  0.00     0.029 A 
ATOM     53  N   UNL A   1      44.805  29.440  30.439  1.00  0.00    -0.354 N 
ATOM     54  N   UNL A   1      44.361  26.749  29.376  1.00  0.00    -0.248 NA
ATOM     55  C   UNL A   1      45.180  24.652  28.745  1.00  0.00     0.031 C 
ATOM     56  C   UNL A   1      46.834  29.962  31.178  1.00  0.00     0.029 A 
ATOM     57  C   UNL A   1      46.092  28.950  30.594  1.00  0.00     0.049 A 
ATOM     58  H   UNL A   1      44.054  28.941  30.046  1.00  0.00     0.167 HD
ATOM     59  C   UNL A   1      45.720  26.683  29.664  1.00  0.00     0.074 A 
ATOM     60  C   UNL A   1      46.165  25.358  29.281  1.00  0.00     0.031 C 
ATOM     61  C   UNL A   1      46.525  27.635  30.196  1.00  0.00     0.031 A 
BRANCH  48  62
ATOM     62  C   UNL A   1      43.665  32.986  31.368  1.00  0.00    -0.014 A 
ATOM     63  C   UNL A   1      43.988  34.026  30.476  1.00  0.00     0.010 A 
ATOM     64  C   UNL A   1      43.408  33.294  32.716  1.00  0.00     0.010 A 
ATOM     65  C   UNL A   1      44.097  35.341  30.934  1.00  0.00     0.020 A 
ATOM     66  C   UNL A   1      43.491  34.612  33.172  1.00  0.00     0.020 A 
ATOM     67  C   UNL A   1      43.852  35.626  32.281  1.00  0.00     0.054 A 
BRANCH  67  68
ATOM     68  S   UNL A   1      43.984  37.344  32.845  1.00  0.00     0.124 S 
ATOM     69  O   UNL A   1      42.894  37.426  33.816  1.00  0.00    -0.237 OA
ATOM     70  O   UNL A   1      45.331  37.396  33.408  1.00  0.00    -0.237 OA
ATOM     71  O   UNL A   1      43.791  38.125  31.625  1.00  0.00    -0.744 OA
ENDBRANCH  67  68
ENDBRANCH  48  62
BRANCH  49  72
ATOM     72  C   UNL A   1      42.563  23.728  27.811  1.00  0.00    -0.014 A 
ATOM     73  C   UNL A   1      42.341  22.630  28.660  1.00  0.00     0.010 A 
ATOM     74  C   UNL A   1      42.626  23.517  26.421  1.00  0.00     0.010 A 
ATOM     75  C   UNL A   1      42.194  21.344  28.131  1.00  0.00     0.020 A 
ATOM     76  C   UNL A   1      42.456  22.237  25.887  1.00  0.00     0.020 A 
ATOM     77  C   UNL A   1      42.251  21.156  26.747  1.00  0.00     0.054 A 
BRANCH  77  78
ATOM     78  S   UNL A   1      41.998  19.489  26.076  1.00  0.00     0.124 S 
ATOM     79  O   UNL A   1      42.469  18.647  27.171  1.00  0.00    -0.237 OA
ATOM     80  O   UNL A   1      40.558  19.461  25.828  1.00  0.00    -0.237 OA
ATOM     81  O   UNL A   1      42.828  19.477  24.873  1.00  0.00    -0.744 OA
ENDBRANCH  77  78
ENDBRANCH  49  72
BRANCH  61  82
ATOM     82  C   UNL A   1      47.971  27.277  30.404  1.00  0.00    -0.014 A 
ATOM     83  C   UNL A   1      48.925  27.510  29.398  1.00  0.00     0.010 A 
ATOM     84  C   UNL A   1      48.389  26.747  31.639  1.00  0.00     0.010 A 
ATOM     85  C   UNL A   1      50.269  27.195  29.614  1.00  0.00     0.020 A 
ATOM     86  C   UNL A   1      49.735  26.455  31.866  1.00  0.00     0.020 A 
ATOM     87  C   UNL A   1      50.666  26.668  30.846  1.00  0.00     0.054 A 
BRANCH  87  88
ATOM     88  S   UNL A   1      52.423  26.312  31.120  1.00  0.00     0.124 S 
ATOM     89  O   UNL A   1      52.942  26.285  29.755  1.00  0.00    -0.237 OA
ATOM     90  O   UNL A   1      52.859  27.444  31.934  1.00  0.00    -0.237 OA
ATOM     91  O   UNL A   1      52.412  25.024  31.809  1.00  0.00    -0.744 OA
ENDBRANCH  87  88
ENDBRANCH  61  82
ENDBRANCH  35  36
ENDBRANCH  27  30
ENDBRANCH  25  26
ENDBRANCH  24  25
ENDBRANCH   1  24
TORSDOF 17
ENDMDL
