MODEL 1
REMARK VINA RESULT:     -10.3      0.000      0.000
REMARK SMILES [NH3+][C@]1(C(=O)NCCCNC(=O)c2ccc(-c3c4nc(c(-c5ccc(S(=O)(=O)[O-])cc5)c5ccc([nH]5)c(-c5ccc(S(=O)(=O)[O-])cc5)c5nc(c(-c6ccc(S(=O)(=O)[O-])cc6)c6ccc3[nH]6)C=C5)C=C4)cc2)CCC[C@@H]1CCn1cc(I)cn1
REMARK SMILES IDX 7 1 6 2 5 3 3 4 4 5 2 7 72 8 75 9 73 10 74 11 1 12 76 16
REMARK SMILES IDX 77 17 78 18 79 19 83 20 80 21 82 22 81 23 8 24 9 25 10 26
REMARK SMILES IDX 11 28 12 29 13 30 71 31 14 32 70 33 15 34 16 35 17 36 64 37
REMARK SMILES IDX 18 38 69 39 63 40 65 41 19 42 68 43 62 44 61 45 20 47 50 48
REMARK SMILES IDX 31 49 49 50 32 51 35 52 48 53 66 54 33 55 34 56 47 58 67 59
REMARK SMILES IDX 36 60 21 61 22 62 30 63 23 64 29 65 24 66 25 67 26 68 27 69
REMARK SMILES IDX 28 70 51 71 52 72 60 73 53 74 59 75 54 76 55 77 56 78 57 79
REMARK SMILES IDX 58 80 37 81 38 82 46 83 39 84 45 85 40 86 41 87 42 88 43 89
REMARK SMILES IDX 44 90
REMARK H PARENT 5 6 1 13 1 14 1 15 9 27 65 46 35 57
REMARK Flexibility Score: inf
ROOT
ATOM      1  C   UNL A   1      33.468  27.960  26.028  1.00  0.00     0.042 C 
ENDROOT
BRANCH   1   2
ATOM      2  C   UNL A   1      33.290  26.454  25.870  1.00  0.00     0.118 C 
BRANCH   2   3
ATOM      3  N   UNL A   1      31.991  26.023  26.355  1.00  0.00    -0.351 N 
ATOM      4  C   UNL A   1      30.747  25.910  25.834  1.00  0.00     0.281 C 
ATOM      5  O   UNL A   1      29.880  25.590  26.661  1.00  0.00    -0.268 OA
ATOM      6  H   UNL A   1      32.023  25.741  27.298  1.00  0.00     0.163 HD
BRANCH   4   7
ATOM      7  C   UNL A   1      30.359  26.099  24.343  1.00  0.00     0.176 C 
ATOM      8  C   UNL A   1      30.765  27.528  23.925  1.00  0.00     0.079 C 
ATOM      9  C   UNL A   1      31.271  25.248  23.418  1.00  0.00     0.062 C 
ATOM     10  C   UNL A   1      30.880  27.467  22.412  1.00  0.00     0.008 C 
ATOM     11  C   UNL A   1      31.340  26.044  22.098  1.00  0.00     0.011 C 
BRANCH   7  12
ATOM     12  N   UNL A   1      28.948  25.899  23.990  1.00  0.00    -0.345 N 
ATOM     13  H   UNL A   1      28.882  25.560  23.030  1.00  0.00     0.345 HD
ATOM     14  H   UNL A   1      28.447  26.783  24.074  1.00  0.00     0.345 HD
ATOM     15  H   UNL A   1      28.534  25.212  24.622  1.00  0.00     0.345 HD
ENDBRANCH   7  12
BRANCH   9  16
ATOM     16  C   UNL A   1      30.919  23.738  23.359  1.00  0.00     0.034 C 
BRANCH  16  17
ATOM     17  C   UNL A   1      31.309  22.851  24.549  1.00  0.00     0.145 C 
BRANCH  17  18
ATOM     18  N   UNL A   1      32.710  22.880  24.939  1.00  0.00    -0.272 N 
ATOM     19  C   UNL A   1      33.815  22.764  24.139  1.00  0.00     0.123 A 
ATOM     20  N   UNL A   1      33.017  22.921  26.256  1.00  0.00    -0.180 NA
ATOM     21  C   UNL A   1      34.870  22.599  24.996  1.00  0.00     0.051 A 
ATOM     22  C   UNL A   1      34.339  22.722  26.283  1.00  0.00     0.149 A 
ATOM     23  I   UNL A   1      36.768  22.207  24.470  1.00  0.00    -0.041 I 
ENDBRANCH  17  18
ENDBRANCH  16  17
ENDBRANCH   9  16
ENDBRANCH   4   7
ENDBRANCH   2   3
ENDBRANCH   1   2
BRANCH   1  24
ATOM     24  C   UNL A   1      33.493  28.422  27.483  1.00  0.00     0.118 C 
BRANCH  24  25
ATOM     25  N   UNL A   1      33.503  29.876  27.599  1.00  0.00    -0.352 N 
ATOM     26  C   UNL A   1      34.452  30.719  28.116  1.00  0.00     0.251 C 
ATOM     27  H   UNL A   1      32.699  30.324  27.250  1.00  0.00     0.163 HD
ATOM     28  O   UNL A   1      34.150  31.892  28.350  1.00  0.00    -0.269 OA
BRANCH  26  29
ATOM     29  C   UNL A   1      35.818  30.237  28.399  1.00  0.00     0.039 A 
ATOM     30  C   UNL A   1      36.814  30.406  27.434  1.00  0.00     0.014 A 
ATOM     31  C   UNL A   1      36.113  29.582  29.598  1.00  0.00     0.014 A 
ATOM     32  C   UNL A   1      38.117  29.979  27.699  1.00  0.00     0.010 A 
ATOM     33  C   UNL A   1      37.427  29.238  29.897  1.00  0.00     0.010 A 
ATOM     34  C   UNL A   1      38.443  29.425  28.948  1.00  0.00    -0.014 A 
BRANCH  34  35
ATOM     35  C   UNL A   1      39.835  29.030  29.281  1.00  0.00     0.031 A 
ATOM     36  C   UNL A   1      40.761  30.010  29.952  1.00  0.00     0.074 A 
ATOM     37  C   UNL A   1      40.285  27.811  28.921  1.00  0.00     0.049 A 
ATOM     38  N   UNL A   1      42.027  29.872  30.258  1.00  0.00    -0.248 NA
ATOM     39  C   UNL A   1      40.200  31.326  30.303  1.00  0.00     0.031 C 
ATOM     40  C   UNL A   1      39.497  26.785  28.232  1.00  0.00     0.029 A 
ATOM     41  N   UNL A   1      41.517  27.228  29.081  1.00  0.00    -0.354 N 
ATOM     42  C   UNL A   1      42.414  31.083  30.821  1.00  0.00     0.074 A 
ATOM     43  C   UNL A   1      41.267  31.962  30.764  1.00  0.00     0.031 C 
ATOM     44  C   UNL A   1      40.255  25.691  28.058  1.00  0.00     0.029 A 
ATOM     45  C   UNL A   1      41.593  25.950  28.577  1.00  0.00     0.049 A 
ATOM     46  H   UNL A   1      42.275  27.682  29.514  1.00  0.00     0.167 HD
ATOM     47  C   UNL A   1      43.610  31.425  31.358  1.00  0.00     0.031 A 
ATOM     48  C   UNL A   1      42.626  25.086  28.532  1.00  0.00     0.031 A 
ATOM     49  C   UNL A   1      44.745  30.543  31.422  1.00  0.00     0.049 A 
ATOM     50  C   UNL A   1      43.949  25.498  29.117  1.00  0.00     0.074 A 
ATOM     51  C   UNL A   1      45.986  30.779  31.987  1.00  0.00     0.029 A 
ATOM     52  N   UNL A   1      44.778  29.257  30.906  1.00  0.00    -0.354 N 
ATOM     53  N   UNL A   1      44.279  26.628  29.697  1.00  0.00    -0.248 NA
ATOM     54  C   UNL A   1      45.038  24.512  29.054  1.00  0.00     0.031 C 
ATOM     55  C   UNL A   1      46.787  29.655  31.767  1.00  0.00     0.029 A 
ATOM     56  C   UNL A   1      46.025  28.694  31.121  1.00  0.00     0.049 A 
ATOM     57  H   UNL A   1      44.027  28.810  30.455  1.00  0.00     0.167 HD
ATOM     58  C   UNL A   1      45.603  26.477  30.095  1.00  0.00     0.074 A 
ATOM     59  C   UNL A   1      46.006  25.142  29.704  1.00  0.00     0.031 C 
ATOM     60  C   UNL A   1      46.410  27.363  30.729  1.00  0.00     0.031 A 
BRANCH  47  61
ATOM     61  C   UNL A   1      43.750  32.816  31.920  1.00  0.00    -0.014 A 
ATOM     62  C   UNL A   1      44.149  33.891  31.105  1.00  0.00     0.010 A 
ATOM     63  C   UNL A   1      43.431  33.064  33.268  1.00  0.00     0.010 A 
ATOM     64  C   UNL A   1      44.267  35.178  31.636  1.00  0.00     0.020 A 
ATOM     65  C   UNL A   1      43.518  34.356  33.795  1.00  0.00     0.020 A 
ATOM     66  C   UNL A   1      43.951  35.403  32.979  1.00  0.00     0.054 A 
BRANCH  66  67
ATOM     67  S   UNL A   1      44.085  37.089  33.632  1.00  0.00     0.124 S 
ATOM     68  O   UNL A   1      44.629  37.813  32.484  1.00  0.00    -0.237 OA
ATOM     69  O   UNL A   1      42.702  37.408  33.976  1.00  0.00    -0.237 OA
ATOM     70  O   UNL A   1      44.993  36.951  34.767  1.00  0.00    -0.744 OA
ENDBRANCH  66  67
ENDBRANCH  47  61
BRANCH  48  71
ATOM     71  C   UNL A   1      42.447  23.739  27.923  1.00  0.00    -0.014 A 
ATOM     72  C   UNL A   1      42.186  22.619  28.733  1.00  0.00     0.010 A 
ATOM     73  C   UNL A   1      42.542  23.568  26.530  1.00  0.00     0.010 A 
ATOM     74  C   UNL A   1      42.047  21.350  28.164  1.00  0.00     0.020 A 
ATOM     75  C   UNL A   1      42.373  22.305  25.954  1.00  0.00     0.020 A 
ATOM     76  C   UNL A   1      42.142  21.202  26.777  1.00  0.00     0.054 A 
BRANCH  76  77
ATOM     77  S   UNL A   1      41.925  19.550  26.058  1.00  0.00     0.124 S 
ATOM     78  O   UNL A   1      40.493  19.524  25.783  1.00  0.00    -0.237 OA
ATOM     79  O   UNL A   1      42.796  19.600  24.888  1.00  0.00    -0.237 OA
ATOM     80  O   UNL A   1      42.375  18.654  27.123  1.00  0.00    -0.744 OA
ENDBRANCH  76  77
ENDBRANCH  48  71
BRANCH  60  81
ATOM     81  C   UNL A   1      47.801  26.903  31.079  1.00  0.00    -0.014 A 
ATOM     82  C   UNL A   1      48.043  26.082  32.195  1.00  0.00     0.010 A 
ATOM     83  C   UNL A   1      48.877  27.260  30.245  1.00  0.00     0.010 A 
ATOM     84  C   UNL A   1      49.341  25.656  32.489  1.00  0.00     0.020 A 
ATOM     85  C   UNL A   1      50.171  26.810  30.518  1.00  0.00     0.020 A 
ATOM     86  C   UNL A   1      50.396  26.023  31.648  1.00  0.00     0.054 A 
BRANCH  86  87
ATOM     87  S   UNL A   1      52.064  25.421  32.030  1.00  0.00     0.124 S 
ATOM     88  O   UNL A   1      52.814  25.835  30.848  1.00  0.00    -0.237 OA
ATOM     89  O   UNL A   1      52.388  26.136  33.262  1.00  0.00    -0.237 OA
ATOM     90  O   UNL A   1      51.886  23.979  32.182  1.00  0.00    -0.744 OA
ENDBRANCH  86  87
ENDBRANCH  60  81
ENDBRANCH  34  35
ENDBRANCH  26  29
ENDBRANCH  24  25
ENDBRANCH   1  24
TORSDOF 17
ENDMDL
MODEL 2
REMARK VINA RESULT:     -10.3      1.941      3.102
REMARK SMILES [NH3+][C@]1(C(=O)NCCCNC(=O)c2ccc(-c3c4nc(c(-c5ccc(S(=O)(=O)[O-])cc5)c5ccc([nH]5)c(-c5ccc(S(=O)(=O)[O-])cc5)c5nc(c(-c6ccc(S(=O)(=O)[O-])cc6)c6ccc3[nH]6)C=C5)C=C4)cc2)CCC[C@@H]1CCn1cc(I)cn1
REMARK SMILES IDX 7 1 6 2 5 3 3 4 4 5 2 7 72 8 75 9 73 10 74 11 1 12 76 16
REMARK SMILES IDX 77 17 78 18 79 19 83 20 80 21 82 22 81 23 8 24 9 25 10 26
REMARK SMILES IDX 11 28 12 29 13 30 71 31 14 32 70 33 15 34 16 35 17 36 64 37
REMARK SMILES IDX 18 38 69 39 63 40 65 41 19 42 68 43 62 44 61 45 20 47 50 48
REMARK SMILES IDX 31 49 49 50 32 51 35 52 48 53 66 54 33 55 34 56 47 58 67 59
REMARK SMILES IDX 36 60 21 61 22 62 30 63 23 64 29 65 24 66 25 67 26 68 27 69
REMARK SMILES IDX 28 70 51 71 52 72 60 73 53 74 59 75 54 76 55 77 56 78 57 79
REMARK SMILES IDX 58 80 37 81 38 82 46 83 39 84 45 85 40 86 41 87 42 88 43 89
REMARK SMILES IDX 44 90
REMARK H PARENT 5 6 1 13 1 14 1 15 9 27 65 46 35 57
REMARK Flexibility Score: inf
ROOT
ATOM      1  C   UNL A   1      33.865  28.078  25.588  1.00  0.00     0.042 C 
ENDROOT
BRANCH   1   2
ATOM      2  C   UNL A   1      32.780  28.287  24.536  1.00  0.00     0.118 C 
BRANCH   2   3
ATOM      3  N   UNL A   1      33.148  27.679  23.270  1.00  0.00    -0.351 N 
ATOM      4  C   UNL A   1      33.112  26.433  22.742  1.00  0.00     0.281 C 
ATOM      5  O   UNL A   1      33.645  26.341  21.626  1.00  0.00    -0.268 OA
ATOM      6  H   UNL A   1      33.515  28.338  22.637  1.00  0.00     0.163 HD
BRANCH   4   7
ATOM      7  C   UNL A   1      32.444  25.187  23.382  1.00  0.00     0.176 C 
ATOM      8  C   UNL A   1      33.346  24.707  24.539  1.00  0.00     0.079 C 
ATOM      9  C   UNL A   1      31.155  25.581  24.155  1.00  0.00     0.062 C 
ATOM     10  C   UNL A   1      32.426  23.895  25.432  1.00  0.00     0.008 C 
ATOM     11  C   UNL A   1      31.050  24.544  25.293  1.00  0.00     0.011 C 
BRANCH   7  12
ATOM     12  N   UNL A   1      32.178  24.045  22.500  1.00  0.00    -0.345 N 
ATOM     13  H   UNL A   1      33.029  23.801  21.992  1.00  0.00     0.345 HD
ATOM     14  H   UNL A   1      31.444  24.291  21.836  1.00  0.00     0.345 HD
ATOM     15  H   UNL A   1      31.876  23.246  23.060  1.00  0.00     0.345 HD
ENDBRANCH   7  12
BRANCH   9  16
ATOM     16  C   UNL A   1      29.911  25.840  23.266  1.00  0.00     0.034 C 
BRANCH  16  17
ATOM     17  C   UNL A   1      28.953  26.973  23.663  1.00  0.00     0.145 C 
BRANCH  17  18
ATOM     18  N   UNL A   1      29.238  28.281  23.095  1.00  0.00    -0.272 N 
ATOM     19  C   UNL A   1      28.571  29.459  23.304  1.00  0.00     0.123 A 
ATOM     20  N   UNL A   1      30.208  28.386  22.158  1.00  0.00    -0.180 NA
ATOM     21  C   UNL A   1      29.059  30.326  22.363  1.00  0.00     0.051 A 
ATOM     22  C   UNL A   1      30.074  29.633  21.697  1.00  0.00     0.149 A 
ATOM     23  I   UNL A   1      28.388  32.185  22.010  1.00  0.00    -0.041 I 
ENDBRANCH  17  18
ENDBRANCH  16  17
ENDBRANCH   9  16
ENDBRANCH   4   7
ENDBRANCH   2   3
ENDBRANCH   1   2
BRANCH   1  24
ATOM     24  C   UNL A   1      33.400  28.381  27.011  1.00  0.00     0.118 C 
BRANCH  24  25
ATOM     25  N   UNL A   1      33.331  29.814  27.275  1.00  0.00    -0.352 N 
ATOM     26  C   UNL A   1      34.208  30.639  27.927  1.00  0.00     0.251 C 
ATOM     27  H   UNL A   1      32.524  30.259  26.928  1.00  0.00     0.163 HD
ATOM     28  O   UNL A   1      33.836  31.767  28.262  1.00  0.00    -0.269 OA
BRANCH  26  29
ATOM     29  C   UNL A   1      35.580  30.191  28.236  1.00  0.00     0.039 A 
ATOM     30  C   UNL A   1      36.548  30.217  27.228  1.00  0.00     0.014 A 
ATOM     31  C   UNL A   1      35.908  29.709  29.506  1.00  0.00     0.014 A 
ATOM     32  C   UNL A   1      37.857  29.822  27.514  1.00  0.00     0.010 A 
ATOM     33  C   UNL A   1      37.229  29.401  29.813  1.00  0.00     0.010 A 
ATOM     34  C   UNL A   1      38.217  29.446  28.818  1.00  0.00    -0.014 A 
BRANCH  34  35
ATOM     35  C   UNL A   1      39.617  29.091  29.164  1.00  0.00     0.031 A 
ATOM     36  C   UNL A   1      40.518  30.108  29.815  1.00  0.00     0.074 A 
ATOM     37  C   UNL A   1      40.097  27.875  28.833  1.00  0.00     0.049 A 
ATOM     38  N   UNL A   1      41.786  30.007  30.127  1.00  0.00    -0.248 NA
ATOM     39  C   UNL A   1      39.925  31.418  30.134  1.00  0.00     0.031 C 
ATOM     40  C   UNL A   1      39.335  26.816  28.166  1.00  0.00     0.029 A 
ATOM     41  N   UNL A   1      41.342  27.325  29.010  1.00  0.00    -0.354 N 
ATOM     42  C   UNL A   1      42.143  31.239  30.663  1.00  0.00     0.074 A 
ATOM     43  C   UNL A   1      40.976  32.090  30.583  1.00  0.00     0.031 C 
ATOM     44  C   UNL A   1      40.119  25.736  28.019  1.00  0.00     0.029 A 
ATOM     45  C   UNL A   1      41.449  26.038  28.536  1.00  0.00     0.049 A 
ATOM     46  H   UNL A   1      42.088  27.807  29.434  1.00  0.00     0.167 HD
ATOM     47  C   UNL A   1      43.329  31.621  31.194  1.00  0.00     0.031 A 
ATOM     48  C   UNL A   1      42.502  25.198  28.514  1.00  0.00     0.031 A 
ATOM     49  C   UNL A   1      44.484  30.768  31.282  1.00  0.00     0.049 A 
ATOM     50  C   UNL A   1      43.814  25.654  29.092  1.00  0.00     0.074 A 
ATOM     51  C   UNL A   1      45.717  31.046  31.845  1.00  0.00     0.029 A 
ATOM     52  N   UNL A   1      44.549  29.471  30.796  1.00  0.00    -0.354 N 
ATOM     53  N   UNL A   1      44.115  26.804  29.647  1.00  0.00    -0.248 NA
ATOM     54  C   UNL A   1      44.925  24.693  29.054  1.00  0.00     0.031 C 
ATOM     55  C   UNL A   1      46.545  29.936  31.653  1.00  0.00     0.029 A 
ATOM     56  C   UNL A   1      45.808  28.943  31.027  1.00  0.00     0.049 A 
ATOM     57  H   UNL A   1      43.810  28.996  30.353  1.00  0.00     0.167 HD
ATOM     58  C   UNL A   1      45.441  26.694  30.051  1.00  0.00     0.074 A 
ATOM     59  C   UNL A   1      45.877  25.360  29.692  1.00  0.00     0.031 C 
ATOM     60  C   UNL A   1      46.225  27.612  30.667  1.00  0.00     0.031 A 
BRANCH  47  61
ATOM     61  C   UNL A   1      43.434  33.028  31.725  1.00  0.00    -0.014 A 
ATOM     62  C   UNL A   1      43.056  33.336  33.045  1.00  0.00     0.010 A 
ATOM     63  C   UNL A   1      43.964  34.047  30.911  1.00  0.00     0.010 A 
ATOM     64  C   UNL A   1      43.167  34.642  33.528  1.00  0.00     0.020 A 
ATOM     65  C   UNL A   1      44.105  35.349  31.401  1.00  0.00     0.020 A 
ATOM     66  C   UNL A   1      43.691  35.641  32.702  1.00  0.00     0.054 A 
BRANCH  66  67
ATOM     67  S   UNL A   1      43.850  37.321  33.367  1.00  0.00     0.124 S 
ATOM     68  O   UNL A   1      45.155  37.261  34.023  1.00  0.00    -0.237 OA
ATOM     69  O   UNL A   1      43.790  38.147  32.165  1.00  0.00    -0.237 OA
ATOM     70  O   UNL A   1      42.707  37.448  34.267  1.00  0.00    -0.744 OA
ENDBRANCH  66  67
ENDBRANCH  47  61
BRANCH  48  71
ATOM     71  C   UNL A   1      42.357  23.833  27.935  1.00  0.00    -0.014 A 
ATOM     72  C   UNL A   1      42.442  23.635  26.545  1.00  0.00     0.010 A 
ATOM     73  C   UNL A   1      42.129  22.725  28.771  1.00  0.00     0.010 A 
ATOM     74  C   UNL A   1      42.276  22.359  26.000  1.00  0.00     0.020 A 
ATOM     75  C   UNL A   1      41.993  21.442  28.232  1.00  0.00     0.020 A 
ATOM     76  C   UNL A   1      42.053  21.270  26.848  1.00  0.00     0.054 A 
BRANCH  76  77
ATOM     77  S   UNL A   1      41.874  19.618  26.120  1.00  0.00     0.124 S 
ATOM     78  O   UNL A   1      42.237  18.753  27.236  1.00  0.00    -0.237 OA
ATOM     79  O   UNL A   1      40.467  19.597  25.731  1.00  0.00    -0.237 OA
ATOM     80  O   UNL A   1      42.820  19.634  25.005  1.00  0.00    -0.744 OA
ENDBRANCH  76  77
ENDBRANCH  48  71
BRANCH  60  81
ATOM     81  C   UNL A   1      47.625  27.194  31.031  1.00  0.00    -0.014 A 
ATOM     82  C   UNL A   1      47.930  26.683  32.305  1.00  0.00     0.010 A 
ATOM     83  C   UNL A   1      48.642  27.268  30.060  1.00  0.00     0.010 A 
ATOM     84  C   UNL A   1      49.234  26.286  32.612  1.00  0.00     0.020 A 
ATOM     85  C   UNL A   1      49.940  26.843  30.355  1.00  0.00     0.020 A 
ATOM     86  C   UNL A   1      50.231  26.368  31.635  1.00  0.00     0.054 A 
BRANCH  86  87
ATOM     87  S   UNL A   1      51.905  25.808  32.048  1.00  0.00     0.124 S 
ATOM     88  O   UNL A   1      52.695  26.382  30.963  1.00  0.00    -0.237 OA
ATOM     89  O   UNL A   1      52.124  26.398  33.367  1.00  0.00    -0.237 OA
ATOM     90  O   UNL A   1      51.796  24.350  32.036  1.00  0.00    -0.744 OA
ENDBRANCH  86  87
ENDBRANCH  60  81
ENDBRANCH  34  35
ENDBRANCH  26  29
ENDBRANCH  24  25
ENDBRANCH   1  24
TORSDOF 17
ENDMDL
MODEL 3
REMARK VINA RESULT:     -10.2      3.665      6.217
REMARK SMILES [NH3+][C@]1(C(=O)NCCCNC(=O)c2ccc(-c3c4nc(c(-c5ccc(S(=O)(=O)[O-])cc5)c5ccc([nH]5)c(-c5ccc(S(=O)(=O)[O-])cc5)c5nc(c(-c6ccc(S(=O)(=O)[O-])cc6)c6ccc3[nH]6)C=C5)C=C4)cc2)CCC[C@@H]1CCn1cc(I)cn1
REMARK SMILES IDX 7 1 6 2 5 3 3 4 4 5 2 7 72 8 75 9 73 10 74 11 1 12 76 16
REMARK SMILES IDX 77 17 78 18 79 19 83 20 80 21 82 22 81 23 8 24 9 25 10 26
REMARK SMILES IDX 11 28 12 29 13 30 71 31 14 32 70 33 15 34 16 35 17 36 64 37
REMARK SMILES IDX 18 38 69 39 63 40 65 41 19 42 68 43 62 44 61 45 20 47 50 48
REMARK SMILES IDX 31 49 49 50 32 51 35 52 48 53 66 54 33 55 34 56 47 58 67 59
REMARK SMILES IDX 36 60 21 61 22 62 30 63 23 64 29 65 24 66 25 67 26 68 27 69
REMARK SMILES IDX 28 70 51 71 52 72 60 73 53 74 59 75 54 76 55 77 56 78 57 79
REMARK SMILES IDX 58 80 37 81 38 82 46 83 39 84 45 85 40 86 41 87 42 88 43 89
REMARK SMILES IDX 44 90
REMARK H PARENT 5 6 1 13 1 14 1 15 9 27 65 46 35 57
REMARK Flexibility Score: inf
ROOT
ATOM      1  C   UNL A   1      34.677  33.286  29.894  1.00  0.00     0.042 C 
ENDROOT
BRANCH   1   2
ATOM      2  C   UNL A   1      36.011  33.772  30.453  1.00  0.00     0.118 C 
BRANCH   2   3
ATOM      3  N   UNL A   1      35.826  34.537  31.672  1.00  0.00    -0.351 N 
ATOM      4  C   UNL A   1      36.532  34.743  32.809  1.00  0.00     0.281 C 
ATOM      5  O   UNL A   1      35.929  35.408  33.665  1.00  0.00    -0.268 OA
ATOM      6  H   UNL A   1      34.974  35.031  31.672  1.00  0.00     0.163 HD
BRANCH   4   7
ATOM      7  C   UNL A   1      37.984  34.267  33.082  1.00  0.00     0.176 C 
ATOM      8  C   UNL A   1      38.532  35.080  34.274  1.00  0.00     0.079 C 
ATOM      9  C   UNL A   1      37.998  32.830  33.671  1.00  0.00     0.062 C 
ATOM     10  C   UNL A   1      39.665  34.235  34.827  1.00  0.00     0.008 C 
ATOM     11  C   UNL A   1      39.255  32.787  34.564  1.00  0.00     0.011 C 
BRANCH   7  12
ATOM     12  N   UNL A   1      38.940  34.372  31.975  1.00  0.00    -0.345 N 
ATOM     13  H   UNL A   1      38.436  34.527  31.102  1.00  0.00     0.345 HD
ATOM     14  H   UNL A   1      39.479  33.509  31.907  1.00  0.00     0.345 HD
ATOM     15  H   UNL A   1      39.573  35.155  32.145  1.00  0.00     0.345 HD
ENDBRANCH   7  12
BRANCH   9  16
ATOM     16  C   UNL A   1      37.779  31.695  32.637  1.00  0.00     0.034 C 
BRANCH  16  17
ATOM     17  C   UNL A   1      37.402  30.299  33.152  1.00  0.00     0.145 C 
BRANCH  17  18
ATOM     18  N   UNL A   1      38.473  29.316  33.182  1.00  0.00    -0.272 N 
ATOM     19  C   UNL A   1      39.752  29.469  33.646  1.00  0.00     0.123 A 
ATOM     20  N   UNL A   1      38.266  28.113  32.598  1.00  0.00    -0.180 NA
ATOM     21  C   UNL A   1      40.428  28.355  33.224  1.00  0.00     0.051 A 
ATOM     22  C   UNL A   1      39.475  27.542  32.605  1.00  0.00     0.149 A 
ATOM     23  I   UNL A   1      42.398  28.023  33.428  1.00  0.00    -0.041 I 
ENDBRANCH  17  18
ENDBRANCH  16  17
ENDBRANCH   9  16
ENDBRANCH   4   7
ENDBRANCH   2   3
ENDBRANCH   1   2
BRANCH   1  24
ATOM     24  C   UNL A   1      34.717  32.983  28.398  1.00  0.00     0.118 C 
BRANCH  24  25
ATOM     25  N   UNL A   1      33.923  31.809  28.052  1.00  0.00    -0.352 N 
ATOM     26  C   UNL A   1      34.311  30.522  27.789  1.00  0.00     0.251 C 
ATOM     27  H   UNL A   1      32.953  31.968  28.000  1.00  0.00     0.163 HD
ATOM     28  O   UNL A   1      33.505  29.747  27.267  1.00  0.00    -0.269 OA
BRANCH  26  29
ATOM     29  C   UNL A   1      35.675  30.061  28.115  1.00  0.00     0.039 A 
ATOM     30  C   UNL A   1      36.657  30.081  27.121  1.00  0.00     0.014 A 
ATOM     31  C   UNL A   1      35.980  29.573  29.388  1.00  0.00     0.014 A 
ATOM     32  C   UNL A   1      37.958  29.672  27.424  1.00  0.00     0.010 A 
ATOM     33  C   UNL A   1      37.294  29.251  29.713  1.00  0.00     0.010 A 
ATOM     34  C   UNL A   1      38.297  29.290  28.732  1.00  0.00    -0.014 A 
BRANCH  34  35
ATOM     35  C   UNL A   1      39.688  28.921  29.096  1.00  0.00     0.031 A 
ATOM     36  C   UNL A   1      40.585  29.922  29.775  1.00  0.00     0.074 A 
ATOM     37  C   UNL A   1      40.165  27.706  28.757  1.00  0.00     0.049 A 
ATOM     38  N   UNL A   1      41.846  29.809  30.106  1.00  0.00    -0.248 NA
ATOM     39  C   UNL A   1      39.996  31.233  30.101  1.00  0.00     0.031 C 
ATOM     40  C   UNL A   1      39.407  26.660  28.064  1.00  0.00     0.029 A 
ATOM     41  N   UNL A   1      41.403  27.145  28.948  1.00  0.00    -0.354 N 
ATOM     42  C   UNL A   1      42.203  31.032  30.664  1.00  0.00     0.074 A 
ATOM     43  C   UNL A   1      41.043  31.892  30.576  1.00  0.00     0.031 C 
ATOM     44  C   UNL A   1      40.186  25.577  27.916  1.00  0.00     0.029 A 
ATOM     45  C   UNL A   1      41.510  25.864  28.459  1.00  0.00     0.049 A 
ATOM     46  H   UNL A   1      42.145  27.616  29.390  1.00  0.00     0.167 HD
ATOM     47  C   UNL A   1      43.382  31.399  31.220  1.00  0.00     0.031 A 
ATOM     48  C   UNL A   1      42.558  25.016  28.443  1.00  0.00     0.031 A 
ATOM     49  C   UNL A   1      44.530  30.537  31.316  1.00  0.00     0.049 A 
ATOM     50  C   UNL A   1      43.862  25.456  29.049  1.00  0.00     0.074 A 
ATOM     51  C   UNL A   1      45.756  30.799  31.902  1.00  0.00     0.029 A 
ATOM     52  N   UNL A   1      44.595  29.246  30.814  1.00  0.00    -0.354 N 
ATOM     53  N   UNL A   1      44.161  26.597  29.623  1.00  0.00    -0.248 NA
ATOM     54  C   UNL A   1      44.967  24.488  29.017  1.00  0.00     0.031 C 
ATOM     55  C   UNL A   1      46.579  29.686  31.709  1.00  0.00     0.029 A 
ATOM     56  C   UNL A   1      45.846  28.706  31.059  1.00  0.00     0.049 A 
ATOM     57  H   UNL A   1      43.859  28.782  30.353  1.00  0.00     0.167 HD
ATOM     58  C   UNL A   1      45.480  26.472  30.048  1.00  0.00     0.074 A 
ATOM     59  C   UNL A   1      45.913  25.140  29.679  1.00  0.00     0.031 C 
ATOM     60  C   UNL A   1      46.260  27.377  30.688  1.00  0.00     0.031 A 
BRANCH  47  61
ATOM     61  C   UNL A   1      43.488  32.798  31.770  1.00  0.00    -0.014 A 
ATOM     62  C   UNL A   1      43.885  33.871  30.951  1.00  0.00     0.010 A 
ATOM     63  C   UNL A   1      43.141  33.053  33.109  1.00  0.00     0.010 A 
ATOM     64  C   UNL A   1      43.972  35.165  31.471  1.00  0.00     0.020 A 
ATOM     65  C   UNL A   1      43.197  34.352  33.625  1.00  0.00     0.020 A 
ATOM     66  C   UNL A   1      43.627  35.398  32.806  1.00  0.00     0.054 A 
BRANCH  66  67
ATOM     67  S   UNL A   1      43.720  37.093  33.443  1.00  0.00     0.124 S 
ATOM     68  O   UNL A   1      43.830  37.871  32.211  1.00  0.00    -0.237 OA
ATOM     69  O   UNL A   1      42.458  37.233  34.164  1.00  0.00    -0.237 OA
ATOM     70  O   UNL A   1      44.916  37.083  34.281  1.00  0.00    -0.744 OA
ENDBRANCH  66  67
ENDBRANCH  47  61
BRANCH  48  71
ATOM     71  C   UNL A   1      42.413  23.660  27.845  1.00  0.00    -0.014 A 
ATOM     72  C   UNL A   1      42.242  22.533  28.667  1.00  0.00     0.010 A 
ATOM     73  C   UNL A   1      42.448  23.489  26.448  1.00  0.00     0.010 A 
ATOM     74  C   UNL A   1      42.135  21.256  28.107  1.00  0.00     0.020 A 
ATOM     75  C   UNL A   1      42.312  22.218  25.883  1.00  0.00     0.020 A 
ATOM     76  C   UNL A   1      42.171  21.108  26.717  1.00  0.00     0.054 A 
BRANCH  76  77
ATOM     77  S   UNL A   1      41.997  19.445  26.012  1.00  0.00     0.124 S 
ATOM     78  O   UNL A   1      42.476  18.602  27.101  1.00  0.00    -0.237 OA
ATOM     79  O   UNL A   1      40.565  19.371  25.733  1.00  0.00    -0.237 OA
ATOM     80  O   UNL A   1      42.852  19.487  24.827  1.00  0.00    -0.744 OA
ENDBRANCH  76  77
ENDBRANCH  48  71
BRANCH  60  81
ATOM     81  C   UNL A   1      47.651  26.945  31.070  1.00  0.00    -0.014 A 
ATOM     82  C   UNL A   1      47.924  26.376  32.327  1.00  0.00     0.010 A 
ATOM     83  C   UNL A   1      48.694  27.064  30.131  1.00  0.00     0.010 A 
ATOM     84  C   UNL A   1      49.220  25.967  32.650  1.00  0.00     0.020 A 
ATOM     85  C   UNL A   1      49.984  26.628  30.440  1.00  0.00     0.020 A 
ATOM     86  C   UNL A   1      50.242  26.096  31.705  1.00  0.00     0.054 A 
BRANCH  86  87
ATOM     87  S   UNL A   1      51.906  25.519  32.136  1.00  0.00     0.124 S 
ATOM     88  O   UNL A   1      52.107  26.124  33.449  1.00  0.00    -0.237 OA
ATOM     89  O   UNL A   1      51.754  24.066  32.129  1.00  0.00    -0.237 OA
ATOM     90  O   UNL A   1      52.747  26.056  31.068  1.00  0.00    -0.744 OA
ENDBRANCH  86  87
ENDBRANCH  60  81
ENDBRANCH  34  35
ENDBRANCH  26  29
ENDBRANCH  24  25
ENDBRANCH   1  24
TORSDOF 17
ENDMDL
