MODEL 1
REMARK VINA RESULT:     -11.7      0.000      0.000
REMARK SMILES Cc1cc(C)c2c(c1)C=C(C(=O)NCCCNC(=O)c1ccc(-c3c4nc(c(-c5ccc(S(=O)(=O)[O-])cc5)c5ccc([nH]5)c(-c5ccc(S(=O)(=O)[O-])cc5)c5nc(c(-c6ccc(S(=O)(=O)[O-])cc6)c6ccc3[nH]6)C=C5)C=C4)cc1)[C@@H](C(F)(F)F)O2
REMARK SMILES IDX 16 1 15 2 14 3 13 4 11 5 12 6 10 8 1 9 2 10 3 11 8 12 4 13
REMARK SMILES IDX 7 14 5 15 6 16 9 17 85 18 80 19 81 20 82 21 83 22 84 23
REMARK SMILES IDX 17 24 18 25 19 27 20 28 21 29 79 30 22 31 78 32 23 33 24 34
REMARK SMILES IDX 25 35 72 36 26 37 77 38 71 39 73 40 27 41 76 42 70 43 69 44
REMARK SMILES IDX 28 46 58 47 39 48 57 49 40 50 43 51 56 52 74 53 41 54 42 55
REMARK SMILES IDX 55 57 75 58 44 59 29 60 30 61 38 62 31 63 37 64 32 65 33 66
REMARK SMILES IDX 34 67 35 68 36 69 59 70 60 71 68 72 61 73 67 74 62 75 63 76
REMARK SMILES IDX 64 77 65 78 66 79 45 80 46 81 54 82 47 83 53 84 48 85 49 86
REMARK SMILES IDX 50 87 51 88 52 89
REMARK H PARENT 13 7 17 26 73 45 43 56
REMARK Flexibility Score: inf
ROOT
ATOM      1  C   UNL A   1      36.329  23.676  25.899  1.00  0.00     0.118 C 
ENDROOT
BRANCH   1   2
ATOM      2  C   UNL A   1      35.108  23.249  26.702  1.00  0.00     0.042 C 
BRANCH   2   3
ATOM      3  C   UNL A   1      33.918  22.943  25.806  1.00  0.00     0.118 C 
BRANCH   3   4
ATOM      4  N   UNL A   1      34.197  23.236  24.408  1.00  0.00    -0.352 N 
ATOM      5  C   UNL A   1      34.004  24.266  23.553  1.00  0.00     0.251 C 
ATOM      6  O   UNL A   1      34.432  24.090  22.407  1.00  0.00    -0.270 OA
ATOM      7  H   UNL A   1      34.649  22.481  23.967  1.00  0.00     0.163 HD
BRANCH   5   8
ATOM      8  C   UNL A   1      33.336  25.552  23.902  1.00  0.00     0.067 C 
ATOM      9  C   UNL A   1      33.995  30.564  27.471  1.00  0.00     0.044 C 
ATOM     10  C   UNL A   1      33.398  29.687  26.412  1.00  0.00    -0.050 A 
ATOM     11  C   UNL A   1      32.222  30.090  25.762  1.00  0.00     0.010 A 
ATOM     12  C   UNL A   1      33.995  28.468  26.063  1.00  0.00     0.015 A 
ATOM     13  C   UNL A   1      31.643  29.294  24.766  1.00  0.00    -0.008 A 
ATOM     14  C   UNL A   1      33.422  27.657  25.078  1.00  0.00     0.018 A 
ATOM     15  C   UNL A   1      30.382  29.724  24.073  1.00  0.00     0.048 C 
ATOM     16  C   UNL A   1      32.251  28.077  24.442  1.00  0.00     0.130 A 
ATOM     17  C   UNL A   1      34.040  26.396  24.681  1.00  0.00     0.025 C 
ATOM     18  O   UNL A   1      31.670  27.342  23.447  1.00  0.00    -0.475 OA
ATOM     19  C   UNL A   1      31.949  25.920  23.464  1.00  0.00     0.314 C 
BRANCH  19  20
ATOM     20  C   UNL A   1      30.860  25.194  24.279  1.00  0.00     0.429 C 
ATOM     21  F   UNL A   1      29.742  25.957  24.366  1.00  0.00    -0.167 F 
ATOM     22  F   UNL A   1      30.480  24.022  23.714  1.00  0.00    -0.167 F 
ATOM     23  F   UNL A   1      31.251  24.904  25.541  1.00  0.00    -0.167 F 
ENDBRANCH  19  20
ENDBRANCH   5   8
ENDBRANCH   3   4
ENDBRANCH   2   3
ENDBRANCH   1   2
BRANCH   1  24
ATOM     24  N   UNL A   1      37.397  22.680  25.975  1.00  0.00    -0.352 N 
ATOM     25  C   UNL A   1      38.735  22.837  26.234  1.00  0.00     0.251 C 
ATOM     26  H   UNL A   1      37.112  21.752  25.815  1.00  0.00     0.163 HD
ATOM     27  O   UNL A   1      39.518  21.930  25.959  1.00  0.00    -0.269 OA
BRANCH  25  28
ATOM     28  C   UNL A   1      39.226  24.087  26.842  1.00  0.00     0.039 A 
ATOM     29  C   UNL A   1      39.947  24.996  26.064  1.00  0.00     0.014 A 
ATOM     30  C   UNL A   1      38.995  24.345  28.194  1.00  0.00     0.014 A 
ATOM     31  C   UNL A   1      40.384  26.193  26.635  1.00  0.00     0.010 A 
ATOM     32  C   UNL A   1      39.336  25.578  28.731  1.00  0.00     0.010 A 
ATOM     33  C   UNL A   1      40.055  26.504  27.964  1.00  0.00    -0.014 A 
BRANCH  33  34
ATOM     34  C   UNL A   1      40.485  27.774  28.593  1.00  0.00     0.031 A 
ATOM     35  C   UNL A   1      41.887  27.905  29.121  1.00  0.00     0.074 A 
ATOM     36  C   UNL A   1      39.601  28.778  28.741  1.00  0.00     0.049 A 
ATOM     37  N   UNL A   1      42.439  28.909  29.752  1.00  0.00    -0.248 NA
ATOM     38  C   UNL A   1      42.779  26.746  28.948  1.00  0.00     0.031 C 
ATOM     39  C   UNL A   1      38.203  28.746  28.302  1.00  0.00     0.029 A 
ATOM     40  N   UNL A   1      39.745  30.021  29.301  1.00  0.00    -0.354 N 
ATOM     41  C   UNL A   1      43.730  28.496  30.060  1.00  0.00     0.074 A 
ATOM     42  C   UNL A   1      43.858  27.130  29.610  1.00  0.00     0.031 C 
ATOM     43  C   UNL A   1      37.633  29.932  28.572  1.00  0.00     0.029 A 
ATOM     44  C   UNL A   1      38.607  30.788  29.240  1.00  0.00     0.049 A 
ATOM     45  H   UNL A   1      40.585  30.333  29.709  1.00  0.00     0.167 HD
ATOM     46  C   UNL A   1      44.729  29.202  30.639  1.00  0.00     0.031 A 
ATOM     47  C   UNL A   1      38.375  32.042  29.672  1.00  0.00     0.031 A 
ATOM     48  C   UNL A   1      44.594  30.566  31.071  1.00  0.00     0.049 A 
ATOM     49  C   UNL A   1      39.492  32.804  30.330  1.00  0.00     0.074 A 
ATOM     50  C   UNL A   1      45.558  31.392  31.622  1.00  0.00     0.029 A 
ATOM     51  N   UNL A   1      43.422  31.304  31.002  1.00  0.00    -0.354 N 
ATOM     52  N   UNL A   1      40.725  32.418  30.559  1.00  0.00    -0.248 NA
ATOM     53  C   UNL A   1      39.190  34.169  30.780  1.00  0.00     0.031 C 
ATOM     54  C   UNL A   1      44.952  32.612  31.939  1.00  0.00     0.029 A 
ATOM     55  C   UNL A   1      43.628  32.567  31.528  1.00  0.00     0.049 A 
ATOM     56  H   UNL A   1      42.570  30.978  30.632  1.00  0.00     0.167 HD
ATOM     57  C   UNL A   1      41.353  33.498  31.169  1.00  0.00     0.074 A 
ATOM     58  C   UNL A   1      40.367  34.558  31.255  1.00  0.00     0.031 C 
ATOM     59  C   UNL A   1      42.628  33.602  31.617  1.00  0.00     0.031 A 
BRANCH  46  60
ATOM     60  C   UNL A   1      46.048  28.502  30.834  1.00  0.00    -0.014 A 
ATOM     61  C   UNL A   1      46.306  27.747  31.994  1.00  0.00     0.010 A 
ATOM     62  C   UNL A   1      47.039  28.584  29.839  1.00  0.00     0.010 A 
ATOM     63  C   UNL A   1      47.545  27.131  32.179  1.00  0.00     0.020 A 
ATOM     64  C   UNL A   1      48.270  27.942  30.005  1.00  0.00     0.020 A 
ATOM     65  C   UNL A   1      48.522  27.236  31.183  1.00  0.00     0.054 A 
BRANCH  65  66
ATOM     66  S   UNL A   1      50.119  26.418  31.449  1.00  0.00     0.124 S 
ATOM     67  O   UNL A   1      51.041  27.336  30.784  1.00  0.00    -0.237 OA
ATOM     68  O   UNL A   1      50.216  26.376  32.906  1.00  0.00    -0.237 OA
ATOM     69  O   UNL A   1      49.958  25.120  30.799  1.00  0.00    -0.744 OA
ENDBRANCH  65  66
ENDBRANCH  46  60
BRANCH  47  70
ATOM     70  C   UNL A   1      37.037  32.656  29.453  1.00  0.00    -0.014 A 
ATOM     71  C   UNL A   1      36.094  32.692  30.494  1.00  0.00     0.010 A 
ATOM     72  C   UNL A   1      36.724  33.270  28.225  1.00  0.00     0.010 A 
ATOM     73  C   UNL A   1      34.868  33.339  30.318  1.00  0.00     0.020 A 
ATOM     74  C   UNL A   1      35.509  33.939  28.053  1.00  0.00     0.020 A 
ATOM     75  C   UNL A   1      34.587  33.969  29.102  1.00  0.00     0.054 A 
BRANCH  75  76
ATOM     76  S   UNL A   1      33.028  34.882  28.933  1.00  0.00     0.124 S 
ATOM     77  O   UNL A   1      32.495  34.830  30.291  1.00  0.00    -0.237 OA
ATOM     78  O   UNL A   1      33.483  36.194  28.481  1.00  0.00    -0.237 OA
ATOM     79  O   UNL A   1      32.285  34.111  27.938  1.00  0.00    -0.744 OA
ENDBRANCH  75  76
ENDBRANCH  47  70
BRANCH  59  80
ATOM     80  C   UNL A   1      43.040  34.908  32.244  1.00  0.00    -0.014 A 
ATOM     81  C   UNL A   1      43.636  35.922  31.474  1.00  0.00     0.010 A 
ATOM     82  C   UNL A   1      42.746  35.154  33.597  1.00  0.00     0.010 A 
ATOM     83  C   UNL A   1      43.947  37.154  32.053  1.00  0.00     0.020 A 
ATOM     84  C   UNL A   1      43.030  36.395  34.171  1.00  0.00     0.020 A 
ATOM     85  C   UNL A   1      43.637  37.385  33.396  1.00  0.00     0.054 A 
BRANCH  85  86
ATOM     86  S   UNL A   1      43.997  39.017  34.102  1.00  0.00     0.124 S 
ATOM     87  O   UNL A   1      44.080  38.718  35.529  1.00  0.00    -0.237 OA
ATOM     88  O   UNL A   1      45.261  39.369  33.459  1.00  0.00    -0.237 OA
ATOM     89  O   UNL A   1      42.852  39.829  33.702  1.00  0.00    -0.744 OA
ENDBRANCH  85  86
ENDBRANCH  59  80
ENDBRANCH  33  34
ENDBRANCH  25  28
ENDBRANCH   1  24
TORSDOF 14
ENDMDL
MODEL 2
REMARK VINA RESULT:     -11.7      2.693      9.351
REMARK SMILES Cc1cc(C)c2c(c1)C=C(C(=O)NCCCNC(=O)c1ccc(-c3c4nc(c(-c5ccc(S(=O)(=O)[O-])cc5)c5ccc([nH]5)c(-c5ccc(S(=O)(=O)[O-])cc5)c5nc(c(-c6ccc(S(=O)(=O)[O-])cc6)c6ccc3[nH]6)C=C5)C=C4)cc1)[C@@H](C(F)(F)F)O2
REMARK SMILES IDX 16 1 15 2 14 3 13 4 11 5 12 6 10 8 1 9 2 10 3 11 8 12 4 13
REMARK SMILES IDX 7 14 5 15 6 16 9 17 85 18 80 19 81 20 82 21 83 22 84 23
REMARK SMILES IDX 17 24 18 25 19 27 20 28 21 29 79 30 22 31 78 32 23 33 24 34
REMARK SMILES IDX 25 35 72 36 26 37 77 38 71 39 73 40 27 41 76 42 70 43 69 44
REMARK SMILES IDX 28 46 58 47 39 48 57 49 40 50 43 51 56 52 74 53 41 54 42 55
REMARK SMILES IDX 55 57 75 58 44 59 29 60 30 61 38 62 31 63 37 64 32 65 33 66
REMARK SMILES IDX 34 67 35 68 36 69 59 70 60 71 68 72 61 73 67 74 62 75 63 76
REMARK SMILES IDX 64 77 65 78 66 79 45 80 46 81 54 82 47 83 53 84 48 85 49 86
REMARK SMILES IDX 50 87 51 88 52 89
REMARK H PARENT 13 7 17 26 73 45 43 56
REMARK Flexibility Score: inf
ROOT
ATOM      1  C   UNL A   1      33.677  28.211  26.877  1.00  0.00     0.118 C 
ENDROOT
BRANCH   1   2
ATOM      2  C   UNL A   1      34.008  27.815  25.445  1.00  0.00     0.042 C 
BRANCH   2   3
ATOM      3  C   UNL A   1      32.783  27.320  24.693  1.00  0.00     0.118 C 
BRANCH   3   4
ATOM      4  N   UNL A   1      31.833  26.657  25.575  1.00  0.00    -0.352 N 
ATOM      5  C   UNL A   1      31.636  25.412  26.064  1.00  0.00     0.251 C 
ATOM      6  O   UNL A   1      30.673  25.290  26.829  1.00  0.00    -0.270 OA
ATOM      7  H   UNL A   1      31.150  27.286  25.903  1.00  0.00     0.163 HD
BRANCH   5   8
ATOM      8  C   UNL A   1      32.485  24.227  25.750  1.00  0.00     0.067 C 
ATOM      9  C   UNL A   1      38.360  22.287  25.856  1.00  0.00     0.044 C 
ATOM     10  C   UNL A   1      36.872  22.190  25.700  1.00  0.00    -0.050 A 
ATOM     11  C   UNL A   1      36.299  20.985  25.266  1.00  0.00     0.010 A 
ATOM     12  C   UNL A   1      36.044  23.285  25.980  1.00  0.00     0.015 A 
ATOM     13  C   UNL A   1      34.913  20.863  25.115  1.00  0.00    -0.008 A 
ATOM     14  C   UNL A   1      34.658  23.181  25.823  1.00  0.00     0.018 A 
ATOM     15  C   UNL A   1      34.299  19.575  24.646  1.00  0.00     0.048 C 
ATOM     16  C   UNL A   1      34.107  21.973  25.390  1.00  0.00     0.130 A 
ATOM     17  C   UNL A   1      33.774  24.301  26.132  1.00  0.00     0.025 C 
ATOM     18  O   UNL A   1      32.757  21.805  25.255  1.00  0.00    -0.475 OA
ATOM     19  C   UNL A   1      31.988  23.011  25.024  1.00  0.00     0.314 C 
BRANCH  19  20
ATOM     20  C   UNL A   1      31.847  23.246  23.507  1.00  0.00     0.429 C 
ATOM     21  F   UNL A   1      32.189  22.129  22.818  1.00  0.00    -0.167 F 
ATOM     22  F   UNL A   1      30.576  23.545  23.142  1.00  0.00    -0.167 F 
ATOM     23  F   UNL A   1      32.626  24.254  23.054  1.00  0.00    -0.167 F 
ENDBRANCH  19  20
ENDBRANCH   5   8
ENDBRANCH   3   4
ENDBRANCH   2   3
ENDBRANCH   1   2
BRANCH   1  24
ATOM     24  N   UNL A   1      33.566  29.661  27.022  1.00  0.00    -0.352 N 
ATOM     25  C   UNL A   1      34.362  30.544  27.707  1.00  0.00     0.251 C 
ATOM     26  H   UNL A   1      32.802  30.069  26.555  1.00  0.00     0.163 HD
ATOM     27  O   UNL A   1      33.942  31.672  27.959  1.00  0.00    -0.269 OA
BRANCH  25  28
ATOM     28  C   UNL A   1      35.714  30.139  28.135  1.00  0.00     0.039 A 
ATOM     29  C   UNL A   1      35.919  29.691  29.441  1.00  0.00     0.014 A 
ATOM     30  C   UNL A   1      36.786  30.232  27.245  1.00  0.00     0.014 A 
ATOM     31  C   UNL A   1      37.194  29.279  29.833  1.00  0.00     0.010 A 
ATOM     32  C   UNL A   1      38.027  29.724  27.601  1.00  0.00     0.010 A 
ATOM     33  C   UNL A   1      38.248  29.265  28.906  1.00  0.00    -0.014 A 
BRANCH  33  34
ATOM     34  C   UNL A   1      39.608  28.815  29.285  1.00  0.00     0.031 A 
ATOM     35  C   UNL A   1      40.510  29.738  30.057  1.00  0.00     0.074 A 
ATOM     36  C   UNL A   1      40.047  27.608  28.882  1.00  0.00     0.049 A 
ATOM     37  N   UNL A   1      41.748  29.554  30.434  1.00  0.00    -0.248 NA
ATOM     38  C   UNL A   1      39.961  31.054  30.427  1.00  0.00     0.031 C 
ATOM     39  C   UNL A   1      39.272  26.645  28.094  1.00  0.00     0.029 A 
ATOM     40  N   UNL A   1      41.250  26.982  29.080  1.00  0.00    -0.354 N 
ATOM     41  C   UNL A   1      42.126  30.730  31.070  1.00  0.00     0.074 A 
ATOM     42  C   UNL A   1      41.015  31.646  30.968  1.00  0.00     0.031 C 
ATOM     43  C   UNL A   1      40.006  25.535  27.914  1.00  0.00     0.029 A 
ATOM     44  C   UNL A   1      41.315  25.724  28.532  1.00  0.00     0.049 A 
ATOM     45  H   UNL A   1      41.998  27.397  29.568  1.00  0.00     0.167 HD
ATOM     46  C   UNL A   1      43.287  31.013  31.708  1.00  0.00     0.031 A 
ATOM     47  C   UNL A   1      42.315  24.822  28.530  1.00  0.00     0.031 A 
ATOM     48  C   UNL A   1      44.383  30.090  31.815  1.00  0.00     0.049 A 
ATOM     49  C   UNL A   1      43.602  25.161  29.228  1.00  0.00     0.074 A 
ATOM     50  C   UNL A   1      45.583  30.255  32.484  1.00  0.00     0.029 A 
ATOM     51  N   UNL A   1      44.413  28.830  31.237  1.00  0.00    -0.354 N 
ATOM     52  N   UNL A   1      43.921  26.257  29.877  1.00  0.00    -0.248 NA
ATOM     53  C   UNL A   1      44.660  24.143  29.201  1.00  0.00     0.031 C 
ATOM     54  C   UNL A   1      46.361  29.114  32.261  1.00  0.00     0.029 A 
ATOM     55  C   UNL A   1      45.622  28.215  31.507  1.00  0.00     0.049 A 
ATOM     56  H   UNL A   1      43.681  28.430  30.714  1.00  0.00     0.167 HD
ATOM     57  C   UNL A   1      45.213  26.056  30.348  1.00  0.00     0.074 A 
ATOM     58  C   UNL A   1      45.608  24.726  29.926  1.00  0.00     0.031 C 
ATOM     59  C   UNL A   1      46.000  26.896  31.064  1.00  0.00     0.031 A 
BRANCH  46  60
ATOM     60  C   UNL A   1      43.418  32.377  32.334  1.00  0.00    -0.014 A 
ATOM     61  C   UNL A   1      43.942  33.463  31.608  1.00  0.00     0.010 A 
ATOM     62  C   UNL A   1      42.997  32.583  33.660  1.00  0.00     0.010 A 
ATOM     63  C   UNL A   1      44.091  34.714  32.210  1.00  0.00     0.020 A 
ATOM     64  C   UNL A   1      43.113  33.842  34.257  1.00  0.00     0.020 A 
ATOM     65  C   UNL A   1      43.678  34.894  33.534  1.00  0.00     0.054 A 
BRANCH  65  66
ATOM     66  S   UNL A   1      43.877  36.533  34.286  1.00  0.00     0.124 S 
ATOM     67  O   UNL A   1      44.796  37.182  33.353  1.00  0.00    -0.237 OA
ATOM     68  O   UNL A   1      42.511  37.051  34.286  1.00  0.00    -0.237 OA
ATOM     69  O   UNL A   1      44.432  36.244  35.605  1.00  0.00    -0.744 OA
ENDBRANCH  65  66
ENDBRANCH  46  60
BRANCH  47  70
ATOM     70  C   UNL A   1      42.107  23.502  27.875  1.00  0.00    -0.014 A 
ATOM     71  C   UNL A   1      42.589  23.272  26.575  1.00  0.00     0.010 A 
ATOM     72  C   UNL A   1      41.492  22.446  28.574  1.00  0.00     0.010 A 
ATOM     73  C   UNL A   1      42.469  22.009  25.988  1.00  0.00     0.020 A 
ATOM     74  C   UNL A   1      41.392  21.175  27.999  1.00  0.00     0.020 A 
ATOM     75  C   UNL A   1      41.881  20.965  26.708  1.00  0.00     0.054 A 
BRANCH  75  76
ATOM     76  S   UNL A   1      41.824  19.313  25.958  1.00  0.00     0.124 S 
ATOM     77  O   UNL A   1      42.750  19.454  24.839  1.00  0.00    -0.237 OA
ATOM     78  O   UNL A   1      42.278  18.459  27.052  1.00  0.00    -0.237 OA
ATOM     79  O   UNL A   1      40.418  19.151  25.593  1.00  0.00    -0.744 OA
ENDBRANCH  75  76
ENDBRANCH  47  70
BRANCH  59  80
ATOM     80  C   UNL A   1      47.374  26.407  31.442  1.00  0.00    -0.014 A 
ATOM     81  C   UNL A   1      47.602  25.782  32.680  1.00  0.00     0.010 A 
ATOM     82  C   UNL A   1      48.425  26.497  30.512  1.00  0.00     0.010 A 
ATOM     83  C   UNL A   1      48.865  25.270  32.988  1.00  0.00     0.020 A 
ATOM     84  C   UNL A   1      49.681  25.961  30.805  1.00  0.00     0.020 A 
ATOM     85  C   UNL A   1      49.894  25.358  32.046  1.00  0.00     0.054 A 
BRANCH  85  86
ATOM     86  S   UNL A   1      51.505  24.629  32.451  1.00  0.00     0.124 S 
ATOM     87  O   UNL A   1      51.591  24.862  33.890  1.00  0.00    -0.237 OA
ATOM     88  O   UNL A   1      51.333  23.235  32.049  1.00  0.00    -0.237 OA
ATOM     89  O   UNL A   1      52.447  25.395  31.639  1.00  0.00    -0.744 OA
ENDBRANCH  85  86
ENDBRANCH  59  80
ENDBRANCH  33  34
ENDBRANCH  25  28
ENDBRANCH   1  24
TORSDOF 14
ENDMDL
MODEL 3
REMARK VINA RESULT:     -11.3      4.194     10.728
REMARK SMILES Cc1cc(C)c2c(c1)C=C(C(=O)NCCCNC(=O)c1ccc(-c3c4nc(c(-c5ccc(S(=O)(=O)[O-])cc5)c5ccc([nH]5)c(-c5ccc(S(=O)(=O)[O-])cc5)c5nc(c(-c6ccc(S(=O)(=O)[O-])cc6)c6ccc3[nH]6)C=C5)C=C4)cc1)[C@@H](C(F)(F)F)O2
REMARK SMILES IDX 16 1 15 2 14 3 13 4 11 5 12 6 10 8 1 9 2 10 3 11 8 12 4 13
REMARK SMILES IDX 7 14 5 15 6 16 9 17 85 18 80 19 81 20 82 21 83 22 84 23
REMARK SMILES IDX 17 24 18 25 19 27 20 28 21 29 79 30 22 31 78 32 23 33 24 34
REMARK SMILES IDX 25 35 72 36 26 37 77 38 71 39 73 40 27 41 76 42 70 43 69 44
REMARK SMILES IDX 28 46 58 47 39 48 57 49 40 50 43 51 56 52 74 53 41 54 42 55
REMARK SMILES IDX 55 57 75 58 44 59 29 60 30 61 38 62 31 63 37 64 32 65 33 66
REMARK SMILES IDX 34 67 35 68 36 69 59 70 60 71 68 72 61 73 67 74 62 75 63 76
REMARK SMILES IDX 64 77 65 78 66 79 45 80 46 81 54 82 47 83 53 84 48 85 49 86
REMARK SMILES IDX 50 87 51 88 52 89
REMARK H PARENT 13 7 17 26 73 45 43 56
REMARK Flexibility Score: inf
ROOT
ATOM      1  C   UNL A   1      34.178  32.364  28.694  1.00  0.00     0.118 C 
ENDROOT
BRANCH   1   2
ATOM      2  C   UNL A   1      35.069  33.345  27.944  1.00  0.00     0.042 C 
BRANCH   2   3
ATOM      3  C   UNL A   1      35.275  34.635  28.721  1.00  0.00     0.118 C 
BRANCH   3   4
ATOM      4  N   UNL A   1      34.319  34.775  29.810  1.00  0.00    -0.352 N 
ATOM      5  C   UNL A   1      34.264  34.470  31.127  1.00  0.00     0.251 C 
ATOM      6  O   UNL A   1      33.220  34.796  31.702  1.00  0.00    -0.270 OA
ATOM      7  H   UNL A   1      33.489  35.207  29.505  1.00  0.00     0.163 HD
BRANCH   5   8
ATOM      8  C   UNL A   1      35.351  33.797  31.894  1.00  0.00     0.067 C 
ATOM      9  C   UNL A   1      37.979  28.265  32.772  1.00  0.00     0.044 C 
ATOM     10  C   UNL A   1      37.806  29.749  32.886  1.00  0.00    -0.050 A 
ATOM     11  C   UNL A   1      38.671  30.485  33.710  1.00  0.00     0.010 A 
ATOM     12  C   UNL A   1      36.790  30.414  32.185  1.00  0.00     0.015 A 
ATOM     13  C   UNL A   1      38.536  31.872  33.834  1.00  0.00    -0.008 A 
ATOM     14  C   UNL A   1      36.637  31.798  32.308  1.00  0.00     0.018 A 
ATOM     15  C   UNL A   1      39.460  32.660  34.719  1.00  0.00     0.048 C 
ATOM     16  C   UNL A   1      37.509  32.513  33.133  1.00  0.00     0.130 A 
ATOM     17  C   UNL A   1      35.603  32.515  31.569  1.00  0.00     0.025 C 
ATOM     18  O   UNL A   1      37.427  33.871  33.261  1.00  0.00    -0.475 OA
ATOM     19  C   UNL A   1      36.129  34.456  32.996  1.00  0.00     0.314 C 
BRANCH  19  20
ATOM     20  C   UNL A   1      35.329  34.547  34.311  1.00  0.00     0.429 C 
ATOM     21  F   UNL A   1      36.160  34.468  35.380  1.00  0.00    -0.167 F 
ATOM     22  F   UNL A   1      34.657  35.718  34.433  1.00  0.00    -0.167 F 
ATOM     23  F   UNL A   1      34.412  33.561  34.439  1.00  0.00    -0.167 F 
ENDBRANCH  19  20
ENDBRANCH   5   8
ENDBRANCH   3   4
ENDBRANCH   2   3
ENDBRANCH   1   2
BRANCH   1  24
ATOM     24  N   UNL A   1      33.697  31.297  27.818  1.00  0.00    -0.352 N 
ATOM     25  C   UNL A   1      34.379  30.265  27.226  1.00  0.00     0.251 C 
ATOM     26  H   UNL A   1      32.733  31.322  27.625  1.00  0.00     0.163 HD
ATOM     27  O   UNL A   1      33.864  29.653  26.292  1.00  0.00    -0.269 OA
BRANCH  25  28
ATOM     28  C   UNL A   1      35.722  29.894  27.710  1.00  0.00     0.039 A 
ATOM     29  C   UNL A   1      35.868  29.343  28.984  1.00  0.00     0.014 A 
ATOM     30  C   UNL A   1      36.841  30.121  26.907  1.00  0.00     0.014 A 
ATOM     31  C   UNL A   1      37.138  28.965  29.427  1.00  0.00     0.010 A 
ATOM     32  C   UNL A   1      38.084  29.649  27.303  1.00  0.00     0.010 A 
ATOM     33  C   UNL A   1      38.248  29.088  28.577  1.00  0.00    -0.014 A 
BRANCH  33  34
ATOM     34  C   UNL A   1      39.604  28.677  29.008  1.00  0.00     0.031 A 
ATOM     35  C   UNL A   1      40.458  29.634  29.794  1.00  0.00     0.074 A 
ATOM     36  C   UNL A   1      40.085  27.475  28.640  1.00  0.00     0.049 A 
ATOM     37  N   UNL A   1      41.686  29.486  30.216  1.00  0.00    -0.248 NA
ATOM     38  C   UNL A   1      39.865  30.942  30.124  1.00  0.00     0.031 C 
ATOM     39  C   UNL A   1      39.361  26.482  27.843  1.00  0.00     0.029 A 
ATOM     40  N   UNL A   1      41.296  26.882  28.888  1.00  0.00    -0.354 N 
ATOM     41  C   UNL A   1      42.014  30.682  30.844  1.00  0.00     0.074 A 
ATOM     42  C   UNL A   1      40.885  31.568  30.689  1.00  0.00     0.031 C 
ATOM     43  C   UNL A   1      40.127  25.387  27.706  1.00  0.00     0.029 A 
ATOM     44  C   UNL A   1      41.409  25.617  28.365  1.00  0.00     0.049 A 
ATOM     45  H   UNL A   1      42.017  27.322  29.394  1.00  0.00     0.167 HD
ATOM     46  C   UNL A   1      43.145  31.003  31.516  1.00  0.00     0.031 A 
ATOM     47  C   UNL A   1      42.429  24.740  28.411  1.00  0.00     0.031 A 
ATOM     48  C   UNL A   1      44.259  30.108  31.675  1.00  0.00     0.049 A 
ATOM     49  C   UNL A   1      43.683  25.122  29.146  1.00  0.00     0.074 A 
ATOM     50  C   UNL A   1      45.431  30.313  32.381  1.00  0.00     0.029 A 
ATOM     51  N   UNL A   1      44.338  28.840  31.120  1.00  0.00    -0.354 N 
ATOM     52  N   UNL A   1      43.955  26.235  29.786  1.00  0.00    -0.248 NA
ATOM     53  C   UNL A   1      44.766  24.129  29.172  1.00  0.00     0.031 C 
ATOM     54  C   UNL A   1      46.244  29.188  32.203  1.00  0.00     0.029 A 
ATOM     55  C   UNL A   1      45.552  28.259  31.440  1.00  0.00     0.049 A 
ATOM     56  H   UNL A   1      43.634  28.415  30.579  1.00  0.00     0.167 HD
ATOM     57  C   UNL A   1      45.234  26.073  30.304  1.00  0.00     0.074 A 
ATOM     58  C   UNL A   1      45.675  24.747  29.918  1.00  0.00     0.031 C 
ATOM     59  C   UNL A   1      45.976  26.943  31.032  1.00  0.00     0.031 A 
BRANCH  46  60
ATOM     60  C   UNL A   1      43.222  32.379  32.123  1.00  0.00    -0.014 A 
ATOM     61  C   UNL A   1      42.831  32.608  33.456  1.00  0.00     0.010 A 
ATOM     62  C   UNL A   1      43.708  33.456  31.359  1.00  0.00     0.010 A 
ATOM     63  C   UNL A   1      42.875  33.895  33.996  1.00  0.00     0.020 A 
ATOM     64  C   UNL A   1      43.783  34.740  31.907  1.00  0.00     0.020 A 
ATOM     65  C   UNL A   1      43.348  34.955  33.216  1.00  0.00     0.054 A 
BRANCH  65  66
ATOM     66  S   UNL A   1      43.399  36.613  33.949  1.00  0.00     0.124 S 
ATOM     67  O   UNL A   1      44.577  36.525  34.810  1.00  0.00    -0.237 OA
ATOM     68  O   UNL A   1      43.541  37.474  32.777  1.00  0.00    -0.237 OA
ATOM     69  O   UNL A   1      42.124  36.723  34.650  1.00  0.00    -0.744 OA
ENDBRANCH  65  66
ENDBRANCH  46  60
BRANCH  47  70
ATOM     70  C   UNL A   1      42.276  23.405  27.772  1.00  0.00    -0.014 A 
ATOM     71  C   UNL A   1      42.735  23.190  26.461  1.00  0.00     0.010 A 
ATOM     72  C   UNL A   1      41.736  22.324  28.494  1.00  0.00     0.010 A 
ATOM     73  C   UNL A   1      42.667  21.917  25.886  1.00  0.00     0.020 A 
ATOM     74  C   UNL A   1      41.689  21.045  27.931  1.00  0.00     0.020 A 
ATOM     75  C   UNL A   1      42.155  20.849  26.629  1.00  0.00     0.054 A 
BRANCH  75  76
ATOM     76  S   UNL A   1      42.167  19.191  25.894  1.00  0.00     0.124 S 
ATOM     77  O   UNL A   1      42.697  18.377  26.983  1.00  0.00    -0.237 OA
ATOM     78  O   UNL A   1      40.757  18.982  25.575  1.00  0.00    -0.237 OA
ATOM     79  O   UNL A   1      43.045  19.336  24.734  1.00  0.00    -0.744 OA
ENDBRANCH  75  76
ENDBRANCH  47  70
BRANCH  59  80
ATOM     80  C   UNL A   1      47.347  26.494  31.464  1.00  0.00    -0.014 A 
ATOM     81  C   UNL A   1      47.547  25.888  32.716  1.00  0.00     0.010 A 
ATOM     82  C   UNL A   1      48.429  26.602  30.570  1.00  0.00     0.010 A 
ATOM     83  C   UNL A   1      48.811  25.412  33.074  1.00  0.00     0.020 A 
ATOM     84  C   UNL A   1      49.686  26.101  30.914  1.00  0.00     0.020 A 
ATOM     85  C   UNL A   1      49.870  25.517  32.168  1.00  0.00     0.054 A 
BRANCH  85  86
ATOM     86  S   UNL A   1      51.484  24.834  32.638  1.00  0.00     0.124 S 
ATOM     87  O   UNL A   1      51.473  25.000  34.089  1.00  0.00    -0.237 OA
ATOM     88  O   UNL A   1      51.397  23.455  32.163  1.00  0.00    -0.237 OA
ATOM     89  O   UNL A   1      52.439  25.675  31.923  1.00  0.00    -0.744 OA
ENDBRANCH  85  86
ENDBRANCH  59  80
ENDBRANCH  33  34
ENDBRANCH  25  28
ENDBRANCH   1  24
TORSDOF 14
ENDMDL
