MODEL 1
REMARK VINA RESULT:     -11.9      0.000      0.000
REMARK SMILES O=C(NCCCNC(=O)[C@@H]1CC(=O)N(c2ccc(Cl)cc2C(=O)c2ccccc2)C1)c1ccc(-c2c3nc(c(-c4ccc(S(=O)(=O)[O-])cc4)c4ccc([nH]4)c(-c4ccc(S(=O)(=O)[O-])cc4)c4nc(c(-c5ccc(S(=O)(=O)[O-])cc5)c5ccc2[nH]5)C=C4)C=C3)cc1
REMARK SMILES IDX 5 1 4 2 3 3 1 4 2 5 31 7 32 8 90 9 33 10 89 11 34 12 35 13
REMARK SMILES IDX 36 14 83 15 37 16 88 17 82 18 84 19 38 20 87 21 81 22 80 23
REMARK SMILES IDX 39 25 69 26 50 27 68 28 51 29 54 30 67 31 85 32 52 33 53 34
REMARK SMILES IDX 66 36 86 37 55 38 40 39 41 40 49 41 42 42 48 43 43 44 44 45
REMARK SMILES IDX 45 46 46 47 47 48 70 49 71 50 79 51 72 52 78 53 73 54 74 55
REMARK SMILES IDX 75 56 76 57 77 58 56 59 57 60 65 61 58 62 64 63 59 64 60 65
REMARK SMILES IDX 61 66 62 67 63 68 6 69 7 70 8 71 9 73 10 74 11 75 30 76
REMARK SMILES IDX 12 77 14 78 13 79 15 80 16 81 21 82 17 83 20 84 18 85 19 86
REMARK SMILES IDX 22 87 23 88 24 89 25 90 29 91 26 92 28 93 27 94
REMARK H PARENT 3 6 84 24 54 35 7 72
REMARK Flexibility Score: inf
ROOT
ATOM      1  C   UNL A   1      32.605  28.217  26.651  1.00  0.00     0.042 C 
ENDROOT
BRANCH   1   2
ATOM      2  C   UNL A   1      33.934  28.652  27.267  1.00  0.00     0.118 C 
BRANCH   2   3
ATOM      3  N   UNL A   1      33.902  29.986  27.853  1.00  0.00    -0.352 N 
ATOM      4  O   UNL A   1      34.657  31.751  29.041  1.00  0.00    -0.269 OA
ATOM      5  C   UNL A   1      34.901  30.672  28.513  1.00  0.00     0.251 C 
ATOM      6  H   UNL A   1      33.046  30.465  27.766  1.00  0.00     0.163 HD
BRANCH   5   7
ATOM      7  C   UNL A   1      36.251  30.073  28.619  1.00  0.00     0.039 A 
ATOM      8  C   UNL A   1      36.685  29.513  29.821  1.00  0.00     0.014 A 
ATOM      9  C   UNL A   1      37.115  30.130  27.523  1.00  0.00     0.014 A 
ATOM     10  C   UNL A   1      38.032  29.213  29.990  1.00  0.00     0.010 A 
ATOM     11  C   UNL A   1      38.446  29.721  27.665  1.00  0.00     0.010 A 
ATOM     12  C   UNL A   1      38.934  29.316  28.917  1.00  0.00    -0.014 A 
BRANCH  12  13
ATOM     13  C   UNL A   1      40.369  28.984  29.137  1.00  0.00     0.031 A 
ATOM     14  C   UNL A   1      40.942  27.655  28.708  1.00  0.00     0.074 A 
ATOM     15  C   UNL A   1      41.178  29.915  29.681  1.00  0.00     0.049 A 
ATOM     16  N   UNL A   1      42.180  27.232  28.776  1.00  0.00    -0.248 NA
ATOM     17  C   UNL A   1      40.010  26.669  28.137  1.00  0.00     0.031 C 
ATOM     18  C   UNL A   1      40.750  31.240  30.140  1.00  0.00     0.029 A 
ATOM     19  N   UNL A   1      42.530  29.908  29.914  1.00  0.00    -0.354 N 
ATOM     20  C   UNL A   1      42.171  25.928  28.290  1.00  0.00     0.074 A 
ATOM     21  C   UNL A   1      40.799  25.620  27.951  1.00  0.00     0.031 C 
ATOM     22  C   UNL A   1      41.824  31.940  30.533  1.00  0.00     0.029 A 
ATOM     23  C   UNL A   1      43.005  31.092  30.426  1.00  0.00     0.049 A 
ATOM     24  H   UNL A   1      43.105  29.130  29.731  1.00  0.00     0.167 HD
ATOM     25  C   UNL A   1      43.209  25.068  28.136  1.00  0.00     0.031 A 
ATOM     26  C   UNL A   1      44.250  31.461  30.784  1.00  0.00     0.031 A 
ATOM     27  C   UNL A   1      44.576  25.382  28.466  1.00  0.00     0.049 A 
ATOM     28  C   UNL A   1      45.377  30.483  30.620  1.00  0.00     0.074 A 
ATOM     29  C   UNL A   1      45.702  24.589  28.310  1.00  0.00     0.029 A 
ATOM     30  N   UNL A   1      45.007  26.578  29.020  1.00  0.00    -0.354 N 
ATOM     31  N   UNL A   1      45.347  29.267  30.129  1.00  0.00    -0.248 NA
ATOM     32  C   UNL A   1      46.707  30.931  31.053  1.00  0.00     0.031 C 
ATOM     33  C   UNL A   1      46.803  25.284  28.823  1.00  0.00     0.029 A 
ATOM     34  C   UNL A   1      46.375  26.536  29.236  1.00  0.00     0.049 A 
ATOM     35  H   UNL A   1      44.425  27.345  29.230  1.00  0.00     0.167 HD
ATOM     36  C   UNL A   1      46.661  28.814  30.169  1.00  0.00     0.074 A 
ATOM     37  C   UNL A   1      47.459  29.893  30.716  1.00  0.00     0.031 C 
ATOM     38  C   UNL A   1      47.160  27.613  29.784  1.00  0.00     0.031 A 
BRANCH  25  39
ATOM     39  C   UNL A   1      42.905  23.684  27.619  1.00  0.00    -0.014 A 
ATOM     40  C   UNL A   1      42.978  23.378  26.247  1.00  0.00     0.010 A 
ATOM     41  C   UNL A   1      42.588  22.657  28.528  1.00  0.00     0.010 A 
ATOM     42  C   UNL A   1      42.697  22.086  25.793  1.00  0.00     0.020 A 
ATOM     43  C   UNL A   1      42.334  21.357  28.081  1.00  0.00     0.020 A 
ATOM     44  C   UNL A   1      42.370  21.084  26.712  1.00  0.00     0.054 A 
BRANCH  44  45
ATOM     45  S   UNL A   1      42.020  19.415  26.095  1.00  0.00     0.124 S 
ATOM     46  O   UNL A   1      42.818  19.374  24.872  1.00  0.00    -0.237 OA
ATOM     47  O   UNL A   1      42.495  18.563  27.181  1.00  0.00    -0.237 OA
ATOM     48  O   UNL A   1      40.573  19.415  25.894  1.00  0.00    -0.744 OA
ENDBRANCH  44  45
ENDBRANCH  25  39
BRANCH  26  49
ATOM     49  C   UNL A   1      44.487  32.823  31.334  1.00  0.00    -0.014 A 
ATOM     50  C   UNL A   1      44.785  33.899  30.480  1.00  0.00     0.010 A 
ATOM     51  C   UNL A   1      44.394  33.054  32.720  1.00  0.00     0.010 A 
ATOM     52  C   UNL A   1      45.002  35.178  31.003  1.00  0.00     0.020 A 
ATOM     53  C   UNL A   1      44.578  34.335  33.242  1.00  0.00     0.020 A 
ATOM     54  C   UNL A   1      44.894  35.387  32.381  1.00  0.00     0.054 A 
BRANCH  54  55
ATOM     55  S   UNL A   1      45.129  37.064  33.032  1.00  0.00     0.124 S 
ATOM     56  O   UNL A   1      44.887  36.870  34.458  1.00  0.00    -0.237 OA
ATOM     57  O   UNL A   1      46.510  37.357  32.657  1.00  0.00    -0.237 OA
ATOM     58  O   UNL A   1      44.120  37.849  32.325  1.00  0.00    -0.744 OA
ENDBRANCH  54  55
ENDBRANCH  26  49
BRANCH  38  59
ATOM     59  C   UNL A   1      48.649  27.420  29.897  1.00  0.00    -0.014 A 
ATOM     60  C   UNL A   1      49.524  27.837  28.879  1.00  0.00     0.010 A 
ATOM     61  C   UNL A   1      49.181  26.830  31.059  1.00  0.00     0.010 A 
ATOM     62  C   UNL A   1      50.900  27.624  28.999  1.00  0.00     0.020 A 
ATOM     63  C   UNL A   1      50.558  26.644  31.196  1.00  0.00     0.020 A 
ATOM     64  C   UNL A   1      51.408  27.024  30.157  1.00  0.00     0.054 A 
BRANCH  64  65
ATOM     65  S   UNL A   1      53.199  26.778  30.300  1.00  0.00     0.124 S 
ATOM     66  O   UNL A   1      53.673  28.136  30.549  1.00  0.00    -0.237 OA
ATOM     67  O   UNL A   1      53.307  25.856  31.427  1.00  0.00    -0.237 OA
ATOM     68  O   UNL A   1      53.575  26.215  29.005  1.00  0.00    -0.744 OA
ENDBRANCH  64  65
ENDBRANCH  38  59
ENDBRANCH  12  13
ENDBRANCH   5   7
ENDBRANCH   2   3
ENDBRANCH   1   2
BRANCH   1  69
ATOM     69  C   UNL A   1      32.102  29.129  25.537  1.00  0.00     0.117 C 
BRANCH  69  70
ATOM     70  N   UNL A   1      31.434  28.362  24.504  1.00  0.00    -0.356 N 
ATOM     71  C   UNL A   1      31.889  27.587  23.495  1.00  0.00     0.225 C 
ATOM     72  H   UNL A   1      30.452  28.415  24.547  1.00  0.00     0.163 HD
ATOM     73  O   UNL A   1      31.051  27.171  22.693  1.00  0.00    -0.275 OA
BRANCH  71  74
ATOM     74  C   UNL A   1      33.355  27.216  23.381  1.00  0.00     0.107 C 
ATOM     75  C   UNL A   1      33.622  26.714  21.972  1.00  0.00     0.116 C 
ATOM     76  C   UNL A   1      33.679  25.994  24.236  1.00  0.00     0.139 C 
ATOM     77  C   UNL A   1      33.243  25.257  22.064  1.00  0.00     0.227 C 
ATOM     78  N   UNL A   1      33.300  24.864  23.423  1.00  0.00    -0.311 N 
ATOM     79  O   UNL A   1      32.996  24.569  21.082  1.00  0.00    -0.274 OA
BRANCH  78  80
ATOM     80  C   UNL A   1      33.266  23.499  23.848  1.00  0.00     0.055 A 
ATOM     81  C   UNL A   1      31.967  22.964  24.066  1.00  0.00     0.028 A 
ATOM     82  C   UNL A   1      34.352  22.607  24.009  1.00  0.00     0.048 A 
ATOM     83  C   UNL A   1      31.730  21.640  24.436  1.00  0.00     0.023 A 
ATOM     84  C   UNL A   1      34.091  21.268  24.419  1.00  0.00     0.035 A 
ATOM     85  C   UNL A   1      32.801  20.794  24.623  1.00  0.00     0.041 A 
ATOM     86  Cl  UNL A   1      32.532  19.155  25.068  1.00  0.00    -0.084 Cl
BRANCH  82  87
ATOM     87  C   UNL A   1      35.800  22.812  23.737  1.00  0.00     0.195 C 
ATOM     88  O   UNL A   1      36.122  23.031  22.563  1.00  0.00    -0.289 OA
BRANCH  87  89
ATOM     89  C   UNL A   1      36.914  22.762  24.705  1.00  0.00     0.023 A 
ATOM     90  C   UNL A   1      37.127  23.929  25.465  1.00  0.00     0.012 A 
ATOM     91  C   UNL A   1      37.759  21.668  24.868  1.00  0.00     0.012 A 
ATOM     92  C   UNL A   1      38.147  23.992  26.410  1.00  0.00     0.001 A 
ATOM     93  C   UNL A   1      38.805  21.749  25.798  1.00  0.00     0.001 A 
ATOM     94  C   UNL A   1      38.993  22.900  26.570  1.00  0.00     0.000 A 
ENDBRANCH  87  89
ENDBRANCH  82  87
ENDBRANCH  78  80
ENDBRANCH  71  74
ENDBRANCH  69  70
ENDBRANCH   1  69
TORSDOF 16
ENDMDL
MODEL 2
REMARK VINA RESULT:     -11.7      3.069      9.344
REMARK SMILES O=C(NCCCNC(=O)[C@@H]1CC(=O)N(c2ccc(Cl)cc2C(=O)c2ccccc2)C1)c1ccc(-c2c3nc(c(-c4ccc(S(=O)(=O)[O-])cc4)c4ccc([nH]4)c(-c4ccc(S(=O)(=O)[O-])cc4)c4nc(c(-c5ccc(S(=O)(=O)[O-])cc5)c5ccc2[nH]5)C=C4)C=C3)cc1
REMARK SMILES IDX 5 1 4 2 3 3 1 4 2 5 31 7 32 8 90 9 33 10 89 11 34 12 35 13
REMARK SMILES IDX 36 14 83 15 37 16 88 17 82 18 84 19 38 20 87 21 81 22 80 23
REMARK SMILES IDX 39 25 69 26 50 27 68 28 51 29 54 30 67 31 85 32 52 33 53 34
REMARK SMILES IDX 66 36 86 37 55 38 40 39 41 40 49 41 42 42 48 43 43 44 44 45
REMARK SMILES IDX 45 46 46 47 47 48 70 49 71 50 79 51 72 52 78 53 73 54 74 55
REMARK SMILES IDX 75 56 76 57 77 58 56 59 57 60 65 61 58 62 64 63 59 64 60 65
REMARK SMILES IDX 61 66 62 67 63 68 6 69 7 70 8 71 9 73 10 74 11 75 30 76
REMARK SMILES IDX 12 77 14 78 13 79 15 80 16 81 21 82 17 83 20 84 18 85 19 86
REMARK SMILES IDX 22 87 23 88 24 89 25 90 29 91 26 92 28 93 27 94
REMARK H PARENT 3 6 84 24 54 35 7 72
REMARK Flexibility Score: inf
ROOT
ATOM      1  C   UNL A   1      35.497  32.947  28.793  1.00  0.00     0.042 C 
ENDROOT
BRANCH   1   2
ATOM      2  C   UNL A   1      36.231  32.971  30.132  1.00  0.00     0.118 C 
BRANCH   2   3
ATOM      3  N   UNL A   1      35.932  31.829  30.986  1.00  0.00    -0.352 N 
ATOM      4  O   UNL A   1      36.223  29.780  31.891  1.00  0.00    -0.269 OA
ATOM      5  C   UNL A   1      36.687  30.698  31.223  1.00  0.00     0.251 C 
ATOM      6  H   UNL A   1      35.070  31.869  31.460  1.00  0.00     0.163 HD
BRANCH   5   7
ATOM      7  C   UNL A   1      38.037  30.581  30.626  1.00  0.00     0.039 A 
ATOM      8  C   UNL A   1      38.190  30.351  29.259  1.00  0.00     0.014 A 
ATOM      9  C   UNL A   1      39.160  30.641  31.455  1.00  0.00     0.014 A 
ATOM     10  C   UNL A   1      39.431  29.967  28.763  1.00  0.00     0.010 A 
ATOM     11  C   UNL A   1      40.428  30.364  30.927  1.00  0.00     0.010 A 
ATOM     12  C   UNL A   1      40.568  29.964  29.589  1.00  0.00    -0.014 A 
BRANCH  12  13
ATOM     13  C   UNL A   1      41.881  29.549  29.022  1.00  0.00     0.031 A 
ATOM     14  C   UNL A   1      43.054  30.499  28.980  1.00  0.00     0.074 A 
ATOM     15  C   UNL A   1      42.033  28.282  28.588  1.00  0.00     0.049 A 
ATOM     16  N   UNL A   1      44.277  30.277  28.570  1.00  0.00    -0.248 NA
ATOM     17  C   UNL A   1      42.826  31.875  29.448  1.00  0.00     0.031 C 
ATOM     18  C   UNL A   1      40.978  27.264  28.572  1.00  0.00     0.029 A 
ATOM     19  N   UNL A   1      43.134  27.621  28.106  1.00  0.00    -0.354 N 
ATOM     20  C   UNL A   1      44.954  31.486  28.700  1.00  0.00     0.074 A 
ATOM     21  C   UNL A   1      43.998  32.446  29.207  1.00  0.00     0.031 C 
ATOM     22  C   UNL A   1      41.498  26.095  28.172  1.00  0.00     0.029 A 
ATOM     23  C   UNL A   1      42.901  26.294  27.831  1.00  0.00     0.049 A 
ATOM     24  H   UNL A   1      44.007  28.055  27.971  1.00  0.00     0.167 HD
ATOM     25  C   UNL A   1      46.252  31.770  28.428  1.00  0.00     0.031 A 
ATOM     26  C   UNL A   1      43.718  25.339  27.347  1.00  0.00     0.031 A 
ATOM     27  C   UNL A   1      47.206  30.809  27.933  1.00  0.00     0.049 A 
ATOM     28  C   UNL A   1      45.145  25.685  27.037  1.00  0.00     0.074 A 
ATOM     29  C   UNL A   1      48.552  30.993  27.663  1.00  0.00     0.029 A 
ATOM     30  N   UNL A   1      46.917  29.487  27.631  1.00  0.00    -0.354 N 
ATOM     31  N   UNL A   1      45.769  26.827  27.199  1.00  0.00    -0.248 NA
ATOM     32  C   UNL A   1      45.980  24.610  26.486  1.00  0.00     0.031 C 
ATOM     33  C   UNL A   1      49.063  29.799  27.143  1.00  0.00     0.029 A 
ATOM     34  C   UNL A   1      48.053  28.851  27.153  1.00  0.00     0.049 A 
ATOM     35  H   UNL A   1      46.035  29.062  27.738  1.00  0.00     0.167 HD
ATOM     36  C   UNL A   1      47.079  26.601  26.794  1.00  0.00     0.074 A 
ATOM     37  C   UNL A   1      47.159  25.209  26.397  1.00  0.00     0.031 C 
ATOM     38  C   UNL A   1      48.121  27.467  26.757  1.00  0.00     0.031 A 
BRANCH  25  39
ATOM     39  C   UNL A   1      46.717  33.192  28.624  1.00  0.00    -0.014 A 
ATOM     40  C   UNL A   1      46.728  34.117  27.563  1.00  0.00     0.010 A 
ATOM     41  C   UNL A   1      47.105  33.625  29.907  1.00  0.00     0.010 A 
ATOM     42  C   UNL A   1      47.158  35.430  27.772  1.00  0.00     0.020 A 
ATOM     43  C   UNL A   1      47.508  34.946  30.126  1.00  0.00     0.020 A 
ATOM     44  C   UNL A   1      47.551  35.836  29.051  1.00  0.00     0.054 A 
BRANCH  44  45
ATOM     45  S   UNL A   1      48.096  37.549  29.294  1.00  0.00     0.124 S 
ATOM     46  O   UNL A   1      47.522  37.864  30.600  1.00  0.00    -0.237 OA
ATOM     47  O   UNL A   1      49.551  37.432  29.262  1.00  0.00    -0.237 OA
ATOM     48  O   UNL A   1      47.506  38.265  28.165  1.00  0.00    -0.744 OA
ENDBRANCH  44  45
ENDBRANCH  25  39
BRANCH  26  49
ATOM     49  C   UNL A   1      43.195  23.963  27.127  1.00  0.00    -0.014 A 
ATOM     50  C   UNL A   1      42.785  23.548  25.848  1.00  0.00     0.010 A 
ATOM     51  C   UNL A   1      43.126  23.052  28.197  1.00  0.00     0.010 A 
ATOM     52  C   UNL A   1      42.299  22.252  25.647  1.00  0.00     0.020 A 
ATOM     53  C   UNL A   1      42.673  21.747  27.994  1.00  0.00     0.020 A 
ATOM     54  C   UNL A   1      42.250  21.359  26.722  1.00  0.00     0.054 A 
BRANCH  54  55
ATOM     55  S   UNL A   1      41.664  19.668  26.428  1.00  0.00     0.124 S 
ATOM     56  O   UNL A   1      42.069  18.991  27.656  1.00  0.00    -0.237 OA
ATOM     57  O   UNL A   1      40.227  19.857  26.253  1.00  0.00    -0.237 OA
ATOM     58  O   UNL A   1      42.384  19.262  25.223  1.00  0.00    -0.744 OA
ENDBRANCH  54  55
ENDBRANCH  26  49
BRANCH  38  59
ATOM     59  C   UNL A   1      49.453  26.921  26.315  1.00  0.00    -0.014 A 
ATOM     60  C   UNL A   1      49.909  27.074  24.994  1.00  0.00     0.010 A 
ATOM     61  C   UNL A   1      50.273  26.262  27.250  1.00  0.00     0.010 A 
ATOM     62  C   UNL A   1      51.140  26.537  24.604  1.00  0.00     0.020 A 
ATOM     63  C   UNL A   1      51.516  25.751  26.873  1.00  0.00     0.020 A 
ATOM     64  C   UNL A   1      51.934  25.874  25.547  1.00  0.00     0.054 A 
BRANCH  64  65
ATOM     65  S   UNL A   1      53.535  25.204  25.024  1.00  0.00     0.124 S 
ATOM     66  O   UNL A   1      54.455  25.860  25.948  1.00  0.00    -0.237 OA
ATOM     67  O   UNL A   1      53.362  23.767  25.221  1.00  0.00    -0.237 OA
ATOM     68  O   UNL A   1      53.648  25.626  23.629  1.00  0.00    -0.744 OA
ENDBRANCH  64  65
ENDBRANCH  38  59
ENDBRANCH  12  13
ENDBRANCH   5   7
ENDBRANCH   2   3
ENDBRANCH   1   2
BRANCH   1  69
ATOM     69  C   UNL A   1      34.309  31.991  28.746  1.00  0.00     0.117 C 
BRANCH  69  70
ATOM     70  N   UNL A   1      34.676  30.743  28.105  1.00  0.00    -0.356 N 
ATOM     71  C   UNL A   1      33.977  29.842  27.381  1.00  0.00     0.225 C 
ATOM     72  H   UNL A   1      35.625  30.506  28.219  1.00  0.00     0.163 HD
ATOM     73  O   UNL A   1      34.561  28.797  27.083  1.00  0.00    -0.275 OA
BRANCH  71  74
ATOM     74  C   UNL A   1      32.559  30.121  26.924  1.00  0.00     0.107 C 
ATOM     75  C   UNL A   1      31.645  29.045  27.488  1.00  0.00     0.116 C 
ATOM     76  C   UNL A   1      32.419  29.919  25.418  1.00  0.00     0.139 C 
ATOM     77  C   UNL A   1      31.773  27.939  26.471  1.00  0.00     0.227 C 
ATOM     78  N   UNL A   1      32.223  28.500  25.252  1.00  0.00    -0.311 N 
ATOM     79  O   UNL A   1      31.464  26.778  26.707  1.00  0.00    -0.274 OA
BRANCH  78  80
ATOM     80  C   UNL A   1      32.198  27.796  24.007  1.00  0.00     0.055 A 
ATOM     81  C   UNL A   1      33.386  27.083  23.690  1.00  0.00     0.028 A 
ATOM     82  C   UNL A   1      31.123  27.670  23.096  1.00  0.00     0.048 A 
ATOM     83  C   UNL A   1      33.534  26.300  22.545  1.00  0.00     0.023 A 
ATOM     84  C   UNL A   1      31.305  26.892  21.917  1.00  0.00     0.035 A 
ATOM     85  C   UNL A   1      32.489  26.216  21.651  1.00  0.00     0.041 A 
ATOM     86  Cl  UNL A   1      32.643  25.249  20.238  1.00  0.00    -0.084 Cl
BRANCH  82  87
ATOM     87  C   UNL A   1      29.727  28.175  23.196  1.00  0.00     0.195 C 
ATOM     88  O   UNL A   1      28.873  27.377  23.599  1.00  0.00    -0.289 OA
BRANCH  87  89
ATOM     89  C   UNL A   1      29.230  29.520  22.848  1.00  0.00     0.023 A 
ATOM     90  C   UNL A   1      29.355  30.506  23.847  1.00  0.00     0.012 A 
ATOM     91  C   UNL A   1      28.626  29.840  21.635  1.00  0.00     0.012 A 
ATOM     92  C   UNL A   1      28.923  31.810  23.626  1.00  0.00     0.001 A 
ATOM     93  C   UNL A   1      28.163  31.148  21.429  1.00  0.00     0.001 A 
ATOM     94  C   UNL A   1      28.317  32.129  22.415  1.00  0.00     0.000 A 
ENDBRANCH  87  89
ENDBRANCH  82  87
ENDBRANCH  78  80
ENDBRANCH  71  74
ENDBRANCH  69  70
ENDBRANCH   1  69
TORSDOF 16
ENDMDL
MODEL 3
REMARK VINA RESULT:     -11.5      3.106      9.242
REMARK SMILES O=C(NCCCNC(=O)[C@@H]1CC(=O)N(c2ccc(Cl)cc2C(=O)c2ccccc2)C1)c1ccc(-c2c3nc(c(-c4ccc(S(=O)(=O)[O-])cc4)c4ccc([nH]4)c(-c4ccc(S(=O)(=O)[O-])cc4)c4nc(c(-c5ccc(S(=O)(=O)[O-])cc5)c5ccc2[nH]5)C=C4)C=C3)cc1
REMARK SMILES IDX 5 1 4 2 3 3 1 4 2 5 31 7 32 8 90 9 33 10 89 11 34 12 35 13
REMARK SMILES IDX 36 14 83 15 37 16 88 17 82 18 84 19 38 20 87 21 81 22 80 23
REMARK SMILES IDX 39 25 69 26 50 27 68 28 51 29 54 30 67 31 85 32 52 33 53 34
REMARK SMILES IDX 66 36 86 37 55 38 40 39 41 40 49 41 42 42 48 43 43 44 44 45
REMARK SMILES IDX 45 46 46 47 47 48 70 49 71 50 79 51 72 52 78 53 73 54 74 55
REMARK SMILES IDX 75 56 76 57 77 58 56 59 57 60 65 61 58 62 64 63 59 64 60 65
REMARK SMILES IDX 61 66 62 67 63 68 6 69 7 70 8 71 9 73 10 74 11 75 30 76
REMARK SMILES IDX 12 77 14 78 13 79 15 80 16 81 21 82 17 83 20 84 18 85 19 86
REMARK SMILES IDX 22 87 23 88 24 89 25 90 29 91 26 92 28 93 27 94
REMARK H PARENT 3 6 84 24 54 35 7 72
REMARK Flexibility Score: inf
ROOT
ATOM      1  C   UNL A   1      35.877  23.736  26.377  1.00  0.00     0.042 C 
ENDROOT
BRANCH   1   2
ATOM      2  C   UNL A   1      36.939  23.739  25.279  1.00  0.00     0.118 C 
BRANCH   2   3
ATOM      3  N   UNL A   1      38.048  22.828  25.532  1.00  0.00    -0.352 N 
ATOM      4  O   UNL A   1      40.100  22.199  26.234  1.00  0.00    -0.269 OA
ATOM      5  C   UNL A   1      39.225  23.057  26.216  1.00  0.00     0.251 C 
ATOM      6  H   UNL A   1      37.944  21.921  25.162  1.00  0.00     0.163 HD
BRANCH   5   7
ATOM      7  C   UNL A   1      39.440  24.361  26.885  1.00  0.00     0.039 A 
ATOM      8  C   UNL A   1      40.140  25.380  26.240  1.00  0.00     0.014 A 
ATOM      9  C   UNL A   1      38.990  24.542  28.195  1.00  0.00     0.014 A 
ATOM     10  C   UNL A   1      40.575  26.481  26.971  1.00  0.00     0.010 A 
ATOM     11  C   UNL A   1      39.335  25.705  28.893  1.00  0.00     0.010 A 
ATOM     12  C   UNL A   1      40.183  26.659  28.308  1.00  0.00    -0.014 A 
BRANCH  12  13
ATOM     13  C   UNL A   1      40.667  27.851  29.057  1.00  0.00     0.031 A 
ATOM     14  C   UNL A   1      39.771  29.041  29.303  1.00  0.00     0.074 A 
ATOM     15  C   UNL A   1      41.914  27.838  29.569  1.00  0.00     0.049 A 
ATOM     16  N   UNL A   1      40.021  30.133  29.983  1.00  0.00    -0.248 NA
ATOM     17  C   UNL A   1      38.427  29.011  28.704  1.00  0.00     0.031 C 
ATOM     18  C   UNL A   1      42.882  26.749  29.404  1.00  0.00     0.029 A 
ATOM     19  N   UNL A   1      42.575  28.747  30.357  1.00  0.00    -0.354 N 
ATOM     20  C   UNL A   1      38.885  30.928  29.869  1.00  0.00     0.074 A 
ATOM     21  C   UNL A   1      37.951  30.204  29.035  1.00  0.00     0.031 C 
ATOM     22  C   UNL A   1      43.981  27.022  30.123  1.00  0.00     0.029 A 
ATOM     23  C   UNL A   1      43.829  28.334  30.739  1.00  0.00     0.049 A 
ATOM     24  H   UNL A   1      42.186  29.612  30.623  1.00  0.00     0.167 HD
ATOM     25  C   UNL A   1      38.639  32.147  30.412  1.00  0.00     0.031 A 
ATOM     26  C   UNL A   1      44.765  28.942  31.493  1.00  0.00     0.031 A 
ATOM     27  C   UNL A   1      39.567  32.862  31.251  1.00  0.00     0.049 A 
ATOM     28  C   UNL A   1      44.473  30.298  32.066  1.00  0.00     0.074 A 
ATOM     29  C   UNL A   1      39.393  34.085  31.878  1.00  0.00     0.029 A 
ATOM     30  N   UNL A   1      40.841  32.425  31.579  1.00  0.00    -0.354 N 
ATOM     31  N   UNL A   1      43.379  31.015  31.970  1.00  0.00    -0.248 NA
ATOM     32  C   UNL A   1      45.542  30.924  32.856  1.00  0.00     0.031 C 
ATOM     33  C   UNL A   1      40.583  34.414  32.538  1.00  0.00     0.029 A 
ATOM     34  C   UNL A   1      41.474  33.365  32.378  1.00  0.00     0.049 A 
ATOM     35  H   UNL A   1      41.239  31.573  31.287  1.00  0.00     0.167 HD
ATOM     36  C   UNL A   1      43.618  32.167  32.711  1.00  0.00     0.074 A 
ATOM     37  C   UNL A   1      44.953  32.041  33.261  1.00  0.00     0.031 C 
ATOM     38  C   UNL A   1      42.804  33.231  32.918  1.00  0.00     0.031 A 
BRANCH  25  39
ATOM     39  C   UNL A   1      37.323  32.809  30.087  1.00  0.00    -0.014 A 
ATOM     40  C   UNL A   1      36.206  32.682  30.934  1.00  0.00     0.010 A 
ATOM     41  C   UNL A   1      37.216  33.615  28.938  1.00  0.00     0.010 A 
ATOM     42  C   UNL A   1      34.999  33.310  30.614  1.00  0.00     0.020 A 
ATOM     43  C   UNL A   1      36.019  34.268  28.629  1.00  0.00     0.020 A 
ATOM     44  C   UNL A   1      34.910  34.095  29.460  1.00  0.00     0.054 A 
BRANCH  44  45
ATOM     45  S   UNL A   1      33.334  34.905  29.075  1.00  0.00     0.124 S 
ATOM     46  O   UNL A   1      32.795  34.034  28.034  1.00  0.00    -0.237 OA
ATOM     47  O   UNL A   1      32.630  34.861  30.354  1.00  0.00    -0.237 OA
ATOM     48  O   UNL A   1      33.728  36.239  28.629  1.00  0.00    -0.744 OA
ENDBRANCH  44  45
ENDBRANCH  25  39
BRANCH  26  49
ATOM     49  C   UNL A   1      46.066  28.265  31.743  1.00  0.00    -0.014 A 
ATOM     50  C   UNL A   1      47.165  28.489  30.895  1.00  0.00     0.010 A 
ATOM     51  C   UNL A   1      46.216  27.406  32.848  1.00  0.00     0.010 A 
ATOM     52  C   UNL A   1      48.386  27.853  31.140  1.00  0.00     0.020 A 
ATOM     53  C   UNL A   1      47.443  26.795  33.113  1.00  0.00     0.020 A 
ATOM     54  C   UNL A   1      48.518  27.012  32.249  1.00  0.00     0.054 A 
BRANCH  54  55
ATOM     55  S   UNL A   1      50.125  26.238  32.575  1.00  0.00     0.124 S 
ATOM     56  O   UNL A   1      49.872  24.849  32.203  1.00  0.00    -0.237 OA
ATOM     57  O   UNL A   1      51.018  26.979  31.688  1.00  0.00    -0.237 OA
ATOM     58  O   UNL A   1      50.336  26.476  34.000  1.00  0.00    -0.744 OA
ENDBRANCH  54  55
ENDBRANCH  26  49
BRANCH  38  59
ATOM     59  C   UNL A   1      43.317  34.324  33.817  1.00  0.00    -0.014 A 
ATOM     60  C   UNL A   1      43.101  34.295  35.207  1.00  0.00     0.010 A 
ATOM     61  C   UNL A   1      44.050  35.389  33.260  1.00  0.00     0.010 A 
ATOM     62  C   UNL A   1      43.569  35.335  36.016  1.00  0.00     0.020 A 
ATOM     63  C   UNL A   1      44.545  36.413  34.069  1.00  0.00     0.020 A 
ATOM     64  C   UNL A   1      44.285  36.390  35.441  1.00  0.00     0.054 A 
BRANCH  64  65
ATOM     65  S   UNL A   1      44.899  37.717  36.513  1.00  0.00     0.124 S 
ATOM     66  O   UNL A   1      44.358  38.907  35.863  1.00  0.00    -0.237 OA
ATOM     67  O   UNL A   1      44.310  37.383  37.807  1.00  0.00    -0.237 OA
ATOM     68  O   UNL A   1      46.351  37.574  36.442  1.00  0.00    -0.744 OA
ENDBRANCH  64  65
ENDBRANCH  38  59
ENDBRANCH  12  13
ENDBRANCH   5   7
ENDBRANCH   2   3
ENDBRANCH   1   2
BRANCH   1  69
ATOM     69  C   UNL A   1      34.775  22.701  26.180  1.00  0.00     0.117 C 
BRANCH  69  70
ATOM     70  N   UNL A   1      33.562  23.101  26.866  1.00  0.00    -0.356 N 
ATOM     71  C   UNL A   1      32.337  23.468  26.429  1.00  0.00     0.225 C 
ATOM     72  H   UNL A   1      33.647  23.107  27.846  1.00  0.00     0.163 HD
ATOM     73  O   UNL A   1      31.548  23.886  27.278  1.00  0.00    -0.275 OA
BRANCH  71  74
ATOM     74  C   UNL A   1      31.943  23.332  24.971  1.00  0.00     0.107 C 
ATOM     75  C   UNL A   1      33.139  23.695  24.106  1.00  0.00     0.116 C 
ATOM     76  C   UNL A   1      30.917  24.392  24.580  1.00  0.00     0.139 C 
ATOM     77  C   UNL A   1      33.033  25.197  24.013  1.00  0.00     0.227 C 
ATOM     78  N   UNL A   1      31.696  25.570  24.289  1.00  0.00    -0.311 N 
ATOM     79  O   UNL A   1      33.973  25.911  23.687  1.00  0.00    -0.274 OA
BRANCH  78  80
ATOM     80  C   UNL A   1      31.176  26.877  24.028  1.00  0.00     0.055 A 
ATOM     81  C   UNL A   1      30.493  27.021  22.789  1.00  0.00     0.028 A 
ATOM     82  C   UNL A   1      31.201  28.011  24.871  1.00  0.00     0.048 A 
ATOM     83  C   UNL A   1      29.877  28.204  22.381  1.00  0.00     0.023 A 
ATOM     84  C   UNL A   1      30.594  29.219  24.422  1.00  0.00     0.035 A 
ATOM     85  C   UNL A   1      29.940  29.310  23.200  1.00  0.00     0.041 A 
ATOM     86  Cl  UNL A   1      29.180  30.776  22.723  1.00  0.00    -0.084 Cl
BRANCH  82  87
ATOM     87  C   UNL A   1      31.712  28.153  26.262  1.00  0.00     0.195 C 
ATOM     88  O   UNL A   1      31.179  27.447  27.126  1.00  0.00    -0.289 OA
BRANCH  87  89
ATOM     89  C   UNL A   1      32.774  29.058  26.742  1.00  0.00     0.023 A 
ATOM     90  C   UNL A   1      34.071  28.513  26.809  1.00  0.00     0.012 A 
ATOM     91  C   UNL A   1      32.554  30.369  27.157  1.00  0.00     0.012 A 
ATOM     92  C   UNL A   1      35.148  29.278  27.244  1.00  0.00     0.001 A 
ATOM     93  C   UNL A   1      33.637  31.126  27.625  1.00  0.00     0.001 A 
ATOM     94  C   UNL A   1      34.928  30.587  27.661  1.00  0.00     0.000 A 
ENDBRANCH  87  89
ENDBRANCH  82  87
ENDBRANCH  78  80
ENDBRANCH  71  74
ENDBRANCH  69  70
ENDBRANCH   1  69
TORSDOF 16
ENDMDL
