MODEL 1
REMARK VINA RESULT:     -14.5      0.000      0.000
REMARK SMILES Cc1ccccc1[C@@H]1[NH2+][C@@H](C(=O)NCCCNC(=O)c2ccc(-c3c4nc(c(-c5ccc(S(=O)(=O)[O-])cc5)c5ccc([nH]5)c(-c5ccc(S(=O)(=O)[O-])cc5)c5nc(c(-c6ccc(S(=O)(=O)[O-])cc6)c6ccc3[nH]6)C=C5)C=C4)cc2)CC2=c3ccccc3=N[C@@H]21
REMARK SMILES IDX 16 1 15 2 14 3 13 4 11 5 12 6 10 8 8 9 9 10 89 11 81 14
REMARK SMILES IDX 88 15 80 16 82 17 87 18 83 19 86 20 84 21 85 22 7 23 1 24
REMARK SMILES IDX 2 25 3 26 4 27 6 28 5 29 17 30 18 31 19 33 20 34 21 35 79 36
REMARK SMILES IDX 22 37 78 38 23 39 24 40 25 41 72 42 26 43 77 44 71 45 73 46
REMARK SMILES IDX 27 47 76 48 70 49 69 50 28 52 58 53 39 54 57 55 40 56 43 57
REMARK SMILES IDX 56 58 74 59 41 60 42 61 55 63 75 64 44 65 29 66 30 67 38 68
REMARK SMILES IDX 31 69 37 70 32 71 33 72 34 73 35 74 36 75 59 76 60 77 68 78
REMARK SMILES IDX 61 79 67 80 62 81 63 82 64 83 65 84 66 85 45 86 46 87 54 88
REMARK SMILES IDX 47 89 53 90 48 91 49 92 50 93 51 94 52 95
REMARK H PARENT 13 7 9 12 9 13 17 32 73 51 43 62
REMARK Flexibility Score: inf
ROOT
ATOM      1  C   UNL A   1      34.576  30.752  28.221  1.00  0.00     0.118 C 
ENDROOT
BRANCH   1   2
ATOM      2  C   UNL A   1      33.389  30.882  27.247  1.00  0.00     0.042 C 
BRANCH   2   3
ATOM      3  C   UNL A   1      33.145  29.851  26.102  1.00  0.00     0.118 C 
BRANCH   3   4
ATOM      4  N   UNL A   1      34.065  29.465  24.998  1.00  0.00    -0.351 N 
ATOM      5  C   UNL A   1      33.933  28.511  23.970  1.00  0.00     0.278 C 
ATOM      6  O   UNL A   1      34.447  28.668  22.868  1.00  0.00    -0.268 OA
ATOM      7  H   UNL A   1      34.913  29.964  24.982  1.00  0.00     0.163 HD
BRANCH   5   8
ATOM      8  C   UNL A   1      33.231  27.243  24.419  1.00  0.00     0.277 C 
ATOM      9  C   UNL A   1      30.708  27.204  24.377  1.00  0.00     0.243 C 
ATOM     10  N   UNL A   1      31.984  27.325  23.672  1.00  0.00    -0.327 N 
ATOM     11  C   UNL A   1      30.744  25.675  24.852  1.00  0.00     0.196 C 
ATOM     12  H   UNL A   1      31.979  28.232  23.205  1.00  0.00     0.347 HD
ATOM     13  H   UNL A   1      32.008  26.496  23.078  1.00  0.00     0.347 HD
ATOM     14  C   UNL A   1      32.159  25.412  25.476  1.00  0.00    -0.024 C 
ATOM     15  N   UNL A   1      30.711  24.710  23.703  1.00  0.00    -0.270 NA
ATOM     16  C   UNL A   1      32.980  26.674  25.823  1.00  0.00     0.109 C 
ATOM     17  C   UNL A   1      32.767  24.366  24.885  1.00  0.00     0.002 A 
ATOM     18  C   UNL A   1      31.831  24.047  23.779  1.00  0.00     0.066 A 
ATOM     19  C   UNL A   1      34.177  24.060  24.748  1.00  0.00     0.010 A 
ATOM     20  C   UNL A   1      32.356  23.118  22.742  1.00  0.00     0.028 A 
ATOM     21  C   UNL A   1      34.610  23.377  23.675  1.00  0.00     0.001 A 
ATOM     22  C   UNL A   1      33.675  22.854  22.696  1.00  0.00     0.002 A 
BRANCH   9  23
ATOM     23  C   UNL A   1      29.704  27.977  23.474  1.00  0.00     0.015 A 
ATOM     24  C   UNL A   1      27.621  26.640  24.135  1.00  0.00     0.045 C 
ATOM     25  C   UNL A   1      28.313  27.764  23.427  1.00  0.00    -0.042 A 
ATOM     26  C   UNL A   1      27.462  28.748  22.845  1.00  0.00     0.004 A 
ATOM     27  C   UNL A   1      27.945  29.962  22.365  1.00  0.00     0.000 A 
ATOM     28  C   UNL A   1      30.141  29.222  22.924  1.00  0.00     0.010 A 
ATOM     29  C   UNL A   1      29.294  30.205  22.433  1.00  0.00     0.001 A 
ENDBRANCH   9  23
ENDBRANCH   5   8
ENDBRANCH   3   4
ENDBRANCH   2   3
ENDBRANCH   1   2
BRANCH   1  30
ATOM     30  N   UNL A   1      35.808  31.376  27.706  1.00  0.00    -0.352 N 
ATOM     31  C   UNL A   1      37.064  31.201  28.294  1.00  0.00     0.251 C 
ATOM     32  H   UNL A   1      35.741  31.946  26.907  1.00  0.00     0.163 HD
ATOM     33  O   UNL A   1      37.651  32.033  28.953  1.00  0.00    -0.269 OA
BRANCH  31  34
ATOM     34  C   UNL A   1      37.574  29.819  28.194  1.00  0.00     0.039 A 
ATOM     35  C   UNL A   1      37.509  28.971  29.304  1.00  0.00     0.014 A 
ATOM     36  C   UNL A   1      38.468  29.601  27.151  1.00  0.00     0.014 A 
ATOM     37  C   UNL A   1      38.533  28.069  29.517  1.00  0.00     0.010 A 
ATOM     38  C   UNL A   1      39.504  28.732  27.377  1.00  0.00     0.010 A 
ATOM     39  C   UNL A   1      39.579  28.061  28.604  1.00  0.00    -0.014 A 
BRANCH  39  40
ATOM     40  C   UNL A   1      40.866  27.478  28.908  1.00  0.00     0.031 A 
ATOM     41  C   UNL A   1      41.098  26.082  28.562  1.00  0.00     0.074 A 
ATOM     42  C   UNL A   1      41.820  28.292  29.399  1.00  0.00     0.049 A 
ATOM     43  N   UNL A   1      42.032  25.359  29.066  1.00  0.00    -0.248 NA
ATOM     44  C   UNL A   1      40.215  25.356  27.656  1.00  0.00     0.031 C 
ATOM     45  C   UNL A   1      43.261  28.085  29.494  1.00  0.00     0.029 A 
ATOM     46  N   UNL A   1      41.604  29.492  30.072  1.00  0.00    -0.354 N 
ATOM     47  C   UNL A   1      42.083  24.210  28.313  1.00  0.00     0.074 A 
ATOM     48  C   UNL A   1      40.852  24.188  27.562  1.00  0.00     0.031 C 
ATOM     49  C   UNL A   1      43.771  28.993  30.350  1.00  0.00     0.029 A 
ATOM     50  C   UNL A   1      42.638  29.639  30.998  1.00  0.00     0.049 A 
ATOM     51  H   UNL A   1      40.860  30.119  29.922  1.00  0.00     0.167 HD
ATOM     52  C   UNL A   1      43.253  23.517  28.271  1.00  0.00     0.031 A 
ATOM     53  C   UNL A   1      42.340  29.483  32.324  1.00  0.00     0.031 A 
ATOM     54  C   UNL A   1      44.234  24.101  29.193  1.00  0.00     0.049 A 
ATOM     55  C   UNL A   1      43.026  28.275  32.938  1.00  0.00     0.074 A 
ATOM     56  C   UNL A   1      45.322  24.939  29.013  1.00  0.00     0.029 A 
ATOM     57  N   UNL A   1      43.925  24.157  30.549  1.00  0.00    -0.354 N 
ATOM     58  N   UNL A   1      43.439  27.227  32.275  1.00  0.00    -0.248 NA
ATOM     59  C   UNL A   1      43.326  28.182  34.358  1.00  0.00     0.031 C 
ATOM     60  C   UNL A   1      45.639  25.529  30.272  1.00  0.00     0.029 A 
ATOM     61  C   UNL A   1      44.761  25.032  31.220  1.00  0.00     0.049 A 
ATOM     62  H   UNL A   1      43.205  23.640  30.976  1.00  0.00     0.167 HD
ATOM     63  C   UNL A   1      44.076  26.351  33.120  1.00  0.00     0.074 A 
ATOM     64  C   UNL A   1      43.953  26.995  34.419  1.00  0.00     0.031 C 
ATOM     65  C   UNL A   1      44.638  25.181  32.673  1.00  0.00     0.031 A 
BRANCH  52  66
ATOM     66  C   UNL A   1      43.585  22.536  27.169  1.00  0.00    -0.014 A 
ATOM     67  C   UNL A   1      42.796  21.379  27.011  1.00  0.00     0.010 A 
ATOM     68  C   UNL A   1      44.685  22.655  26.296  1.00  0.00     0.010 A 
ATOM     69  C   UNL A   1      43.126  20.372  26.091  1.00  0.00     0.020 A 
ATOM     70  C   UNL A   1      45.049  21.643  25.396  1.00  0.00     0.020 A 
ATOM     71  C   UNL A   1      44.265  20.502  25.299  1.00  0.00     0.054 A 
BRANCH  71  72
ATOM     72  S   UNL A   1      44.687  19.186  24.130  1.00  0.00     0.124 S 
ATOM     73  O   UNL A   1      44.477  19.834  22.837  1.00  0.00    -0.237 OA
ATOM     74  O   UNL A   1      46.076  18.898  24.474  1.00  0.00    -0.237 OA
ATOM     75  O   UNL A   1      43.738  18.121  24.445  1.00  0.00    -0.744 OA
ENDBRANCH  71  72
ENDBRANCH  52  66
BRANCH  53  76
ATOM     76  C   UNL A   1      40.984  30.002  32.710  1.00  0.00    -0.014 A 
ATOM     77  C   UNL A   1      40.782  31.403  32.701  1.00  0.00     0.010 A 
ATOM     78  C   UNL A   1      39.849  29.174  32.766  1.00  0.00     0.010 A 
ATOM     79  C   UNL A   1      39.497  31.955  32.661  1.00  0.00     0.020 A 
ATOM     80  C   UNL A   1      38.551  29.727  32.737  1.00  0.00     0.020 A 
ATOM     81  C   UNL A   1      38.384  31.114  32.667  1.00  0.00     0.054 A 
BRANCH  81  82
ATOM     82  S   UNL A   1      36.725  31.841  32.459  1.00  0.00     0.124 S 
ATOM     83  O   UNL A   1      36.023  30.804  31.704  1.00  0.00    -0.237 OA
ATOM     84  O   UNL A   1      36.260  32.012  33.830  1.00  0.00    -0.237 OA
ATOM     85  O   UNL A   1      37.015  33.072  31.736  1.00  0.00    -0.744 OA
ENDBRANCH  81  82
ENDBRANCH  53  76
BRANCH  65  86
ATOM     86  C   UNL A   1      45.137  24.018  33.522  1.00  0.00    -0.014 A 
ATOM     87  C   UNL A   1      46.434  23.871  34.028  1.00  0.00     0.010 A 
ATOM     88  C   UNL A   1      44.215  23.001  33.892  1.00  0.00     0.010 A 
ATOM     89  C   UNL A   1      46.774  22.825  34.898  1.00  0.00     0.020 A 
ATOM     90  C   UNL A   1      44.531  21.962  34.770  1.00  0.00     0.020 A 
ATOM     91  C   UNL A   1      45.816  21.887  35.278  1.00  0.00     0.054 A 
BRANCH  91  92
ATOM     92  S   UNL A   1      46.276  20.586  36.442  1.00  0.00     0.124 S 
ATOM     93  O   UNL A   1      47.734  20.615  36.370  1.00  0.00    -0.237 OA
ATOM     94  O   UNL A   1      45.699  21.073  37.693  1.00  0.00    -0.237 OA
ATOM     95  O   UNL A   1      45.647  19.387  35.895  1.00  0.00    -0.744 OA
ENDBRANCH  91  92
ENDBRANCH  65  86
ENDBRANCH  39  40
ENDBRANCH  31  34
ENDBRANCH   1  30
TORSDOF 14
ENDMDL
MODEL 2
REMARK VINA RESULT:     -14.4      1.142      3.035
REMARK SMILES Cc1ccccc1[C@@H]1[NH2+][C@@H](C(=O)NCCCNC(=O)c2ccc(-c3c4nc(c(-c5ccc(S(=O)(=O)[O-])cc5)c5ccc([nH]5)c(-c5ccc(S(=O)(=O)[O-])cc5)c5nc(c(-c6ccc(S(=O)(=O)[O-])cc6)c6ccc3[nH]6)C=C5)C=C4)cc2)CC2=c3ccccc3=N[C@@H]21
REMARK SMILES IDX 16 1 15 2 14 3 13 4 11 5 12 6 10 8 8 9 9 10 89 11 81 14
REMARK SMILES IDX 88 15 80 16 82 17 87 18 83 19 86 20 84 21 85 22 7 23 1 24
REMARK SMILES IDX 2 25 3 26 4 27 6 28 5 29 17 30 18 31 19 33 20 34 21 35 79 36
REMARK SMILES IDX 22 37 78 38 23 39 24 40 25 41 72 42 26 43 77 44 71 45 73 46
REMARK SMILES IDX 27 47 76 48 70 49 69 50 28 52 58 53 39 54 57 55 40 56 43 57
REMARK SMILES IDX 56 58 74 59 41 60 42 61 55 63 75 64 44 65 29 66 30 67 38 68
REMARK SMILES IDX 31 69 37 70 32 71 33 72 34 73 35 74 36 75 59 76 60 77 68 78
REMARK SMILES IDX 61 79 67 80 62 81 63 82 64 83 65 84 66 85 45 86 46 87 54 88
REMARK SMILES IDX 47 89 53 90 48 91 49 92 50 93 51 94 52 95
REMARK H PARENT 13 7 9 12 9 13 17 32 73 51 43 62
REMARK Flexibility Score: inf
ROOT
ATOM      1  C   UNL A   1      34.971  30.845  28.107  1.00  0.00     0.118 C 
ENDROOT
BRANCH   1   2
ATOM      2  C   UNL A   1      33.740  31.644  27.639  1.00  0.00     0.042 C 
BRANCH   2   3
ATOM      3  C   UNL A   1      32.449  30.939  27.117  1.00  0.00     0.118 C 
BRANCH   3   4
ATOM      4  N   UNL A   1      31.837  29.669  27.591  1.00  0.00    -0.351 N 
ATOM      5  C   UNL A   1      31.703  28.413  26.966  1.00  0.00     0.278 C 
ATOM      6  O   UNL A   1      31.708  27.366  27.605  1.00  0.00    -0.268 OA
ATOM      7  H   UNL A   1      31.461  29.712  28.499  1.00  0.00     0.163 HD
BRANCH   5   8
ATOM      8  C   UNL A   1      31.411  28.513  25.481  1.00  0.00     0.277 C 
ATOM      9  C   UNL A   1      31.446  26.388  24.120  1.00  0.00     0.243 C 
ATOM     10  N   UNL A   1      30.877  27.188  25.204  1.00  0.00    -0.327 N 
ATOM     11  C   UNL A   1      31.007  27.231  22.830  1.00  0.00     0.196 C 
ATOM     12  H   UNL A   1      30.981  26.642  26.060  1.00  0.00     0.347 HD
ATOM     13  H   UNL A   1      29.925  27.377  24.887  1.00  0.00     0.347 HD
ATOM     14  C   UNL A   1      31.334  28.737  23.122  1.00  0.00    -0.024 C 
ATOM     15  N   UNL A   1      29.520  27.254  22.633  1.00  0.00    -0.270 NA
ATOM     16  C   UNL A   1      32.284  28.995  24.313  1.00  0.00     0.109 C 
ATOM     17  C   UNL A   1      30.245  29.514  22.961  1.00  0.00     0.002 A 
ATOM     18  C   UNL A   1      29.180  28.509  22.723  1.00  0.00     0.066 A 
ATOM     19  C   UNL A   1      29.913  30.791  23.559  1.00  0.00     0.010 A 
ATOM     20  C   UNL A   1      27.785  29.023  22.800  1.00  0.00     0.028 A 
ATOM     21  C   UNL A   1      28.625  31.109  23.778  1.00  0.00     0.001 A 
ATOM     22  C   UNL A   1      27.555  30.235  23.338  1.00  0.00     0.002 A 
BRANCH   9  23
ATOM     23  C   UNL A   1      31.150  24.919  24.538  1.00  0.00     0.015 A 
ATOM     24  C   UNL A   1      32.543  23.801  22.701  1.00  0.00     0.045 C 
ATOM     25  C   UNL A   1      31.703  23.770  23.942  1.00  0.00    -0.042 A 
ATOM     26  C   UNL A   1      31.643  22.518  24.619  1.00  0.00     0.004 A 
ATOM     27  C   UNL A   1      31.106  22.386  25.897  1.00  0.00     0.000 A 
ATOM     28  C   UNL A   1      30.573  24.708  25.828  1.00  0.00     0.010 A 
ATOM     29  C   UNL A   1      30.593  23.501  26.511  1.00  0.00     0.001 A 
ENDBRANCH   9  23
ENDBRANCH   5   8
ENDBRANCH   3   4
ENDBRANCH   2   3
ENDBRANCH   1   2
BRANCH   1  30
ATOM     30  N   UNL A   1      36.244  31.472  27.708  1.00  0.00    -0.352 N 
ATOM     31  C   UNL A   1      37.452  31.257  28.377  1.00  0.00     0.251 C 
ATOM     32  H   UNL A   1      36.242  32.074  26.930  1.00  0.00     0.163 HD
ATOM     33  O   UNL A   1      37.998  32.055  29.111  1.00  0.00    -0.269 OA
BRANCH  31  34
ATOM     34  C   UNL A   1      37.954  29.874  28.259  1.00  0.00     0.039 A 
ATOM     35  C   UNL A   1      37.843  28.998  29.343  1.00  0.00     0.014 A 
ATOM     36  C   UNL A   1      38.881  29.675  27.242  1.00  0.00     0.014 A 
ATOM     37  C   UNL A   1      38.852  28.081  29.568  1.00  0.00     0.010 A 
ATOM     38  C   UNL A   1      39.902  28.791  27.481  1.00  0.00     0.010 A 
ATOM     39  C   UNL A   1      39.928  28.087  28.691  1.00  0.00    -0.014 A 
BRANCH  39  40
ATOM     40  C   UNL A   1      41.199  27.485  29.024  1.00  0.00     0.031 A 
ATOM     41  C   UNL A   1      41.444  26.106  28.621  1.00  0.00     0.074 A 
ATOM     42  C   UNL A   1      42.132  28.270  29.596  1.00  0.00     0.049 A 
ATOM     43  N   UNL A   1      42.352  25.355  29.130  1.00  0.00    -0.248 NA
ATOM     44  C   UNL A   1      40.601  25.429  27.642  1.00  0.00     0.031 C 
ATOM     45  C   UNL A   1      43.567  28.052  29.746  1.00  0.00     0.029 A 
ATOM     46  N   UNL A   1      41.888  29.436  30.317  1.00  0.00    -0.354 N 
ATOM     47  C   UNL A   1      42.435  24.244  28.325  1.00  0.00     0.074 A 
ATOM     48  C   UNL A   1      41.239  24.264  27.519  1.00  0.00     0.031 C 
ATOM     49  C   UNL A   1      44.039  28.915  30.668  1.00  0.00     0.029 A 
ATOM     50  C   UNL A   1      42.879  29.534  31.295  1.00  0.00     0.049 A 
ATOM     51  H   UNL A   1      41.153  30.073  30.165  1.00  0.00     0.167 HD
ATOM     52  C   UNL A   1      43.605  23.549  28.302  1.00  0.00     0.031 A 
ATOM     53  C   UNL A   1      42.522  29.314  32.597  1.00  0.00     0.031 A 
ATOM     54  C   UNL A   1      44.544  24.083  29.294  1.00  0.00     0.049 A 
ATOM     55  C   UNL A   1      43.177  28.074  33.181  1.00  0.00     0.074 A 
ATOM     56  C   UNL A   1      45.641  24.924  29.204  1.00  0.00     0.029 A 
ATOM     57  N   UNL A   1      44.175  24.075  30.636  1.00  0.00    -0.354 N 
ATOM     58  N   UNL A   1      43.617  27.059  32.487  1.00  0.00    -0.248 NA
ATOM     59  C   UNL A   1      43.412  27.911  34.607  1.00  0.00     0.031 C 
ATOM     60  C   UNL A   1      45.902  25.451  30.504  1.00  0.00     0.029 A 
ATOM     61  C   UNL A   1      44.981  24.912  31.386  1.00  0.00     0.049 A 
ATOM     62  H   UNL A   1      43.434  23.540  31.004  1.00  0.00     0.167 HD
ATOM     63  C   UNL A   1      44.213  26.139  33.315  1.00  0.00     0.074 A 
ATOM     64  C   UNL A   1      44.034  26.720  34.638  1.00  0.00     0.031 C 
ATOM     65  C   UNL A   1      44.793  24.991  32.837  1.00  0.00     0.031 A 
BRANCH  52  66
ATOM     66  C   UNL A   1      43.984  22.622  27.169  1.00  0.00    -0.014 A 
ATOM     67  C   UNL A   1      43.052  21.669  26.713  1.00  0.00     0.010 A 
ATOM     68  C   UNL A   1      45.249  22.590  26.550  1.00  0.00     0.010 A 
ATOM     69  C   UNL A   1      43.385  20.700  25.753  1.00  0.00     0.020 A 
ATOM     70  C   UNL A   1      45.611  21.608  25.616  1.00  0.00     0.020 A 
ATOM     71  C   UNL A   1      44.672  20.664  25.222  1.00  0.00     0.054 A 
BRANCH  71  72
ATOM     72  S   UNL A   1      45.093  19.398  23.999  1.00  0.00     0.124 S 
ATOM     73  O   UNL A   1      44.523  19.945  22.771  1.00  0.00    -0.237 OA
ATOM     74  O   UNL A   1      46.551  19.375  24.063  1.00  0.00    -0.237 OA
ATOM     75  O   UNL A   1      44.432  18.194  24.501  1.00  0.00    -0.744 OA
ENDBRANCH  71  72
ENDBRANCH  52  66
BRANCH  53  76
ATOM     76  C   UNL A   1      41.151  29.819  32.946  1.00  0.00    -0.014 A 
ATOM     77  C   UNL A   1      40.958  31.220  33.021  1.00  0.00     0.010 A 
ATOM     78  C   UNL A   1      40.009  29.001  32.888  1.00  0.00     0.010 A 
ATOM     79  C   UNL A   1      39.680  31.786  32.951  1.00  0.00     0.020 A 
ATOM     80  C   UNL A   1      38.718  29.567  32.830  1.00  0.00     0.020 A 
ATOM     81  C   UNL A   1      38.564  30.957  32.844  1.00  0.00     0.054 A 
BRANCH  81  82
ATOM     82  S   UNL A   1      36.922  31.711  32.601  1.00  0.00     0.124 S 
ATOM     83  O   UNL A   1      37.244  32.924  31.848  1.00  0.00    -0.237 OA
ATOM     84  O   UNL A   1      36.197  30.701  31.840  1.00  0.00    -0.237 OA
ATOM     85  O   UNL A   1      36.468  31.911  33.971  1.00  0.00    -0.744 OA
ENDBRANCH  81  82
ENDBRANCH  53  76
BRANCH  65  86
ATOM     86  C   UNL A   1      45.251  23.785  33.650  1.00  0.00    -0.014 A 
ATOM     87  C   UNL A   1      46.539  23.581  34.155  1.00  0.00     0.010 A 
ATOM     88  C   UNL A   1      44.295  22.787  33.983  1.00  0.00     0.010 A 
ATOM     89  C   UNL A   1      46.842  22.496  34.993  1.00  0.00     0.020 A 
ATOM     90  C   UNL A   1      44.574  21.711  34.828  1.00  0.00     0.020 A 
ATOM     91  C   UNL A   1      45.853  21.578  35.338  1.00  0.00     0.054 A 
BRANCH  91  92
ATOM     92  S   UNL A   1      46.266  20.226  36.461  1.00  0.00     0.124 S 
ATOM     93  O   UNL A   1      47.725  20.238  36.428  1.00  0.00    -0.237 OA
ATOM     94  O   UNL A   1      45.663  20.671  37.715  1.00  0.00    -0.237 OA
ATOM     95  O   UNL A   1      45.637  19.058  35.851  1.00  0.00    -0.744 OA
ENDBRANCH  91  92
ENDBRANCH  65  86
ENDBRANCH  39  40
ENDBRANCH  31  34
ENDBRANCH   1  30
TORSDOF 14
ENDMDL
MODEL 3
REMARK VINA RESULT:     -13.0      1.979      3.700
REMARK SMILES Cc1ccccc1[C@@H]1[NH2+][C@@H](C(=O)NCCCNC(=O)c2ccc(-c3c4nc(c(-c5ccc(S(=O)(=O)[O-])cc5)c5ccc([nH]5)c(-c5ccc(S(=O)(=O)[O-])cc5)c5nc(c(-c6ccc(S(=O)(=O)[O-])cc6)c6ccc3[nH]6)C=C5)C=C4)cc2)CC2=c3ccccc3=N[C@@H]21
REMARK SMILES IDX 16 1 15 2 14 3 13 4 11 5 12 6 10 8 8 9 9 10 89 11 81 14
REMARK SMILES IDX 88 15 80 16 82 17 87 18 83 19 86 20 84 21 85 22 7 23 1 24
REMARK SMILES IDX 2 25 3 26 4 27 6 28 5 29 17 30 18 31 19 33 20 34 21 35 79 36
REMARK SMILES IDX 22 37 78 38 23 39 24 40 25 41 72 42 26 43 77 44 71 45 73 46
REMARK SMILES IDX 27 47 76 48 70 49 69 50 28 52 58 53 39 54 57 55 40 56 43 57
REMARK SMILES IDX 56 58 74 59 41 60 42 61 55 63 75 64 44 65 29 66 30 67 38 68
REMARK SMILES IDX 31 69 37 70 32 71 33 72 34 73 35 74 36 75 59 76 60 77 68 78
REMARK SMILES IDX 61 79 67 80 62 81 63 82 64 83 65 84 66 85 45 86 46 87 54 88
REMARK SMILES IDX 47 89 53 90 48 91 49 92 50 93 51 94 52 95
REMARK H PARENT 13 7 9 12 9 13 17 32 73 51 43 62
REMARK Flexibility Score: inf
ROOT
ATOM      1  C   UNL A   1      35.119  30.417  27.742  1.00  0.00     0.118 C 
ENDROOT
BRANCH   1   2
ATOM      2  C   UNL A   1      33.927  31.372  27.538  1.00  0.00     0.042 C 
BRANCH   2   3
ATOM      3  C   UNL A   1      32.511  30.851  27.144  1.00  0.00     0.118 C 
BRANCH   3   4
ATOM      4  N   UNL A   1      31.848  29.582  27.552  1.00  0.00    -0.351 N 
ATOM      5  C   UNL A   1      31.676  28.363  26.868  1.00  0.00     0.278 C 
ATOM      6  O   UNL A   1      31.636  27.288  27.457  1.00  0.00    -0.268 OA
ATOM      7  H   UNL A   1      31.464  29.597  28.458  1.00  0.00     0.163 HD
BRANCH   5   8
ATOM      8  C   UNL A   1      31.402  28.543  25.387  1.00  0.00     0.277 C 
ATOM      9  C   UNL A   1      31.589  26.518  23.891  1.00  0.00     0.243 C 
ATOM     10  N   UNL A   1      30.954  27.209  25.014  1.00  0.00    -0.327 N 
ATOM     11  C   UNL A   1      31.120  27.417  22.651  1.00  0.00     0.196 C 
ATOM     12  H   UNL A   1      31.078  26.616  25.834  1.00  0.00     0.347 HD
ATOM     13  H   UNL A   1      29.999  27.362  24.690  1.00  0.00     0.347 HD
ATOM     14  C   UNL A   1      31.351  28.917  23.046  1.00  0.00    -0.024 C 
ATOM     15  N   UNL A   1      29.638  27.364  22.425  1.00  0.00    -0.270 NA
ATOM     16  C   UNL A   1      32.263  29.152  24.270  1.00  0.00     0.109 C 
ATOM     17  C   UNL A   1      30.219  29.636  22.914  1.00  0.00     0.002 A 
ATOM     18  C   UNL A   1      29.221  28.588  22.589  1.00  0.00     0.066 A 
ATOM     19  C   UNL A   1      29.800  30.850  23.586  1.00  0.00     0.010 A 
ATOM     20  C   UNL A   1      27.796  29.011  22.671  1.00  0.00     0.028 A 
ATOM     21  C   UNL A   1      28.492  31.075  23.799  1.00  0.00     0.001 A 
ATOM     22  C   UNL A   1      27.484  30.169  23.282  1.00  0.00     0.002 A 
BRANCH   9  23
ATOM     23  C   UNL A   1      31.376  25.010  24.207  1.00  0.00     0.015 A 
ATOM     24  C   UNL A   1      33.232  24.122  22.680  1.00  0.00     0.045 C 
ATOM     25  C   UNL A   1      32.163  23.951  23.716  1.00  0.00    -0.042 A 
ATOM     26  C   UNL A   1      32.102  22.671  24.340  1.00  0.00     0.004 A 
ATOM     27  C   UNL A   1      31.332  22.430  25.474  1.00  0.00     0.000 A 
ATOM     28  C   UNL A   1      30.572  24.685  25.344  1.00  0.00     0.010 A 
ATOM     29  C   UNL A   1      30.584  23.458  25.990  1.00  0.00     0.001 A 
ENDBRANCH   9  23
ENDBRANCH   5   8
ENDBRANCH   3   4
ENDBRANCH   2   3
ENDBRANCH   1   2
BRANCH   1  30
ATOM     30  N   UNL A   1      36.299  31.091  28.312  1.00  0.00    -0.352 N 
ATOM     31  C   UNL A   1      37.035  30.579  29.385  1.00  0.00     0.251 C 
ATOM     32  H   UNL A   1      36.583  31.945  27.916  1.00  0.00     0.163 HD
ATOM     33  O   UNL A   1      37.007  31.007  30.520  1.00  0.00    -0.269 OA
BRANCH  31  34
ATOM     34  C   UNL A   1      37.749  29.326  29.068  1.00  0.00     0.039 A 
ATOM     35  C   UNL A   1      38.109  28.451  30.095  1.00  0.00     0.014 A 
ATOM     36  C   UNL A   1      38.387  29.317  27.832  1.00  0.00     0.014 A 
ATOM     37  C   UNL A   1      39.301  27.759  29.997  1.00  0.00     0.010 A 
ATOM     38  C   UNL A   1      39.588  28.660  27.746  1.00  0.00     0.010 A 
ATOM     39  C   UNL A   1      40.078  27.982  28.868  1.00  0.00    -0.014 A 
BRANCH  39  40
ATOM     40  C   UNL A   1      41.485  27.652  28.821  1.00  0.00     0.031 A 
ATOM     41  C   UNL A   1      41.868  26.266  28.589  1.00  0.00     0.074 A 
ATOM     42  C   UNL A   1      42.367  28.668  28.888  1.00  0.00     0.049 A 
ATOM     43  N   UNL A   1      43.027  25.782  28.857  1.00  0.00    -0.248 NA
ATOM     44  C   UNL A   1      40.917  25.275  28.098  1.00  0.00     0.031 C 
ATOM     45  C   UNL A   1      43.786  28.691  28.551  1.00  0.00     0.029 A 
ATOM     46  N   UNL A   1      42.130  29.921  29.447  1.00  0.00    -0.354 N 
ATOM     47  C   UNL A   1      43.077  24.541  28.268  1.00  0.00     0.074 A 
ATOM     48  C   UNL A   1      41.709  24.213  27.949  1.00  0.00     0.031 C 
ATOM     49  C   UNL A   1      44.339  29.795  29.090  1.00  0.00     0.029 A 
ATOM     50  C   UNL A   1      43.339  30.372  29.979  1.00  0.00     0.049 A 
ATOM     51  H   UNL A   1      41.269  30.399  29.464  1.00  0.00     0.167 HD
ATOM     52  C   UNL A   1      44.295  24.029  27.945  1.00  0.00     0.031 A 
ATOM     53  C   UNL A   1      43.471  30.404  31.340  1.00  0.00     0.031 A 
ATOM     54  C   UNL A   1      45.369  24.897  28.437  1.00  0.00     0.049 A 
ATOM     55  C   UNL A   1      44.521  29.431  31.847  1.00  0.00     0.074 A 
ATOM     56  C   UNL A   1      46.180  25.841  27.826  1.00  0.00     0.029 A 
ATOM     57  N   UNL A   1      45.460  25.140  29.804  1.00  0.00    -0.354 N 
ATOM     58  N   UNL A   1      44.917  28.356  31.218  1.00  0.00    -0.248 NA
ATOM     59  C   UNL A   1      45.230  29.627  33.102  1.00  0.00     0.031 C 
ATOM     60  C   UNL A   1      46.728  26.677  28.844  1.00  0.00     0.029 A 
ATOM     61  C   UNL A   1      46.271  26.228  30.071  1.00  0.00     0.049 A 
ATOM     62  H   UNL A   1      45.005  24.604  30.494  1.00  0.00     0.167 HD
ATOM     63  C   UNL A   1      45.925  27.739  31.918  1.00  0.00     0.074 A 
ATOM     64  C   UNL A   1      46.061  28.572  33.104  1.00  0.00     0.031 C 
ATOM     65  C   UNL A   1      46.546  26.604  31.460  1.00  0.00     0.031 A 
BRANCH  52  66
ATOM     66  C   UNL A   1      44.475  22.931  26.919  1.00  0.00    -0.014 A 
ATOM     67  C   UNL A   1      43.381  22.111  26.583  1.00  0.00     0.010 A 
ATOM     68  C   UNL A   1      45.698  22.613  26.294  1.00  0.00     0.010 A 
ATOM     69  C   UNL A   1      43.514  21.001  25.734  1.00  0.00     0.020 A 
ATOM     70  C   UNL A   1      45.857  21.488  25.473  1.00  0.00     0.020 A 
ATOM     71  C   UNL A   1      44.760  20.684  25.197  1.00  0.00     0.054 A 
BRANCH  71  72
ATOM     72  S   UNL A   1      44.920  19.239  24.119  1.00  0.00     0.124 S 
ATOM     73  O   UNL A   1      46.360  18.997  24.128  1.00  0.00    -0.237 OA
ATOM     74  O   UNL A   1      44.109  18.242  24.812  1.00  0.00    -0.237 OA
ATOM     75  O   UNL A   1      44.380  19.696  22.840  1.00  0.00    -0.744 OA
ENDBRANCH  71  72
ENDBRANCH  52  66
BRANCH  53  76
ATOM     76  C   UNL A   1      42.211  30.780  32.066  1.00  0.00    -0.014 A 
ATOM     77  C   UNL A   1      41.297  29.748  32.389  1.00  0.00     0.010 A 
ATOM     78  C   UNL A   1      42.051  32.023  32.704  1.00  0.00     0.010 A 
ATOM     79  C   UNL A   1      40.319  29.921  33.374  1.00  0.00     0.020 A 
ATOM     80  C   UNL A   1      41.058  32.205  33.689  1.00  0.00     0.020 A 
ATOM     81  C   UNL A   1      40.210  31.147  34.030  1.00  0.00     0.054 A 
BRANCH  81  82
ATOM     82  S   UNL A   1      39.034  31.308  35.414  1.00  0.00     0.124 S 
ATOM     83  O   UNL A   1      39.280  30.084  36.176  1.00  0.00    -0.237 OA
ATOM     84  O   UNL A   1      39.464  32.532  36.079  1.00  0.00    -0.237 OA
ATOM     85  O   UNL A   1      37.753  31.385  34.724  1.00  0.00    -0.744 OA
ENDBRANCH  81  82
ENDBRANCH  53  76
BRANCH  65  86
ATOM     86  C   UNL A   1      47.480  25.688  32.243  1.00  0.00    -0.014 A 
ATOM     87  C   UNL A   1      48.841  25.495  31.985  1.00  0.00     0.010 A 
ATOM     88  C   UNL A   1      46.964  24.993  33.370  1.00  0.00     0.010 A 
ATOM     89  C   UNL A   1      49.651  24.720  32.829  1.00  0.00     0.020 A 
ATOM     90  C   UNL A   1      47.758  24.232  34.231  1.00  0.00     0.020 A 
ATOM     91  C   UNL A   1      49.108  24.109  33.957  1.00  0.00     0.054 A 
BRANCH  91  92
ATOM     92  S   UNL A   1      50.191  23.165  35.050  1.00  0.00     0.124 S 
ATOM     93  O   UNL A   1      50.336  21.907  34.323  1.00  0.00    -0.237 OA
ATOM     94  O   UNL A   1      51.386  24.003  35.100  1.00  0.00    -0.237 OA
ATOM     95  O   UNL A   1      49.441  23.080  36.300  1.00  0.00    -0.744 OA
ENDBRANCH  91  92
ENDBRANCH  65  86
ENDBRANCH  39  40
ENDBRANCH  31  34
ENDBRANCH   1  30
TORSDOF 14
ENDMDL
