MODEL 1
REMARK VINA RESULT:     -10.8      0.000      0.000
REMARK SMILES CCCc1cc(OC(F)(F)F)cc2c1O[C@@H](C(F)(F)F)C(C(=O)NCCCNC(=O)c1ccc(-c3c4nc(c(-c5ccc(S(=O)(=O)[O-])cc5)c5ccc([nH]5)c(-c5ccc(S(=O)(=O)[O-])cc5)c5nc(c(-c6ccc(S(=O)(=O)[O-])cc6)c6ccc3[nH]6)C=C5)C=C4)cc1)=C2
REMARK SMILES IDX 26 1 25 2 24 3 22 4 23 5 21 7 4 8 5 9 14 10 6 11 13 12 15 13
REMARK SMILES IDX 12 14 91 15 16 16 3 17 2 18 1 19 7 20 8 21 9 22 10 23 11 24
REMARK SMILES IDX 17 25 18 26 19 27 20 28 27 29 28 30 29 31 30 33 31 34 32 35
REMARK SMILES IDX 90 36 33 37 89 38 34 39 35 40 36 41 83 42 37 43 88 44 82 45
REMARK SMILES IDX 84 46 38 47 87 48 81 49 80 50 39 52 69 53 50 54 68 55 51 56
REMARK SMILES IDX 54 57 67 58 85 59 52 60 53 61 66 63 86 64 55 65 40 66 41 67
REMARK SMILES IDX 49 68 42 69 48 70 43 71 44 72 45 73 46 74 47 75 70 76 71 77
REMARK SMILES IDX 79 78 72 79 78 80 73 81 74 82 75 83 76 84 77 85 56 86 57 87
REMARK SMILES IDX 65 88 58 89 64 90 59 91 60 92 61 93 62 94 63 95
REMARK H PARENT 24 6 28 32 84 51 54 62
REMARK Flexibility Score: inf
ROOT
ATOM      1  C   UNL A   1      35.700  23.522  26.118  1.00  0.00     0.042 C 
ENDROOT
BRANCH   1   2
ATOM      2  C   UNL A   1      34.759  22.473  25.518  1.00  0.00     0.118 C 
BRANCH   2   3
ATOM      3  N   UNL A   1      33.569  22.325  26.343  1.00  0.00    -0.352 N 
ATOM      4  C   UNL A   1      32.561  23.170  26.679  1.00  0.00     0.251 C 
ATOM      5  O   UNL A   1      31.762  22.791  27.533  1.00  0.00    -0.270 OA
ATOM      6  H   UNL A   1      33.476  21.429  26.737  1.00  0.00     0.163 HD
BRANCH   4   7
ATOM      7  C   UNL A   1      32.339  24.479  26.013  1.00  0.00     0.067 C 
ATOM      8  C   UNL A   1      31.716  27.991  23.790  1.00  0.00    -0.002 A 
ATOM      9  C   UNL A   1      32.359  29.177  24.189  1.00  0.00     0.054 A 
ATOM     10  C   UNL A   1      31.926  26.817  24.526  1.00  0.00     0.131 A 
ATOM     11  C   UNL A   1      33.179  29.198  25.318  1.00  0.00     0.130 A 
ATOM     12  C   UNL A   1      32.716  26.838  25.671  1.00  0.00     0.021 A 
ATOM     13  O   UNL A   1      31.386  25.664  24.037  1.00  0.00    -0.475 OA
ATOM     14  C   UNL A   1      33.339  28.027  26.062  1.00  0.00     0.058 A 
ATOM     15  C   UNL A   1      32.940  25.608  26.415  1.00  0.00     0.025 C 
ATOM     16  C   UNL A   1      31.255  24.527  24.939  1.00  0.00     0.314 C 
BRANCH   8  17
ATOM     17  C   UNL A   1      30.756  28.021  22.622  1.00  0.00     0.039 C 
BRANCH  17  18
ATOM     18  C   UNL A   1      29.627  29.048  22.799  1.00  0.00     0.001 C 
ATOM     19  C   UNL A   1      28.279  28.420  23.130  1.00  0.00     0.004 C 
ENDBRANCH  17  18
ENDBRANCH   8  17
BRANCH  11  20
ATOM     20  O   UNL A   1      33.872  30.271  25.802  1.00  0.00    -0.406 OA
BRANCH  20  21
ATOM     21  C   UNL A   1      33.822  30.521  27.195  1.00  0.00     0.573 C 
ATOM     22  F   UNL A   1      34.477  29.559  27.884  1.00  0.00    -0.132 F 
ATOM     23  F   UNL A   1      34.355  31.724  27.494  1.00  0.00    -0.132 F 
ATOM     24  F   UNL A   1      32.534  30.515  27.596  1.00  0.00    -0.132 F 
ENDBRANCH  20  21
ENDBRANCH  11  20
BRANCH  16  25
ATOM     25  C   UNL A   1      31.083  23.276  24.046  1.00  0.00     0.429 C 
ATOM     26  F   UNL A   1      32.240  22.861  23.485  1.00  0.00    -0.167 F 
ATOM     27  F   UNL A   1      30.646  22.215  24.782  1.00  0.00    -0.167 F 
ATOM     28  F   UNL A   1      30.174  23.461  23.062  1.00  0.00    -0.167 F 
ENDBRANCH  16  25
ENDBRANCH   4   7
ENDBRANCH   2   3
ENDBRANCH   1   2
BRANCH   1  29
ATOM     29  C   UNL A   1      36.947  23.759  25.265  1.00  0.00     0.118 C 
BRANCH  29  30
ATOM     30  N   UNL A   1      38.003  22.808  25.583  1.00  0.00    -0.352 N 
ATOM     31  C   UNL A   1      39.236  23.023  26.148  1.00  0.00     0.251 C 
ATOM     32  H   UNL A   1      37.805  21.871  25.358  1.00  0.00     0.163 HD
ATOM     33  O   UNL A   1      40.091  22.145  26.088  1.00  0.00    -0.269 OA
BRANCH  31  34
ATOM     34  C   UNL A   1      39.534  24.307  26.817  1.00  0.00     0.039 A 
ATOM     35  C   UNL A   1      39.063  24.522  28.115  1.00  0.00     0.014 A 
ATOM     36  C   UNL A   1      40.254  25.306  26.156  1.00  0.00     0.014 A 
ATOM     37  C   UNL A   1      39.376  25.712  28.777  1.00  0.00     0.010 A 
ATOM     38  C   UNL A   1      40.618  26.463  26.839  1.00  0.00     0.010 A 
ATOM     39  C   UNL A   1      40.192  26.673  28.159  1.00  0.00    -0.014 A 
BRANCH  39  40
ATOM     40  C   UNL A   1      40.646  27.888  28.882  1.00  0.00     0.031 A 
ATOM     41  C   UNL A   1      41.985  27.911  29.566  1.00  0.00     0.074 A 
ATOM     42  C   UNL A   1      39.806  28.936  28.999  1.00  0.00     0.049 A 
ATOM     43  N   UNL A   1      42.500  28.835  30.335  1.00  0.00    -0.248 NA
ATOM     44  C   UNL A   1      42.847  26.733  29.378  1.00  0.00     0.031 C 
ATOM     45  C   UNL A   1      38.469  29.021  28.404  1.00  0.00     0.029 A 
ATOM     46  N   UNL A   1      39.945  30.125  29.671  1.00  0.00    -0.354 N 
ATOM     47  C   UNL A   1      43.738  28.346  30.737  1.00  0.00     0.074 A 
ATOM     48  C   UNL A   1      43.877  27.026  30.159  1.00  0.00     0.031 C 
ATOM     49  C   UNL A   1      37.918  30.201  28.727  1.00  0.00     0.029 A 
ATOM     50  C   UNL A   1      38.837  30.936  29.590  1.00  0.00     0.049 A 
ATOM     51  H   UNL A   1      40.760  30.373  30.164  1.00  0.00     0.167 HD
ATOM     52  C   UNL A   1      44.677  28.947  31.506  1.00  0.00     0.031 A 
ATOM     53  C   UNL A   1      38.577  32.127  30.164  1.00  0.00     0.031 A 
ATOM     54  C   UNL A   1      44.529  30.260  32.077  1.00  0.00     0.049 A 
ATOM     55  C   UNL A   1      39.618  32.755  31.049  1.00  0.00     0.074 A 
ATOM     56  C   UNL A   1      45.445  30.980  32.825  1.00  0.00     0.029 A 
ATOM     57  N   UNL A   1      43.391  31.047  31.974  1.00  0.00    -0.354 N 
ATOM     58  N   UNL A   1      40.810  32.307  31.361  1.00  0.00    -0.248 NA
ATOM     59  C   UNL A   1      39.279  34.049  31.658  1.00  0.00     0.031 C 
ATOM     60  C   UNL A   1      44.839  32.175  33.225  1.00  0.00     0.029 A 
ATOM     61  C   UNL A   1      43.569  32.229  32.674  1.00  0.00     0.049 A 
ATOM     62  H   UNL A   1      42.579  30.801  31.476  1.00  0.00     0.167 HD
ATOM     63  C   UNL A   1      41.372  33.273  32.188  1.00  0.00     0.074 A 
ATOM     64  C   UNL A   1      40.397  34.338  32.312  1.00  0.00     0.031 C 
ATOM     65  C   UNL A   1      42.586  33.277  32.792  1.00  0.00     0.031 A 
BRANCH  52  66
ATOM     66  C   UNL A   1      45.944  28.183  31.790  1.00  0.00    -0.014 A 
ATOM     67  C   UNL A   1      47.081  28.333  30.976  1.00  0.00     0.010 A 
ATOM     68  C   UNL A   1      46.015  27.338  32.914  1.00  0.00     0.010 A 
ATOM     69  C   UNL A   1      48.251  27.622  31.255  1.00  0.00     0.020 A 
ATOM     70  C   UNL A   1      47.193  26.648  33.213  1.00  0.00     0.020 A 
ATOM     71  C   UNL A   1      48.299  26.781  32.371  1.00  0.00     0.054 A 
BRANCH  71  72
ATOM     72  S   UNL A   1      49.838  25.888  32.719  1.00  0.00     0.124 S 
ATOM     73  O   UNL A   1      49.816  24.842  31.699  1.00  0.00    -0.237 OA
ATOM     74  O   UNL A   1      50.855  26.920  32.538  1.00  0.00    -0.237 OA
ATOM     75  O   UNL A   1      49.666  25.420  34.093  1.00  0.00    -0.744 OA
ENDBRANCH  71  72
ENDBRANCH  52  66
BRANCH  53  76
ATOM     76  C   UNL A   1      37.269  32.796  29.925  1.00  0.00    -0.014 A 
ATOM     77  C   UNL A   1      36.180  32.562  30.782  1.00  0.00     0.010 A 
ATOM     78  C   UNL A   1      37.111  33.688  28.847  1.00  0.00     0.010 A 
ATOM     79  C   UNL A   1      34.954  33.195  30.559  1.00  0.00     0.020 A 
ATOM     80  C   UNL A   1      35.896  34.344  28.637  1.00  0.00     0.020 A 
ATOM     81  C   UNL A   1      34.820  34.086  29.489  1.00  0.00     0.054 A 
BRANCH  81  82
ATOM     82  S   UNL A   1      33.237  34.938  29.252  1.00  0.00     0.124 S 
ATOM     83  O   UNL A   1      32.670  34.905  30.597  1.00  0.00    -0.237 OA
ATOM     84  O   UNL A   1      33.656  36.253  28.773  1.00  0.00    -0.237 OA
ATOM     85  O   UNL A   1      32.550  34.113  28.261  1.00  0.00    -0.744 OA
ENDBRANCH  81  82
ENDBRANCH  53  76
BRANCH  65  86
ATOM     86  C   UNL A   1      42.942  34.475  33.631  1.00  0.00    -0.014 A 
ATOM     87  C   UNL A   1      42.880  34.420  35.035  1.00  0.00     0.010 A 
ATOM     88  C   UNL A   1      43.419  35.644  33.010  1.00  0.00     0.010 A 
ATOM     89  C   UNL A   1      43.274  35.520  35.801  1.00  0.00     0.020 A 
ATOM     90  C   UNL A   1      43.841  36.734  33.774  1.00  0.00     0.020 A 
ATOM     91  C   UNL A   1      43.758  36.668  35.165  1.00  0.00     0.054 A 
BRANCH  91  92
ATOM     92  S   UNL A   1      44.330  38.053  36.187  1.00  0.00     0.124 S 
ATOM     93  O   UNL A   1      44.123  39.193  35.298  1.00  0.00    -0.237 OA
ATOM     94  O   UNL A   1      43.439  37.987  37.343  1.00  0.00    -0.237 OA
ATOM     95  O   UNL A   1      45.727  37.725  36.466  1.00  0.00    -0.744 OA
ENDBRANCH  91  92
ENDBRANCH  65  86
ENDBRANCH  39  40
ENDBRANCH  31  34
ENDBRANCH  29  30
ENDBRANCH   1  29
TORSDOF 18
ENDMDL
MODEL 2
REMARK VINA RESULT:     -10.8      2.985      9.126
REMARK SMILES CCCc1cc(OC(F)(F)F)cc2c1O[C@@H](C(F)(F)F)C(C(=O)NCCCNC(=O)c1ccc(-c3c4nc(c(-c5ccc(S(=O)(=O)[O-])cc5)c5ccc([nH]5)c(-c5ccc(S(=O)(=O)[O-])cc5)c5nc(c(-c6ccc(S(=O)(=O)[O-])cc6)c6ccc3[nH]6)C=C5)C=C4)cc1)=C2
REMARK SMILES IDX 26 1 25 2 24 3 22 4 23 5 21 7 4 8 5 9 14 10 6 11 13 12 15 13
REMARK SMILES IDX 12 14 91 15 16 16 3 17 2 18 1 19 7 20 8 21 9 22 10 23 11 24
REMARK SMILES IDX 17 25 18 26 19 27 20 28 27 29 28 30 29 31 30 33 31 34 32 35
REMARK SMILES IDX 90 36 33 37 89 38 34 39 35 40 36 41 83 42 37 43 88 44 82 45
REMARK SMILES IDX 84 46 38 47 87 48 81 49 80 50 39 52 69 53 50 54 68 55 51 56
REMARK SMILES IDX 54 57 67 58 85 59 52 60 53 61 66 63 86 64 55 65 40 66 41 67
REMARK SMILES IDX 49 68 42 69 48 70 43 71 44 72 45 73 46 74 47 75 70 76 71 77
REMARK SMILES IDX 79 78 72 79 78 80 73 81 74 82 75 83 76 84 77 85 56 86 57 87
REMARK SMILES IDX 65 88 58 89 64 90 59 91 60 92 61 93 62 94 63 95
REMARK H PARENT 24 6 28 32 84 51 54 62
REMARK Flexibility Score: inf
ROOT
ATOM      1  C   UNL A   1      33.635  29.295  24.689  1.00  0.00     0.042 C 
ENDROOT
BRANCH   1   2
ATOM      2  C   UNL A   1      32.124  29.069  24.573  1.00  0.00     0.118 C 
BRANCH   2   3
ATOM      3  N   UNL A   1      31.594  28.521  25.812  1.00  0.00    -0.352 N 
ATOM      4  C   UNL A   1      31.459  27.257  26.286  1.00  0.00     0.251 C 
ATOM      5  O   UNL A   1      30.822  27.103  27.325  1.00  0.00    -0.270 OA
ATOM      6  H   UNL A   1      31.264  29.209  26.433  1.00  0.00     0.163 HD
BRANCH   4   7
ATOM      7  C   UNL A   1      32.109  26.078  25.657  1.00  0.00     0.067 C 
ATOM      8  C   UNL A   1      33.589  22.606  23.808  1.00  0.00    -0.002 A 
ATOM      9  C   UNL A   1      34.730  21.980  24.341  1.00  0.00     0.054 A 
ATOM     10  C   UNL A   1      33.089  23.761  24.425  1.00  0.00     0.131 A 
ATOM     11  C   UNL A   1      35.378  22.510  25.457  1.00  0.00     0.130 A 
ATOM     12  C   UNL A   1      33.749  24.313  25.518  1.00  0.00     0.021 A 
ATOM     13  O   UNL A   1      31.913  24.266  23.955  1.00  0.00    -0.475 OA
ATOM     14  C   UNL A   1      34.889  23.686  26.030  1.00  0.00     0.058 A 
ATOM     15  C   UNL A   1      33.209  25.501  26.161  1.00  0.00     0.025 C 
ATOM     16  C   UNL A   1      31.566  25.639  24.299  1.00  0.00     0.314 C 
BRANCH   8  17
ATOM     17  C   UNL A   1      32.967  22.066  22.539  1.00  0.00     0.039 C 
BRANCH  17  18
ATOM     18  C   UNL A   1      31.926  20.967  22.801  1.00  0.00     0.001 C 
ATOM     19  C   UNL A   1      32.488  19.761  23.543  1.00  0.00     0.004 C 
ENDBRANCH  17  18
ENDBRANCH   8  17
BRANCH  11  20
ATOM     20  O   UNL A   1      36.478  21.995  26.082  1.00  0.00    -0.406 OA
BRANCH  20  21
ATOM     21  C   UNL A   1      37.739  22.172  25.461  1.00  0.00     0.573 C 
ATOM     22  F   UNL A   1      37.778  23.330  24.765  1.00  0.00    -0.132 F 
ATOM     23  F   UNL A   1      38.735  22.165  26.371  1.00  0.00    -0.132 F 
ATOM     24  F   UNL A   1      37.946  21.158  24.595  1.00  0.00    -0.132 F 
ENDBRANCH  20  21
ENDBRANCH  11  20
BRANCH  16  25
ATOM     25  C   UNL A   1      30.044  25.778  24.063  1.00  0.00     0.429 C 
ATOM     26  F   UNL A   1      29.697  26.965  23.517  1.00  0.00    -0.167 F 
ATOM     27  F   UNL A   1      29.606  24.840  23.175  1.00  0.00    -0.167 F 
ATOM     28  F   UNL A   1      29.323  25.601  25.194  1.00  0.00    -0.167 F 
ENDBRANCH  16  25
ENDBRANCH   4   7
ENDBRANCH   2   3
ENDBRANCH   1   2
BRANCH   1  29
ATOM     29  C   UNL A   1      34.152  29.135  26.118  1.00  0.00     0.118 C 
BRANCH  29  30
ATOM     30  N   UNL A   1      33.955  30.348  26.900  1.00  0.00    -0.352 N 
ATOM     31  C   UNL A   1      34.675  30.833  27.964  1.00  0.00     0.251 C 
ATOM     32  H   UNL A   1      33.191  30.904  26.625  1.00  0.00     0.163 HD
ATOM     33  O   UNL A   1      34.200  31.724  28.661  1.00  0.00    -0.269 OA
BRANCH  31  34
ATOM     34  C   UNL A   1      36.011  30.280  28.272  1.00  0.00     0.039 A 
ATOM     35  C   UNL A   1      36.994  30.283  27.278  1.00  0.00     0.014 A 
ATOM     36  C   UNL A   1      36.285  29.734  29.530  1.00  0.00     0.014 A 
ATOM     37  C   UNL A   1      38.274  29.806  27.569  1.00  0.00     0.010 A 
ATOM     38  C   UNL A   1      37.577  29.319  29.837  1.00  0.00     0.010 A 
ATOM     39  C   UNL A   1      38.587  29.360  28.864  1.00  0.00    -0.014 A 
BRANCH  39  40
ATOM     40  C   UNL A   1      39.969  28.967  29.237  1.00  0.00     0.031 A 
ATOM     41  C   UNL A   1      40.901  29.965  29.865  1.00  0.00     0.074 A 
ATOM     42  C   UNL A   1      40.410  27.732  28.921  1.00  0.00     0.049 A 
ATOM     43  N   UNL A   1      42.170  29.837  30.155  1.00  0.00    -0.248 NA
ATOM     44  C   UNL A   1      40.338  31.286  30.190  1.00  0.00     0.031 C 
ATOM     45  C   UNL A   1      39.608  26.684  28.284  1.00  0.00     0.029 A 
ATOM     46  N   UNL A   1      41.645  27.154  29.078  1.00  0.00    -0.354 N 
ATOM     47  C   UNL A   1      42.564  31.063  30.680  1.00  0.00     0.074 A 
ATOM     48  C   UNL A   1      41.408  31.933  30.631  1.00  0.00     0.031 C 
ATOM     49  C   UNL A   1      40.367  25.590  28.116  1.00  0.00     0.029 A 
ATOM     50  C   UNL A   1      41.720  25.872  28.587  1.00  0.00     0.049 A 
ATOM     51  H   UNL A   1      42.405  27.614  29.503  1.00  0.00     0.167 HD
ATOM     52  C   UNL A   1      43.774  31.425  31.169  1.00  0.00     0.031 A 
ATOM     53  C   UNL A   1      42.763  25.024  28.501  1.00  0.00     0.031 A 
ATOM     54  C   UNL A   1      44.918  30.553  31.213  1.00  0.00     0.049 A 
ATOM     55  C   UNL A   1      44.107  25.464  29.012  1.00  0.00     0.074 A 
ATOM     56  C   UNL A   1      46.172  30.807  31.741  1.00  0.00     0.029 A 
ATOM     57  N   UNL A   1      44.953  29.263  30.703  1.00  0.00    -0.354 N 
ATOM     58  N   UNL A   1      44.442  26.603  29.568  1.00  0.00    -0.248 NA
ATOM     59  C   UNL A   1      45.213  24.505  28.885  1.00  0.00     0.031 C 
ATOM     60  C   UNL A   1      46.983  29.694  31.495  1.00  0.00     0.029 A 
ATOM     61  C   UNL A   1      46.217  28.723  30.871  1.00  0.00     0.049 A 
ATOM     62  H   UNL A   1      44.191  28.801  30.285  1.00  0.00     0.167 HD
ATOM     63  C   UNL A   1      45.793  26.491  29.875  1.00  0.00     0.074 A 
ATOM     64  C   UNL A   1      46.209  25.166  29.460  1.00  0.00     0.031 C 
ATOM     65  C   UNL A   1      46.617  27.404  30.448  1.00  0.00     0.031 A 
BRANCH  52  66
ATOM     66  C   UNL A   1      43.929  32.833  31.684  1.00  0.00    -0.014 A 
ATOM     67  C   UNL A   1      43.678  33.146  33.032  1.00  0.00     0.010 A 
ATOM     68  C   UNL A   1      44.376  33.849  30.819  1.00  0.00     0.010 A 
ATOM     69  C   UNL A   1      43.831  34.455  33.496  1.00  0.00     0.020 A 
ATOM     70  C   UNL A   1      44.558  35.154  31.286  1.00  0.00     0.020 A 
ATOM     71  C   UNL A   1      44.268  35.452  32.619  1.00  0.00     0.054 A 
BRANCH  71  72
ATOM     72  S   UNL A   1      44.478  37.137  33.255  1.00  0.00     0.124 S 
ATOM     73  O   UNL A   1      43.505  37.170  34.345  1.00  0.00    -0.237 OA
ATOM     74  O   UNL A   1      45.879  37.152  33.665  1.00  0.00    -0.237 OA
ATOM     75  O   UNL A   1      44.157  37.985  32.109  1.00  0.00    -0.744 OA
ENDBRANCH  71  72
ENDBRANCH  52  66
BRANCH  53  76
ATOM     76  C   UNL A   1      42.576  23.676  27.897  1.00  0.00    -0.014 A 
ATOM     77  C   UNL A   1      42.212  22.580  28.698  1.00  0.00     0.010 A 
ATOM     78  C   UNL A   1      42.745  23.486  26.512  1.00  0.00     0.010 A 
ATOM     79  C   UNL A   1      42.031  21.316  28.129  1.00  0.00     0.020 A 
ATOM     80  C   UNL A   1      42.538  22.229  25.936  1.00  0.00     0.020 A 
ATOM     81  C   UNL A   1      42.192  21.149  26.750  1.00  0.00     0.054 A 
BRANCH  81  82
ATOM     82  S   UNL A   1      41.898  19.512  26.026  1.00  0.00     0.124 S 
ATOM     83  O   UNL A   1      40.467  19.557  25.745  1.00  0.00    -0.237 OA
ATOM     84  O   UNL A   1      42.775  19.523  24.858  1.00  0.00    -0.237 OA
ATOM     85  O   UNL A   1      42.301  18.592  27.088  1.00  0.00    -0.744 OA
ENDBRANCH  81  82
ENDBRANCH  53  76
BRANCH  65  86
ATOM     86  C   UNL A   1      48.049  27.002  30.677  1.00  0.00    -0.014 A 
ATOM     87  C   UNL A   1      49.039  27.268  29.714  1.00  0.00     0.010 A 
ATOM     88  C   UNL A   1      48.422  26.422  31.903  1.00  0.00     0.010 A 
ATOM     89  C   UNL A   1      50.374  26.946  29.969  1.00  0.00     0.020 A 
ATOM     90  C   UNL A   1      49.760  26.125  32.173  1.00  0.00     0.020 A 
ATOM     91  C   UNL A   1      50.727  26.382  31.199  1.00  0.00     0.054 A 
BRANCH  91  92
ATOM     92  S   UNL A   1      52.477  26.042  31.531  1.00  0.00     0.124 S 
ATOM     93  O   UNL A   1      53.070  26.174  30.203  1.00  0.00    -0.237 OA
ATOM     94  O   UNL A   1      52.832  27.091  32.484  1.00  0.00    -0.237 OA
ATOM     95  O   UNL A   1      52.470  24.687  32.079  1.00  0.00    -0.744 OA
ENDBRANCH  91  92
ENDBRANCH  65  86
ENDBRANCH  39  40
ENDBRANCH  31  34
ENDBRANCH  29  30
ENDBRANCH   1  29
TORSDOF 18
ENDMDL
MODEL 3
REMARK VINA RESULT:     -10.6      2.487      3.070
REMARK SMILES CCCc1cc(OC(F)(F)F)cc2c1O[C@@H](C(F)(F)F)C(C(=O)NCCCNC(=O)c1ccc(-c3c4nc(c(-c5ccc(S(=O)(=O)[O-])cc5)c5ccc([nH]5)c(-c5ccc(S(=O)(=O)[O-])cc5)c5nc(c(-c6ccc(S(=O)(=O)[O-])cc6)c6ccc3[nH]6)C=C5)C=C4)cc1)=C2
REMARK SMILES IDX 26 1 25 2 24 3 22 4 23 5 21 7 4 8 5 9 14 10 6 11 13 12 15 13
REMARK SMILES IDX 12 14 91 15 16 16 3 17 2 18 1 19 7 20 8 21 9 22 10 23 11 24
REMARK SMILES IDX 17 25 18 26 19 27 20 28 27 29 28 30 29 31 30 33 31 34 32 35
REMARK SMILES IDX 90 36 33 37 89 38 34 39 35 40 36 41 83 42 37 43 88 44 82 45
REMARK SMILES IDX 84 46 38 47 87 48 81 49 80 50 39 52 69 53 50 54 68 55 51 56
REMARK SMILES IDX 54 57 67 58 85 59 52 60 53 61 66 63 86 64 55 65 40 66 41 67
REMARK SMILES IDX 49 68 42 69 48 70 43 71 44 72 45 73 46 74 47 75 70 76 71 77
REMARK SMILES IDX 79 78 72 79 78 80 73 81 74 82 75 83 76 84 77 85 56 86 57 87
REMARK SMILES IDX 65 88 58 89 64 90 59 91 60 92 61 93 62 94 63 95
REMARK H PARENT 24 6 28 32 84 51 54 62
REMARK Flexibility Score: inf
ROOT
ATOM      1  C   UNL A   1      36.931  22.633  23.932  1.00  0.00     0.042 C 
ENDROOT
BRANCH   1   2
ATOM      2  C   UNL A   1      35.461  22.901  23.594  1.00  0.00     0.118 C 
BRANCH   2   3
ATOM      3  N   UNL A   1      34.593  22.348  24.622  1.00  0.00    -0.352 N 
ATOM      4  C   UNL A   1      33.671  22.896  25.454  1.00  0.00     0.251 C 
ATOM      5  O   UNL A   1      33.201  22.179  26.334  1.00  0.00    -0.270 OA
ATOM      6  H   UNL A   1      34.696  21.376  24.738  1.00  0.00     0.163 HD
BRANCH   4   7
ATOM      7  C   UNL A   1      33.154  24.279  25.297  1.00  0.00     0.067 C 
ATOM      8  C   UNL A   1      31.580  28.094  24.496  1.00  0.00    -0.002 A 
ATOM      9  C   UNL A   1      32.270  29.230  24.959  1.00  0.00     0.054 A 
ATOM     10  C   UNL A   1      32.105  26.821  24.757  1.00  0.00     0.131 A 
ATOM     11  C   UNL A   1      33.450  29.098  25.690  1.00  0.00     0.130 A 
ATOM     12  C   UNL A   1      33.264  26.681  25.514  1.00  0.00     0.021 A 
ATOM     13  O   UNL A   1      31.477  25.753  24.187  1.00  0.00    -0.475 OA
ATOM     14  C   UNL A   1      33.932  27.818  25.977  1.00  0.00     0.058 A 
ATOM     15  C   UNL A   1      33.808  25.355  25.761  1.00  0.00     0.025 C 
ATOM     16  C   UNL A   1      31.746  24.426  24.725  1.00  0.00     0.314 C 
BRANCH   8  17
ATOM     17  C   UNL A   1      30.252  28.263  23.793  1.00  0.00     0.039 C 
BRANCH  17  18
ATOM     18  C   UNL A   1      29.969  29.717  23.386  1.00  0.00     0.001 C 
ATOM     19  C   UNL A   1      29.354  29.852  21.999  1.00  0.00     0.004 C 
ENDBRANCH  17  18
ENDBRANCH   8  17
BRANCH  11  20
ATOM     20  O   UNL A   1      34.222  30.112  26.181  1.00  0.00    -0.406 OA
BRANCH  20  21
ATOM     21  C   UNL A   1      33.973  30.559  27.502  1.00  0.00     0.573 C 
ATOM     22  F   UNL A   1      34.940  30.138  28.347  1.00  0.00    -0.132 F 
ATOM     23  F   UNL A   1      33.892  31.906  27.553  1.00  0.00    -0.132 F 
ATOM     24  F   UNL A   1      32.799  30.046  27.924  1.00  0.00    -0.132 F 
ENDBRANCH  20  21
ENDBRANCH  11  20
BRANCH  16  25
ATOM     25  C   UNL A   1      31.312  23.416  23.638  1.00  0.00     0.429 C 
ATOM     26  F   UNL A   1      31.088  22.175  24.125  1.00  0.00    -0.167 F 
ATOM     27  F   UNL A   1      30.128  23.793  23.075  1.00  0.00    -0.167 F 
ATOM     28  F   UNL A   1      32.205  23.323  22.627  1.00  0.00    -0.167 F 
ENDBRANCH  16  25
ENDBRANCH   4   7
ENDBRANCH   2   3
ENDBRANCH   1   2
BRANCH   1  29
ATOM     29  C   UNL A   1      37.261  22.889  25.402  1.00  0.00     0.118 C 
BRANCH  29  30
ATOM     30  N   UNL A   1      38.182  21.892  25.928  1.00  0.00    -0.352 N 
ATOM     31  C   UNL A   1      39.429  22.054  26.480  1.00  0.00     0.251 C 
ATOM     32  H   UNL A   1      37.865  20.961  25.880  1.00  0.00     0.163 HD
ATOM     33  O   UNL A   1      40.162  21.079  26.616  1.00  0.00    -0.269 OA
BRANCH  31  34
ATOM     34  C   UNL A   1      39.887  23.394  26.902  1.00  0.00     0.039 A 
ATOM     35  C   UNL A   1      40.517  23.539  28.141  1.00  0.00     0.014 A 
ATOM     36  C   UNL A   1      39.672  24.510  26.088  1.00  0.00     0.014 A 
ATOM     37  C   UNL A   1      40.996  24.791  28.532  1.00  0.00     0.010 A 
ATOM     38  C   UNL A   1      40.206  25.743  26.450  1.00  0.00     0.010 A 
ATOM     39  C   UNL A   1      40.882  25.894  27.670  1.00  0.00    -0.014 A 
BRANCH  39  40
ATOM     40  C   UNL A   1      41.493  27.206  28.002  1.00  0.00     0.031 A 
ATOM     41  C   UNL A   1      42.983  27.392  27.932  1.00  0.00     0.074 A 
ATOM     42  C   UNL A   1      40.706  28.202  28.458  1.00  0.00     0.049 A 
ATOM     43  N   UNL A   1      43.701  28.425  28.290  1.00  0.00    -0.248 NA
ATOM     44  C   UNL A   1      43.769  26.262  27.411  1.00  0.00     0.031 C 
ATOM     45  C   UNL A   1      39.249  28.132  28.599  1.00  0.00     0.029 A 
ATOM     46  N   UNL A   1      41.021  29.461  28.904  1.00  0.00    -0.354 N 
ATOM     47  C   UNL A   1      45.023  28.066  28.054  1.00  0.00     0.074 A 
ATOM     48  C   UNL A   1      45.010  26.705  27.561  1.00  0.00     0.031 C 
ATOM     49  C   UNL A   1      38.797  29.300  29.083  1.00  0.00     0.029 A 
ATOM     50  C   UNL A   1      39.932  30.182  29.334  1.00  0.00     0.049 A 
ATOM     51  H   UNL A   1      41.940  29.815  28.913  1.00  0.00     0.167 HD
ATOM     52  C   UNL A   1      46.145  28.807  28.222  1.00  0.00     0.031 A 
ATOM     53  C   UNL A   1      39.854  31.406  29.892  1.00  0.00     0.031 A 
ATOM     54  C   UNL A   1      46.149  30.159  28.714  1.00  0.00     0.049 A 
ATOM     55  C   UNL A   1      41.117  32.193  30.108  1.00  0.00     0.074 A 
ATOM     56  C   UNL A   1      47.227  31.015  28.868  1.00  0.00     0.029 A 
ATOM     57  N   UNL A   1      45.026  30.852  29.142  1.00  0.00    -0.354 N 
ATOM     58  N   UNL A   1      42.352  31.863  29.815  1.00  0.00    -0.248 NA
ATOM     59  C   UNL A   1      40.976  33.518  30.729  1.00  0.00     0.031 C 
ATOM     60  C   UNL A   1      46.764  32.202  29.445  1.00  0.00     0.029 A 
ATOM     61  C   UNL A   1      45.390  32.110  29.593  1.00  0.00     0.049 A 
ATOM     62  H   UNL A   1      44.107  30.501  29.126  1.00  0.00     0.167 HD
ATOM     63  C   UNL A   1      43.134  32.946  30.198  1.00  0.00     0.074 A 
ATOM     64  C   UNL A   1      42.231  33.949  30.726  1.00  0.00     0.031 C 
ATOM     65  C   UNL A   1      44.479  33.096  30.121  1.00  0.00     0.031 A 
BRANCH  52  66
ATOM     66  C   UNL A   1      47.466  28.165  27.886  1.00  0.00    -0.014 A 
ATOM     67  C   UNL A   1      48.205  27.469  28.860  1.00  0.00     0.010 A 
ATOM     68  C   UNL A   1      47.954  28.218  26.567  1.00  0.00     0.010 A 
ATOM     69  C   UNL A   1      49.425  26.874  28.532  1.00  0.00     0.020 A 
ATOM     70  C   UNL A   1      49.161  27.599  26.228  1.00  0.00     0.020 A 
ATOM     71  C   UNL A   1      49.898  26.946  27.218  1.00  0.00     0.054 A 
BRANCH  71  72
ATOM     72  S   UNL A   1      51.475  26.145  26.818  1.00  0.00     0.124 S 
ATOM     73  O   UNL A   1      52.359  26.692  27.845  1.00  0.00    -0.237 OA
ATOM     74  O   UNL A   1      51.158  24.726  26.953  1.00  0.00    -0.237 OA
ATOM     75  O   UNL A   1      51.756  26.591  25.454  1.00  0.00    -0.744 OA
ENDBRANCH  71  72
ENDBRANCH  52  66
BRANCH  53  76
ATOM     76  C   UNL A   1      38.530  31.956  30.293  1.00  0.00    -0.014 A 
ATOM     77  C   UNL A   1      38.040  31.760  31.595  1.00  0.00     0.010 A 
ATOM     78  C   UNL A   1      37.759  32.697  29.377  1.00  0.00     0.010 A 
ATOM     79  C   UNL A   1      36.799  32.281  31.972  1.00  0.00     0.020 A 
ATOM     80  C   UNL A   1      36.531  33.243  29.758  1.00  0.00     0.020 A 
ATOM     81  C   UNL A   1      36.053  33.024  31.051  1.00  0.00     0.054 A 
BRANCH  81  82
ATOM     82  S   UNL A   1      34.472  33.738  31.579  1.00  0.00     0.124 S 
ATOM     83  O   UNL A   1      34.898  34.974  32.226  1.00  0.00    -0.237 OA
ATOM     84  O   UNL A   1      33.760  33.897  30.312  1.00  0.00    -0.237 OA
ATOM     85  O   UNL A   1      33.919  32.720  32.470  1.00  0.00    -0.744 OA
ENDBRANCH  81  82
ENDBRANCH  53  76
BRANCH  65  86
ATOM     86  C   UNL A   1      45.063  34.397  30.603  1.00  0.00    -0.014 A 
ATOM     87  C   UNL A   1      45.177  35.503  29.744  1.00  0.00     0.010 A 
ATOM     88  C   UNL A   1      45.429  34.536  31.955  1.00  0.00     0.010 A 
ATOM     89  C   UNL A   1      45.662  36.722  30.224  1.00  0.00     0.020 A 
ATOM     90  C   UNL A   1      45.887  35.762  32.445  1.00  0.00     0.020 A 
ATOM     91  C   UNL A   1      46.009  36.845  31.574  1.00  0.00     0.054 A 
BRANCH  91  92
ATOM     92  S   UNL A   1      46.566  38.459  32.186  1.00  0.00     0.124 S 
ATOM     93  O   UNL A   1      45.407  38.911  32.951  1.00  0.00    -0.237 OA
ATOM     94  O   UNL A   1      47.744  38.110  32.978  1.00  0.00    -0.237 OA
ATOM     95  O   UNL A   1      46.844  39.215  30.967  1.00  0.00    -0.744 OA
ENDBRANCH  91  92
ENDBRANCH  65  86
ENDBRANCH  39  40
ENDBRANCH  31  34
ENDBRANCH  29  30
ENDBRANCH   1  29
TORSDOF 18
ENDMDL
