MODEL 1
REMARK VINA RESULT:     -10.7      0.000      0.000
REMARK SMILES Cc1cccc(Cl)c1Nc1ccccc1CC(=O)NCCCNC(=O)c1ccc(-c2c3nc(c(-c4ccc(S(=O)(=O)[O-])cc4)c4ccc([nH]4)c(-c4ccc(S(=O)(=O)[O-])cc4)c4nc(c(-c5ccc(S(=O)(=O)[O-])cc5)c5ccc2[nH]5)C=C4)C=C3)cc1
REMARK SMILES IDX 21 1 20 2 19 3 17 4 18 5 16 7 15 8 10 9 11 10 12 11 14 12
REMARK SMILES IDX 13 13 9 14 8 16 1 17 2 18 3 19 4 20 6 21 5 22 7 23 22 24
REMARK SMILES IDX 23 25 24 26 25 28 26 29 27 30 85 31 28 32 84 33 29 34 30 35
REMARK SMILES IDX 31 36 78 37 32 38 83 39 77 40 79 41 33 42 82 43 76 44 75 45
REMARK SMILES IDX 34 47 64 48 45 49 63 50 46 51 49 52 62 53 80 54 47 55 48 56
REMARK SMILES IDX 61 58 81 59 50 60 35 61 36 62 44 63 37 64 43 65 38 66 39 67
REMARK SMILES IDX 40 68 41 69 42 70 65 71 66 72 74 73 67 74 73 75 68 76 69 77
REMARK SMILES IDX 70 78 71 79 72 80 51 81 52 82 60 83 53 84 59 85 54 86 55 87
REMARK SMILES IDX 56 88 57 89 58 90
REMARK H PARENT 19 6 9 15 23 27 79 46 49 57
REMARK Flexibility Score: inf
ROOT
ATOM      1  C   UNL A   1      33.762  28.569  24.697  1.00  0.00     0.042 C 
ENDROOT
BRANCH   1   2
ATOM      2  C   UNL A   1      34.008  27.121  24.287  1.00  0.00     0.117 C 
BRANCH   2   3
ATOM      3  N   UNL A   1      33.935  26.215  25.415  1.00  0.00    -0.356 N 
ATOM      4  C   UNL A   1      34.095  24.858  25.424  1.00  0.00     0.224 C 
ATOM      5  O   UNL A   1      33.920  24.253  26.482  1.00  0.00    -0.275 OA
ATOM      6  H   UNL A   1      33.746  26.630  26.288  1.00  0.00     0.163 HD
BRANCH   4   7
ATOM      7  C   UNL A   1      34.534  24.141  24.157  1.00  0.00     0.137 C 
BRANCH   7   8
ATOM      8  C   UNL A   1      33.945  22.756  23.990  1.00  0.00    -0.015 A 
ATOM      9  C   UNL A   1      32.745  22.500  23.292  1.00  0.00     0.042 A 
ATOM     10  C   UNL A   1      32.235  21.188  23.287  1.00  0.00     0.026 A 
ATOM     11  C   UNL A   1      32.906  20.142  23.920  1.00  0.00     0.002 A 
ATOM     12  C   UNL A   1      34.625  21.681  24.602  1.00  0.00     0.006 A 
ATOM     13  C   UNL A   1      34.109  20.386  24.567  1.00  0.00     0.000 A 
BRANCH   9  14
ATOM     14  N   UNL A   1      32.032  23.461  22.545  1.00  0.00    -0.354 N 
ATOM     15  H   UNL A   1      31.882  23.203  21.606  1.00  0.00     0.167 HD
BRANCH  14  16
ATOM     16  C   UNL A   1      31.491  24.725  22.881  1.00  0.00     0.060 A 
ATOM     17  C   UNL A   1      32.511  25.647  20.720  1.00  0.00     0.046 C 
ATOM     18  C   UNL A   1      31.687  25.801  21.974  1.00  0.00    -0.026 A 
ATOM     19  C   UNL A   1      31.075  27.046  22.209  1.00  0.00     0.005 A 
ATOM     20  C   UNL A   1      30.281  27.249  23.332  1.00  0.00     0.002 A 
ATOM     21  C   UNL A   1      30.709  24.972  24.034  1.00  0.00     0.064 A 
ATOM     22  C   UNL A   1      30.106  26.218  24.247  1.00  0.00     0.023 A 
ATOM     23  Cl  UNL A   1      30.521  23.825  25.320  1.00  0.00    -0.082 Cl
ENDBRANCH  14  16
ENDBRANCH   9  14
ENDBRANCH   7   8
ENDBRANCH   4   7
ENDBRANCH   2   3
ENDBRANCH   1   2
BRANCH   1  24
ATOM     24  C   UNL A   1      33.942  28.819  26.190  1.00  0.00     0.118 C 
BRANCH  24  25
ATOM     25  N   UNL A   1      33.698  30.209  26.551  1.00  0.00    -0.352 N 
ATOM     26  C   UNL A   1      34.318  30.994  27.488  1.00  0.00     0.251 C 
ATOM     27  H   UNL A   1      32.979  30.652  26.046  1.00  0.00     0.163 HD
ATOM     28  O   UNL A   1      33.819  32.082  27.785  1.00  0.00    -0.269 OA
BRANCH  26  29
ATOM     29  C   UNL A   1      35.562  30.545  28.145  1.00  0.00     0.039 A 
ATOM     30  C   UNL A   1      36.790  30.980  27.637  1.00  0.00     0.014 A 
ATOM     31  C   UNL A   1      35.528  29.669  29.234  1.00  0.00     0.014 A 
ATOM     32  C   UNL A   1      37.977  30.577  28.249  1.00  0.00     0.010 A 
ATOM     33  C   UNL A   1      36.708  29.332  29.891  1.00  0.00     0.010 A 
ATOM     34  C   UNL A   1      37.946  29.771  29.399  1.00  0.00    -0.014 A 
BRANCH  34  35
ATOM     35  C   UNL A   1      39.196  29.359  30.088  1.00  0.00     0.031 A 
ATOM     36  C   UNL A   1      39.647  30.086  31.328  1.00  0.00     0.074 A 
ATOM     37  C   UNL A   1      39.952  28.372  29.568  1.00  0.00     0.049 A 
ATOM     38  N   UNL A   1      40.737  29.918  32.030  1.00  0.00    -0.248 NA
ATOM     39  C   UNL A   1      38.770  31.158  31.831  1.00  0.00     0.031 C 
ATOM     40  C   UNL A   1      39.640  27.615  28.353  1.00  0.00     0.029 A 
ATOM     41  N   UNL A   1      41.144  27.839  29.991  1.00  0.00    -0.354 N 
ATOM     42  C   UNL A   1      40.689  30.873  33.040  1.00  0.00     0.074 A 
ATOM     43  C   UNL A   1      39.486  31.647  32.833  1.00  0.00     0.031 C 
ATOM     44  C   UNL A   1      40.601  26.700  28.144  1.00  0.00     0.029 A 
ATOM     45  C   UNL A   1      41.619  26.834  29.182  1.00  0.00     0.049 A 
ATOM     46  H   UNL A   1      41.614  28.147  30.799  1.00  0.00     0.167 HD
ATOM     47  C   UNL A   1      41.557  31.075  34.060  1.00  0.00     0.031 A 
ATOM     48  C   UNL A   1      42.752  26.108  29.259  1.00  0.00     0.031 A 
ATOM     49  C   UNL A   1      42.743  30.289  34.272  1.00  0.00     0.049 A 
ATOM     50  C   UNL A   1      43.705  26.360  30.396  1.00  0.00     0.074 A 
ATOM     51  C   UNL A   1      43.657  30.376  35.308  1.00  0.00     0.029 A 
ATOM     52  N   UNL A   1      43.181  29.273  33.437  1.00  0.00    -0.354 N 
ATOM     53  N   UNL A   1      43.607  27.224  31.378  1.00  0.00    -0.248 NA
ATOM     54  C   UNL A   1      44.917  25.530  30.444  1.00  0.00     0.031 C 
ATOM     55  C   UNL A   1      44.677  29.451  35.070  1.00  0.00     0.029 A 
ATOM     56  C   UNL A   1      44.364  28.741  33.922  1.00  0.00     0.049 A 
ATOM     57  H   UNL A   1      42.720  28.974  32.621  1.00  0.00     0.167 HD
ATOM     58  C   UNL A   1      44.725  27.016  32.179  1.00  0.00     0.074 A 
ATOM     59  C   UNL A   1      45.477  25.936  31.574  1.00  0.00     0.031 C 
ATOM     60  C   UNL A   1      45.095  27.659  33.313  1.00  0.00     0.031 A 
BRANCH  47  61
ATOM     61  C   UNL A   1      41.261  32.192  35.026  1.00  0.00    -0.014 A 
ATOM     62  C   UNL A   1      41.761  33.490  34.814  1.00  0.00     0.010 A 
ATOM     63  C   UNL A   1      40.419  31.957  36.129  1.00  0.00     0.010 A 
ATOM     64  C   UNL A   1      41.449  34.523  35.702  1.00  0.00     0.020 A 
ATOM     65  C   UNL A   1      40.081  32.994  37.002  1.00  0.00     0.020 A 
ATOM     66  C   UNL A   1      40.609  34.269  36.790  1.00  0.00     0.054 A 
BRANCH  66  67
ATOM     67  S   UNL A   1      40.185  35.640  37.899  1.00  0.00     0.124 S 
ATOM     68  O   UNL A   1      41.441  35.846  38.616  1.00  0.00    -0.237 OA
ATOM     69  O   UNL A   1      39.814  36.701  36.966  1.00  0.00    -0.237 OA
ATOM     70  O   UNL A   1      39.089  35.111  38.705  1.00  0.00    -0.744 OA
ENDBRANCH  66  67
ENDBRANCH  47  61
BRANCH  48  71
ATOM     71  C   UNL A   1      43.047  25.067  28.235  1.00  0.00    -0.014 A 
ATOM     72  C   UNL A   1      42.575  23.752  28.392  1.00  0.00     0.010 A 
ATOM     73  C   UNL A   1      43.817  25.383  27.100  1.00  0.00     0.010 A 
ATOM     74  C   UNL A   1      42.892  22.766  27.453  1.00  0.00     0.020 A 
ATOM     75  C   UNL A   1      44.110  24.408  26.143  1.00  0.00     0.020 A 
ATOM     76  C   UNL A   1      43.659  23.101  26.334  1.00  0.00     0.054 A 
BRANCH  76  77
ATOM     77  S   UNL A   1      44.037  21.811  25.115  1.00  0.00     0.124 S 
ATOM     78  O   UNL A   1      43.039  20.794  25.431  1.00  0.00    -0.237 OA
ATOM     79  O   UNL A   1      43.850  22.512  23.848  1.00  0.00    -0.237 OA
ATOM     80  O   UNL A   1      45.420  21.449  25.420  1.00  0.00    -0.744 OA
ENDBRANCH  76  77
ENDBRANCH  48  71
BRANCH  60  81
ATOM     81  C   UNL A   1      46.343  27.181  34.009  1.00  0.00    -0.014 A 
ATOM     82  C   UNL A   1      47.592  27.775  33.766  1.00  0.00     0.010 A 
ATOM     83  C   UNL A   1      46.246  26.153  34.967  1.00  0.00     0.010 A 
ATOM     84  C   UNL A   1      48.730  27.327  34.443  1.00  0.00     0.020 A 
ATOM     85  C   UNL A   1      47.375  25.726  35.669  1.00  0.00     0.020 A 
ATOM     86  C   UNL A   1      48.613  26.305  35.392  1.00  0.00     0.054 A 
BRANCH  86  87
ATOM     87  S   UNL A   1      50.097  25.773  36.289  1.00  0.00     0.124 S 
ATOM     88  O   UNL A   1      50.559  27.026  36.880  1.00  0.00    -0.237 OA
ATOM     89  O   UNL A   1      49.567  24.791  37.232  1.00  0.00    -0.237 OA
ATOM     90  O   UNL A   1      50.957  25.225  35.242  1.00  0.00    -0.744 OA
ENDBRANCH  86  87
ENDBRANCH  60  81
ENDBRANCH  34  35
ENDBRANCH  26  29
ENDBRANCH  24  25
ENDBRANCH   1  24
TORSDOF 16
ENDMDL
MODEL 2
REMARK VINA RESULT:     -10.7      3.059      8.441
REMARK SMILES Cc1cccc(Cl)c1Nc1ccccc1CC(=O)NCCCNC(=O)c1ccc(-c2c3nc(c(-c4ccc(S(=O)(=O)[O-])cc4)c4ccc([nH]4)c(-c4ccc(S(=O)(=O)[O-])cc4)c4nc(c(-c5ccc(S(=O)(=O)[O-])cc5)c5ccc2[nH]5)C=C4)C=C3)cc1
REMARK SMILES IDX 21 1 20 2 19 3 17 4 18 5 16 7 15 8 10 9 11 10 12 11 14 12
REMARK SMILES IDX 13 13 9 14 8 16 1 17 2 18 3 19 4 20 6 21 5 22 7 23 22 24
REMARK SMILES IDX 23 25 24 26 25 28 26 29 27 30 85 31 28 32 84 33 29 34 30 35
REMARK SMILES IDX 31 36 78 37 32 38 83 39 77 40 79 41 33 42 82 43 76 44 75 45
REMARK SMILES IDX 34 47 64 48 45 49 63 50 46 51 49 52 62 53 80 54 47 55 48 56
REMARK SMILES IDX 61 58 81 59 50 60 35 61 36 62 44 63 37 64 43 65 38 66 39 67
REMARK SMILES IDX 40 68 41 69 42 70 65 71 66 72 74 73 67 74 73 75 68 76 69 77
REMARK SMILES IDX 70 78 71 79 72 80 51 81 52 82 60 83 53 84 59 85 54 86 55 87
REMARK SMILES IDX 56 88 57 89 58 90
REMARK H PARENT 19 6 9 15 23 27 79 46 49 57
REMARK Flexibility Score: inf
ROOT
ATOM      1  C   UNL A   1      39.989  22.432  26.944  1.00  0.00     0.042 C 
ENDROOT
BRANCH   1   2
ATOM      2  C   UNL A   1      38.708  23.165  26.556  1.00  0.00     0.117 C 
BRANCH   2   3
ATOM      3  N   UNL A   1      38.160  22.681  25.305  1.00  0.00    -0.356 N 
ATOM      4  C   UNL A   1      36.970  23.007  24.720  1.00  0.00     0.224 C 
ATOM      5  O   UNL A   1      36.647  22.426  23.682  1.00  0.00    -0.275 OA
ATOM      6  H   UNL A   1      38.717  22.034  24.814  1.00  0.00     0.163 HD
BRANCH   4   7
ATOM      7  C   UNL A   1      36.106  24.103  25.323  1.00  0.00     0.137 C 
BRANCH   7   8
ATOM      8  C   UNL A   1      34.830  23.605  25.969  1.00  0.00    -0.015 A 
ATOM      9  C   UNL A   1      33.646  24.371  26.043  1.00  0.00     0.042 A 
ATOM     10  C   UNL A   1      32.551  23.851  26.758  1.00  0.00     0.026 A 
ATOM     11  C   UNL A   1      32.600  22.592  27.356  1.00  0.00     0.002 A 
ATOM     12  C   UNL A   1      34.854  22.322  26.557  1.00  0.00     0.006 A 
ATOM     13  C   UNL A   1      33.749  21.821  27.244  1.00  0.00     0.000 A 
BRANCH   9  14
ATOM     14  N   UNL A   1      33.454  25.614  25.403  1.00  0.00    -0.354 N 
ATOM     15  H   UNL A   1      34.150  26.279  25.610  1.00  0.00     0.167 HD
BRANCH  14  16
ATOM     16  C   UNL A   1      32.453  26.092  24.523  1.00  0.00     0.060 A 
ATOM     17  C   UNL A   1      31.463  27.400  26.491  1.00  0.00     0.046 C 
ATOM     18  C   UNL A   1      31.489  27.001  25.037  1.00  0.00    -0.026 A 
ATOM     19  C   UNL A   1      30.543  27.590  24.177  1.00  0.00     0.005 A 
ATOM     20  C   UNL A   1      30.527  27.287  22.820  1.00  0.00     0.002 A 
ATOM     21  C   UNL A   1      32.389  25.773  23.147  1.00  0.00     0.064 A 
ATOM     22  C   UNL A   1      31.442  26.374  22.308  1.00  0.00     0.023 A 
ATOM     23  Cl  UNL A   1      33.373  24.555  22.405  1.00  0.00    -0.082 Cl
ENDBRANCH  14  16
ENDBRANCH   9  14
ENDBRANCH   7   8
ENDBRANCH   4   7
ENDBRANCH   2   3
ENDBRANCH   1   2
BRANCH   1  24
ATOM     24  C   UNL A   1      41.162  23.363  27.228  1.00  0.00     0.118 C 
BRANCH  24  25
ATOM     25  N   UNL A   1      41.435  24.264  26.117  1.00  0.00    -0.352 N 
ATOM     26  C   UNL A   1      41.375  25.631  26.061  1.00  0.00     0.251 C 
ATOM     27  H   UNL A   1      41.704  23.823  25.278  1.00  0.00     0.163 HD
ATOM     28  O   UNL A   1      41.440  26.191  24.964  1.00  0.00    -0.269 OA
BRANCH  26  29
ATOM     29  C   UNL A   1      41.225  26.431  27.294  1.00  0.00     0.039 A 
ATOM     30  C   UNL A   1      42.173  27.419  27.578  1.00  0.00     0.014 A 
ATOM     31  C   UNL A   1      40.179  26.189  28.189  1.00  0.00     0.014 A 
ATOM     32  C   UNL A   1      42.044  28.193  28.732  1.00  0.00     0.010 A 
ATOM     33  C   UNL A   1      40.008  27.014  29.297  1.00  0.00     0.010 A 
ATOM     34  C   UNL A   1      40.945  28.016  29.588  1.00  0.00    -0.014 A 
BRANCH  34  35
ATOM     35  C   UNL A   1      40.769  28.853  30.803  1.00  0.00     0.031 A 
ATOM     36  C   UNL A   1      39.692  29.905  30.842  1.00  0.00     0.074 A 
ATOM     37  C   UNL A   1      41.611  28.706  31.844  1.00  0.00     0.049 A 
ATOM     38  N   UNL A   1      39.425  30.776  31.781  1.00  0.00    -0.248 NA
ATOM     39  C   UNL A   1      38.816  30.010  29.662  1.00  0.00     0.031 C 
ATOM     40  C   UNL A   1      42.716  27.745  31.913  1.00  0.00     0.029 A 
ATOM     41  N   UNL A   1      41.676  29.368  33.045  1.00  0.00    -0.354 N 
ATOM     42  C   UNL A   1      38.370  31.543  31.299  1.00  0.00     0.074 A 
ATOM     43  C   UNL A   1      38.075  31.067  29.966  1.00  0.00     0.031 C 
ATOM     44  C   UNL A   1      43.330  27.864  33.102  1.00  0.00     0.029 A 
ATOM     45  C   UNL A   1      42.695  28.936  33.861  1.00  0.00     0.049 A 
ATOM     46  H   UNL A   1      41.051  30.085  33.298  1.00  0.00     0.167 HD
ATOM     47  C   UNL A   1      37.693  32.540  31.917  1.00  0.00     0.031 A 
ATOM     48  C   UNL A   1      43.081  29.361  35.080  1.00  0.00     0.031 A 
ATOM     49  C   UNL A   1      37.977  32.997  33.251  1.00  0.00     0.049 A 
ATOM     50  C   UNL A   1      42.319  30.479  35.740  1.00  0.00     0.074 A 
ATOM     51  C   UNL A   1      37.312  33.961  33.988  1.00  0.00     0.029 A 
ATOM     52  N   UNL A   1      39.008  32.524  34.048  1.00  0.00    -0.354 N 
ATOM     53  N   UNL A   1      41.282  31.146  35.293  1.00  0.00    -0.248 NA
ATOM     54  C   UNL A   1      42.771  30.893  37.076  1.00  0.00     0.031 C 
ATOM     55  C   UNL A   1      37.975  34.111  35.209  1.00  0.00     0.029 A 
ATOM     56  C   UNL A   1      39.012  33.193  35.260  1.00  0.00     0.049 A 
ATOM     57  H   UNL A   1      39.643  31.818  33.790  1.00  0.00     0.167 HD
ATOM     58  C   UNL A   1      40.936  32.033  36.307  1.00  0.00     0.074 A 
ATOM     59  C   UNL A   1      41.866  31.807  37.395  1.00  0.00     0.031 C 
ATOM     60  C   UNL A   1      39.938  32.950  36.337  1.00  0.00     0.031 A 
BRANCH  47  61
ATOM     61  C   UNL A   1      36.577  33.210  31.157  1.00  0.00    -0.014 A 
ATOM     62  C   UNL A   1      35.293  33.342  31.716  1.00  0.00     0.010 A 
ATOM     63  C   UNL A   1      36.833  33.773  29.894  1.00  0.00     0.010 A 
ATOM     64  C   UNL A   1      34.279  33.996  31.012  1.00  0.00     0.020 A 
ATOM     65  C   UNL A   1      35.830  34.454  29.200  1.00  0.00     0.020 A 
ATOM     66  C   UNL A   1      34.554  34.551  29.759  1.00  0.00     0.054 A 
BRANCH  66  67
ATOM     67  S   UNL A   1      33.229  35.434  28.890  1.00  0.00     0.124 S 
ATOM     68  O   UNL A   1      33.979  36.439  28.140  1.00  0.00    -0.237 OA
ATOM     69  O   UNL A   1      32.617  34.378  28.086  1.00  0.00    -0.237 OA
ATOM     70  O   UNL A   1      32.394  35.957  29.967  1.00  0.00    -0.744 OA
ENDBRANCH  66  67
ENDBRANCH  47  61
BRANCH  48  71
ATOM     71  C   UNL A   1      44.243  28.725  35.763  1.00  0.00    -0.014 A 
ATOM     72  C   UNL A   1      45.547  29.215  35.564  1.00  0.00     0.010 A 
ATOM     73  C   UNL A   1      44.053  27.616  36.606  1.00  0.00     0.010 A 
ATOM     74  C   UNL A   1      46.640  28.589  36.169  1.00  0.00     0.020 A 
ATOM     75  C   UNL A   1      45.140  27.006  37.238  1.00  0.00     0.020 A 
ATOM     76  C   UNL A   1      46.430  27.487  37.002  1.00  0.00     0.054 A 
BRANCH  76  77
ATOM     77  S   UNL A   1      47.861  26.705  37.798  1.00  0.00     0.124 S 
ATOM     78  O   UNL A   1      47.805  25.350  37.258  1.00  0.00    -0.237 OA
ATOM     79  O   UNL A   1      48.971  27.530  37.329  1.00  0.00    -0.237 OA
ATOM     80  O   UNL A   1      47.565  26.824  39.224  1.00  0.00    -0.744 OA
ENDBRANCH  76  77
ENDBRANCH  48  71
BRANCH  60  81
ATOM     81  C   UNL A   1      39.762  33.745  37.603  1.00  0.00    -0.014 A 
ATOM     82  C   UNL A   1      40.381  34.994  37.778  1.00  0.00     0.010 A 
ATOM     83  C   UNL A   1      38.912  33.254  38.612  1.00  0.00     0.010 A 
ATOM     84  C   UNL A   1      40.181  35.723  38.954  1.00  0.00     0.020 A 
ATOM     85  C   UNL A   1      38.683  33.994  39.775  1.00  0.00     0.020 A 
ATOM     86  C   UNL A   1      39.331  35.217  39.945  1.00  0.00     0.054 A 
BRANCH  86  87
ATOM     87  S   UNL A   1      39.053  36.203  41.442  1.00  0.00     0.124 S 
ATOM     88  O   UNL A   1      40.299  35.996  42.176  1.00  0.00    -0.237 OA
ATOM     89  O   UNL A   1      38.854  37.547  40.908  1.00  0.00    -0.237 OA
ATOM     90  O   UNL A   1      37.868  35.594  42.043  1.00  0.00    -0.744 OA
ENDBRANCH  86  87
ENDBRANCH  60  81
ENDBRANCH  34  35
ENDBRANCH  26  29
ENDBRANCH  24  25
ENDBRANCH   1  24
TORSDOF 16
ENDMDL
MODEL 3
REMARK VINA RESULT:     -10.7      5.009      6.689
REMARK SMILES Cc1cccc(Cl)c1Nc1ccccc1CC(=O)NCCCNC(=O)c1ccc(-c2c3nc(c(-c4ccc(S(=O)(=O)[O-])cc4)c4ccc([nH]4)c(-c4ccc(S(=O)(=O)[O-])cc4)c4nc(c(-c5ccc(S(=O)(=O)[O-])cc5)c5ccc2[nH]5)C=C4)C=C3)cc1
REMARK SMILES IDX 21 1 20 2 19 3 17 4 18 5 16 7 15 8 10 9 11 10 12 11 14 12
REMARK SMILES IDX 13 13 9 14 8 16 1 17 2 18 3 19 4 20 6 21 5 22 7 23 22 24
REMARK SMILES IDX 23 25 24 26 25 28 26 29 27 30 85 31 28 32 84 33 29 34 30 35
REMARK SMILES IDX 31 36 78 37 32 38 83 39 77 40 79 41 33 42 82 43 76 44 75 45
REMARK SMILES IDX 34 47 64 48 45 49 63 50 46 51 49 52 62 53 80 54 47 55 48 56
REMARK SMILES IDX 61 58 81 59 50 60 35 61 36 62 44 63 37 64 43 65 38 66 39 67
REMARK SMILES IDX 40 68 41 69 42 70 65 71 66 72 74 73 67 74 73 75 68 76 69 77
REMARK SMILES IDX 70 78 71 79 72 80 51 81 52 82 60 83 53 84 59 85 54 86 55 87
REMARK SMILES IDX 56 88 57 89 58 90
REMARK H PARENT 19 6 9 15 23 27 79 46 49 57
REMARK Flexibility Score: inf
ROOT
ATOM      1  C   UNL A   1      34.415  31.618  27.671  1.00  0.00     0.042 C 
ENDROOT
BRANCH   1   2
ATOM      2  C   UNL A   1      33.361  30.847  26.883  1.00  0.00     0.117 C 
BRANCH   2   3
ATOM      3  N   UNL A   1      32.730  29.815  27.681  1.00  0.00    -0.356 N 
ATOM      4  C   UNL A   1      32.355  28.558  27.297  1.00  0.00     0.224 C 
ATOM      5  O   UNL A   1      31.760  27.849  28.110  1.00  0.00    -0.275 OA
ATOM      6  H   UNL A   1      32.547  30.049  28.620  1.00  0.00     0.163 HD
BRANCH   4   7
ATOM      7  C   UNL A   1      32.724  28.050  25.913  1.00  0.00     0.137 C 
BRANCH   7   8
ATOM      8  C   UNL A   1      31.536  27.714  25.036  1.00  0.00    -0.015 A 
ATOM      9  C   UNL A   1      31.054  26.400  24.849  1.00  0.00     0.042 A 
ATOM     10  C   UNL A   1      30.009  26.191  23.930  1.00  0.00     0.026 A 
ATOM     11  C   UNL A   1      29.423  27.249  23.237  1.00  0.00     0.002 A 
ATOM     12  C   UNL A   1      30.913  28.777  24.347  1.00  0.00     0.006 A 
ATOM     13  C   UNL A   1      29.867  28.546  23.456  1.00  0.00     0.000 A 
BRANCH   9  14
ATOM     14  N   UNL A   1      31.511  25.270  25.559  1.00  0.00    -0.354 N 
ATOM     15  H   UNL A   1      31.524  25.393  26.536  1.00  0.00     0.167 HD
BRANCH  14  16
ATOM     16  C   UNL A   1      31.956  23.993  25.139  1.00  0.00     0.060 A 
ATOM     17  C   UNL A   1      30.290  22.960  26.789  1.00  0.00     0.046 C 
ATOM     18  C   UNL A   1      31.337  22.848  25.710  1.00  0.00    -0.026 A 
ATOM     19  C   UNL A   1      31.666  21.560  25.244  1.00  0.00     0.005 A 
ATOM     20  C   UNL A   1      32.604  21.385  24.233  1.00  0.00     0.002 A 
ATOM     21  C   UNL A   1      32.934  23.783  24.139  1.00  0.00     0.064 A 
ATOM     22  C   UNL A   1      33.243  22.493  23.689  1.00  0.00     0.023 A 
ATOM     23  Cl  UNL A   1      33.903  25.056  23.473  1.00  0.00    -0.082 Cl
ENDBRANCH  14  16
ENDBRANCH   9  14
ENDBRANCH   7   8
ENDBRANCH   4   7
ENDBRANCH   2   3
ENDBRANCH   1   2
BRANCH   1  24
ATOM     24  C   UNL A   1      35.501  30.729  28.268  1.00  0.00     0.118 C 
BRANCH  24  25
ATOM     25  N   UNL A   1      35.458  30.706  29.723  1.00  0.00    -0.352 N 
ATOM     26  C   UNL A   1      36.366  30.208  30.620  1.00  0.00     0.251 C 
ATOM     27  H   UNL A   1      34.654  31.109  30.124  1.00  0.00     0.163 HD
ATOM     28  O   UNL A   1      36.042  30.098  31.806  1.00  0.00    -0.269 OA
BRANCH  26  29
ATOM     29  C   UNL A   1      37.715  29.798  30.180  1.00  0.00     0.039 A 
ATOM     30  C   UNL A   1      38.050  29.917  28.828  1.00  0.00     0.014 A 
ATOM     31  C   UNL A   1      38.638  29.262  31.082  1.00  0.00     0.014 A 
ATOM     32  C   UNL A   1      39.322  29.546  28.392  1.00  0.00     0.010 A 
ATOM     33  C   UNL A   1      39.931  28.966  30.661  1.00  0.00     0.010 A 
ATOM     34  C   UNL A   1      40.284  29.092  29.310  1.00  0.00    -0.014 A 
BRANCH  34  35
ATOM     35  C   UNL A   1      41.655  28.725  28.873  1.00  0.00     0.031 A 
ATOM     36  C   UNL A   1      42.733  29.776  28.813  1.00  0.00     0.074 A 
ATOM     37  C   UNL A   1      41.916  27.463  28.479  1.00  0.00     0.049 A 
ATOM     38  N   UNL A   1      43.968  29.666  28.398  1.00  0.00    -0.248 NA
ATOM     39  C   UNL A   1      42.369  31.133  29.254  1.00  0.00     0.031 C 
ATOM     40  C   UNL A   1      40.948  26.363  28.458  1.00  0.00     0.029 A 
ATOM     41  N   UNL A   1      43.073  26.892  28.010  1.00  0.00    -0.354 N 
ATOM     42  C   UNL A   1      44.520  30.938  28.506  1.00  0.00     0.074 A 
ATOM     43  C   UNL A   1      43.473  31.814  28.981  1.00  0.00     0.031 C 
ATOM     44  C   UNL A   1      41.558  25.247  28.027  1.00  0.00     0.029 A 
ATOM     45  C   UNL A   1      42.945  25.559  27.697  1.00  0.00     0.049 A 
ATOM     46  H   UNL A   1      43.917  27.390  27.910  1.00  0.00     0.167 HD
ATOM     47  C   UNL A   1      45.789  31.337  28.251  1.00  0.00     0.031 A 
ATOM     48  C   UNL A   1      43.839  24.687  27.191  1.00  0.00     0.031 A 
ATOM     49  C   UNL A   1      46.832  30.458  27.796  1.00  0.00     0.049 A 
ATOM     50  C   UNL A   1      45.240  25.160  26.907  1.00  0.00     0.074 A 
ATOM     51  C   UNL A   1      48.164  30.753  27.566  1.00  0.00     0.029 A 
ATOM     52  N   UNL A   1      46.663  29.113  27.504  1.00  0.00    -0.354 N 
ATOM     53  N   UNL A   1      45.758  26.353  27.079  1.00  0.00    -0.248 NA
ATOM     54  C   UNL A   1      46.181  24.166  26.373  1.00  0.00     0.031 C 
ATOM     55  C   UNL A   1      48.789  29.601  27.080  1.00  0.00     0.029 A 
ATOM     56  C   UNL A   1      47.862  28.571  27.072  1.00  0.00     0.049 A 
ATOM     57  H   UNL A   1      45.818  28.618  27.590  1.00  0.00     0.167 HD
ATOM     58  C   UNL A   1      47.094  26.242  26.708  1.00  0.00     0.074 A 
ATOM     59  C   UNL A   1      47.306  24.864  26.316  1.00  0.00     0.031 C 
ATOM     60  C   UNL A   1      48.059  27.194  26.695  1.00  0.00     0.031 A 
BRANCH  47  61
ATOM     61  C   UNL A   1      46.123  32.792  28.456  1.00  0.00    -0.014 A 
ATOM     62  C   UNL A   1      46.618  33.260  29.687  1.00  0.00     0.010 A 
ATOM     63  C   UNL A   1      46.002  33.694  27.383  1.00  0.00     0.010 A 
ATOM     64  C   UNL A   1      46.955  34.605  29.850  1.00  0.00     0.020 A 
ATOM     65  C   UNL A   1      46.366  35.035  27.533  1.00  0.00     0.020 A 
ATOM     66  C   UNL A   1      46.830  35.485  28.771  1.00  0.00     0.054 A 
BRANCH  66  67
ATOM     67  S   UNL A   1      47.318  37.216  28.999  1.00  0.00     0.124 S 
ATOM     68  O   UNL A   1      48.594  37.265  28.288  1.00  0.00    -0.237 OA
ATOM     69  O   UNL A   1      46.220  37.943  28.368  1.00  0.00    -0.237 OA
ATOM     70  O   UNL A   1      47.409  37.365  30.449  1.00  0.00    -0.744 OA
ENDBRANCH  66  67
ENDBRANCH  47  61
BRANCH  48  71
ATOM     71  C   UNL A   1      43.444  23.276  26.926  1.00  0.00    -0.014 A 
ATOM     72  C   UNL A   1      42.994  22.449  27.971  1.00  0.00     0.010 A 
ATOM     73  C   UNL A   1      43.531  22.745  25.626  1.00  0.00     0.010 A 
ATOM     74  C   UNL A   1      42.667  21.112  27.728  1.00  0.00     0.020 A 
ATOM     75  C   UNL A   1      43.175  21.417  25.373  1.00  0.00     0.020 A 
ATOM     76  C   UNL A   1      42.761  20.604  26.430  1.00  0.00     0.054 A 
BRANCH  76  77
ATOM     77  S   UNL A   1      42.308  18.872  26.133  1.00  0.00     0.124 S 
ATOM     78  O   UNL A   1      40.908  18.990  25.735  1.00  0.00    -0.237 OA
ATOM     79  O   UNL A   1      43.237  18.481  25.076  1.00  0.00    -0.237 OA
ATOM     80  O   UNL A   1      42.541  18.232  27.425  1.00  0.00    -0.744 OA
ENDBRANCH  76  77
ENDBRANCH  48  71
BRANCH  60  81
ATOM     81  C   UNL A   1      49.448  26.772  26.293  1.00  0.00    -0.014 A 
ATOM     82  C   UNL A   1      50.290  26.079  27.178  1.00  0.00     0.010 A 
ATOM     83  C   UNL A   1      49.892  27.028  24.981  1.00  0.00     0.010 A 
ATOM     84  C   UNL A   1      51.565  25.678  26.770  1.00  0.00     0.020 A 
ATOM     85  C   UNL A   1      51.153  26.600  24.560  1.00  0.00     0.020 A 
ATOM     86  C   UNL A   1      51.988  25.940  25.462  1.00  0.00     0.054 A 
BRANCH  86  87
ATOM     87  S   UNL A   1      53.630  25.370  24.944  1.00  0.00     0.124 S 
ATOM     88  O   UNL A   1      53.597  25.616  23.505  1.00  0.00    -0.237 OA
ATOM     89  O   UNL A   1      54.525  26.234  25.710  1.00  0.00    -0.237 OA
ATOM     90  O   UNL A   1      53.647  23.962  25.335  1.00  0.00    -0.744 OA
ENDBRANCH  86  87
ENDBRANCH  60  81
ENDBRANCH  34  35
ENDBRANCH  26  29
ENDBRANCH  24  25
ENDBRANCH   1  24
TORSDOF 16
ENDMDL
