MODEL 1
REMARK VINA RESULT:     -10.2      0.000      0.000
REMARK SMILES O=C(CCCCCC(F)(F)c1ccccc1)NCCCNC(=O)c1ccc(-c2c3nc(c(-c4ccc(S(=O)(=O)[O-])cc4)c4ccc([nH]4)c(-c4ccc(S(=O)(=O)[O-])cc4)c4nc(c(-c5ccc(S(=O)(=O)[O-])cc5)c5ccc2[nH]5)C=C4)C=C3)cc1
REMARK SMILES IDX 1 1 2 2 17 3 3 5 4 6 5 7 6 8 7 9 8 10 9 11 10 12 11 13 12 14
REMARK SMILES IDX 16 15 13 16 15 17 14 18 18 19 19 20 20 21 21 22 22 23 23 25
REMARK SMILES IDX 24 26 25 27 83 28 26 29 82 30 27 31 28 32 29 33 76 34 30 35
REMARK SMILES IDX 81 36 75 37 77 38 31 39 80 40 74 41 73 42 32 44 62 45 43 46
REMARK SMILES IDX 61 47 44 48 47 49 60 50 78 51 45 52 46 53 59 55 79 56 48 57
REMARK SMILES IDX 33 58 34 59 42 60 35 61 41 62 36 63 37 64 38 65 39 66 40 67
REMARK SMILES IDX 63 68 64 69 72 70 65 71 71 72 66 73 67 74 68 75 69 76 70 77
REMARK SMILES IDX 49 78 50 79 58 80 51 81 57 82 52 83 53 84 54 85 55 86 56 87
REMARK H PARENT 17 4 21 24 77 43 47 54
REMARK Flexibility Score: inf
ROOT
ATOM      1  O   UNL A   1      38.977  23.752  26.131  1.00  0.00    -0.275 OA
ATOM      2  C   UNL A   1      38.498  22.624  26.079  1.00  0.00     0.219 C 
ATOM      3  N   UNL A   1      39.197  21.472  26.349  1.00  0.00    -0.356 N 
ATOM      4  H   UNL A   1      38.702  20.630  26.475  1.00  0.00     0.163 HD
ENDROOT
BRANCH   2   5
ATOM      5  C   UNL A   1      37.092  22.359  25.584  1.00  0.00     0.100 C 
BRANCH   5   6
ATOM      6  C   UNL A   1      36.645  23.498  24.666  1.00  0.00     0.010 C 
BRANCH   6   7
ATOM      7  C   UNL A   1      35.142  23.528  24.351  1.00  0.00     0.001 C 
BRANCH   7   8
ATOM      8  C   UNL A   1      34.562  22.273  23.690  1.00  0.00     0.007 C 
BRANCH   8   9
ATOM      9  C   UNL A   1      33.084  21.950  23.962  1.00  0.00     0.082 C 
BRANCH   9  10
ATOM     10  C   UNL A   1      32.791  20.807  24.953  1.00  0.00     0.273 C 
ATOM     11  F   UNL A   1      33.432  21.098  26.123  1.00  0.00    -0.201 F 
ATOM     12  F   UNL A   1      31.456  20.882  25.253  1.00  0.00    -0.201 F 
BRANCH  10  13
ATOM     13  C   UNL A   1      33.143  19.435  24.418  1.00  0.00     0.021 A 
ATOM     14  C   UNL A   1      34.346  18.812  24.788  1.00  0.00     0.010 A 
ATOM     15  C   UNL A   1      32.321  18.811  23.465  1.00  0.00     0.010 A 
ATOM     16  C   UNL A   1      34.767  17.649  24.141  1.00  0.00     0.001 A 
ATOM     17  C   UNL A   1      32.743  17.646  22.823  1.00  0.00     0.001 A 
ATOM     18  C   UNL A   1      33.976  17.080  23.145  1.00  0.00     0.000 A 
ENDBRANCH  10  13
ENDBRANCH   9  10
ENDBRANCH   8   9
ENDBRANCH   7   8
ENDBRANCH   6   7
ENDBRANCH   5   6
ENDBRANCH   2   5
BRANCH   3  19
ATOM     19  C   UNL A   1      40.641  21.457  26.454  1.00  0.00     0.117 C 
BRANCH  19  20
ATOM     20  C   UNL A   1      41.123  21.828  27.848  1.00  0.00     0.042 C 
BRANCH  20  21
ATOM     21  C   UNL A   1      42.128  22.976  27.890  1.00  0.00     0.118 C 
BRANCH  21  22
ATOM     22  N   UNL A   1      42.346  23.609  26.598  1.00  0.00    -0.352 N 
ATOM     23  C   UNL A   1      42.204  24.931  26.242  1.00  0.00     0.251 C 
ATOM     24  H   UNL A   1      42.637  23.006  25.877  1.00  0.00     0.163 HD
ATOM     25  O   UNL A   1      42.313  25.257  25.062  1.00  0.00    -0.269 OA
BRANCH  23  26
ATOM     26  C   UNL A   1      41.886  25.955  27.266  1.00  0.00     0.039 A 
ATOM     27  C   UNL A   1      40.774  25.762  28.089  1.00  0.00     0.014 A 
ATOM     28  C   UNL A   1      42.676  27.097  27.422  1.00  0.00     0.014 A 
ATOM     29  C   UNL A   1      40.502  26.671  29.116  1.00  0.00     0.010 A 
ATOM     30  C   UNL A   1      42.451  27.958  28.496  1.00  0.00     0.010 A 
ATOM     31  C   UNL A   1      41.362  27.756  29.357  1.00  0.00    -0.014 A 
BRANCH  31  32
ATOM     32  C   UNL A   1      41.141  28.674  30.508  1.00  0.00     0.031 A 
ATOM     33  C   UNL A   1      41.979  28.553  31.755  1.00  0.00     0.074 A 
ATOM     34  C   UNL A   1      40.148  29.586  30.457  1.00  0.00     0.049 A 
ATOM     35  N   UNL A   1      41.903  29.237  32.869  1.00  0.00    -0.248 NA
ATOM     36  C   UNL A   1      43.022  27.514  31.760  1.00  0.00     0.031 C 
ATOM     37  C   UNL A   1      39.236  29.783  29.327  1.00  0.00     0.029 A 
ATOM     38  N   UNL A   1      39.736  30.517  31.379  1.00  0.00    -0.354 N 
ATOM     39  C   UNL A   1      42.875  28.705  33.709  1.00  0.00     0.074 A 
ATOM     40  C   UNL A   1      43.491  27.607  32.995  1.00  0.00     0.031 C 
ATOM     41  C   UNL A   1      38.395  30.791  29.611  1.00  0.00     0.029 A 
ATOM     42  C   UNL A   1      38.675  31.284  30.955  1.00  0.00     0.049 A 
ATOM     43  H   UNL A   1      40.160  30.626  32.260  1.00  0.00     0.167 HD
ATOM     44  C   UNL A   1      43.239  29.104  34.953  1.00  0.00     0.031 A 
ATOM     45  C   UNL A   1      37.997  32.269  31.577  1.00  0.00     0.031 A 
ATOM     46  C   UNL A   1      42.629  30.200  35.660  1.00  0.00     0.049 A 
ATOM     47  C   UNL A   1      38.408  32.684  32.964  1.00  0.00     0.074 A 
ATOM     48  C   UNL A   1      42.964  30.712  36.902  1.00  0.00     0.029 A 
ATOM     49  N   UNL A   1      41.561  30.951  35.194  1.00  0.00    -0.354 N 
ATOM     50  N   UNL A   1      39.373  32.209  33.714  1.00  0.00    -0.248 NA
ATOM     51  C   UNL A   1      37.645  33.777  33.582  1.00  0.00     0.031 C 
ATOM     52  C   UNL A   1      42.061  31.734  37.213  1.00  0.00     0.029 A 
ATOM     53  C   UNL A   1      41.207  31.904  36.135  1.00  0.00     0.049 A 
ATOM     54  H   UNL A   1      41.119  30.825  34.324  1.00  0.00     0.167 HD
ATOM     55  C   UNL A   1      39.353  32.968  34.881  1.00  0.00     0.074 A 
ATOM     56  C   UNL A   1      38.291  33.940  34.728  1.00  0.00     0.031 C 
ATOM     57  C   UNL A   1      40.146  32.868  35.977  1.00  0.00     0.031 A 
BRANCH  44  58
ATOM     58  C   UNL A   1      44.346  28.341  35.634  1.00  0.00    -0.014 A 
ATOM     59  C   UNL A   1      45.692  28.730  35.496  1.00  0.00     0.010 A 
ATOM     60  C   UNL A   1      44.035  27.245  36.461  1.00  0.00     0.010 A 
ATOM     61  C   UNL A   1      46.706  28.013  36.135  1.00  0.00     0.020 A 
ATOM     62  C   UNL A   1      45.044  26.545  37.128  1.00  0.00     0.020 A 
ATOM     63  C   UNL A   1      46.375  26.923  36.946  1.00  0.00     0.054 A 
BRANCH  63  64
ATOM     64  S   UNL A   1      47.712  26.024  37.779  1.00  0.00     0.124 S 
ATOM     65  O   UNL A   1      48.872  26.859  37.476  1.00  0.00    -0.237 OA
ATOM     66  O   UNL A   1      47.281  26.032  39.175  1.00  0.00    -0.237 OA
ATOM     67  O   UNL A   1      47.705  24.713  37.135  1.00  0.00    -0.744 OA
ENDBRANCH  63  64
ENDBRANCH  44  58
BRANCH  45  68
ATOM     68  C   UNL A   1      36.863  32.944  30.885  1.00  0.00    -0.014 A 
ATOM     69  C   UNL A   1      35.533  32.607  31.193  1.00  0.00     0.010 A 
ATOM     70  C   UNL A   1      37.108  33.935  29.916  1.00  0.00     0.010 A 
ATOM     71  C   UNL A   1      34.471  33.231  30.532  1.00  0.00     0.020 A 
ATOM     72  C   UNL A   1      36.050  34.584  29.275  1.00  0.00     0.020 A 
ATOM     73  C   UNL A   1      34.737  34.219  29.578  1.00  0.00     0.054 A 
BRANCH  73  74
ATOM     74  S   UNL A   1      33.343  35.052  28.769  1.00  0.00     0.124 S 
ATOM     75  O   UNL A   1      34.019  36.077  27.980  1.00  0.00    -0.237 OA
ATOM     76  O   UNL A   1      32.729  33.968  28.007  1.00  0.00    -0.237 OA
ATOM     77  O   UNL A   1      32.545  35.547  29.887  1.00  0.00    -0.744 OA
ENDBRANCH  73  74
ENDBRANCH  45  68
BRANCH  57  78
ATOM     78  C   UNL A   1      39.924  33.862  37.087  1.00  0.00    -0.014 A 
ATOM     79  C   UNL A   1      40.568  35.112  37.094  1.00  0.00     0.010 A 
ATOM     80  C   UNL A   1      39.020  33.554  38.121  1.00  0.00     0.010 A 
ATOM     81  C   UNL A   1      40.344  36.018  38.135  1.00  0.00     0.020 A 
ATOM     82  C   UNL A   1      38.768  34.469  39.145  1.00  0.00     0.020 A 
ATOM     83  C   UNL A   1      39.445  35.689  39.156  1.00  0.00     0.054 A 
BRANCH  83  84
ATOM     84  S   UNL A   1      39.148  36.894  40.478  1.00  0.00     0.124 S 
ATOM     85  O   UNL A   1      40.507  37.242  40.884  1.00  0.00    -0.237 OA
ATOM     86  O   UNL A   1      38.408  37.949  39.790  1.00  0.00    -0.237 OA
ATOM     87  O   UNL A   1      38.376  36.142  41.466  1.00  0.00    -0.744 OA
ENDBRANCH  83  84
ENDBRANCH  57  78
ENDBRANCH  31  32
ENDBRANCH  23  26
ENDBRANCH  21  22
ENDBRANCH  20  21
ENDBRANCH  19  20
ENDBRANCH   3  19
TORSDOF 19
ENDMDL
MODEL 2
REMARK VINA RESULT:     -10.1      4.893     10.550
REMARK SMILES O=C(CCCCCC(F)(F)c1ccccc1)NCCCNC(=O)c1ccc(-c2c3nc(c(-c4ccc(S(=O)(=O)[O-])cc4)c4ccc([nH]4)c(-c4ccc(S(=O)(=O)[O-])cc4)c4nc(c(-c5ccc(S(=O)(=O)[O-])cc5)c5ccc2[nH]5)C=C4)C=C3)cc1
REMARK SMILES IDX 1 1 2 2 17 3 3 5 4 6 5 7 6 8 7 9 8 10 9 11 10 12 11 13 12 14
REMARK SMILES IDX 16 15 13 16 15 17 14 18 18 19 19 20 20 21 21 22 22 23 23 25
REMARK SMILES IDX 24 26 25 27 83 28 26 29 82 30 27 31 28 32 29 33 76 34 30 35
REMARK SMILES IDX 81 36 75 37 77 38 31 39 80 40 74 41 73 42 32 44 62 45 43 46
REMARK SMILES IDX 61 47 44 48 47 49 60 50 78 51 45 52 46 53 59 55 79 56 48 57
REMARK SMILES IDX 33 58 34 59 42 60 35 61 41 62 36 63 37 64 38 65 39 66 40 67
REMARK SMILES IDX 63 68 64 69 72 70 65 71 71 72 66 73 67 74 68 75 69 76 70 77
REMARK SMILES IDX 49 78 50 79 58 80 51 81 57 82 52 83 53 84 54 85 55 86 56 87
REMARK H PARENT 17 4 21 24 77 43 47 54
REMARK Flexibility Score: inf
ROOT
ATOM      1  O   UNL A   1      30.287  26.461  24.797  1.00  0.00    -0.275 OA
ATOM      2  C   UNL A   1      30.784  27.467  24.302  1.00  0.00     0.219 C 
ATOM      3  N   UNL A   1      31.399  28.463  25.022  1.00  0.00    -0.356 N 
ATOM      4  H   UNL A   1      31.938  29.135  24.546  1.00  0.00     0.163 HD
ENDROOT
BRANCH   2   5
ATOM      5  C   UNL A   1      30.667  27.792  22.828  1.00  0.00     0.100 C 
BRANCH   5   6
ATOM      6  C   UNL A   1      31.385  26.720  22.005  1.00  0.00     0.010 C 
BRANCH   6   7
ATOM      7  C   UNL A   1      32.882  26.563  22.307  1.00  0.00     0.001 C 
BRANCH   7   8
ATOM      8  C   UNL A   1      33.396  25.127  22.456  1.00  0.00     0.007 C 
BRANCH   8   9
ATOM      9  C   UNL A   1      34.221  24.798  23.711  1.00  0.00     0.082 C 
BRANCH   9  10
ATOM     10  C   UNL A   1      34.450  23.306  24.023  1.00  0.00     0.273 C 
ATOM     11  F   UNL A   1      33.342  22.843  24.673  1.00  0.00    -0.201 F 
ATOM     12  F   UNL A   1      34.453  22.651  22.820  1.00  0.00    -0.201 F 
BRANCH  10  13
ATOM     13  C   UNL A   1      35.730  23.035  24.783  1.00  0.00     0.021 A 
ATOM     14  C   UNL A   1      36.307  24.032  25.588  1.00  0.00     0.010 A 
ATOM     15  C   UNL A   1      36.414  21.820  24.613  1.00  0.00     0.010 A 
ATOM     16  C   UNL A   1      37.586  23.856  26.120  1.00  0.00     0.001 A 
ATOM     17  C   UNL A   1      37.691  21.647  25.150  1.00  0.00     0.001 A 
ATOM     18  C   UNL A   1      38.284  22.674  25.883  1.00  0.00     0.000 A 
ENDBRANCH  10  13
ENDBRANCH   9  10
ENDBRANCH   8   9
ENDBRANCH   7   8
ENDBRANCH   6   7
ENDBRANCH   5   6
ENDBRANCH   2   5
BRANCH   3  19
ATOM     19  C   UNL A   1      31.277  28.556  26.462  1.00  0.00     0.117 C 
BRANCH  19  20
ATOM     20  C   UNL A   1      32.410  27.843  27.184  1.00  0.00     0.042 C 
BRANCH  20  21
ATOM     21  C   UNL A   1      33.754  28.564  27.127  1.00  0.00     0.118 C 
BRANCH  21  22
ATOM     22  N   UNL A   1      33.694  29.949  27.569  1.00  0.00    -0.352 N 
ATOM     23  C   UNL A   1      34.647  30.695  28.225  1.00  0.00     0.251 C 
ATOM     24  H   UNL A   1      32.853  30.419  27.371  1.00  0.00     0.163 HD
ATOM     25  O   UNL A   1      34.363  31.819  28.631  1.00  0.00    -0.269 OA
BRANCH  23  26
ATOM     26  C   UNL A   1      35.997  30.137  28.476  1.00  0.00     0.039 A 
ATOM     27  C   UNL A   1      36.928  30.130  27.433  1.00  0.00     0.014 A 
ATOM     28  C   UNL A   1      36.354  29.628  29.728  1.00  0.00     0.014 A 
ATOM     29  C   UNL A   1      38.232  29.687  27.667  1.00  0.00     0.010 A 
ATOM     30  C   UNL A   1      37.676  29.262  29.980  1.00  0.00     0.010 A 
ATOM     31  C   UNL A   1      38.632  29.287  28.954  1.00  0.00    -0.014 A 
BRANCH  31  32
ATOM     32  C   UNL A   1      40.043  28.909  29.241  1.00  0.00     0.031 A 
ATOM     33  C   UNL A   1      40.987  29.897  29.876  1.00  0.00     0.074 A 
ATOM     34  C   UNL A   1      40.496  27.690  28.881  1.00  0.00     0.049 A 
ATOM     35  N   UNL A   1      42.257  29.758  30.162  1.00  0.00    -0.248 NA
ATOM     36  C   UNL A   1      40.439  31.222  30.212  1.00  0.00     0.031 C 
ATOM     37  C   UNL A   1      39.700  26.651  28.222  1.00  0.00     0.029 A 
ATOM     38  N   UNL A   1      41.738  27.118  29.014  1.00  0.00    -0.354 N 
ATOM     39  C   UNL A   1      42.662  30.976  30.698  1.00  0.00     0.074 A 
ATOM     40  C   UNL A   1      41.516  31.859  30.647  1.00  0.00     0.031 C 
ATOM     41  C   UNL A   1      40.464  25.562  28.038  1.00  0.00     0.029 A 
ATOM     42  C   UNL A   1      41.813  25.835  28.524  1.00  0.00     0.049 A 
ATOM     43  H   UNL A   1      42.503  27.583  29.423  1.00  0.00     0.167 HD
ATOM     44  C   UNL A   1      43.870  31.325  31.205  1.00  0.00     0.031 A 
ATOM     45  C   UNL A   1      42.848  24.975  28.462  1.00  0.00     0.031 A 
ATOM     46  C   UNL A   1      45.008  30.444  31.261  1.00  0.00     0.049 A 
ATOM     47  C   UNL A   1      44.184  25.390  29.017  1.00  0.00     0.074 A 
ATOM     48  C   UNL A   1      46.258  30.690  31.803  1.00  0.00     0.029 A 
ATOM     49  N   UNL A   1      45.039  29.154  30.756  1.00  0.00    -0.354 N 
ATOM     50  N   UNL A   1      44.527  26.525  29.578  1.00  0.00    -0.248 NA
ATOM     51  C   UNL A   1      45.269  24.402  28.942  1.00  0.00     0.031 C 
ATOM     52  C   UNL A   1      47.063  29.571  31.573  1.00  0.00     0.029 A 
ATOM     53  C   UNL A   1      46.295  28.601  30.949  1.00  0.00     0.049 A 
ATOM     54  H   UNL A   1      44.283  28.698  30.323  1.00  0.00     0.167 HD
ATOM     55  C   UNL A   1      45.859  26.375  29.951  1.00  0.00     0.074 A 
ATOM     56  C   UNL A   1      46.253  25.036  29.565  1.00  0.00     0.031 C 
ATOM     57  C   UNL A   1      46.680  27.267  30.560  1.00  0.00     0.031 A 
BRANCH  44  58
ATOM     58  C   UNL A   1      44.025  32.728  31.735  1.00  0.00    -0.014 A 
ATOM     59  C   UNL A   1      43.788  33.026  33.090  1.00  0.00     0.010 A 
ATOM     60  C   UNL A   1      44.457  33.756  30.876  1.00  0.00     0.010 A 
ATOM     61  C   UNL A   1      43.937  34.331  33.565  1.00  0.00     0.020 A 
ATOM     62  C   UNL A   1      44.639  35.056  31.356  1.00  0.00     0.020 A 
ATOM     63  C   UNL A   1      44.360  35.338  32.694  1.00  0.00     0.054 A 
BRANCH  63  64
ATOM     64  S   UNL A   1      44.565  37.019  33.344  1.00  0.00     0.124 S 
ATOM     65  O   UNL A   1      44.002  36.894  34.686  1.00  0.00    -0.237 OA
ATOM     66  O   UNL A   1      46.012  37.210  33.287  1.00  0.00    -0.237 OA
ATOM     67  O   UNL A   1      43.793  37.846  32.420  1.00  0.00    -0.744 OA
ENDBRANCH  63  64
ENDBRANCH  44  58
BRANCH  45  68
ATOM     68  C   UNL A   1      42.659  23.623  27.864  1.00  0.00    -0.014 A 
ATOM     69  C   UNL A   1      43.034  23.371  26.533  1.00  0.00     0.010 A 
ATOM     70  C   UNL A   1      42.107  22.578  28.627  1.00  0.00     0.010 A 
ATOM     71  C   UNL A   1      42.842  22.106  25.969  1.00  0.00     0.020 A 
ATOM     72  C   UNL A   1      41.942  21.304  28.077  1.00  0.00     0.020 A 
ATOM     73  C   UNL A   1      42.299  21.079  26.747  1.00  0.00     0.054 A 
BRANCH  73  74
ATOM     74  S   UNL A   1      42.106  19.432  26.010  1.00  0.00     0.124 S 
ATOM     75  O   UNL A   1      42.953  19.529  24.825  1.00  0.00    -0.237 OA
ATOM     76  O   UNL A   1      42.596  18.554  27.069  1.00  0.00    -0.237 OA
ATOM     77  O   UNL A   1      40.672  19.340  25.749  1.00  0.00    -0.744 OA
ENDBRANCH  73  74
ENDBRANCH  45  68
BRANCH  57  78
ATOM     78  C   UNL A   1      48.078  26.812  30.886  1.00  0.00    -0.014 A 
ATOM     79  C   UNL A   1      49.148  27.027  29.999  1.00  0.00     0.010 A 
ATOM     80  C   UNL A   1      48.333  26.193  32.125  1.00  0.00     0.010 A 
ATOM     81  C   UNL A   1      50.437  26.596  30.327  1.00  0.00     0.020 A 
ATOM     82  C   UNL A   1      49.625  25.791  32.470  1.00  0.00     0.020 A 
ATOM     83  C   UNL A   1      50.666  25.979  31.561  1.00  0.00     0.054 A 
BRANCH  83  84
ATOM     84  S   UNL A   1      52.353  25.457  31.975  1.00  0.00     0.124 S 
ATOM     85  O   UNL A   1      52.175  24.031  32.236  1.00  0.00    -0.237 OA
ATOM     86  O   UNL A   1      53.098  25.785  30.762  1.00  0.00    -0.237 OA
ATOM     87  O   UNL A   1      52.690  26.266  33.144  1.00  0.00    -0.744 OA
ENDBRANCH  83  84
ENDBRANCH  57  78
ENDBRANCH  31  32
ENDBRANCH  23  26
ENDBRANCH  21  22
ENDBRANCH  20  21
ENDBRANCH  19  20
ENDBRANCH   3  19
TORSDOF 19
ENDMDL
MODEL 3
REMARK VINA RESULT:     -10.0      6.304      8.543
REMARK SMILES O=C(CCCCCC(F)(F)c1ccccc1)NCCCNC(=O)c1ccc(-c2c3nc(c(-c4ccc(S(=O)(=O)[O-])cc4)c4ccc([nH]4)c(-c4ccc(S(=O)(=O)[O-])cc4)c4nc(c(-c5ccc(S(=O)(=O)[O-])cc5)c5ccc2[nH]5)C=C4)C=C3)cc1
REMARK SMILES IDX 1 1 2 2 17 3 3 5 4 6 5 7 6 8 7 9 8 10 9 11 10 12 11 13 12 14
REMARK SMILES IDX 16 15 13 16 15 17 14 18 18 19 19 20 20 21 21 22 22 23 23 25
REMARK SMILES IDX 24 26 25 27 83 28 26 29 82 30 27 31 28 32 29 33 76 34 30 35
REMARK SMILES IDX 81 36 75 37 77 38 31 39 80 40 74 41 73 42 32 44 62 45 43 46
REMARK SMILES IDX 61 47 44 48 47 49 60 50 78 51 45 52 46 53 59 55 79 56 48 57
REMARK SMILES IDX 33 58 34 59 42 60 35 61 41 62 36 63 37 64 38 65 39 66 40 67
REMARK SMILES IDX 63 68 64 69 72 70 65 71 71 72 66 73 67 74 68 75 69 76 70 77
REMARK SMILES IDX 49 78 50 79 58 80 51 81 57 82 52 83 53 84 54 85 55 86 56 87
REMARK H PARENT 17 4 21 24 77 43 47 54
REMARK Flexibility Score: inf
ROOT
ATOM      1  O   UNL A   1      38.907  24.217  26.893  1.00  0.00    -0.275 OA
ATOM      2  C   UNL A   1      38.383  23.388  26.159  1.00  0.00     0.219 C 
ATOM      3  N   UNL A   1      38.915  22.151  25.882  1.00  0.00    -0.356 N 
ATOM      4  H   UNL A   1      38.350  21.474  25.445  1.00  0.00     0.163 HD
ENDROOT
BRANCH   2   5
ATOM      5  C   UNL A   1      37.130  23.682  25.361  1.00  0.00     0.100 C 
BRANCH   5   6
ATOM      6  C   UNL A   1      36.954  22.624  24.269  1.00  0.00     0.010 C 
BRANCH   6   7
ATOM      7  C   UNL A   1      35.892  22.954  23.209  1.00  0.00     0.001 C 
BRANCH   7   8
ATOM      8  C   UNL A   1      34.433  22.912  23.676  1.00  0.00     0.007 C 
BRANCH   8   9
ATOM      9  C   UNL A   1      34.025  21.769  24.619  1.00  0.00     0.082 C 
BRANCH   9  10
ATOM     10  C   UNL A   1      32.839  20.890  24.175  1.00  0.00     0.273 C 
ATOM     11  F   UNL A   1      31.824  21.081  25.069  1.00  0.00    -0.201 F 
ATOM     12  F   UNL A   1      32.377  21.421  22.999  1.00  0.00    -0.201 F 
BRANCH  10  13
ATOM     13  C   UNL A   1      33.197  19.431  23.999  1.00  0.00     0.021 A 
ATOM     14  C   UNL A   1      34.337  18.895  24.623  1.00  0.00     0.010 A 
ATOM     15  C   UNL A   1      32.456  18.616  23.128  1.00  0.00     0.010 A 
ATOM     16  C   UNL A   1      34.782  17.613  24.298  1.00  0.00     0.001 A 
ATOM     17  C   UNL A   1      32.902  17.333  22.809  1.00  0.00     0.001 A 
ATOM     18  C   UNL A   1      34.077  16.842  23.376  1.00  0.00     0.000 A 
ENDBRANCH  10  13
ENDBRANCH   9  10
ENDBRANCH   8   9
ENDBRANCH   7   8
ENDBRANCH   6   7
ENDBRANCH   5   6
ENDBRANCH   2   5
BRANCH   3  19
ATOM     19  C   UNL A   1      40.284  21.813  26.213  1.00  0.00     0.117 C 
BRANCH  19  20
ATOM     20  C   UNL A   1      40.518  20.311  26.239  1.00  0.00     0.042 C 
BRANCH  20  21
ATOM     21  C   UNL A   1      41.905  19.890  26.715  1.00  0.00     0.118 C 
BRANCH  21  22
ATOM     22  N   UNL A   1      42.736  19.320  25.665  1.00  0.00    -0.352 N 
ATOM     23  C   UNL A   1      43.739  19.911  24.931  1.00  0.00     0.251 C 
ATOM     24  H   UNL A   1      42.554  18.377  25.449  1.00  0.00     0.163 HD
ATOM     25  O   UNL A   1      44.245  19.301  23.993  1.00  0.00    -0.269 OA
BRANCH  23  26
ATOM     26  C   UNL A   1      44.185  21.290  25.243  1.00  0.00     0.039 A 
ATOM     27  C   UNL A   1      43.849  22.322  24.362  1.00  0.00     0.014 A 
ATOM     28  C   UNL A   1      44.923  21.574  26.395  1.00  0.00     0.014 A 
ATOM     29  C   UNL A   1      44.187  23.642  24.676  1.00  0.00     0.010 A 
ATOM     30  C   UNL A   1      45.187  22.898  26.745  1.00  0.00     0.010 A 
ATOM     31  C   UNL A   1      44.822  23.949  25.891  1.00  0.00    -0.014 A 
BRANCH  31  32
ATOM     32  C   UNL A   1      45.096  25.358  26.284  1.00  0.00     0.031 A 
ATOM     33  C   UNL A   1      46.484  25.932  26.159  1.00  0.00     0.074 A 
ATOM     34  C   UNL A   1      44.107  26.112  26.807  1.00  0.00     0.049 A 
ATOM     35  N   UNL A   1      46.918  27.122  26.488  1.00  0.00    -0.248 NA
ATOM     36  C   UNL A   1      47.526  25.045  25.613  1.00  0.00     0.031 C 
ATOM     37  C   UNL A   1      42.727  25.669  27.022  1.00  0.00     0.029 A 
ATOM     38  N   UNL A   1      44.111  27.410  27.258  1.00  0.00    -0.354 N 
ATOM     39  C   UNL A   1      48.279  27.124  26.204  1.00  0.00     0.074 A 
ATOM     40  C   UNL A   1      48.610  25.799  25.725  1.00  0.00     0.031 C 
ATOM     41  C   UNL A   1      42.013  26.685  27.532  1.00  0.00     0.029 A 
ATOM     42  C   UNL A   1      42.889  27.838  27.723  1.00  0.00     0.049 A 
ATOM     43  H   UNL A   1      44.912  27.981  27.249  1.00  0.00     0.167 HD
ATOM     44  C   UNL A   1      49.171  28.140  26.311  1.00  0.00     0.031 A 
ATOM     45  C   UNL A   1      42.511  29.019  28.250  1.00  0.00     0.031 A 
ATOM     46  C   UNL A   1      48.841  29.460  26.781  1.00  0.00     0.049 A 
ATOM     47  C   UNL A   1      43.523  30.126  28.374  1.00  0.00     0.074 A 
ATOM     48  C   UNL A   1      49.664  30.568  26.876  1.00  0.00     0.029 A 
ATOM     49  N   UNL A   1      47.592  29.850  27.239  1.00  0.00    -0.354 N 
ATOM     50  N   UNL A   1      44.791  30.126  28.039  1.00  0.00    -0.248 NA
ATOM     51  C   UNL A   1      43.048  31.398  28.936  1.00  0.00     0.031 C 
ATOM     52  C   UNL A   1      48.930  31.613  27.446  1.00  0.00     0.029 A 
ATOM     53  C   UNL A   1      47.629  31.175  27.643  1.00  0.00     0.049 A 
ATOM     54  H   UNL A   1      46.796  29.272  27.273  1.00  0.00     0.167 HD
ATOM     55  C   UNL A   1      45.257  31.406  28.320  1.00  0.00     0.074 A 
ATOM     56  C   UNL A   1      44.132  32.156  28.838  1.00  0.00     0.031 C 
ATOM     57  C   UNL A   1      46.505  31.914  28.160  1.00  0.00     0.031 A 
BRANCH  44  58
ATOM     58  C   UNL A   1      50.599  27.857  25.917  1.00  0.00    -0.014 A 
ATOM     59  C   UNL A   1      51.536  27.394  26.859  1.00  0.00     0.010 A 
ATOM     60  C   UNL A   1      50.999  28.013  24.577  1.00  0.00     0.010 A 
ATOM     61  C   UNL A   1      52.856  27.136  26.477  1.00  0.00     0.020 A 
ATOM     62  C   UNL A   1      52.309  27.725  24.185  1.00  0.00     0.020 A 
ATOM     63  C   UNL A   1      53.234  27.305  25.142  1.00  0.00     0.054 A 
BRANCH  63  64
ATOM     64  S   UNL A   1      54.948  26.942  24.673  1.00  0.00     0.124 S 
ATOM     65  O   UNL A   1      55.634  28.171  25.061  1.00  0.00    -0.237 OA
ATOM     66  O   UNL A   1      55.259  25.767  25.484  1.00  0.00    -0.237 OA
ATOM     67  O   UNL A   1      54.871  26.700  23.234  1.00  0.00    -0.744 OA
ENDBRANCH  63  64
ENDBRANCH  44  58
BRANCH  45  68
ATOM     68  C   UNL A   1      41.102  29.223  28.690  1.00  0.00    -0.014 A 
ATOM     69  C   UNL A   1      40.070  29.360  27.744  1.00  0.00     0.010 A 
ATOM     70  C   UNL A   1      40.784  29.275  30.060  1.00  0.00     0.010 A 
ATOM     71  C   UNL A   1      38.751  29.567  28.159  1.00  0.00     0.020 A 
ATOM     72  C   UNL A   1      39.462  29.449  30.479  1.00  0.00     0.020 A 
ATOM     73  C   UNL A   1      38.455  29.607  29.525  1.00  0.00     0.054 A 
BRANCH  73  74
ATOM     74  S   UNL A   1      36.729  29.825  30.040  1.00  0.00     0.124 S 
ATOM     75  O   UNL A   1      36.001  29.329  28.877  1.00  0.00    -0.237 OA
ATOM     76  O   UNL A   1      36.651  28.994  31.239  1.00  0.00    -0.237 OA
ATOM     77  O   UNL A   1      36.623  31.262  30.280  1.00  0.00    -0.744 OA
ENDBRANCH  73  74
ENDBRANCH  45  68
BRANCH  57  78
ATOM     78  C   UNL A   1      46.714  33.364  28.512  1.00  0.00    -0.014 A 
ATOM     79  C   UNL A   1      46.561  34.383  27.554  1.00  0.00     0.010 A 
ATOM     80  C   UNL A   1      47.029  33.715  29.838  1.00  0.00     0.010 A 
ATOM     81  C   UNL A   1      46.760  35.721  27.907  1.00  0.00     0.020 A 
ATOM     82  C   UNL A   1      47.196  35.053  30.202  1.00  0.00     0.020 A 
ATOM     83  C   UNL A   1      47.077  36.047  29.230  1.00  0.00     0.054 A 
BRANCH  83  84
ATOM     84  S   UNL A   1      47.299  37.793  29.669  1.00  0.00     0.124 S 
ATOM     85  O   UNL A   1      46.993  37.789  31.097  1.00  0.00    -0.237 OA
ATOM     86  O   UNL A   1      48.699  38.035  29.328  1.00  0.00    -0.237 OA
ATOM     87  O   UNL A   1      46.329  38.489  28.826  1.00  0.00    -0.744 OA
ENDBRANCH  83  84
ENDBRANCH  57  78
ENDBRANCH  31  32
ENDBRANCH  23  26
ENDBRANCH  21  22
ENDBRANCH  20  21
ENDBRANCH  19  20
ENDBRANCH   3  19
TORSDOF 19
ENDMDL
