MODEL 1
REMARK VINA RESULT:     -11.5      0.000      0.000
REMARK SMILES CC1CCN(C(=O)N[C@@H]2C=C[C@H](C(=O)NCCCNC(=O)c3ccc(-c4c5nc(c(-c6ccc(S(=O)(=O)[O-])cc6)c6ccc([nH]6)c(-c6ccc(S(=O)(=O)[O-])cc6)c6nc(c(-c7ccc(S(=O)(=O)[O-])cc7)c7ccc4[nH]7)C=C6)C=C5)cc3)C2)CC1
REMARK SMILES IDX 18 1 17 2 16 3 15 4 13 5 14 6 12 8 9 9 10 10 82 11 11 12
REMARK SMILES IDX 8 13 1 14 2 15 3 16 84 17 4 18 83 19 5 20 6 21 7 22 19 24
REMARK SMILES IDX 20 25 21 27 22 28 23 29 81 30 24 31 80 32 25 33 26 34 27 35
REMARK SMILES IDX 74 36 28 37 79 38 73 39 75 40 29 41 78 42 72 43 71 44 30 46
REMARK SMILES IDX 60 47 41 48 59 49 42 50 45 51 58 52 76 53 43 54 44 55 57 57
REMARK SMILES IDX 77 58 46 59 31 60 32 61 40 62 33 63 39 64 34 65 35 66 36 67
REMARK SMILES IDX 37 68 38 69 61 70 62 71 70 72 63 73 69 74 64 75 65 76 66 77
REMARK SMILES IDX 67 78 68 79 47 80 48 81 56 82 49 83 55 84 50 85 51 86 52 87
REMARK SMILES IDX 53 88 54 89
REMARK H PARENT 15 7 8 23 19 26 75 45 45 56
REMARK Flexibility Score: inf
ROOT
ATOM      1  C   UNL A   1      33.558  28.324  27.290  1.00  0.00     0.118 C 
ENDROOT
BRANCH   1   2
ATOM      2  C   UNL A   1      33.864  28.028  25.825  1.00  0.00     0.042 C 
BRANCH   2   3
ATOM      3  C   UNL A   1      33.386  26.675  25.317  1.00  0.00     0.117 C 
BRANCH   3   4
ATOM      4  N   UNL A   1      34.386  25.642  25.471  1.00  0.00    -0.356 N 
ATOM      5  C   UNL A   1      34.266  24.329  25.800  1.00  0.00     0.227 C 
ATOM      6  O   UNL A   1      35.283  23.647  25.677  1.00  0.00    -0.274 OA
ATOM      7  H   UNL A   1      35.311  25.940  25.310  1.00  0.00     0.163 HD
BRANCH   5   8
ATOM      8  C   UNL A   1      32.934  23.765  26.301  1.00  0.00     0.103 C 
ATOM      9  C   UNL A   1      33.143  21.308  26.361  1.00  0.00     0.107 C 
ATOM     10  C   UNL A   1      32.273  21.796  25.217  1.00  0.00    -0.006 C 
ATOM     11  C   UNL A   1      33.133  22.566  27.230  1.00  0.00     0.047 C 
ATOM     12  C   UNL A   1      32.174  23.132  25.179  1.00  0.00    -0.016 C 
BRANCH   9  13
ATOM     13  N   UNL A   1      34.337  20.770  25.731  1.00  0.00    -0.332 N 
ATOM     14  C   UNL A   1      32.642  14.908  25.738  1.00  0.00     0.008 C 
ATOM     15  C   UNL A   1      33.064  16.026  24.783  1.00  0.00    -0.011 C 
ATOM     16  C   UNL A   1      34.564  16.304  24.957  1.00  0.00     0.025 C 
ATOM     17  C   UNL A   1      32.224  17.301  25.001  1.00  0.00     0.025 C 
ATOM     18  C   UNL A   1      35.007  17.527  24.162  1.00  0.00     0.121 C 
ATOM     19  C   UNL A   1      32.793  18.510  24.243  1.00  0.00     0.121 C 
ATOM     20  N   UNL A   1      34.202  18.690  24.536  1.00  0.00    -0.325 N 
ATOM     21  C   UNL A   1      34.861  19.767  25.026  1.00  0.00     0.317 C 
ATOM     22  O   UNL A   1      36.082  19.897  24.846  1.00  0.00    -0.249 OA
ATOM     23  H   UNL A   1      35.063  21.415  25.894  1.00  0.00     0.165 HD
ENDBRANCH   9  13
ENDBRANCH   5   8
ENDBRANCH   3   4
ENDBRANCH   2   3
ENDBRANCH   1   2
BRANCH   1  24
ATOM     24  N   UNL A   1      33.440  29.738  27.601  1.00  0.00    -0.352 N 
ATOM     25  C   UNL A   1      34.364  30.615  28.110  1.00  0.00     0.251 C 
ATOM     26  H   UNL A   1      32.556  30.130  27.416  1.00  0.00     0.163 HD
ATOM     27  O   UNL A   1      34.018  31.763  28.378  1.00  0.00    -0.269 OA
BRANCH  25  28
ATOM     28  C   UNL A   1      35.752  30.181  28.373  1.00  0.00     0.039 A 
ATOM     29  C   UNL A   1      36.686  30.292  27.340  1.00  0.00     0.014 A 
ATOM     30  C   UNL A   1      36.135  29.651  29.609  1.00  0.00     0.014 A 
ATOM     31  C   UNL A   1      38.014  29.923  27.562  1.00  0.00     0.010 A 
ATOM     32  C   UNL A   1      37.474  29.352  29.851  1.00  0.00     0.010 A 
ATOM     33  C   UNL A   1      38.426  29.475  28.828  1.00  0.00    -0.014 A 
BRANCH  33  34
ATOM     34  C   UNL A   1      39.843  29.107  29.076  1.00  0.00     0.031 A 
ATOM     35  C   UNL A   1      40.780  30.092  29.721  1.00  0.00     0.074 A 
ATOM     36  C   UNL A   1      40.293  27.892  28.704  1.00  0.00     0.049 A 
ATOM     37  N   UNL A   1      42.042  29.947  30.031  1.00  0.00    -0.248 NA
ATOM     38  C   UNL A   1      40.232  31.419  30.041  1.00  0.00     0.031 C 
ATOM     39  C   UNL A   1      39.495  26.858  28.041  1.00  0.00     0.029 A 
ATOM     40  N   UNL A   1      41.532  27.317  28.841  1.00  0.00    -0.354 N 
ATOM     41  C   UNL A   1      42.440  31.162  30.575  1.00  0.00     0.074 A 
ATOM     42  C   UNL A   1      41.302  32.051  30.498  1.00  0.00     0.031 C 
ATOM     43  C   UNL A   1      40.253  25.763  27.867  1.00  0.00     0.029 A 
ATOM     44  C   UNL A   1      41.596  26.025  28.374  1.00  0.00     0.049 A 
ATOM     45  H   UNL A   1      42.302  27.786  29.236  1.00  0.00     0.167 HD
ATOM     46  C   UNL A   1      43.636  31.503  31.113  1.00  0.00     0.031 A 
ATOM     47  C   UNL A   1      42.616  25.146  28.366  1.00  0.00     0.031 A 
ATOM     48  C   UNL A   1      44.767  30.618  31.195  1.00  0.00     0.049 A 
ATOM     49  C   UNL A   1      43.938  25.550  28.963  1.00  0.00     0.074 A 
ATOM     50  C   UNL A   1      46.012  30.858  31.751  1.00  0.00     0.029 A 
ATOM     51  N   UNL A   1      44.790  29.320  30.710  1.00  0.00    -0.354 N 
ATOM     52  N   UNL A   1      44.279  26.688  29.517  1.00  0.00    -0.248 NA
ATOM     53  C   UNL A   1      45.006  24.540  28.947  1.00  0.00     0.031 C 
ATOM     54  C   UNL A   1      46.800  29.717  31.565  1.00  0.00     0.029 A 
ATOM     55  C   UNL A   1      46.030  28.749  30.942  1.00  0.00     0.049 A 
ATOM     56  H   UNL A   1      44.036  28.870  30.264  1.00  0.00     0.167 HD
ATOM     57  C   UNL A   1      45.590  26.519  29.951  1.00  0.00     0.074 A 
ATOM     58  C   UNL A   1      45.975  25.167  29.599  1.00  0.00     0.031 C 
ATOM     59  C   UNL A   1      46.398  27.401  30.590  1.00  0.00     0.031 A 
BRANCH  46  60
ATOM     60  C   UNL A   1      43.772  32.903  31.653  1.00  0.00    -0.014 A 
ATOM     61  C   UNL A   1      43.530  33.182  33.010  1.00  0.00     0.010 A 
ATOM     62  C   UNL A   1      44.154  33.951  30.796  1.00  0.00     0.010 A 
ATOM     63  C   UNL A   1      43.610  34.492  33.490  1.00  0.00     0.020 A 
ATOM     64  C   UNL A   1      44.263  35.259  31.278  1.00  0.00     0.020 A 
ATOM     65  C   UNL A   1      43.967  35.524  32.618  1.00  0.00     0.054 A 
BRANCH  65  66
ATOM     66  S   UNL A   1      44.059  37.217  33.263  1.00  0.00     0.124 S 
ATOM     67  O   UNL A   1      42.766  37.353  33.930  1.00  0.00    -0.237 OA
ATOM     68  O   UNL A   1      45.219  37.163  34.148  1.00  0.00    -0.237 OA
ATOM     69  O   UNL A   1      44.231  38.035  32.065  1.00  0.00    -0.744 OA
ENDBRANCH  65  66
ENDBRANCH  46  60
BRANCH  47  70
ATOM     70  C   UNL A   1      42.416  23.780  27.814  1.00  0.00    -0.014 A 
ATOM     71  C   UNL A   1      41.959  22.740  28.642  1.00  0.00     0.010 A 
ATOM     72  C   UNL A   1      42.669  23.513  26.456  1.00  0.00     0.010 A 
ATOM     73  C   UNL A   1      41.777  21.452  28.129  1.00  0.00     0.020 A 
ATOM     74  C   UNL A   1      42.464  22.233  25.933  1.00  0.00     0.020 A 
ATOM     75  C   UNL A   1      42.029  21.208  26.775  1.00  0.00     0.054 A 
BRANCH  75  76
ATOM     76  S   UNL A   1      41.735  19.543  26.117  1.00  0.00     0.124 S 
ATOM     77  O   UNL A   1      42.218  18.697  27.204  1.00  0.00    -0.237 OA
ATOM     78  O   UNL A   1      40.290  19.537  25.904  1.00  0.00    -0.237 OA
ATOM     79  O   UNL A   1      42.537  19.513  24.896  1.00  0.00    -0.744 OA
ENDBRANCH  75  76
ENDBRANCH  47  70
BRANCH  59  80
ATOM     80  C   UNL A   1      47.765  26.918  30.996  1.00  0.00    -0.014 A 
ATOM     81  C   UNL A   1      48.887  27.115  30.172  1.00  0.00     0.010 A 
ATOM     82  C   UNL A   1      47.932  26.294  32.245  1.00  0.00     0.010 A 
ATOM     83  C   UNL A   1      50.146  26.663  30.575  1.00  0.00     0.020 A 
ATOM     84  C   UNL A   1      49.194  25.865  32.663  1.00  0.00     0.020 A 
ATOM     85  C   UNL A   1      50.291  26.038  31.818  1.00  0.00     0.054 A 
BRANCH  85  86
ATOM     86  S   UNL A   1      51.941  25.490  32.335  1.00  0.00     0.124 S 
ATOM     87  O   UNL A   1      52.749  25.811  31.162  1.00  0.00    -0.237 OA
ATOM     88  O   UNL A   1      52.196  26.308  33.518  1.00  0.00    -0.237 OA
ATOM     89  O   UNL A   1      51.764  24.063  32.600  1.00  0.00    -0.744 OA
ENDBRANCH  85  86
ENDBRANCH  59  80
ENDBRANCH  33  34
ENDBRANCH  25  28
ENDBRANCH   1  24
TORSDOF 14
ENDMDL
MODEL 2
REMARK VINA RESULT:     -11.4      3.448      4.630
REMARK SMILES CC1CCN(C(=O)N[C@@H]2C=C[C@H](C(=O)NCCCNC(=O)c3ccc(-c4c5nc(c(-c6ccc(S(=O)(=O)[O-])cc6)c6ccc([nH]6)c(-c6ccc(S(=O)(=O)[O-])cc6)c6nc(c(-c7ccc(S(=O)(=O)[O-])cc7)c7ccc4[nH]7)C=C6)C=C5)cc3)C2)CC1
REMARK SMILES IDX 18 1 17 2 16 3 15 4 13 5 14 6 12 8 9 9 10 10 82 11 11 12
REMARK SMILES IDX 8 13 1 14 2 15 3 16 84 17 4 18 83 19 5 20 6 21 7 22 19 24
REMARK SMILES IDX 20 25 21 27 22 28 23 29 81 30 24 31 80 32 25 33 26 34 27 35
REMARK SMILES IDX 74 36 28 37 79 38 73 39 75 40 29 41 78 42 72 43 71 44 30 46
REMARK SMILES IDX 60 47 41 48 59 49 42 50 45 51 58 52 76 53 43 54 44 55 57 57
REMARK SMILES IDX 77 58 46 59 31 60 32 61 40 62 33 63 39 64 34 65 35 66 36 67
REMARK SMILES IDX 37 68 38 69 61 70 62 71 70 72 63 73 69 74 64 75 65 76 66 77
REMARK SMILES IDX 67 78 68 79 47 80 48 81 56 82 49 83 55 84 50 85 51 86 52 87
REMARK SMILES IDX 53 88 54 89
REMARK H PARENT 15 7 8 23 19 26 75 45 45 56
REMARK Flexibility Score: inf
ROOT
ATOM      1  C   UNL A   1      35.571  30.869  28.205  1.00  0.00     0.118 C 
ENDROOT
BRANCH   1   2
ATOM      2  C   UNL A   1      34.224  31.282  27.620  1.00  0.00     0.042 C 
BRANCH   2   3
ATOM      3  C   UNL A   1      33.354  30.141  27.112  1.00  0.00     0.117 C 
BRANCH   3   4
ATOM      4  N   UNL A   1      33.657  29.782  25.744  1.00  0.00    -0.356 N 
ATOM      5  C   UNL A   1      32.852  29.341  24.742  1.00  0.00     0.227 C 
ATOM      6  O   UNL A   1      33.364  29.287  23.624  1.00  0.00    -0.274 OA
ATOM      7  H   UNL A   1      34.605  29.870  25.498  1.00  0.00     0.163 HD
BRANCH   5   8
ATOM      8  C   UNL A   1      31.403  28.933  25.020  1.00  0.00     0.103 C 
ATOM      9  C   UNL A   1      30.994  26.800  23.852  1.00  0.00     0.107 C 
ATOM     10  C   UNL A   1      30.318  27.978  23.176  1.00  0.00    -0.006 C 
ATOM     11  C   UNL A   1      31.262  27.423  25.222  1.00  0.00     0.047 C 
ATOM     12  C   UNL A   1      30.555  29.138  23.805  1.00  0.00    -0.016 C 
BRANCH   9  13
ATOM     13  N   UNL A   1      32.042  26.381  22.935  1.00  0.00    -0.332 N 
ATOM     14  C   UNL A   1      33.504  21.170  25.751  1.00  0.00     0.008 C 
ATOM     15  C   UNL A   1      33.014  21.699  24.403  1.00  0.00    -0.011 C 
ATOM     16  C   UNL A   1      34.161  22.442  23.702  1.00  0.00     0.025 C 
ATOM     17  C   UNL A   1      31.774  22.600  24.567  1.00  0.00     0.025 C 
ATOM     18  C   UNL A   1      33.687  23.145  22.435  1.00  0.00     0.121 C 
ATOM     19  C   UNL A   1      31.421  23.347  23.272  1.00  0.00     0.121 C 
ATOM     20  N   UNL A   1      32.576  24.047  22.744  1.00  0.00    -0.325 N 
ATOM     21  C   UNL A   1      32.742  25.358  22.447  1.00  0.00     0.317 C 
ATOM     22  O   UNL A   1      33.624  25.719  21.652  1.00  0.00    -0.249 OA
ATOM     23  H   UNL A   1      32.372  27.194  22.488  1.00  0.00     0.165 HD
ENDBRANCH   9  13
ENDBRANCH   5   8
ENDBRANCH   3   4
ENDBRANCH   2   3
ENDBRANCH   1   2
BRANCH   1  24
ATOM     24  N   UNL A   1      35.535  30.557  29.624  1.00  0.00    -0.352 N 
ATOM     25  C   UNL A   1      36.498  30.022  30.439  1.00  0.00     0.251 C 
ATOM     26  H   UNL A   1      34.682  30.764  30.071  1.00  0.00     0.163 HD
ATOM     27  O   UNL A   1      36.218  29.760  31.607  1.00  0.00    -0.269 OA
BRANCH  25  28
ATOM     28  C   UNL A   1      37.848  29.723  29.919  1.00  0.00     0.039 A 
ATOM     29  C   UNL A   1      38.850  29.386  30.833  1.00  0.00     0.014 A 
ATOM     30  C   UNL A   1      38.142  29.793  28.554  1.00  0.00     0.014 A 
ATOM     31  C   UNL A   1      40.129  29.066  30.376  1.00  0.00     0.010 A 
ATOM     32  C   UNL A   1      39.398  29.402  28.094  1.00  0.00     0.010 A 
ATOM     33  C   UNL A   1      40.407  29.045  28.999  1.00  0.00    -0.014 A 
BRANCH  33  34
ATOM     34  C   UNL A   1      41.760  28.679  28.507  1.00  0.00     0.031 A 
ATOM     35  C   UNL A   1      42.847  29.717  28.440  1.00  0.00     0.074 A 
ATOM     36  C   UNL A   1      42.006  27.417  28.103  1.00  0.00     0.049 A 
ATOM     37  N   UNL A   1      44.090  29.585  28.054  1.00  0.00    -0.248 NA
ATOM     38  C   UNL A   1      42.485  31.087  28.838  1.00  0.00     0.031 C 
ATOM     39  C   UNL A   1      41.030  26.325  28.089  1.00  0.00     0.029 A 
ATOM     40  N   UNL A   1      43.159  26.837  27.636  1.00  0.00    -0.354 N 
ATOM     41  C   UNL A   1      44.655  30.850  28.157  1.00  0.00     0.074 A 
ATOM     42  C   UNL A   1      43.604  31.748  28.584  1.00  0.00     0.031 C 
ATOM     43  C   UNL A   1      41.636  25.200  27.675  1.00  0.00     0.029 A 
ATOM     44  C   UNL A   1      43.031  25.495  27.364  1.00  0.00     0.049 A 
ATOM     45  H   UNL A   1      43.998  27.335  27.507  1.00  0.00     0.167 HD
ATOM     46  C   UNL A   1      45.937  31.231  27.940  1.00  0.00     0.031 A 
ATOM     47  C   UNL A   1      43.937  24.600  26.926  1.00  0.00     0.031 A 
ATOM     48  C   UNL A   1      46.984  30.338  27.521  1.00  0.00     0.049 A 
ATOM     49  C   UNL A   1      45.354  25.046  26.685  1.00  0.00     0.074 A 
ATOM     50  C   UNL A   1      48.322  30.619  27.305  1.00  0.00     0.029 A 
ATOM     51  N   UNL A   1      46.812  28.988  27.255  1.00  0.00    -0.354 N 
ATOM     52  N   UNL A   1      45.880  26.239  26.836  1.00  0.00    -0.248 NA
ATOM     53  C   UNL A   1      46.302  24.020  26.231  1.00  0.00     0.031 C 
ATOM     54  C   UNL A   1      48.951  29.447  26.871  1.00  0.00     0.029 A 
ATOM     55  C   UNL A   1      48.015  28.424  26.867  1.00  0.00     0.049 A 
ATOM     56  H   UNL A   1      45.959  28.502  27.331  1.00  0.00     0.167 HD
ATOM     57  C   UNL A   1      47.230  26.096  26.532  1.00  0.00     0.074 A 
ATOM     58  C   UNL A   1      47.438  24.703  26.195  1.00  0.00     0.031 C 
ATOM     59  C   UNL A   1      48.209  27.034  26.539  1.00  0.00     0.031 A 
BRANCH  46  60
ATOM     60  C   UNL A   1      46.268  32.684  28.155  1.00  0.00    -0.014 A 
ATOM     61  C   UNL A   1      46.687  33.153  29.414  1.00  0.00     0.010 A 
ATOM     62  C   UNL A   1      46.167  33.593  27.085  1.00  0.00     0.010 A 
ATOM     63  C   UNL A   1      46.943  34.512  29.615  1.00  0.00     0.020 A 
ATOM     64  C   UNL A   1      46.451  34.948  27.275  1.00  0.00     0.020 A 
ATOM     65  C   UNL A   1      46.814  35.403  28.546  1.00  0.00     0.054 A 
BRANCH  65  66
ATOM     66  S   UNL A   1      47.146  37.162  28.834  1.00  0.00     0.124 S 
ATOM     67  O   UNL A   1      47.185  37.224  30.293  1.00  0.00    -0.237 OA
ATOM     68  O   UNL A   1      48.428  37.363  28.162  1.00  0.00    -0.237 OA
ATOM     69  O   UNL A   1      46.009  37.836  28.212  1.00  0.00    -0.744 OA
ENDBRANCH  65  66
ENDBRANCH  46  60
BRANCH  47  70
ATOM     70  C   UNL A   1      43.543  23.179  26.730  1.00  0.00    -0.014 A 
ATOM     71  C   UNL A   1      43.750  22.550  25.490  1.00  0.00     0.010 A 
ATOM     72  C   UNL A   1      42.972  22.444  27.784  1.00  0.00     0.010 A 
ATOM     73  C   UNL A   1      43.374  21.217  25.300  1.00  0.00     0.020 A 
ATOM     74  C   UNL A   1      42.618  21.103  27.606  1.00  0.00     0.020 A 
ATOM     75  C   UNL A   1      42.812  20.501  26.361  1.00  0.00     0.054 A 
BRANCH  75  76
ATOM     76  S   UNL A   1      42.381  18.756  26.108  1.00  0.00     0.124 S 
ATOM     77  O   UNL A   1      42.644  18.185  27.425  1.00  0.00    -0.237 OA
ATOM     78  O   UNL A   1      40.975  18.832  25.719  1.00  0.00    -0.237 OA
ATOM     79  O   UNL A   1      43.291  18.331  25.047  1.00  0.00    -0.744 OA
ENDBRANCH  75  76
ENDBRANCH  47  70
BRANCH  59  80
ATOM     80  C   UNL A   1      49.607  26.577  26.220  1.00  0.00    -0.014 A 
ATOM     81  C   UNL A   1      50.412  25.947  27.185  1.00  0.00     0.010 A 
ATOM     82  C   UNL A   1      50.106  26.746  24.915  1.00  0.00     0.010 A 
ATOM     83  C   UNL A   1      51.704  25.526  26.860  1.00  0.00     0.020 A 
ATOM     84  C   UNL A   1      51.387  26.302  24.580  1.00  0.00     0.020 A 
ATOM     85  C   UNL A   1      52.185  25.709  25.560  1.00  0.00     0.054 A 
BRANCH  85  86
ATOM     86  S   UNL A   1      53.853  25.125  25.152  1.00  0.00     0.124 S 
ATOM     87  O   UNL A   1      54.141  25.862  23.925  1.00  0.00    -0.237 OA
ATOM     88  O   UNL A   1      54.630  25.525  26.324  1.00  0.00    -0.237 OA
ATOM     89  O   UNL A   1      53.683  23.682  24.989  1.00  0.00    -0.744 OA
ENDBRANCH  85  86
ENDBRANCH  59  80
ENDBRANCH  33  34
ENDBRANCH  25  28
ENDBRANCH   1  24
TORSDOF 14
ENDMDL
MODEL 3
REMARK VINA RESULT:     -11.4      4.473     10.386
REMARK SMILES CC1CCN(C(=O)N[C@@H]2C=C[C@H](C(=O)NCCCNC(=O)c3ccc(-c4c5nc(c(-c6ccc(S(=O)(=O)[O-])cc6)c6ccc([nH]6)c(-c6ccc(S(=O)(=O)[O-])cc6)c6nc(c(-c7ccc(S(=O)(=O)[O-])cc7)c7ccc4[nH]7)C=C6)C=C5)cc3)C2)CC1
REMARK SMILES IDX 18 1 17 2 16 3 15 4 13 5 14 6 12 8 9 9 10 10 82 11 11 12
REMARK SMILES IDX 8 13 1 14 2 15 3 16 84 17 4 18 83 19 5 20 6 21 7 22 19 24
REMARK SMILES IDX 20 25 21 27 22 28 23 29 81 30 24 31 80 32 25 33 26 34 27 35
REMARK SMILES IDX 74 36 28 37 79 38 73 39 75 40 29 41 78 42 72 43 71 44 30 46
REMARK SMILES IDX 60 47 41 48 59 49 42 50 45 51 58 52 76 53 43 54 44 55 57 57
REMARK SMILES IDX 77 58 46 59 31 60 32 61 40 62 33 63 39 64 34 65 35 66 36 67
REMARK SMILES IDX 37 68 38 69 61 70 62 71 70 72 63 73 69 74 64 75 65 76 66 77
REMARK SMILES IDX 67 78 68 79 47 80 48 81 56 82 49 83 55 84 50 85 51 86 52 87
REMARK SMILES IDX 53 88 54 89
REMARK H PARENT 15 7 8 23 19 26 75 45 45 56
REMARK Flexibility Score: inf
ROOT
ATOM      1  C   UNL A   1      40.595  23.172  27.279  1.00  0.00     0.118 C 
ENDROOT
BRANCH   1   2
ATOM      2  C   UNL A   1      40.027  21.809  26.896  1.00  0.00     0.042 C 
BRANCH   2   3
ATOM      3  C   UNL A   1      38.923  21.831  25.847  1.00  0.00     0.117 C 
BRANCH   3   4
ATOM      4  N   UNL A   1      37.793  22.639  26.251  1.00  0.00    -0.356 N 
ATOM      5  C   UNL A   1      36.504  22.639  25.824  1.00  0.00     0.227 C 
ATOM      6  O   UNL A   1      35.718  23.321  26.483  1.00  0.00    -0.274 OA
ATOM      7  H   UNL A   1      37.992  23.300  26.953  1.00  0.00     0.163 HD
BRANCH   5   8
ATOM      8  C   UNL A   1      36.085  21.839  24.588  1.00  0.00     0.103 C 
ATOM      9  C   UNL A   1      33.624  21.910  24.455  1.00  0.00     0.107 C 
ATOM     10  C   UNL A   1      34.149  20.557  24.901  1.00  0.00    -0.006 C 
ATOM     11  C   UNL A   1      34.907  22.486  23.858  1.00  0.00     0.047 C 
ATOM     12  C   UNL A   1      35.486  20.527  24.987  1.00  0.00    -0.016 C 
BRANCH   9  13
ATOM     13  N   UNL A   1      32.953  22.464  25.619  1.00  0.00    -0.332 N 
ATOM     14  C   UNL A   1      30.875  27.553  22.971  1.00  0.00     0.008 C 
ATOM     15  C   UNL A   1      30.383  26.309  23.712  1.00  0.00    -0.011 C 
ATOM     16  C   UNL A   1      30.764  26.417  25.196  1.00  0.00     0.025 C 
ATOM     17  C   UNL A   1      30.941  25.018  23.078  1.00  0.00     0.025 C 
ATOM     18  C   UNL A   1      30.459  25.128  25.951  1.00  0.00     0.121 C 
ATOM     19  C   UNL A   1      30.677  23.780  23.948  1.00  0.00     0.121 C 
ATOM     20  N   UNL A   1      31.129  23.996  25.309  1.00  0.00    -0.325 N 
ATOM     21  C   UNL A   1      32.002  23.285  26.063  1.00  0.00     0.317 C 
ATOM     22  O   UNL A   1      31.977  23.363  27.301  1.00  0.00    -0.249 OA
ATOM     23  H   UNL A   1      33.381  22.066  26.412  1.00  0.00     0.165 HD
ENDBRANCH   9  13
ENDBRANCH   5   8
ENDBRANCH   3   4
ENDBRANCH   2   3
ENDBRANCH   1   2
BRANCH   1  24
ATOM     24  N   UNL A   1      41.232  23.882  26.184  1.00  0.00    -0.352 N 
ATOM     25  C   UNL A   1      41.563  25.207  26.058  1.00  0.00     0.251 C 
ATOM     26  H   UNL A   1      41.463  23.322  25.407  1.00  0.00     0.163 HD
ATOM     27  O   UNL A   1      42.025  25.612  24.994  1.00  0.00    -0.269 OA
BRANCH  25  28
ATOM     28  C   UNL A   1      41.336  26.151  27.171  1.00  0.00     0.039 A 
ATOM     29  C   UNL A   1      40.272  25.903  28.042  1.00  0.00     0.014 A 
ATOM     30  C   UNL A   1      42.139  27.281  27.352  1.00  0.00     0.014 A 
ATOM     31  C   UNL A   1      40.046  26.755  29.125  1.00  0.00     0.010 A 
ATOM     32  C   UNL A   1      41.958  28.089  28.474  1.00  0.00     0.010 A 
ATOM     33  C   UNL A   1      40.904  27.840  29.365  1.00  0.00    -0.014 A 
BRANCH  33  34
ATOM     34  C   UNL A   1      40.684  28.734  30.531  1.00  0.00     0.031 A 
ATOM     35  C   UNL A   1      41.545  28.605  31.757  1.00  0.00     0.074 A 
ATOM     36  C   UNL A   1      39.697  29.651  30.493  1.00  0.00     0.049 A 
ATOM     37  N   UNL A   1      41.514  29.303  32.864  1.00  0.00    -0.248 NA
ATOM     38  C   UNL A   1      42.560  27.540  31.749  1.00  0.00     0.031 C 
ATOM     39  C   UNL A   1      38.772  29.856  29.376  1.00  0.00     0.029 A 
ATOM     40  N   UNL A   1      39.314  30.591  31.418  1.00  0.00    -0.354 N 
ATOM     41  C   UNL A   1      42.497  28.760  33.682  1.00  0.00     0.074 A 
ATOM     42  C   UNL A   1      43.066  27.637  32.969  1.00  0.00     0.031 C 
ATOM     43  C   UNL A   1      37.957  30.884  29.664  1.00  0.00     0.029 A 
ATOM     44  C   UNL A   1      38.277  31.390  30.995  1.00  0.00     0.049 A 
ATOM     45  H   UNL A   1      39.741  30.683  32.299  1.00  0.00     0.167 HD
ATOM     46  C   UNL A   1      42.909  29.169  34.906  1.00  0.00     0.031 A 
ATOM     47  C   UNL A   1      37.662  32.421  31.605  1.00  0.00     0.031 A 
ATOM     48  C   UNL A   1      42.348  30.289  35.614  1.00  0.00     0.049 A 
ATOM     49  C   UNL A   1      38.131  32.855  32.968  1.00  0.00     0.074 A 
ATOM     50  C   UNL A   1      42.716  30.804  36.844  1.00  0.00     0.029 A 
ATOM     51  N   UNL A   1      41.299  31.070  35.152  1.00  0.00    -0.354 N 
ATOM     52  N   UNL A   1      39.096  32.357  33.705  1.00  0.00    -0.248 NA
ATOM     53  C   UNL A   1      37.438  34.001  33.572  1.00  0.00     0.031 C 
ATOM     54  C   UNL A   1      41.864  31.872  37.144  1.00  0.00     0.029 A 
ATOM     55  C   UNL A   1      40.999  32.055  36.077  1.00  0.00     0.049 A 
ATOM     56  H   UNL A   1      40.835  30.941  34.293  1.00  0.00     0.167 HD
ATOM     57  C   UNL A   1      39.150  33.155  34.843  1.00  0.00     0.074 A 
ATOM     58  C   UNL A   1      38.125  34.168  34.694  1.00  0.00     0.031 C 
ATOM     59  C   UNL A   1      39.979  33.060  35.912  1.00  0.00     0.031 A 
BRANCH  46  60
ATOM     60  C   UNL A   1      44.024  28.390  35.552  1.00  0.00    -0.014 A 
ATOM     61  C   UNL A   1      45.370  28.733  35.330  1.00  0.00     0.010 A 
ATOM     62  C   UNL A   1      43.724  27.306  36.398  1.00  0.00     0.010 A 
ATOM     63  C   UNL A   1      46.398  27.973  35.894  1.00  0.00     0.020 A 
ATOM     64  C   UNL A   1      44.749  26.560  36.988  1.00  0.00     0.020 A 
ATOM     65  C   UNL A   1      46.080  26.885  36.712  1.00  0.00     0.054 A 
BRANCH  65  66
ATOM     66  S   UNL A   1      47.432  25.910  37.428  1.00  0.00     0.124 S 
ATOM     67  O   UNL A   1      48.018  26.860  38.371  1.00  0.00    -0.237 OA
ATOM     68  O   UNL A   1      46.732  24.779  38.029  1.00  0.00    -0.237 OA
ATOM     69  O   UNL A   1      48.269  25.581  36.276  1.00  0.00    -0.744 OA
ENDBRANCH  65  66
ENDBRANCH  46  60
BRANCH  47  70
ATOM     70  C   UNL A   1      36.563  33.146  30.913  1.00  0.00    -0.014 A 
ATOM     71  C   UNL A   1      35.276  33.188  31.475  1.00  0.00     0.010 A 
ATOM     72  C   UNL A   1      36.801  33.809  29.695  1.00  0.00     0.010 A 
ATOM     73  C   UNL A   1      34.238  33.862  30.823  1.00  0.00     0.020 A 
ATOM     74  C   UNL A   1      35.773  34.505  29.053  1.00  0.00     0.020 A 
ATOM     75  C   UNL A   1      34.495  34.519  29.616  1.00  0.00     0.054 A 
BRANCH  75  76
ATOM     76  S   UNL A   1      33.148  35.432  28.814  1.00  0.00     0.124 S 
ATOM     77  O   UNL A   1      33.878  36.423  28.030  1.00  0.00    -0.237 OA
ATOM     78  O   UNL A   1      32.472  34.389  28.046  1.00  0.00    -0.237 OA
ATOM     79  O   UNL A   1      32.380  35.964  29.938  1.00  0.00    -0.744 OA
ENDBRANCH  75  76
ENDBRANCH  47  70
BRANCH  59  80
ATOM     80  C   UNL A   1      39.848  34.109  36.984  1.00  0.00    -0.014 A 
ATOM     81  C   UNL A   1      40.457  35.370  36.856  1.00  0.00     0.010 A 
ATOM     82  C   UNL A   1      39.065  33.838  38.121  1.00  0.00     0.010 A 
ATOM     83  C   UNL A   1      40.313  36.328  37.864  1.00  0.00     0.020 A 
ATOM     84  C   UNL A   1      38.898  34.802  39.117  1.00  0.00     0.020 A 
ATOM     85  C   UNL A   1      39.537  36.036  38.990  1.00  0.00     0.054 A 
BRANCH  85  86
ATOM     86  S   UNL A   1      39.337  37.307  40.269  1.00  0.00     0.124 S 
ATOM     87  O   UNL A   1      38.638  36.572  41.319  1.00  0.00    -0.237 OA
ATOM     88  O   UNL A   1      40.718  37.678  40.572  1.00  0.00    -0.237 OA
ATOM     89  O   UNL A   1      38.553  38.346  39.604  1.00  0.00    -0.744 OA
ENDBRANCH  85  86
ENDBRANCH  59  80
ENDBRANCH  33  34
ENDBRANCH  25  28
ENDBRANCH   1  24
TORSDOF 14
ENDMDL
