MODEL 1
REMARK VINA RESULT:     -11.9      0.000      0.000
REMARK SMILES CCc1ccc2oc(-c3ccccc3)c(OCC(=O)NCCCNC(=O)c3ccc(-c4c5nc(c(-c6ccc(S(=O)(=O)[O-])cc6)c6ccc([nH]6)c(-c6ccc(S(=O)(=O)[O-])cc6)c6nc(c(-c7ccc(S(=O)(=O)[O-])cc7)c7ccc4[nH]7)C=C6)C=C5)cc3)c(=O)c2c1
REMARK SMILES IDX 22 1 21 2 20 3 18 4 19 5 17 7 16 8 15 9 3 10 4 11 90 12 5 13
REMARK SMILES IDX 89 14 6 15 87 16 7 17 88 18 8 19 2 20 1 21 9 22 10 23 14 24
REMARK SMILES IDX 11 25 13 26 12 27 23 28 24 29 25 30 26 32 27 33 28 34 86 35
REMARK SMILES IDX 29 36 85 37 30 38 31 39 32 40 79 41 33 42 84 43 78 44 80 45
REMARK SMILES IDX 34 46 83 47 77 48 76 49 35 51 65 52 46 53 64 54 47 55 50 56
REMARK SMILES IDX 63 57 81 58 48 59 49 60 62 62 82 63 51 64 36 65 37 66 45 67
REMARK SMILES IDX 38 68 44 69 39 70 40 71 41 72 42 73 43 74 66 75 67 76 75 77
REMARK SMILES IDX 68 78 74 79 69 80 70 81 71 82 72 83 73 84 52 85 53 86 61 87
REMARK SMILES IDX 54 88 60 89 55 90 56 91 57 92 58 93 59 94
REMARK H PARENT 20 6 24 31 80 50 50 61
REMARK Flexibility Score: inf
ROOT
ATOM      1  C   UNL A   1      32.038  27.674  27.249  1.00  0.00     0.042 C 
ENDROOT
BRANCH   1   2
ATOM      2  C   UNL A   1      31.783  26.744  26.070  1.00  0.00     0.117 C 
BRANCH   2   3
ATOM      3  N   UNL A   1      31.036  25.559  26.442  1.00  0.00    -0.353 N 
ATOM      4  C   UNL A   1      31.505  24.325  26.795  1.00  0.00     0.257 C 
ATOM      5  O   UNL A   1      30.694  23.517  27.251  1.00  0.00    -0.271 OA
ATOM      6  H   UNL A   1      30.057  25.657  26.440  1.00  0.00     0.163 HD
BRANCH   4   7
ATOM      7  C   UNL A   1      33.010  24.028  26.709  1.00  0.00     0.329 C 
BRANCH   7   8
ATOM      8  O   UNL A   1      33.596  23.843  25.431  1.00  0.00    -0.476 OA
BRANCH   8   9
ATOM      9  C   UNL A   1      33.331  22.698  24.692  1.00  0.00     0.211 A 
ATOM     10  C   UNL A   1      33.241  17.798  23.876  1.00  0.00    -0.047 A 
ATOM     11  C   UNL A   1      32.461  18.061  22.742  1.00  0.00     0.007 A 
ATOM     12  C   UNL A   1      33.675  18.887  24.651  1.00  0.00     0.020 A 
ATOM     13  C   UNL A   1      32.136  19.374  22.384  1.00  0.00     0.048 A 
ATOM     14  C   UNL A   1      33.349  20.198  24.287  1.00  0.00     0.069 A 
ATOM     15  C   UNL A   1      32.584  20.440  23.160  1.00  0.00     0.138 A 
ATOM     16  C   UNL A   1      33.836  21.341  25.066  1.00  0.00     0.235 A 
ATOM     17  O   UNL A   1      32.255  21.700  22.752  1.00  0.00    -0.452 OA
ATOM     18  O   UNL A   1      34.669  21.151  25.950  1.00  0.00    -0.285 OA
ATOM     19  C   UNL A   1      32.626  22.778  23.541  1.00  0.00     0.180 A 
BRANCH  10  20
ATOM     20  C   UNL A   1      33.612  16.406  24.334  1.00  0.00     0.032 C 
ATOM     21  C   UNL A   1      32.971  15.919  25.627  1.00  0.00     0.009 C 
ENDBRANCH  10  20
BRANCH  19  22
ATOM     22  C   UNL A   1      32.195  24.061  22.942  1.00  0.00     0.021 A 
ATOM     23  C   UNL A   1      33.118  24.873  22.269  1.00  0.00     0.012 A 
ATOM     24  C   UNL A   1      30.894  24.546  23.143  1.00  0.00     0.012 A 
ATOM     25  C   UNL A   1      32.746  26.138  21.803  1.00  0.00     0.001 A 
ATOM     26  C   UNL A   1      30.522  25.811  22.678  1.00  0.00     0.001 A 
ATOM     27  C   UNL A   1      31.451  26.606  22.012  1.00  0.00     0.000 A 
ENDBRANCH  19  22
ENDBRANCH   8   9
ENDBRANCH   7   8
ENDBRANCH   4   7
ENDBRANCH   2   3
ENDBRANCH   1   2
BRANCH   1  28
ATOM     28  C   UNL A   1      33.418  28.326  27.267  1.00  0.00     0.118 C 
BRANCH  28  29
ATOM     29  N   UNL A   1      33.377  29.759  27.524  1.00  0.00    -0.352 N 
ATOM     30  C   UNL A   1      34.322  30.599  28.060  1.00  0.00     0.251 C 
ATOM     31  H   UNL A   1      32.533  30.198  27.272  1.00  0.00     0.163 HD
ATOM     32  O   UNL A   1      34.013  31.761  28.319  1.00  0.00    -0.269 OA
BRANCH  30  33
ATOM     33  C   UNL A   1      35.692  30.120  28.356  1.00  0.00     0.039 A 
ATOM     34  C   UNL A   1      36.646  30.149  27.334  1.00  0.00     0.014 A 
ATOM     35  C   UNL A   1      36.039  29.619  29.613  1.00  0.00     0.014 A 
ATOM     36  C   UNL A   1      37.959  29.745  27.592  1.00  0.00     0.010 A 
ATOM     37  C   UNL A   1      37.366  29.290  29.891  1.00  0.00     0.010 A 
ATOM     38  C   UNL A   1      38.341  29.350  28.884  1.00  0.00    -0.014 A 
BRANCH  38  39
ATOM     39  C   UNL A   1      39.756  29.016  29.200  1.00  0.00     0.031 A 
ATOM     40  C   UNL A   1      40.657  30.033  29.847  1.00  0.00     0.074 A 
ATOM     41  C   UNL A   1      40.246  27.807  28.854  1.00  0.00     0.049 A 
ATOM     42  N   UNL A   1      41.926  29.932  30.154  1.00  0.00    -0.248 NA
ATOM     43  C   UNL A   1      40.063  31.340  30.172  1.00  0.00     0.031 C 
ATOM     44  C   UNL A   1      39.488  26.744  28.188  1.00  0.00     0.029 A 
ATOM     45  N   UNL A   1      41.500  27.269  29.011  1.00  0.00    -0.354 N 
ATOM     46  C   UNL A   1      42.285  31.161  30.696  1.00  0.00     0.074 A 
ATOM     47  C   UNL A   1      41.114  32.008  30.629  1.00  0.00     0.031 C 
ATOM     48  C   UNL A   1      40.283  25.675  28.022  1.00  0.00     0.029 A 
ATOM     49  C   UNL A   1      41.615  25.987  28.527  1.00  0.00     0.049 A 
ATOM     50  H   UNL A   1      42.245  27.756  29.430  1.00  0.00     0.167 HD
ATOM     51  C   UNL A   1      43.474  31.545  31.219  1.00  0.00     0.031 A 
ATOM     52  C   UNL A   1      42.675  25.155  28.488  1.00  0.00     0.031 A 
ATOM     53  C   UNL A   1      44.636  30.699  31.293  1.00  0.00     0.049 A 
ATOM     54  C   UNL A   1      43.990  25.612  29.059  1.00  0.00     0.074 A 
ATOM     55  C   UNL A   1      45.872  30.983  31.850  1.00  0.00     0.029 A 
ATOM     56  N   UNL A   1      44.711  29.409  30.793  1.00  0.00    -0.354 N 
ATOM     57  N   UNL A   1      44.290  26.757  29.622  1.00  0.00    -0.248 NA
ATOM     58  C   UNL A   1      45.106  24.657  28.997  1.00  0.00     0.031 C 
ATOM     59  C   UNL A   1      46.709  29.883  31.641  1.00  0.00     0.029 A 
ATOM     60  C   UNL A   1      45.979  28.890  31.007  1.00  0.00     0.049 A 
ATOM     61  H   UNL A   1      43.973  28.930  30.351  1.00  0.00     0.167 HD
ATOM     62  C   UNL A   1      45.622  26.651  30.008  1.00  0.00     0.074 A 
ATOM     63  C   UNL A   1      46.063  25.325  29.628  1.00  0.00     0.031 C 
ATOM     64  C   UNL A   1      46.407  27.569  30.624  1.00  0.00     0.031 A 
BRANCH  51  65
ATOM     65  C   UNL A   1      43.579  32.949  31.756  1.00  0.00    -0.014 A 
ATOM     66  C   UNL A   1      43.920  34.025  30.914  1.00  0.00     0.010 A 
ATOM     67  C   UNL A   1      43.287  33.207  33.108  1.00  0.00     0.010 A 
ATOM     68  C   UNL A   1      44.007  35.323  31.424  1.00  0.00     0.020 A 
ATOM     69  C   UNL A   1      43.344  34.508  33.615  1.00  0.00     0.020 A 
ATOM     70  C   UNL A   1      43.721  35.557  32.772  1.00  0.00     0.054 A 
BRANCH  70  71
ATOM     71  S   UNL A   1      43.819  37.256  33.398  1.00  0.00     0.124 S 
ATOM     72  O   UNL A   1      42.620  37.339  34.229  1.00  0.00    -0.237 OA
ATOM     73  O   UNL A   1      45.086  37.257  34.125  1.00  0.00    -0.237 OA
ATOM     74  O   UNL A   1      43.796  38.075  32.189  1.00  0.00    -0.744 OA
ENDBRANCH  70  71
ENDBRANCH  51  65
BRANCH  52  75
ATOM     75  C   UNL A   1      42.533  23.796  27.895  1.00  0.00    -0.014 A 
ATOM     76  C   UNL A   1      42.672  23.603  26.509  1.00  0.00     0.010 A 
ATOM     77  C   UNL A   1      42.259  22.687  28.716  1.00  0.00     0.010 A 
ATOM     78  C   UNL A   1      42.520  22.330  25.952  1.00  0.00     0.020 A 
ATOM     79  C   UNL A   1      42.135  21.409  28.166  1.00  0.00     0.020 A 
ATOM     80  C   UNL A   1      42.252  21.239  26.786  1.00  0.00     0.054 A 
BRANCH  80  81
ATOM     81  S   UNL A   1      42.104  19.589  26.048  1.00  0.00     0.124 S 
ATOM     82  O   UNL A   1      43.049  19.668  24.938  1.00  0.00    -0.237 OA
ATOM     83  O   UNL A   1      42.492  18.713  27.151  1.00  0.00    -0.237 OA
ATOM     84  O   UNL A   1      40.695  19.511  25.668  1.00  0.00    -0.744 OA
ENDBRANCH  80  81
ENDBRANCH  52  75
BRANCH  64  85
ATOM     85  C   UNL A   1      47.818  27.163  30.958  1.00  0.00    -0.014 A 
ATOM     86  C   UNL A   1      48.916  27.694  30.259  1.00  0.00     0.010 A 
ATOM     87  C   UNL A   1      48.049  26.274  32.023  1.00  0.00     0.010 A 
ATOM     88  C   UNL A   1      50.219  27.318  30.599  1.00  0.00     0.020 A 
ATOM     89  C   UNL A   1      49.351  25.918  32.386  1.00  0.00     0.020 A 
ATOM     90  C   UNL A   1      50.427  26.432  31.661  1.00  0.00     0.054 A 
BRANCH  90  91
ATOM     91  S   UNL A   1      52.129  25.994  32.110  1.00  0.00     0.124 S 
ATOM     92  O   UNL A   1      52.727  25.723  30.806  1.00  0.00    -0.237 OA
ATOM     93  O   UNL A   1      52.604  27.200  32.783  1.00  0.00    -0.237 OA
ATOM     94  O   UNL A   1      51.970  24.828  32.976  1.00  0.00    -0.744 OA
ENDBRANCH  90  91
ENDBRANCH  64  85
ENDBRANCH  38  39
ENDBRANCH  30  33
ENDBRANCH  28  29
ENDBRANCH   1  28
TORSDOF 17
ENDMDL
MODEL 2
REMARK VINA RESULT:     -11.9      3.084      9.619
REMARK SMILES CCc1ccc2oc(-c3ccccc3)c(OCC(=O)NCCCNC(=O)c3ccc(-c4c5nc(c(-c6ccc(S(=O)(=O)[O-])cc6)c6ccc([nH]6)c(-c6ccc(S(=O)(=O)[O-])cc6)c6nc(c(-c7ccc(S(=O)(=O)[O-])cc7)c7ccc4[nH]7)C=C6)C=C5)cc3)c(=O)c2c1
REMARK SMILES IDX 22 1 21 2 20 3 18 4 19 5 17 7 16 8 15 9 3 10 4 11 90 12 5 13
REMARK SMILES IDX 89 14 6 15 87 16 7 17 88 18 8 19 2 20 1 21 9 22 10 23 14 24
REMARK SMILES IDX 11 25 13 26 12 27 23 28 24 29 25 30 26 32 27 33 28 34 86 35
REMARK SMILES IDX 29 36 85 37 30 38 31 39 32 40 79 41 33 42 84 43 78 44 80 45
REMARK SMILES IDX 34 46 83 47 77 48 76 49 35 51 65 52 46 53 64 54 47 55 50 56
REMARK SMILES IDX 63 57 81 58 48 59 49 60 62 62 82 63 51 64 36 65 37 66 45 67
REMARK SMILES IDX 38 68 44 69 39 70 40 71 41 72 42 73 43 74 66 75 67 76 75 77
REMARK SMILES IDX 68 78 74 79 69 80 70 81 71 82 72 83 73 84 52 85 53 86 61 87
REMARK SMILES IDX 54 88 60 89 55 90 56 91 57 92 58 93 59 94
REMARK H PARENT 20 6 24 31 80 50 50 61
REMARK Flexibility Score: inf
ROOT
ATOM      1  C   UNL A   1      36.147  23.422  24.017  1.00  0.00     0.042 C 
ENDROOT
BRANCH   1   2
ATOM      2  C   UNL A   1      34.652  23.706  24.086  1.00  0.00     0.117 C 
BRANCH   2   3
ATOM      3  N   UNL A   1      34.160  24.400  22.913  1.00  0.00    -0.353 N 
ATOM      4  C   UNL A   1      33.864  25.726  22.761  1.00  0.00     0.257 C 
ATOM      5  O   UNL A   1      33.633  26.130  21.620  1.00  0.00    -0.271 OA
ATOM      6  H   UNL A   1      34.017  23.840  22.116  1.00  0.00     0.163 HD
BRANCH   4   7
ATOM      7  C   UNL A   1      33.929  26.665  23.975  1.00  0.00     0.329 C 
BRANCH   7   8
ATOM      8  O   UNL A   1      32.840  26.682  24.882  1.00  0.00    -0.476 OA
BRANCH   8   9
ATOM      9  C   UNL A   1      31.599  27.163  24.486  1.00  0.00     0.211 A 
ATOM     10  C   UNL A   1      28.474  30.558  22.645  1.00  0.00    -0.047 A 
ATOM     11  C   UNL A   1      27.498  29.554  22.608  1.00  0.00     0.007 A 
ATOM     12  C   UNL A   1      29.749  30.229  23.136  1.00  0.00     0.020 A 
ATOM     13  C   UNL A   1      27.782  28.262  23.064  1.00  0.00     0.048 A 
ATOM     14  C   UNL A   1      30.026  28.935  23.593  1.00  0.00     0.069 A 
ATOM     15  C   UNL A   1      29.048  27.958  23.556  1.00  0.00     0.138 A 
ATOM     16  C   UNL A   1      31.340  28.596  24.149  1.00  0.00     0.235 A 
ATOM     17  O   UNL A   1      29.263  26.687  24.006  1.00  0.00    -0.452 OA
ATOM     18  O   UNL A   1      32.149  29.497  24.364  1.00  0.00    -0.285 OA
ATOM     19  C   UNL A   1      30.532  26.334  24.438  1.00  0.00     0.180 A 
BRANCH  10  20
ATOM     20  C   UNL A   1      28.245  31.968  22.151  1.00  0.00     0.032 C 
ATOM     21  C   UNL A   1      28.875  33.089  22.967  1.00  0.00     0.009 C 
ENDBRANCH  10  20
BRANCH  19  22
ATOM     22  C   UNL A   1      30.576  24.927  24.896  1.00  0.00     0.021 A 
ATOM     23  C   UNL A   1      30.384  24.618  26.250  1.00  0.00     0.012 A 
ATOM     24  C   UNL A   1      30.933  23.896  24.014  1.00  0.00     0.012 A 
ATOM     25  C   UNL A   1      30.541  23.306  26.708  1.00  0.00     0.001 A 
ATOM     26  C   UNL A   1      31.090  22.585  24.473  1.00  0.00     0.001 A 
ATOM     27  C   UNL A   1      30.897  22.293  25.821  1.00  0.00     0.000 A 
ENDBRANCH  19  22
ENDBRANCH   8   9
ENDBRANCH   7   8
ENDBRANCH   4   7
ENDBRANCH   2   3
ENDBRANCH   1   2
BRANCH   1  28
ATOM     28  C   UNL A   1      36.925  23.766  25.284  1.00  0.00     0.118 C 
BRANCH  28  29
ATOM     29  N   UNL A   1      38.021  22.846  25.557  1.00  0.00    -0.352 N 
ATOM     30  C   UNL A   1      39.225  23.051  26.186  1.00  0.00     0.251 C 
ATOM     31  H   UNL A   1      37.875  21.926  25.239  1.00  0.00     0.163 HD
ATOM     32  O   UNL A   1      40.065  22.153  26.177  1.00  0.00    -0.269 OA
BRANCH  30  33
ATOM     33  C   UNL A   1      39.534  24.339  26.847  1.00  0.00     0.039 A 
ATOM     34  C   UNL A   1      39.144  24.520  28.178  1.00  0.00     0.014 A 
ATOM     35  C   UNL A   1      40.174  25.378  26.166  1.00  0.00     0.014 A 
ATOM     36  C   UNL A   1      39.460  25.708  28.843  1.00  0.00     0.010 A 
ATOM     37  C   UNL A   1      40.556  26.531  26.853  1.00  0.00     0.010 A 
ATOM     38  C   UNL A   1      40.205  26.708  28.199  1.00  0.00    -0.014 A 
BRANCH  38  39
ATOM     39  C   UNL A   1      40.636  27.933  28.924  1.00  0.00     0.031 A 
ATOM     40  C   UNL A   1      41.995  28.003  29.568  1.00  0.00     0.074 A 
ATOM     41  C   UNL A   1      39.780  28.968  29.048  1.00  0.00     0.049 A 
ATOM     42  N   UNL A   1      42.522  28.970  30.276  1.00  0.00    -0.248 NA
ATOM     43  C   UNL A   1      42.867  26.827  29.416  1.00  0.00     0.031 C 
ATOM     44  C   UNL A   1      38.420  29.013  28.503  1.00  0.00     0.029 A 
ATOM     45  N   UNL A   1      39.924  30.181  29.676  1.00  0.00    -0.354 N 
ATOM     46  C   UNL A   1      43.779  28.517  30.662  1.00  0.00     0.074 A 
ATOM     47  C   UNL A   1      43.914  27.170  30.154  1.00  0.00     0.031 C 
ATOM     48  C   UNL A   1      37.868  30.203  28.795  1.00  0.00     0.029 A 
ATOM     49  C   UNL A   1      38.814  30.987  29.581  1.00  0.00     0.049 A 
ATOM     50  H   UNL A   1      40.744  30.448  30.149  1.00  0.00     0.167 HD
ATOM     51  C   UNL A   1      44.740  29.168  31.361  1.00  0.00     0.031 A 
ATOM     52  C   UNL A   1      38.577  32.218  30.077  1.00  0.00     0.031 A 
ATOM     53  C   UNL A   1      44.607  30.512  31.860  1.00  0.00     0.049 A 
ATOM     54  C   UNL A   1      39.654  32.913  30.865  1.00  0.00     0.074 A 
ATOM     55  C   UNL A   1      45.545  31.275  32.536  1.00  0.00     0.029 A 
ATOM     56  N   UNL A   1      43.469  31.293  31.742  1.00  0.00    -0.354 N 
ATOM     57  N   UNL A   1      40.858  32.490  31.166  1.00  0.00    -0.248 NA
ATOM     58  C   UNL A   1      39.342  34.258  31.369  1.00  0.00     0.031 C 
ATOM     59  C   UNL A   1      44.955  32.497  32.872  1.00  0.00     0.029 A 
ATOM     60  C   UNL A   1      43.670  32.521  32.353  1.00  0.00     0.049 A 
ATOM     61  H   UNL A   1      42.638  31.017  31.291  1.00  0.00     0.167 HD
ATOM     62  C   UNL A   1      41.458  33.527  31.872  1.00  0.00     0.074 A 
ATOM     63  C   UNL A   1      40.490  34.602  31.938  1.00  0.00     0.031 C 
ATOM     64  C   UNL A   1      42.700  33.584  32.414  1.00  0.00     0.031 A 
BRANCH  51  65
ATOM     65  C   UNL A   1      46.027  28.432  31.629  1.00  0.00    -0.014 A 
ATOM     66  C   UNL A   1      47.109  28.511  30.732  1.00  0.00     0.010 A 
ATOM     67  C   UNL A   1      46.176  27.691  32.815  1.00  0.00     0.010 A 
ATOM     68  C   UNL A   1      48.299  27.829  30.997  1.00  0.00     0.020 A 
ATOM     69  C   UNL A   1      47.376  27.031  33.098  1.00  0.00     0.020 A 
ATOM     70  C   UNL A   1      48.425  27.090  32.177  1.00  0.00     0.054 A 
BRANCH  70  71
ATOM     71  S   UNL A   1      49.991  26.236  32.505  1.00  0.00     0.124 S 
ATOM     72  O   UNL A   1      50.959  27.132  31.880  1.00  0.00    -0.237 OA
ATOM     73  O   UNL A   1      50.030  26.189  33.965  1.00  0.00    -0.237 OA
ATOM     74  O   UNL A   1      49.825  24.942  31.847  1.00  0.00    -0.744 OA
ENDBRANCH  70  71
ENDBRANCH  51  65
BRANCH  52  75
ATOM     75  C   UNL A   1      37.266  32.880  29.831  1.00  0.00    -0.014 A 
ATOM     76  C   UNL A   1      36.285  32.921  30.839  1.00  0.00     0.010 A 
ATOM     77  C   UNL A   1      36.991  33.476  28.586  1.00  0.00     0.010 A 
ATOM     78  C   UNL A   1      35.048  33.526  30.600  1.00  0.00     0.020 A 
ATOM     79  C   UNL A   1      35.767  34.107  28.354  1.00  0.00     0.020 A 
ATOM     80  C   UNL A   1      34.797  34.116  29.358  1.00  0.00     0.054 A 
BRANCH  80  81
ATOM     81  S   UNL A   1      33.203  34.937  29.084  1.00  0.00     0.124 S 
ATOM     82  O   UNL A   1      32.597  34.089  28.063  1.00  0.00    -0.237 OA
ATOM     83  O   UNL A   1      32.585  34.878  30.406  1.00  0.00    -0.237 OA
ATOM     84  O   UNL A   1      33.581  36.278  28.643  1.00  0.00    -0.744 OA
ENDBRANCH  80  81
ENDBRANCH  52  75
BRANCH  64  85
ATOM     85  C   UNL A   1      43.099  34.863  33.099  1.00  0.00    -0.014 A 
ATOM     86  C   UNL A   1      42.836  35.074  34.464  1.00  0.00     0.010 A 
ATOM     87  C   UNL A   1      43.797  35.848  32.377  1.00  0.00     0.010 A 
ATOM     88  C   UNL A   1      43.234  36.261  35.086  1.00  0.00     0.020 A 
ATOM     89  C   UNL A   1      44.222  37.023  33.001  1.00  0.00     0.020 A 
ATOM     90  C   UNL A   1      43.926  37.228  34.349  1.00  0.00     0.054 A 
BRANCH  90  91
ATOM     91  S   UNL A   1      44.469  38.741  35.189  1.00  0.00     0.124 S 
ATOM     92  O   UNL A   1      45.899  38.755  34.896  1.00  0.00    -0.237 OA
ATOM     93  O   UNL A   1      43.679  39.777  34.528  1.00  0.00    -0.237 OA
ATOM     94  O   UNL A   1      44.123  38.502  36.589  1.00  0.00    -0.744 OA
ENDBRANCH  90  91
ENDBRANCH  64  85
ENDBRANCH  38  39
ENDBRANCH  30  33
ENDBRANCH  28  29
ENDBRANCH   1  28
TORSDOF 17
ENDMDL
MODEL 3
REMARK VINA RESULT:     -11.7      1.816      3.841
REMARK SMILES CCc1ccc2oc(-c3ccccc3)c(OCC(=O)NCCCNC(=O)c3ccc(-c4c5nc(c(-c6ccc(S(=O)(=O)[O-])cc6)c6ccc([nH]6)c(-c6ccc(S(=O)(=O)[O-])cc6)c6nc(c(-c7ccc(S(=O)(=O)[O-])cc7)c7ccc4[nH]7)C=C6)C=C5)cc3)c(=O)c2c1
REMARK SMILES IDX 22 1 21 2 20 3 18 4 19 5 17 7 16 8 15 9 3 10 4 11 90 12 5 13
REMARK SMILES IDX 89 14 6 15 87 16 7 17 88 18 8 19 2 20 1 21 9 22 10 23 14 24
REMARK SMILES IDX 11 25 13 26 12 27 23 28 24 29 25 30 26 32 27 33 28 34 86 35
REMARK SMILES IDX 29 36 85 37 30 38 31 39 32 40 79 41 33 42 84 43 78 44 80 45
REMARK SMILES IDX 34 46 83 47 77 48 76 49 35 51 65 52 46 53 64 54 47 55 50 56
REMARK SMILES IDX 63 57 81 58 48 59 49 60 62 62 82 63 51 64 36 65 37 66 45 67
REMARK SMILES IDX 38 68 44 69 39 70 40 71 41 72 42 73 43 74 66 75 67 76 75 77
REMARK SMILES IDX 68 78 74 79 69 80 70 81 71 82 72 83 73 84 52 85 53 86 61 87
REMARK SMILES IDX 54 88 60 89 55 90 56 91 57 92 58 93 59 94
REMARK H PARENT 20 6 24 31 80 50 50 61
REMARK Flexibility Score: inf
ROOT
ATOM      1  C   UNL A   1      32.320  27.450  26.845  1.00  0.00     0.042 C 
ENDROOT
BRANCH   1   2
ATOM      2  C   UNL A   1      32.533  25.942  26.842  1.00  0.00     0.117 C 
BRANCH   2   3
ATOM      3  N   UNL A   1      31.301  25.202  27.028  1.00  0.00    -0.353 N 
ATOM      4  C   UNL A   1      31.022  23.903  26.705  1.00  0.00     0.257 C 
ATOM      5  O   UNL A   1      29.964  23.428  27.121  1.00  0.00    -0.271 OA
ATOM      6  H   UNL A   1      30.562  25.704  27.443  1.00  0.00     0.163 HD
BRANCH   4   7
ATOM      7  C   UNL A   1      32.061  23.069  25.939  1.00  0.00     0.329 C 
BRANCH   7   8
ATOM      8  O   UNL A   1      32.175  23.244  24.537  1.00  0.00    -0.476 OA
BRANCH   8   9
ATOM      9  C   UNL A   1      32.289  24.516  23.991  1.00  0.00     0.211 A 
ATOM     10  C   UNL A   1      30.562  28.883  22.373  1.00  0.00    -0.047 A 
ATOM     11  C   UNL A   1      31.893  29.314  22.293  1.00  0.00     0.007 A 
ATOM     12  C   UNL A   1      30.312  27.570  22.804  1.00  0.00     0.020 A 
ATOM     13  C   UNL A   1      32.945  28.451  22.618  1.00  0.00     0.048 A 
ATOM     14  C   UNL A   1      31.370  26.711  23.126  1.00  0.00     0.069 A 
ATOM     15  C   UNL A   1      32.678  27.149  23.034  1.00  0.00     0.138 A 
ATOM     16  C   UNL A   1      31.118  25.324  23.533  1.00  0.00     0.235 A 
ATOM     17  O   UNL A   1      33.744  26.345  23.318  1.00  0.00    -0.452 OA
ATOM     18  O   UNL A   1      29.981  24.868  23.434  1.00  0.00    -0.285 OA
ATOM     19  C   UNL A   1      33.509  25.068  23.801  1.00  0.00     0.180 A 
BRANCH  10  20
ATOM     20  C   UNL A   1      29.376  29.766  22.058  1.00  0.00     0.032 C 
ATOM     21  C   UNL A   1      28.029  29.327  22.620  1.00  0.00     0.009 C 
ENDBRANCH  10  20
BRANCH  19  22
ATOM     22  C   UNL A   1      34.775  24.340  24.045  1.00  0.00     0.021 A 
ATOM     23  C   UNL A   1      35.251  23.413  23.108  1.00  0.00     0.012 A 
ATOM     24  C   UNL A   1      35.453  24.470  25.266  1.00  0.00     0.012 A 
ATOM     25  C   UNL A   1      36.381  22.638  23.383  1.00  0.00     0.001 A 
ATOM     26  C   UNL A   1      36.583  23.694  25.543  1.00  0.00     0.001 A 
ATOM     27  C   UNL A   1      37.043  22.776  24.601  1.00  0.00     0.000 A 
ENDBRANCH  19  22
ENDBRANCH   8   9
ENDBRANCH   7   8
ENDBRANCH   4   7
ENDBRANCH   2   3
ENDBRANCH   1   2
BRANCH   1  28
ATOM     28  C   UNL A   1      33.595  28.279  26.708  1.00  0.00     0.118 C 
BRANCH  28  29
ATOM     29  N   UNL A   1      33.455  29.639  27.210  1.00  0.00    -0.352 N 
ATOM     30  C   UNL A   1      34.321  30.415  27.941  1.00  0.00     0.251 C 
ATOM     31  H   UNL A   1      32.601  30.074  26.988  1.00  0.00     0.163 HD
ATOM     32  O   UNL A   1      33.931  31.496  28.380  1.00  0.00    -0.269 OA
BRANCH  30  33
ATOM     33  C   UNL A   1      35.700  29.960  28.230  1.00  0.00     0.039 A 
ATOM     34  C   UNL A   1      36.665  30.065  27.224  1.00  0.00     0.014 A 
ATOM     35  C   UNL A   1      36.045  29.405  29.466  1.00  0.00     0.014 A 
ATOM     36  C   UNL A   1      37.986  29.684  27.479  1.00  0.00     0.010 A 
ATOM     37  C   UNL A   1      37.378  29.098  29.744  1.00  0.00     0.010 A 
ATOM     38  C   UNL A   1      38.363  29.236  28.755  1.00  0.00    -0.014 A 
BRANCH  38  39
ATOM     39  C   UNL A   1      39.782  28.924  29.072  1.00  0.00     0.031 A 
ATOM     40  C   UNL A   1      40.670  29.960  29.708  1.00  0.00     0.074 A 
ATOM     41  C   UNL A   1      40.289  27.719  28.737  1.00  0.00     0.049 A 
ATOM     42  N   UNL A   1      41.941  29.879  30.014  1.00  0.00    -0.248 NA
ATOM     43  C   UNL A   1      40.059  31.261  30.021  1.00  0.00     0.031 C 
ATOM     44  C   UNL A   1      39.545  26.639  28.082  1.00  0.00     0.029 A 
ATOM     45  N   UNL A   1      41.550  27.200  28.897  1.00  0.00    -0.354 N 
ATOM     46  C   UNL A   1      42.283  31.118  30.544  1.00  0.00     0.074 A 
ATOM     47  C   UNL A   1      41.101  31.948  30.471  1.00  0.00     0.031 C 
ATOM     48  C   UNL A   1      40.355  25.579  27.924  1.00  0.00     0.029 A 
ATOM     49  C   UNL A   1      41.683  25.915  28.426  1.00  0.00     0.049 A 
ATOM     50  H   UNL A   1      42.289  27.701  29.310  1.00  0.00     0.167 HD
ATOM     51  C   UNL A   1      43.467  31.524  31.062  1.00  0.00     0.031 A 
ATOM     52  C   UNL A   1      42.754  25.098  28.392  1.00  0.00     0.031 A 
ATOM     53  C   UNL A   1      44.642  30.695  31.142  1.00  0.00     0.049 A 
ATOM     54  C   UNL A   1      44.063  25.578  28.958  1.00  0.00     0.074 A 
ATOM     55  C   UNL A   1      45.874  31.001  31.696  1.00  0.00     0.029 A 
ATOM     56  N   UNL A   1      44.734  29.401  30.655  1.00  0.00    -0.354 N 
ATOM     57  N   UNL A   1      44.348  26.733  29.510  1.00  0.00    -0.248 NA
ATOM     58  C   UNL A   1      45.193  24.638  28.904  1.00  0.00     0.031 C 
ATOM     59  C   UNL A   1      46.726  29.911  31.495  1.00  0.00     0.029 A 
ATOM     60  C   UNL A   1      46.008  28.902  30.872  1.00  0.00     0.049 A 
ATOM     61  H   UNL A   1      44.002  28.908  30.218  1.00  0.00     0.167 HD
ATOM     62  C   UNL A   1      45.682  26.649  29.895  1.00  0.00     0.074 A 
ATOM     63  C   UNL A   1      46.141  25.326  29.527  1.00  0.00     0.031 C 
ATOM     64  C   UNL A   1      46.455  27.584  30.501  1.00  0.00     0.031 A 
BRANCH  51  65
ATOM     65  C   UNL A   1      43.553  32.934  31.585  1.00  0.00    -0.014 A 
ATOM     66  C   UNL A   1      43.237  33.234  32.924  1.00  0.00     0.010 A 
ATOM     67  C   UNL A   1      44.002  33.968  30.742  1.00  0.00     0.010 A 
ATOM     68  C   UNL A   1      43.329  34.545  33.397  1.00  0.00     0.020 A 
ATOM     69  C   UNL A   1      44.123  35.276  31.220  1.00  0.00     0.020 A 
ATOM     70  C   UNL A   1      43.768  35.559  32.542  1.00  0.00     0.054 A 
BRANCH  70  71
ATOM     71  S   UNL A   1      43.900  37.247  33.192  1.00  0.00     0.124 S 
ATOM     72  O   UNL A   1      43.831  38.046  31.971  1.00  0.00    -0.237 OA
ATOM     73  O   UNL A   1      42.737  37.344  34.071  1.00  0.00    -0.237 OA
ATOM     74  O   UNL A   1      45.193  37.259  33.871  1.00  0.00    -0.744 OA
ENDBRANCH  70  71
ENDBRANCH  51  65
BRANCH  52  75
ATOM     75  C   UNL A   1      42.631  23.731  27.813  1.00  0.00    -0.014 A 
ATOM     76  C   UNL A   1      42.323  22.632  28.634  1.00  0.00     0.010 A 
ATOM     77  C   UNL A   1      42.818  23.523  26.434  1.00  0.00     0.010 A 
ATOM     78  C   UNL A   1      42.226  21.347  28.092  1.00  0.00     0.020 A 
ATOM     79  C   UNL A   1      42.693  22.245  25.884  1.00  0.00     0.020 A 
ATOM     80  C   UNL A   1      42.411  21.162  26.718  1.00  0.00     0.054 A 
BRANCH  80  81
ATOM     81  S   UNL A   1      42.235  19.494  26.028  1.00  0.00     0.124 S 
ATOM     82  O   UNL A   1      40.812  19.449  25.706  1.00  0.00    -0.237 OA
ATOM     83  O   UNL A   1      43.144  19.526  24.886  1.00  0.00    -0.237 OA
ATOM     84  O   UNL A   1      42.657  18.625  27.125  1.00  0.00    -0.744 OA
ENDBRANCH  80  81
ENDBRANCH  52  75
BRANCH  64  85
ATOM     85  C   UNL A   1      47.871  27.200  30.837  1.00  0.00    -0.014 A 
ATOM     86  C   UNL A   1      48.941  27.540  29.990  1.00  0.00     0.010 A 
ATOM     87  C   UNL A   1      48.141  26.534  32.046  1.00  0.00     0.010 A 
ATOM     88  C   UNL A   1      50.251  27.192  30.332  1.00  0.00     0.020 A 
ATOM     89  C   UNL A   1      49.451  26.209  32.405  1.00  0.00     0.020 A 
ATOM     90  C   UNL A   1      50.497  26.529  31.538  1.00  0.00     0.054 A 
BRANCH  90  91
ATOM     91  S   UNL A   1      52.210  26.126  31.978  1.00  0.00     0.124 S 
ATOM     92  O   UNL A   1      52.623  27.317  32.715  1.00  0.00    -0.237 OA
ATOM     93  O   UNL A   1      52.060  24.912  32.776  1.00  0.00    -0.237 OA
ATOM     94  O   UNL A   1      52.864  25.937  30.685  1.00  0.00    -0.744 OA
ENDBRANCH  90  91
ENDBRANCH  64  85
ENDBRANCH  38  39
ENDBRANCH  30  33
ENDBRANCH  28  29
ENDBRANCH   1  28
TORSDOF 17
ENDMDL
