MODEL 1
REMARK VINA RESULT:     -10.4      0.000      0.000
REMARK SMILES CCc1c([N+](=O)[O-])cc(C(=O)NCCCNC(=O)c2ccc(-c3c4nc(c(-c5ccc(S(=O)(=O)[O-])cc5)c5ccc([nH]5)c(-c5ccc(S(=O)(=O)[O-])cc5)c5nc(c(-c6ccc(S(=O)(=O)[O-])cc6)c6ccc3[nH]6)C=C5)C=C4)cc2)n1C
REMARK SMILES IDX 15 1 14 2 13 3 12 4 10 5 11 6 9 8 3 9 4 10 79 11 8 12 80 13
REMARK SMILES IDX 2 14 1 15 5 16 6 17 7 18 16 19 17 20 18 22 19 23 20 24 78 25
REMARK SMILES IDX 21 26 77 27 22 28 23 29 24 30 71 31 25 32 76 33 70 34 72 35
REMARK SMILES IDX 26 36 75 37 69 38 68 39 27 41 57 42 38 43 56 44 39 45 42 46
REMARK SMILES IDX 55 47 73 48 40 49 41 50 54 52 74 53 43 54 28 55 29 56 37 57
REMARK SMILES IDX 30 58 36 59 31 60 32 61 33 62 34 63 35 64 58 65 59 66 67 67
REMARK SMILES IDX 60 68 66 69 61 70 62 71 63 72 64 73 65 74 44 75 45 76 53 77
REMARK SMILES IDX 46 78 52 79 47 80 48 81 49 82 50 83 51 84
REMARK H PARENT 12 7 16 21 72 40 42 51
REMARK Flexibility Score: inf
ROOT
ATOM      1  C   UNL A   1      33.231  28.586  27.198  1.00  0.00     0.118 C 
ENDROOT
BRANCH   1   2
ATOM      2  C   UNL A   1      31.807  28.069  27.053  1.00  0.00     0.042 C 
BRANCH   2   3
ATOM      3  C   UNL A   1      31.648  26.866  26.143  1.00  0.00     0.118 C 
BRANCH   3   4
ATOM      4  N   UNL A   1      30.805  25.810  26.669  1.00  0.00    -0.351 N 
ATOM      5  C   UNL A   1      30.943  24.446  26.640  1.00  0.00     0.268 C 
ATOM      6  O   UNL A   1      30.047  23.793  27.177  1.00  0.00    -0.268 OA
ATOM      7  H   UNL A   1      29.992  26.127  27.126  1.00  0.00     0.163 HD
BRANCH   5   8
ATOM      8  C   UNL A   1      32.046  23.803  25.947  1.00  0.00     0.114 A 
ATOM      9  C   UNL A   1      33.256  22.447  24.586  1.00  0.00     0.096 A 
ATOM     10  C   UNL A   1      34.129  22.956  25.546  1.00  0.00     0.290 A 
ATOM     11  N   UNL A   1      32.098  23.209  24.698  1.00  0.00    -0.338 N 
ATOM     12  C   UNL A   1      33.358  23.783  26.403  1.00  0.00     0.119 A 
ATOM     13  C   UNL A   1      31.191  23.489  23.602  1.00  0.00     0.150 C 
BRANCH   9  14
ATOM     14  C   UNL A   1      33.404  21.283  23.643  1.00  0.00     0.058 C 
ATOM     15  C   UNL A   1      32.382  20.172  23.790  1.00  0.00     0.011 C 
ENDBRANCH   9  14
BRANCH  10  16
ATOM     16  N   UNL A   1      35.536  22.659  25.722  1.00  0.00     0.064 N 
ATOM     17  O   UNL A   1      36.352  23.557  25.477  1.00  0.00    -0.258 OA
ATOM     18  O   UNL A   1      35.818  21.533  26.155  1.00  0.00    -0.258 OA
ENDBRANCH  10  16
ENDBRANCH   5   8
ENDBRANCH   3   4
ENDBRANCH   2   3
ENDBRANCH   1   2
BRANCH   1  19
ATOM     19  N   UNL A   1      33.321  29.993  27.570  1.00  0.00    -0.352 N 
ATOM     20  C   UNL A   1      34.348  30.733  28.115  1.00  0.00     0.251 C 
ATOM     21  H   UNL A   1      32.499  30.507  27.401  1.00  0.00     0.163 HD
ATOM     22  O   UNL A   1      34.132  31.897  28.445  1.00  0.00    -0.269 OA
BRANCH  20  23
ATOM     23  C   UNL A   1      35.683  30.136  28.351  1.00  0.00     0.039 A 
ATOM     24  C   UNL A   1      36.631  30.152  27.323  1.00  0.00     0.014 A 
ATOM     25  C   UNL A   1      36.015  29.565  29.577  1.00  0.00     0.014 A 
ATOM     26  C   UNL A   1      37.932  29.701  27.566  1.00  0.00     0.010 A 
ATOM     27  C   UNL A   1      37.338  29.247  29.859  1.00  0.00     0.010 A 
ATOM     28  C   UNL A   1      38.316  29.304  28.857  1.00  0.00    -0.014 A 
BRANCH  28  29
ATOM     29  C   UNL A   1      39.719  28.933  29.187  1.00  0.00     0.031 A 
ATOM     30  C   UNL A   1      40.645  29.952  29.805  1.00  0.00     0.074 A 
ATOM     31  C   UNL A   1      40.192  27.717  28.846  1.00  0.00     0.049 A 
ATOM     32  N   UNL A   1      41.926  29.860  30.055  1.00  0.00    -0.248 NA
ATOM     33  C   UNL A   1      40.062  31.261  30.146  1.00  0.00     0.031 C 
ATOM     34  C   UNL A   1      39.422  26.659  28.186  1.00  0.00     0.029 A 
ATOM     35  N   UNL A   1      41.443  27.168  28.995  1.00  0.00    -0.354 N 
ATOM     36  C   UNL A   1      42.304  31.101  30.554  1.00  0.00     0.074 A 
ATOM     37  C   UNL A   1      41.135  31.950  30.504  1.00  0.00     0.031 C 
ATOM     38  C   UNL A   1      40.206  25.582  28.015  1.00  0.00     0.029 A 
ATOM     39  C   UNL A   1      41.547  25.886  28.507  1.00  0.00     0.049 A 
ATOM     40  H   UNL A   1      42.194  27.647  29.412  1.00  0.00     0.167 HD
ATOM     41  C   UNL A   1      43.505  31.496  31.040  1.00  0.00     0.031 A 
ATOM     42  C   UNL A   1      42.601  25.049  28.450  1.00  0.00     0.031 A 
ATOM     43  C   UNL A   1      44.661  30.644  31.111  1.00  0.00     0.049 A 
ATOM     44  C   UNL A   1      43.923  25.500  29.007  1.00  0.00     0.074 A 
ATOM     45  C   UNL A   1      45.908  30.927  31.639  1.00  0.00     0.029 A 
ATOM     46  N   UNL A   1      44.711  29.340  30.640  1.00  0.00    -0.354 N 
ATOM     47  N   UNL A   1      44.241  26.657  29.536  1.00  0.00    -0.248 NA
ATOM     48  C   UNL A   1      45.024  24.527  28.974  1.00  0.00     0.031 C 
ATOM     49  C   UNL A   1      46.727  29.809  31.444  1.00  0.00     0.029 A 
ATOM     50  C   UNL A   1      45.972  28.810  30.851  1.00  0.00     0.049 A 
ATOM     51  H   UNL A   1      43.960  28.862  30.220  1.00  0.00     0.167 HD
ATOM     52  C   UNL A   1      45.573  26.545  29.920  1.00  0.00     0.074 A 
ATOM     53  C   UNL A   1      45.994  25.201  29.579  1.00  0.00     0.031 C 
ATOM     54  C   UNL A   1      46.375  27.470  30.502  1.00  0.00     0.031 A 
BRANCH  41  55
ATOM     55  C   UNL A   1      43.617  32.915  31.540  1.00  0.00    -0.014 A 
ATOM     56  C   UNL A   1      44.095  33.942  30.705  1.00  0.00     0.010 A 
ATOM     57  C   UNL A   1      43.235  33.229  32.855  1.00  0.00     0.010 A 
ATOM     58  C   UNL A   1      44.245  35.242  31.193  1.00  0.00     0.020 A 
ATOM     59  C   UNL A   1      43.349  34.536  33.338  1.00  0.00     0.020 A 
ATOM     60  C   UNL A   1      43.877  35.530  32.510  1.00  0.00     0.054 A 
BRANCH  60  61
ATOM     61  S   UNL A   1      44.082  37.227  33.117  1.00  0.00     0.124 S 
ATOM     62  O   UNL A   1      45.450  37.198  33.629  1.00  0.00    -0.237 OA
ATOM     63  O   UNL A   1      43.881  38.024  31.910  1.00  0.00    -0.237 OA
ATOM     64  O   UNL A   1      43.039  37.361  34.130  1.00  0.00    -0.744 OA
ENDBRANCH  60  61
ENDBRANCH  41  55
BRANCH  42  65
ATOM     65  C   UNL A   1      42.438  23.694  27.854  1.00  0.00    -0.014 A 
ATOM     66  C   UNL A   1      42.722  23.471  26.495  1.00  0.00     0.010 A 
ATOM     67  C   UNL A   1      42.027  22.611  28.651  1.00  0.00     0.010 A 
ATOM     68  C   UNL A   1      42.590  22.194  25.942  1.00  0.00     0.020 A 
ATOM     69  C   UNL A   1      41.921  21.326  28.110  1.00  0.00     0.020 A 
ATOM     70  C   UNL A   1      42.195  21.127  26.756  1.00  0.00     0.054 A 
BRANCH  70  71
ATOM     71  S   UNL A   1      42.099  19.465  26.035  1.00  0.00     0.124 S 
ATOM     72  O   UNL A   1      42.638  18.636  27.109  1.00  0.00    -0.237 OA
ATOM     73  O   UNL A   1      40.669  19.316  25.776  1.00  0.00    -0.237 OA
ATOM     74  O   UNL A   1      42.933  19.562  24.839  1.00  0.00    -0.744 OA
ENDBRANCH  70  71
ENDBRANCH  42  65
BRANCH  54  75
ATOM     75  C   UNL A   1      47.782  27.054  30.840  1.00  0.00    -0.014 A 
ATOM     76  C   UNL A   1      48.086  26.434  32.065  1.00  0.00     0.010 A 
ATOM     77  C   UNL A   1      48.804  27.232  29.889  1.00  0.00     0.010 A 
ATOM     78  C   UNL A   1      49.393  26.029  32.344  1.00  0.00     0.020 A 
ATOM     79  C   UNL A   1      50.106  26.801  30.152  1.00  0.00     0.020 A 
ATOM     80  C   UNL A   1      50.395  26.213  31.386  1.00  0.00     0.054 A 
BRANCH  80  81
ATOM     81  S   UNL A   1      52.073  25.634  31.754  1.00  0.00     0.124 S 
ATOM     82  O   UNL A   1      52.429  26.451  32.912  1.00  0.00    -0.237 OA
ATOM     83  O   UNL A   1      51.870  24.213  32.026  1.00  0.00    -0.237 OA
ATOM     84  O   UNL A   1      52.818  25.929  30.532  1.00  0.00    -0.744 OA
ENDBRANCH  80  81
ENDBRANCH  54  75
ENDBRANCH  28  29
ENDBRANCH  20  23
ENDBRANCH   1  19
TORSDOF 15
ENDMDL
MODEL 2
REMARK VINA RESULT:     -10.2      1.663      2.150
REMARK SMILES CCc1c([N+](=O)[O-])cc(C(=O)NCCCNC(=O)c2ccc(-c3c4nc(c(-c5ccc(S(=O)(=O)[O-])cc5)c5ccc([nH]5)c(-c5ccc(S(=O)(=O)[O-])cc5)c5nc(c(-c6ccc(S(=O)(=O)[O-])cc6)c6ccc3[nH]6)C=C5)C=C4)cc2)n1C
REMARK SMILES IDX 15 1 14 2 13 3 12 4 10 5 11 6 9 8 3 9 4 10 79 11 8 12 80 13
REMARK SMILES IDX 2 14 1 15 5 16 6 17 7 18 16 19 17 20 18 22 19 23 20 24 78 25
REMARK SMILES IDX 21 26 77 27 22 28 23 29 24 30 71 31 25 32 76 33 70 34 72 35
REMARK SMILES IDX 26 36 75 37 69 38 68 39 27 41 57 42 38 43 56 44 39 45 42 46
REMARK SMILES IDX 55 47 73 48 40 49 41 50 54 52 74 53 43 54 28 55 29 56 37 57
REMARK SMILES IDX 30 58 36 59 31 60 32 61 33 62 34 63 35 64 58 65 59 66 67 67
REMARK SMILES IDX 60 68 66 69 61 70 62 71 63 72 64 73 65 74 44 75 45 76 53 77
REMARK SMILES IDX 46 78 52 79 47 80 48 81 49 82 50 83 51 84
REMARK H PARENT 12 7 16 21 72 40 42 51
REMARK Flexibility Score: inf
ROOT
ATOM      1  C   UNL A   1      33.259  28.784  27.263  1.00  0.00     0.118 C 
ENDROOT
BRANCH   1   2
ATOM      2  C   UNL A   1      32.092  28.461  26.342  1.00  0.00     0.042 C 
BRANCH   2   3
ATOM      3  C   UNL A   1      32.030  29.282  25.068  1.00  0.00     0.118 C 
BRANCH   3   4
ATOM      4  N   UNL A   1      30.771  29.206  24.353  1.00  0.00    -0.351 N 
ATOM      5  C   UNL A   1      30.229  28.210  23.581  1.00  0.00     0.268 C 
ATOM      6  O   UNL A   1      29.123  28.437  23.090  1.00  0.00    -0.268 OA
ATOM      7  H   UNL A   1      30.207  30.009  24.435  1.00  0.00     0.163 HD
BRANCH   5   8
ATOM      8  C   UNL A   1      30.954  26.984  23.296  1.00  0.00     0.114 A 
ATOM      9  C   UNL A   1      32.185  25.090  23.525  1.00  0.00     0.096 A 
ATOM     10  C   UNL A   1      32.235  25.456  22.180  1.00  0.00     0.290 A 
ATOM     11  N   UNL A   1      31.177  25.867  24.083  1.00  0.00    -0.338 N 
ATOM     12  C   UNL A   1      31.482  26.652  22.054  1.00  0.00     0.119 A 
ATOM     13  C   UNL A   1      30.358  25.464  25.209  1.00  0.00     0.150 C 
BRANCH   9  14
ATOM     14  C   UNL A   1      33.042  24.136  24.314  1.00  0.00     0.058 C 
ATOM     15  C   UNL A   1      34.086  24.767  25.215  1.00  0.00     0.011 C 
ENDBRANCH   9  14
BRANCH  10  16
ATOM     16  N   UNL A   1      32.967  24.817  21.106  1.00  0.00     0.064 N 
ATOM     17  O   UNL A   1      33.377  23.664  21.290  1.00  0.00    -0.258 OA
ATOM     18  O   UNL A   1      33.088  25.461  20.055  1.00  0.00    -0.258 OA
ENDBRANCH  10  16
ENDBRANCH   5   8
ENDBRANCH   3   4
ENDBRANCH   2   3
ENDBRANCH   1   2
BRANCH   1  19
ATOM     19  N   UNL A   1      33.426  30.206  27.538  1.00  0.00    -0.352 N 
ATOM     20  C   UNL A   1      34.492  30.924  28.035  1.00  0.00     0.251 C 
ATOM     21  H   UNL A   1      32.635  30.752  27.330  1.00  0.00     0.163 HD
ATOM     22  O   UNL A   1      34.341  32.118  28.284  1.00  0.00    -0.269 OA
BRANCH  20  23
ATOM     23  C   UNL A   1      35.791  30.272  28.319  1.00  0.00     0.039 A 
ATOM     24  C   UNL A   1      36.773  30.243  27.323  1.00  0.00     0.014 A 
ATOM     25  C   UNL A   1      36.058  29.694  29.558  1.00  0.00     0.014 A 
ATOM     26  C   UNL A   1      38.045  29.738  27.611  1.00  0.00     0.010 A 
ATOM     27  C   UNL A   1      37.357  29.321  29.885  1.00  0.00     0.010 A 
ATOM     28  C   UNL A   1      38.369  29.331  28.916  1.00  0.00    -0.014 A 
BRANCH  28  29
ATOM     29  C   UNL A   1      39.742  28.903  29.294  1.00  0.00     0.031 A 
ATOM     30  C   UNL A   1      40.675  29.871  29.980  1.00  0.00     0.074 A 
ATOM     31  C   UNL A   1      40.189  27.681  28.939  1.00  0.00     0.049 A 
ATOM     32  N   UNL A   1      41.940  29.728  30.281  1.00  0.00    -0.248 NA
ATOM     33  C   UNL A   1      40.122  31.190  30.334  1.00  0.00     0.031 C 
ATOM     34  C   UNL A   1      39.413  26.669  28.215  1.00  0.00     0.029 A 
ATOM     35  N   UNL A   1      41.412  27.085  29.124  1.00  0.00    -0.354 N 
ATOM     36  C   UNL A   1      42.337  30.941  30.832  1.00  0.00     0.074 A 
ATOM     37  C   UNL A   1      41.201  31.831  30.757  1.00  0.00     0.031 C 
ATOM     38  C   UNL A   1      40.167  25.571  28.047  1.00  0.00     0.029 A 
ATOM     39  C   UNL A   1      41.495  25.814  28.604  1.00  0.00     0.049 A 
ATOM     40  H   UNL A   1      42.161  27.526  29.586  1.00  0.00     0.167 HD
ATOM     41  C   UNL A   1      43.529  31.280  31.380  1.00  0.00     0.031 A 
ATOM     42  C   UNL A   1      42.522  24.943  28.568  1.00  0.00     0.031 A 
ATOM     43  C   UNL A   1      44.652  30.387  31.474  1.00  0.00     0.049 A 
ATOM     44  C   UNL A   1      43.833  25.331  29.193  1.00  0.00     0.074 A 
ATOM     45  C   UNL A   1      45.883  30.611  32.063  1.00  0.00     0.029 A 
ATOM     46  N   UNL A   1      44.678  29.096  30.969  1.00  0.00    -0.354 N 
ATOM     47  N   UNL A   1      44.167  26.462  29.768  1.00  0.00    -0.248 NA
ATOM     48  C   UNL A   1      44.901  24.323  29.178  1.00  0.00     0.031 C 
ATOM     49  C   UNL A   1      46.672  29.472  31.871  1.00  0.00     0.029 A 
ATOM     50  C   UNL A   1      45.910  28.516  31.217  1.00  0.00     0.049 A 
ATOM     51  H   UNL A   1      43.930  28.656  30.504  1.00  0.00     0.167 HD
ATOM     52  C   UNL A   1      45.476  26.293  30.205  1.00  0.00     0.074 A 
ATOM     53  C   UNL A   1      45.865  24.945  29.843  1.00  0.00     0.031 C 
ATOM     54  C   UNL A   1      46.282  27.174  30.847  1.00  0.00     0.031 A 
BRANCH  41  55
ATOM     55  C   UNL A   1      43.667  32.680  31.925  1.00  0.00    -0.014 A 
ATOM     56  C   UNL A   1      44.148  33.728  31.118  1.00  0.00     0.010 A 
ATOM     57  C   UNL A   1      43.306  32.955  33.255  1.00  0.00     0.010 A 
ATOM     58  C   UNL A   1      44.322  35.009  31.647  1.00  0.00     0.020 A 
ATOM     59  C   UNL A   1      43.445  34.244  33.780  1.00  0.00     0.020 A 
ATOM     60  C   UNL A   1      43.975  35.257  32.977  1.00  0.00     0.054 A 
BRANCH  60  61
ATOM     61  S   UNL A   1      44.211  36.930  33.638  1.00  0.00     0.124 S 
ATOM     62  O   UNL A   1      44.891  36.659  34.903  1.00  0.00    -0.237 OA
ATOM     63  O   UNL A   1      45.029  37.567  32.610  1.00  0.00    -0.237 OA
ATOM     64  O   UNL A   1      42.852  37.450  33.760  1.00  0.00    -0.744 OA
ENDBRANCH  60  61
ENDBRANCH  41  55
BRANCH  42  65
ATOM     65  C   UNL A   1      42.339  23.611  27.926  1.00  0.00    -0.014 A 
ATOM     66  C   UNL A   1      42.810  23.374  26.622  1.00  0.00     0.010 A 
ATOM     67  C   UNL A   1      41.720  22.562  28.628  1.00  0.00     0.010 A 
ATOM     68  C   UNL A   1      42.658  22.117  26.030  1.00  0.00     0.020 A 
ATOM     69  C   UNL A   1      41.591  21.295  28.051  1.00  0.00     0.020 A 
ATOM     70  C   UNL A   1      42.053  21.083  26.752  1.00  0.00     0.054 A 
BRANCH  70  71
ATOM     71  S   UNL A   1      41.930  19.440  25.991  1.00  0.00     0.124 S 
ATOM     72  O   UNL A   1      42.798  19.579  24.825  1.00  0.00    -0.237 OA
ATOM     73  O   UNL A   1      42.427  18.564  27.050  1.00  0.00    -0.237 OA
ATOM     74  O   UNL A   1      40.505  19.304  25.699  1.00  0.00    -0.744 OA
ENDBRANCH  70  71
ENDBRANCH  42  65
BRANCH  54  75
ATOM     75  C   UNL A   1      47.659  26.700  31.232  1.00  0.00    -0.014 A 
ATOM     76  C   UNL A   1      47.914  26.153  32.502  1.00  0.00     0.010 A 
ATOM     77  C   UNL A   1      48.697  26.747  30.284  1.00  0.00     0.010 A 
ATOM     78  C   UNL A   1      49.192  25.690  32.826  1.00  0.00     0.020 A 
ATOM     79  C   UNL A   1      49.968  26.259  30.594  1.00  0.00     0.020 A 
ATOM     80  C   UNL A   1      50.211  25.745  31.870  1.00  0.00     0.054 A 
BRANCH  80  81
ATOM     81  S   UNL A   1      51.848  25.095  32.301  1.00  0.00     0.124 S 
ATOM     82  O   UNL A   1      52.034  25.614  33.654  1.00  0.00    -0.237 OA
ATOM     83  O   UNL A   1      51.655  23.650  32.202  1.00  0.00    -0.237 OA
ATOM     84  O   UNL A   1      52.728  25.672  31.287  1.00  0.00    -0.744 OA
ENDBRANCH  80  81
ENDBRANCH  54  75
ENDBRANCH  28  29
ENDBRANCH  20  23
ENDBRANCH   1  19
TORSDOF 15
ENDMDL
MODEL 3
REMARK VINA RESULT:     -10.2      3.486      6.312
REMARK SMILES CCc1c([N+](=O)[O-])cc(C(=O)NCCCNC(=O)c2ccc(-c3c4nc(c(-c5ccc(S(=O)(=O)[O-])cc5)c5ccc([nH]5)c(-c5ccc(S(=O)(=O)[O-])cc5)c5nc(c(-c6ccc(S(=O)(=O)[O-])cc6)c6ccc3[nH]6)C=C5)C=C4)cc2)n1C
REMARK SMILES IDX 15 1 14 2 13 3 12 4 10 5 11 6 9 8 3 9 4 10 79 11 8 12 80 13
REMARK SMILES IDX 2 14 1 15 5 16 6 17 7 18 16 19 17 20 18 22 19 23 20 24 78 25
REMARK SMILES IDX 21 26 77 27 22 28 23 29 24 30 71 31 25 32 76 33 70 34 72 35
REMARK SMILES IDX 26 36 75 37 69 38 68 39 27 41 57 42 38 43 56 44 39 45 42 46
REMARK SMILES IDX 55 47 73 48 40 49 41 50 54 52 74 53 43 54 28 55 29 56 37 57
REMARK SMILES IDX 30 58 36 59 31 60 32 61 33 62 34 63 35 64 58 65 59 66 67 67
REMARK SMILES IDX 60 68 66 69 61 70 62 71 63 72 64 73 65 74 44 75 45 76 53 77
REMARK SMILES IDX 46 78 52 79 47 80 48 81 49 82 50 83 51 84
REMARK H PARENT 12 7 16 21 72 40 42 51
REMARK Flexibility Score: inf
ROOT
ATOM      1  C   UNL A   1      34.792  32.378  29.999  1.00  0.00     0.118 C 
ENDROOT
BRANCH   1   2
ATOM      2  C   UNL A   1      35.823  33.407  29.561  1.00  0.00     0.042 C 
BRANCH   2   3
ATOM      3  C   UNL A   1      36.787  33.854  30.645  1.00  0.00     0.118 C 
BRANCH   3   4
ATOM      4  N   UNL A   1      36.201  34.683  31.679  1.00  0.00    -0.351 N 
ATOM      5  C   UNL A   1      36.405  34.715  33.035  1.00  0.00     0.268 C 
ATOM      6  O   UNL A   1      35.748  35.541  33.669  1.00  0.00    -0.268 OA
ATOM      7  H   UNL A   1      35.542  35.337  31.352  1.00  0.00     0.163 HD
BRANCH   5   8
ATOM      8  C   UNL A   1      37.291  33.773  33.697  1.00  0.00     0.114 A 
ATOM      9  C   UNL A   1      38.991  32.331  34.127  1.00  0.00     0.096 A 
ATOM     10  C   UNL A   1      37.999  32.096  35.078  1.00  0.00     0.290 A 
ATOM     11  N   UNL A   1      38.641  33.529  33.515  1.00  0.00    -0.338 N 
ATOM     12  C   UNL A   1      36.933  32.987  34.785  1.00  0.00     0.119 A 
ATOM     13  C   UNL A   1      39.589  34.466  32.945  1.00  0.00     0.150 C 
BRANCH   9  14
ATOM     14  C   UNL A   1      40.175  31.496  33.719  1.00  0.00     0.058 C 
ATOM     15  C   UNL A   1      41.356  31.503  34.670  1.00  0.00     0.011 C 
ENDBRANCH   9  14
BRANCH  10  16
ATOM     16  N   UNL A   1      37.981  31.095  36.124  1.00  0.00     0.064 N 
ATOM     17  O   UNL A   1      37.520  31.417  37.227  1.00  0.00    -0.258 OA
ATOM     18  O   UNL A   1      38.389  29.965  35.820  1.00  0.00    -0.258 OA
ENDBRANCH  10  16
ENDBRANCH   5   8
ENDBRANCH   3   4
ENDBRANCH   2   3
ENDBRANCH   1   2
BRANCH   1  19
ATOM     19  N   UNL A   1      34.165  31.654  28.898  1.00  0.00    -0.352 N 
ATOM     20  C   UNL A   1      34.635  30.655  28.073  1.00  0.00     0.251 C 
ATOM     21  H   UNL A   1      33.239  31.929  28.712  1.00  0.00     0.163 HD
ATOM     22  O   UNL A   1      33.936  30.284  27.132  1.00  0.00    -0.269 OA
BRANCH  20  23
ATOM     23  C   UNL A   1      35.978  30.064  28.271  1.00  0.00     0.039 A 
ATOM     24  C   UNL A   1      36.924  30.158  27.246  1.00  0.00     0.014 A 
ATOM     25  C   UNL A   1      36.320  29.422  29.459  1.00  0.00     0.014 A 
ATOM     26  C   UNL A   1      38.233  29.712  27.460  1.00  0.00     0.010 A 
ATOM     27  C   UNL A   1      37.648  29.105  29.720  1.00  0.00     0.010 A 
ATOM     28  C   UNL A   1      38.624  29.239  28.723  1.00  0.00    -0.014 A 
BRANCH  28  29
ATOM     29  C   UNL A   1      40.031  28.869  29.029  1.00  0.00     0.031 A 
ATOM     30  C   UNL A   1      40.973  29.892  29.615  1.00  0.00     0.074 A 
ATOM     31  C   UNL A   1      40.495  27.647  28.694  1.00  0.00     0.049 A 
ATOM     32  N   UNL A   1      42.259  29.800  29.840  1.00  0.00    -0.248 NA
ATOM     33  C   UNL A   1      40.401  31.208  29.952  1.00  0.00     0.031 C 
ATOM     34  C   UNL A   1      39.709  26.583  28.063  1.00  0.00     0.029 A 
ATOM     35  N   UNL A   1      41.746  27.097  28.825  1.00  0.00    -0.354 N 
ATOM     36  C   UNL A   1      42.650  31.046  30.316  1.00  0.00     0.074 A 
ATOM     37  C   UNL A   1      41.483  31.898  30.279  1.00  0.00     0.031 C 
ATOM     38  C   UNL A   1      40.486  25.502  27.890  1.00  0.00     0.029 A 
ATOM     39  C   UNL A   1      41.837  25.808  28.351  1.00  0.00     0.049 A 
ATOM     40  H   UNL A   1      42.508  27.579  29.220  1.00  0.00     0.167 HD
ATOM     41  C   UNL A   1      43.862  31.444  30.772  1.00  0.00     0.031 A 
ATOM     42  C   UNL A   1      42.888  24.968  28.283  1.00  0.00     0.031 A 
ATOM     43  C   UNL A   1      45.017  30.589  30.829  1.00  0.00     0.049 A 
ATOM     44  C   UNL A   1      44.223  25.421  28.807  1.00  0.00     0.074 A 
ATOM     45  C   UNL A   1      46.275  30.875  31.328  1.00  0.00     0.029 A 
ATOM     46  N   UNL A   1      45.054  29.280  30.374  1.00  0.00    -0.354 N 
ATOM     47  N   UNL A   1      44.554  26.585  29.314  1.00  0.00    -0.248 NA
ATOM     48  C   UNL A   1      45.320  24.445  28.764  1.00  0.00     0.031 C 
ATOM     49  C   UNL A   1      47.087  29.753  31.131  1.00  0.00     0.029 A 
ATOM     50  C   UNL A   1      46.318  28.748  30.567  1.00  0.00     0.049 A 
ATOM     51  H   UNL A   1      44.293  28.799  29.976  1.00  0.00     0.167 HD
ATOM     52  C   UNL A   1      45.893  26.473  29.672  1.00  0.00     0.074 A 
ATOM     53  C   UNL A   1      46.304  25.123  29.340  1.00  0.00     0.031 C 
ATOM     54  C   UNL A   1      46.710  27.404  30.226  1.00  0.00     0.031 A 
BRANCH  41  55
ATOM     55  C   UNL A   1      43.988  32.868  31.251  1.00  0.00    -0.014 A 
ATOM     56  C   UNL A   1      43.667  33.219  32.576  1.00  0.00     0.010 A 
ATOM     57  C   UNL A   1      44.440  33.868  30.372  1.00  0.00     0.010 A 
ATOM     58  C   UNL A   1      43.737  34.550  32.995  1.00  0.00     0.020 A 
ATOM     59  C   UNL A   1      44.546  35.196  30.797  1.00  0.00     0.020 A 
ATOM     60  C   UNL A   1      44.171  35.532  32.100  1.00  0.00     0.054 A 
BRANCH  60  61
ATOM     61  S   UNL A   1      44.253  37.251  32.671  1.00  0.00     0.124 S 
ATOM     62  O   UNL A   1      45.648  37.359  33.094  1.00  0.00    -0.237 OA
ATOM     63  O   UNL A   1      43.901  38.004  31.471  1.00  0.00    -0.237 OA
ATOM     64  O   UNL A   1      43.269  37.306  33.749  1.00  0.00    -0.744 OA
ENDBRANCH  60  61
ENDBRANCH  41  55
BRANCH  42  65
ATOM     65  C   UNL A   1      42.709  23.605  27.707  1.00  0.00    -0.014 A 
ATOM     66  C   UNL A   1      43.021  23.351  26.360  1.00  0.00     0.010 A 
ATOM     67  C   UNL A   1      42.255  22.546  28.514  1.00  0.00     0.010 A 
ATOM     68  C   UNL A   1      42.874  22.067  25.828  1.00  0.00     0.020 A 
ATOM     69  C   UNL A   1      42.134  21.255  27.994  1.00  0.00     0.020 A 
ATOM     70  C   UNL A   1      42.436  21.025  26.650  1.00  0.00     0.054 A 
BRANCH  70  71
ATOM     71  S   UNL A   1      42.320  19.352  25.957  1.00  0.00     0.124 S 
ATOM     72  O   UNL A   1      42.836  18.533  27.050  1.00  0.00    -0.237 OA
ATOM     73  O   UNL A   1      40.890  19.220  25.688  1.00  0.00    -0.237 OA
ATOM     74  O   UNL A   1      43.165  19.415  24.768  1.00  0.00    -0.744 OA
ENDBRANCH  70  71
ENDBRANCH  42  65
BRANCH  54  75
ATOM     75  C   UNL A   1      48.123  26.988  30.541  1.00  0.00    -0.014 A 
ATOM     76  C   UNL A   1      49.202  27.410  29.745  1.00  0.00     0.010 A 
ATOM     77  C   UNL A   1      48.377  26.213  31.687  1.00  0.00     0.010 A 
ATOM     78  C   UNL A   1      50.508  27.038  30.074  1.00  0.00     0.020 A 
ATOM     79  C   UNL A   1      49.683  25.864  32.036  1.00  0.00     0.020 A 
ATOM     80  C   UNL A   1      50.741  26.269  31.218  1.00  0.00     0.054 A 
BRANCH  80  81
ATOM     81  S   UNL A   1      52.449  25.839  31.648  1.00  0.00     0.124 S 
ATOM     82  O   UNL A   1      53.114  25.901  30.349  1.00  0.00    -0.237 OA
ATOM     83  O   UNL A   1      52.815  26.891  32.593  1.00  0.00    -0.237 OA
ATOM     84  O   UNL A   1      52.335  24.501  32.226  1.00  0.00    -0.744 OA
ENDBRANCH  80  81
ENDBRANCH  54  75
ENDBRANCH  28  29
ENDBRANCH  20  23
ENDBRANCH   1  19
TORSDOF 15
ENDMDL
