MODEL 1
REMARK VINA RESULT:      -9.0      0.000      0.000
REMARK SMILES CN(C)c1cccc(C(=O)CCCC(=O)NCCCNC(=O)c2ccc(-c3c4nc(c(-c5ccc(S(=O)(=O)[O-])cc5)c5ccc([nH]5)c(-c5ccc(S(=O)(=O)[O-])cc5)c5nc(c(-c6ccc(S(=O)(=O)[O-])cc6)c6ccc3[nH]6)C=C5)C=C4)cc2)c1
REMARK SMILES IDX 17 1 16 2 14 3 15 4 13 6 12 7 11 8 9 9 10 10 8 11 4 12 5 13
REMARK SMILES IDX 83 14 6 15 7 16 2 17 1 18 3 19 18 20 19 21 20 22 21 23 22 25
REMARK SMILES IDX 23 26 24 27 82 28 25 29 81 30 26 31 27 32 28 33 75 34 29 35
REMARK SMILES IDX 80 36 74 37 76 38 30 39 79 40 73 41 72 42 31 44 61 45 42 46
REMARK SMILES IDX 60 47 43 48 46 49 59 50 77 51 44 52 45 53 58 55 78 56 47 57
REMARK SMILES IDX 32 58 33 59 41 60 34 61 40 62 35 63 36 64 37 65 38 66 39 67
REMARK SMILES IDX 62 68 63 69 71 70 64 71 70 72 65 73 66 74 67 75 68 76 69 77
REMARK SMILES IDX 48 78 49 79 57 80 50 81 56 82 51 83 52 84 53 85 54 86 55 87
REMARK H PARENT 16 5 20 24 76 43 46 54
REMARK Flexibility Score: inf
ROOT
ATOM      1  C   UNL A   1      33.301  34.899  28.894  1.00  0.00     0.117 C 
ENDROOT
BRANCH   1   2
ATOM      2  N   UNL A   1      33.122  36.185  29.532  1.00  0.00    -0.356 N 
ATOM      3  C   UNL A   1      33.039  36.599  30.814  1.00  0.00     0.220 C 
ATOM      4  O   UNL A   1      32.901  37.822  30.958  1.00  0.00    -0.275 OA
ATOM      5  H   UNL A   1      33.044  36.924  28.885  1.00  0.00     0.163 HD
BRANCH   3   6
ATOM      6  C   UNL A   1      33.254  35.744  32.062  1.00  0.00     0.100 C 
BRANCH   6   7
ATOM      7  C   UNL A   1      34.304  35.986  33.149  1.00  0.00     0.018 C 
BRANCH   7   8
ATOM      8  C   UNL A   1      34.865  34.908  34.074  1.00  0.00     0.081 C 
BRANCH   8   9
ATOM      9  C   UNL A   1      35.836  33.825  33.584  1.00  0.00     0.162 C 
ATOM     10  O   UNL A   1      35.419  32.693  33.327  1.00  0.00    -0.294 OA
BRANCH   9  11
ATOM     11  C   UNL A   1      37.263  34.116  33.239  1.00  0.00     0.020 A 
ATOM     12  C   UNL A   1      39.072  34.340  31.573  1.00  0.00     0.037 A 
ATOM     13  C   UNL A   1      39.934  34.686  32.617  1.00  0.00     0.026 A 
ATOM     14  C   UNL A   1      37.737  34.096  31.927  1.00  0.00     0.037 A 
ATOM     15  C   UNL A   1      39.481  34.764  33.941  1.00  0.00     0.003 A 
ATOM     16  C   UNL A   1      38.153  34.471  34.253  1.00  0.00     0.012 A 
BRANCH  12  17
ATOM     17  N   UNL A   1      39.508  34.245  30.254  1.00  0.00    -0.378 N 
ATOM     18  C   UNL A   1      40.892  34.533  29.894  1.00  0.00     0.143 C 
ATOM     19  C   UNL A   1      38.515  34.351  29.189  1.00  0.00     0.143 C 
ENDBRANCH  12  17
ENDBRANCH   9  11
ENDBRANCH   8   9
ENDBRANCH   7   8
ENDBRANCH   6   7
ENDBRANCH   3   6
ENDBRANCH   1   2
BRANCH   1  20
ATOM     20  C   UNL A   1      34.719  34.373  29.084  1.00  0.00     0.042 C 
BRANCH  20  21
ATOM     21  C   UNL A   1      34.751  32.909  29.485  1.00  0.00     0.118 C 
BRANCH  21  22
ATOM     22  N   UNL A   1      34.216  32.043  28.439  1.00  0.00    -0.352 N 
ATOM     23  C   UNL A   1      34.780  30.927  27.865  1.00  0.00     0.251 C 
ATOM     24  H   UNL A   1      33.326  32.290  28.097  1.00  0.00     0.163 HD
ATOM     25  O   UNL A   1      34.259  30.420  26.875  1.00  0.00    -0.269 OA
BRANCH  23  26
ATOM     26  C   UNL A   1      36.031  30.364  28.422  1.00  0.00     0.039 A 
ATOM     27  C   UNL A   1      37.262  30.810  27.933  1.00  0.00     0.014 A 
ATOM     28  C   UNL A   1      35.989  29.418  29.448  1.00  0.00     0.014 A 
ATOM     29  C   UNL A   1      38.446  30.361  28.526  1.00  0.00     0.010 A 
ATOM     30  C   UNL A   1      37.158  29.059  30.107  1.00  0.00     0.010 A 
ATOM     31  C   UNL A   1      38.402  29.514  29.645  1.00  0.00    -0.014 A 
BRANCH  31  32
ATOM     32  C   UNL A   1      39.637  29.061  30.337  1.00  0.00     0.031 A 
ATOM     33  C   UNL A   1      40.070  29.736  31.611  1.00  0.00     0.074 A 
ATOM     34  C   UNL A   1      40.411  28.108  29.779  1.00  0.00     0.049 A 
ATOM     35  N   UNL A   1      41.160  29.559  32.312  1.00  0.00    -0.248 NA
ATOM     36  C   UNL A   1      39.178  30.780  32.147  1.00  0.00     0.031 C 
ATOM     37  C   UNL A   1      40.135  27.418  28.518  1.00  0.00     0.029 A 
ATOM     38  N   UNL A   1      41.598  27.562  30.202  1.00  0.00    -0.354 N 
ATOM     39  C   UNL A   1      41.098  30.486  33.347  1.00  0.00     0.074 A 
ATOM     40  C   UNL A   1      39.897  31.265  33.145  1.00  0.00     0.031 C 
ATOM     41  C   UNL A   1      41.106  26.520  28.285  1.00  0.00     0.029 A 
ATOM     42  C   UNL A   1      42.094  26.598  29.356  1.00  0.00     0.049 A 
ATOM     43  H   UNL A   1      42.051  27.835  31.032  1.00  0.00     0.167 HD
ATOM     44  C   UNL A   1      41.946  30.657  34.389  1.00  0.00     0.031 A 
ATOM     45  C   UNL A   1      43.219  25.860  29.431  1.00  0.00     0.031 A 
ATOM     46  C   UNL A   1      43.124  29.860  34.601  1.00  0.00     0.049 A 
ATOM     47  C   UNL A   1      44.135  26.045  30.609  1.00  0.00     0.074 A 
ATOM     48  C   UNL A   1      44.017  29.906  35.656  1.00  0.00     0.029 A 
ATOM     49  N   UNL A   1      43.570  28.868  33.740  1.00  0.00    -0.354 N 
ATOM     50  N   UNL A   1      44.027  26.883  31.614  1.00  0.00    -0.248 NA
ATOM     51  C   UNL A   1      45.319  25.177  30.673  1.00  0.00     0.031 C 
ATOM     52  C   UNL A   1      45.027  28.969  35.412  1.00  0.00     0.029 A 
ATOM     53  C   UNL A   1      44.734  28.304  34.232  1.00  0.00     0.049 A 
ATOM     54  H   UNL A   1      43.124  28.604  32.904  1.00  0.00     0.167 HD
ATOM     55  C   UNL A   1      45.115  26.628  32.440  1.00  0.00     0.074 A 
ATOM     56  C   UNL A   1      45.860  25.547  31.826  1.00  0.00     0.031 C 
ATOM     57  C   UNL A   1      45.464  27.231  33.603  1.00  0.00     0.031 A 
BRANCH  44  58
ATOM     58  C   UNL A   1      41.619  31.752  35.372  1.00  0.00    -0.014 A 
ATOM     59  C   UNL A   1      40.564  31.611  36.292  1.00  0.00     0.010 A 
ATOM     60  C   UNL A   1      42.371  32.941  35.373  1.00  0.00     0.010 A 
ATOM     61  C   UNL A   1      40.226  32.660  37.151  1.00  0.00     0.020 A 
ATOM     62  C   UNL A   1      42.056  33.981  36.254  1.00  0.00     0.020 A 
ATOM     63  C   UNL A   1      40.969  33.843  37.119  1.00  0.00     0.054 A 
BRANCH  63  64
ATOM     64  S   UNL A   1      40.502  35.194  38.235  1.00  0.00     0.124 S 
ATOM     65  O   UNL A   1      39.074  34.949  38.421  1.00  0.00    -0.237 OA
ATOM     66  O   UNL A   1      41.339  34.948  39.406  1.00  0.00    -0.237 OA
ATOM     67  O   UNL A   1      40.834  36.399  37.478  1.00  0.00    -0.744 OA
ENDBRANCH  63  64
ENDBRANCH  44  58
BRANCH  45  68
ATOM     68  C   UNL A   1      43.517  24.859  28.371  1.00  0.00    -0.014 A 
ATOM     69  C   UNL A   1      42.974  23.564  28.444  1.00  0.00     0.010 A 
ATOM     70  C   UNL A   1      44.307  25.207  27.261  1.00  0.00     0.010 A 
ATOM     71  C   UNL A   1      43.221  22.634  27.429  1.00  0.00     0.020 A 
ATOM     72  C   UNL A   1      44.534  24.289  26.232  1.00  0.00     0.020 A 
ATOM     73  C   UNL A   1      43.995  23.005  26.326  1.00  0.00     0.054 A 
BRANCH  73  74
ATOM     74  S   UNL A   1      44.237  21.805  24.985  1.00  0.00     0.124 S 
ATOM     75  O   UNL A   1      43.263  20.772  25.321  1.00  0.00    -0.237 OA
ATOM     76  O   UNL A   1      43.936  22.598  23.796  1.00  0.00    -0.237 OA
ATOM     77  O   UNL A   1      45.639  21.417  25.125  1.00  0.00    -0.744 OA
ENDBRANCH  73  74
ENDBRANCH  45  68
BRANCH  57  78
ATOM     78  C   UNL A   1      46.693  26.721  34.305  1.00  0.00    -0.014 A 
ATOM     79  C   UNL A   1      46.618  25.657  35.221  1.00  0.00     0.010 A 
ATOM     80  C   UNL A   1      47.948  27.273  33.993  1.00  0.00     0.010 A 
ATOM     81  C   UNL A   1      47.777  25.174  35.835  1.00  0.00     0.020 A 
ATOM     82  C   UNL A   1      49.112  26.775  34.585  1.00  0.00     0.020 A 
ATOM     83  C   UNL A   1      49.016  25.736  35.513  1.00  0.00     0.054 A 
BRANCH  83  84
ATOM     84  S   UNL A   1      50.510  25.059  36.287  1.00  0.00     0.124 S 
ATOM     85  O   UNL A   1      51.207  26.270  36.711  1.00  0.00    -0.237 OA
ATOM     86  O   UNL A   1      49.968  24.235  37.364  1.00  0.00    -0.237 OA
ATOM     87  O   UNL A   1      51.154  24.316  35.206  1.00  0.00    -0.744 OA
ENDBRANCH  83  84
ENDBRANCH  57  78
ENDBRANCH  31  32
ENDBRANCH  23  26
ENDBRANCH  21  22
ENDBRANCH  20  21
ENDBRANCH   1  20
TORSDOF 18
ENDMDL
MODEL 2
REMARK VINA RESULT:      -8.9      3.677      6.649
REMARK SMILES CN(C)c1cccc(C(=O)CCCC(=O)NCCCNC(=O)c2ccc(-c3c4nc(c(-c5ccc(S(=O)(=O)[O-])cc5)c5ccc([nH]5)c(-c5ccc(S(=O)(=O)[O-])cc5)c5nc(c(-c6ccc(S(=O)(=O)[O-])cc6)c6ccc3[nH]6)C=C5)C=C4)cc2)c1
REMARK SMILES IDX 17 1 16 2 14 3 15 4 13 6 12 7 11 8 9 9 10 10 8 11 4 12 5 13
REMARK SMILES IDX 83 14 6 15 7 16 2 17 1 18 3 19 18 20 19 21 20 22 21 23 22 25
REMARK SMILES IDX 23 26 24 27 82 28 25 29 81 30 26 31 27 32 28 33 75 34 29 35
REMARK SMILES IDX 80 36 74 37 76 38 30 39 79 40 73 41 72 42 31 44 61 45 42 46
REMARK SMILES IDX 60 47 43 48 46 49 59 50 77 51 44 52 45 53 58 55 78 56 47 57
REMARK SMILES IDX 32 58 33 59 41 60 34 61 40 62 35 63 36 64 37 65 38 66 39 67
REMARK SMILES IDX 62 68 63 69 71 70 64 71 70 72 65 73 66 74 67 75 68 76 69 77
REMARK SMILES IDX 48 78 49 79 57 80 50 81 56 82 51 83 52 84 53 85 54 86 55 87
REMARK H PARENT 16 5 20 24 76 43 46 54
REMARK Flexibility Score: inf
ROOT
ATOM      1  C   UNL A   1      31.908  27.880  26.291  1.00  0.00     0.117 C 
ENDROOT
BRANCH   1   2
ATOM      2  N   UNL A   1      31.748  26.546  26.828  1.00  0.00    -0.356 N 
ATOM      3  C   UNL A   1      31.249  25.388  26.344  1.00  0.00     0.220 C 
ATOM      4  O   UNL A   1      31.306  24.430  27.127  1.00  0.00    -0.275 OA
ATOM      5  H   UNL A   1      32.076  26.464  27.752  1.00  0.00     0.163 HD
BRANCH   3   6
ATOM      6  C   UNL A   1      30.783  25.126  24.912  1.00  0.00     0.100 C 
BRANCH   6   7
ATOM      7  C   UNL A   1      31.621  25.314  23.645  1.00  0.00     0.018 C 
BRANCH   7   8
ATOM      8  C   UNL A   1      31.233  26.208  22.469  1.00  0.00     0.081 C 
BRANCH   8   9
ATOM      9  C   UNL A   1      31.115  27.734  22.599  1.00  0.00     0.162 C 
ATOM     10  O   UNL A   1      32.117  28.442  22.473  1.00  0.00    -0.294 OA
BRANCH   9  11
ATOM     11  C   UNL A   1      29.799  28.435  22.711  1.00  0.00     0.020 A 
ATOM     12  C   UNL A   1      28.387  30.431  22.362  1.00  0.00     0.037 A 
ATOM     13  C   UNL A   1      27.318  29.720  22.913  1.00  0.00     0.026 A 
ATOM     14  C   UNL A   1      29.600  29.737  22.250  1.00  0.00     0.037 A 
ATOM     15  C   UNL A   1      27.468  28.395  23.342  1.00  0.00     0.003 A 
ATOM     16  C   UNL A   1      28.706  27.757  23.250  1.00  0.00     0.012 A 
BRANCH  12  17
ATOM     17  N   UNL A   1      28.258  31.752  21.943  1.00  0.00    -0.378 N 
ATOM     18  C   UNL A   1      28.108  32.086  20.530  1.00  0.00     0.143 C 
ATOM     19  C   UNL A   1      28.764  32.806  22.817  1.00  0.00     0.143 C 
ENDBRANCH  12  17
ENDBRANCH   9  11
ENDBRANCH   8   9
ENDBRANCH   7   8
ENDBRANCH   6   7
ENDBRANCH   3   6
ENDBRANCH   1   2
BRANCH   1  20
ATOM     20  C   UNL A   1      33.274  28.059  25.637  1.00  0.00     0.042 C 
BRANCH  20  21
ATOM     21  C   UNL A   1      34.262  28.779  26.536  1.00  0.00     0.118 C 
BRANCH  21  22
ATOM     22  N   UNL A   1      33.916  30.185  26.715  1.00  0.00    -0.352 N 
ATOM     23  C   UNL A   1      34.459  31.110  27.579  1.00  0.00     0.251 C 
ATOM     24  H   UNL A   1      33.193  30.521  26.137  1.00  0.00     0.163 HD
ATOM     25  O   UNL A   1      33.925  32.207  27.713  1.00  0.00    -0.269 OA
BRANCH  23  26
ATOM     26  C   UNL A   1      35.664  30.762  28.366  1.00  0.00     0.039 A 
ATOM     27  C   UNL A   1      35.572  29.797  29.372  1.00  0.00     0.014 A 
ATOM     28  C   UNL A   1      36.891  31.369  28.090  1.00  0.00     0.014 A 
ATOM     29  C   UNL A   1      36.726  29.390  30.047  1.00  0.00     0.010 A 
ATOM     30  C   UNL A   1      38.050  30.885  28.683  1.00  0.00     0.010 A 
ATOM     31  C   UNL A   1      37.982  29.901  29.680  1.00  0.00    -0.014 A 
BRANCH  31  32
ATOM     32  C   UNL A   1      39.237  29.451  30.336  1.00  0.00     0.031 A 
ATOM     33  C   UNL A   1      39.721  30.146  31.581  1.00  0.00     0.074 A 
ATOM     34  C   UNL A   1      39.983  28.481  29.769  1.00  0.00     0.049 A 
ATOM     35  N   UNL A   1      40.834  29.973  32.246  1.00  0.00    -0.248 NA
ATOM     36  C   UNL A   1      38.857  31.207  32.128  1.00  0.00     0.031 C 
ATOM     37  C   UNL A   1      39.657  27.770  28.532  1.00  0.00     0.029 A 
ATOM     38  N   UNL A   1      41.180  27.933  30.159  1.00  0.00    -0.354 N 
ATOM     39  C   UNL A   1      40.816  30.920  33.264  1.00  0.00     0.074 A 
ATOM     40  C   UNL A   1      39.616  31.705  33.090  1.00  0.00     0.031 C 
ATOM     41  C   UNL A   1      40.611  26.859  28.281  1.00  0.00     0.029 A 
ATOM     42  C   UNL A   1      41.638  26.949  29.315  1.00  0.00     0.049 A 
ATOM     43  H   UNL A   1      41.665  28.218  30.967  1.00  0.00     0.167 HD
ATOM     44  C   UNL A   1      41.704  31.104  34.271  1.00  0.00     0.031 A 
ATOM     45  C   UNL A   1      42.759  26.204  29.364  1.00  0.00     0.031 A 
ATOM     46  C   UNL A   1      42.882  30.301  34.456  1.00  0.00     0.049 A 
ATOM     47  C   UNL A   1      43.718  26.403  30.504  1.00  0.00     0.074 A 
ATOM     48  C   UNL A   1      43.813  30.359  35.477  1.00  0.00     0.029 A 
ATOM     49  N   UNL A   1      43.288  29.289  33.599  1.00  0.00    -0.354 N 
ATOM     50  N   UNL A   1      43.653  27.261  31.496  1.00  0.00    -0.248 NA
ATOM     51  C   UNL A   1      44.897  25.526  30.542  1.00  0.00     0.031 C 
ATOM     52  C   UNL A   1      44.806  29.409  35.215  1.00  0.00     0.029 A 
ATOM     53  C   UNL A   1      44.465  28.724  34.059  1.00  0.00     0.049 A 
ATOM     54  H   UNL A   1      42.811  29.013  32.784  1.00  0.00     0.167 HD
ATOM     55  C   UNL A   1      44.768  27.012  32.287  1.00  0.00     0.074 A 
ATOM     56  C   UNL A   1      45.482  25.913  31.667  1.00  0.00     0.031 C 
ATOM     57  C   UNL A   1      45.164  27.634  33.425  1.00  0.00     0.031 A 
BRANCH  44  58
ATOM     58  C   UNL A   1      41.420  32.220  35.244  1.00  0.00    -0.014 A 
ATOM     59  C   UNL A   1      40.568  32.024  36.347  1.00  0.00     0.010 A 
ATOM     60  C   UNL A   1      42.008  33.483  35.051  1.00  0.00     0.010 A 
ATOM     61  C   UNL A   1      40.258  33.085  37.201  1.00  0.00     0.020 A 
ATOM     62  C   UNL A   1      41.726  34.540  35.925  1.00  0.00     0.020 A 
ATOM     63  C   UNL A   1      40.833  34.340  36.979  1.00  0.00     0.054 A 
BRANCH  63  64
ATOM     64  S   UNL A   1      40.404  35.702  38.095  1.00  0.00     0.124 S 
ATOM     65  O   UNL A   1      41.707  36.052  38.656  1.00  0.00    -0.237 OA
ATOM     66  O   UNL A   1      39.826  36.691  37.189  1.00  0.00    -0.237 OA
ATOM     67  O   UNL A   1      39.463  35.098  39.034  1.00  0.00    -0.744 OA
ENDBRANCH  63  64
ENDBRANCH  44  58
BRANCH  45  68
ATOM     68  C   UNL A   1      43.011  25.180  28.313  1.00  0.00    -0.014 A 
ATOM     69  C   UNL A   1      43.838  25.477  27.215  1.00  0.00     0.010 A 
ATOM     70  C   UNL A   1      42.462  23.890  28.426  1.00  0.00     0.010 A 
ATOM     71  C   UNL A   1      44.107  24.504  26.247  1.00  0.00     0.020 A 
ATOM     72  C   UNL A   1      42.750  22.907  27.475  1.00  0.00     0.020 A 
ATOM     73  C   UNL A   1      43.565  23.223  26.387  1.00  0.00     0.054 A 
BRANCH  73  74
ATOM     74  S   UNL A   1      43.991  21.955  25.159  1.00  0.00     0.124 S 
ATOM     75  O   UNL A   1      45.399  21.709  25.451  1.00  0.00    -0.237 OA
ATOM     76  O   UNL A   1      43.074  20.870  25.496  1.00  0.00    -0.237 OA
ATOM     77  O   UNL A   1      43.720  22.613  23.882  1.00  0.00    -0.744 OA
ENDBRANCH  73  74
ENDBRANCH  45  68
BRANCH  57  78
ATOM     78  C   UNL A   1      46.413  27.126  34.092  1.00  0.00    -0.014 A 
ATOM     79  C   UNL A   1      46.361  26.089  35.039  1.00  0.00     0.010 A 
ATOM     80  C   UNL A   1      47.662  27.653  33.716  1.00  0.00     0.010 A 
ATOM     81  C   UNL A   1      47.538  25.607  35.621  1.00  0.00     0.020 A 
ATOM     82  C   UNL A   1      48.841  27.156  34.275  1.00  0.00     0.020 A 
ATOM     83  C   UNL A   1      48.770  26.144  35.235  1.00  0.00     0.054 A 
BRANCH  83  84
ATOM     84  S   UNL A   1      50.285  25.468  35.967  1.00  0.00     0.124 S 
ATOM     85  O   UNL A   1      51.024  25.032  34.786  1.00  0.00    -0.237 OA
ATOM     86  O   UNL A   1      50.844  26.621  36.668  1.00  0.00    -0.237 OA
ATOM     87  O   UNL A   1      49.802  24.395  36.833  1.00  0.00    -0.744 OA
ENDBRANCH  83  84
ENDBRANCH  57  78
ENDBRANCH  31  32
ENDBRANCH  23  26
ENDBRANCH  21  22
ENDBRANCH  20  21
ENDBRANCH   1  20
TORSDOF 18
ENDMDL
MODEL 3
REMARK VINA RESULT:      -8.9      4.808     11.190
REMARK SMILES CN(C)c1cccc(C(=O)CCCC(=O)NCCCNC(=O)c2ccc(-c3c4nc(c(-c5ccc(S(=O)(=O)[O-])cc5)c5ccc([nH]5)c(-c5ccc(S(=O)(=O)[O-])cc5)c5nc(c(-c6ccc(S(=O)(=O)[O-])cc6)c6ccc3[nH]6)C=C5)C=C4)cc2)c1
REMARK SMILES IDX 17 1 16 2 14 3 15 4 13 6 12 7 11 8 9 9 10 10 8 11 4 12 5 13
REMARK SMILES IDX 83 14 6 15 7 16 2 17 1 18 3 19 18 20 19 21 20 22 21 23 22 25
REMARK SMILES IDX 23 26 24 27 82 28 25 29 81 30 26 31 27 32 28 33 75 34 29 35
REMARK SMILES IDX 80 36 74 37 76 38 30 39 79 40 73 41 72 42 31 44 61 45 42 46
REMARK SMILES IDX 60 47 43 48 46 49 59 50 77 51 44 52 45 53 58 55 78 56 47 57
REMARK SMILES IDX 32 58 33 59 41 60 34 61 40 62 35 63 36 64 37 65 38 66 39 67
REMARK SMILES IDX 62 68 63 69 71 70 64 71 70 72 65 73 66 74 67 75 68 76 69 77
REMARK SMILES IDX 48 78 49 79 57 80 50 81 56 82 51 83 52 84 53 85 54 86 55 87
REMARK H PARENT 16 5 20 24 76 43 46 54
REMARK Flexibility Score: inf
ROOT
ATOM      1  C   UNL A   1      33.923  24.639  25.978  1.00  0.00     0.117 C 
ENDROOT
BRANCH   1   2
ATOM      2  N   UNL A   1      32.789  23.996  26.606  1.00  0.00    -0.356 N 
ATOM      3  C   UNL A   1      31.478  24.296  26.718  1.00  0.00     0.220 C 
ATOM      4  O   UNL A   1      30.804  23.459  27.335  1.00  0.00    -0.275 OA
ATOM      5  H   UNL A   1      33.028  23.150  27.050  1.00  0.00     0.163 HD
BRANCH   3   6
ATOM      6  C   UNL A   1      30.748  25.454  26.039  1.00  0.00     0.100 C 
BRANCH   6   7
ATOM      7  C   UNL A   1      31.400  26.708  25.453  1.00  0.00     0.018 C 
BRANCH   7   8
ATOM      8  C   UNL A   1      31.869  26.850  24.006  1.00  0.00     0.081 C 
BRANCH   8   9
ATOM      9  C   UNL A   1      31.518  28.071  23.143  1.00  0.00     0.162 C 
ATOM     10  O   UNL A   1      32.372  28.573  22.410  1.00  0.00    -0.294 OA
BRANCH   9  11
ATOM     11  C   UNL A   1      30.122  28.595  23.016  1.00  0.00     0.020 A 
ATOM     12  C   UNL A   1      28.549  30.412  22.448  1.00  0.00     0.037 A 
ATOM     13  C   UNL A   1      27.500  29.547  22.769  1.00  0.00     0.026 A 
ATOM     14  C   UNL A   1      29.843  29.882  22.554  1.00  0.00     0.037 A 
ATOM     15  C   UNL A   1      27.741  28.233  23.190  1.00  0.00     0.003 A 
ATOM     16  C   UNL A   1      29.047  27.760  23.322  1.00  0.00     0.012 A 
BRANCH  12  17
ATOM     17  N   UNL A   1      28.328  31.725  22.041  1.00  0.00    -0.378 N 
ATOM     18  C   UNL A   1      28.133  32.056  20.633  1.00  0.00     0.143 C 
ATOM     19  C   UNL A   1      28.779  32.804  22.914  1.00  0.00     0.143 C 
ENDBRANCH  12  17
ENDBRANCH   9  11
ENDBRANCH   8   9
ENDBRANCH   7   8
ENDBRANCH   6   7
ENDBRANCH   3   6
ENDBRANCH   1   2
BRANCH   1  20
ATOM     20  C   UNL A   1      34.972  23.622  25.542  1.00  0.00     0.042 C 
BRANCH  20  21
ATOM     21  C   UNL A   1      36.389  24.092  25.814  1.00  0.00     0.118 C 
BRANCH  21  22
ATOM     22  N   UNL A   1      37.339  22.984  25.834  1.00  0.00    -0.352 N 
ATOM     23  C   UNL A   1      38.659  22.979  26.226  1.00  0.00     0.251 C 
ATOM     24  H   UNL A   1      36.987  22.118  25.524  1.00  0.00     0.163 HD
ATOM     25  O   UNL A   1      39.355  21.991  26.013  1.00  0.00    -0.269 OA
BRANCH  23  26
ATOM     26  C   UNL A   1      39.239  24.179  26.872  1.00  0.00     0.039 A 
ATOM     27  C   UNL A   1      39.956  25.095  26.098  1.00  0.00     0.014 A 
ATOM     28  C   UNL A   1      39.049  24.412  28.235  1.00  0.00     0.014 A 
ATOM     29  C   UNL A   1      40.417  26.280  26.679  1.00  0.00     0.010 A 
ATOM     30  C   UNL A   1      39.410  25.637  28.783  1.00  0.00     0.010 A 
ATOM     31  C   UNL A   1      40.112  26.580  28.017  1.00  0.00    -0.014 A 
BRANCH  31  32
ATOM     32  C   UNL A   1      40.536  27.854  28.654  1.00  0.00     0.031 A 
ATOM     33  C   UNL A   1      41.917  27.973  29.243  1.00  0.00     0.074 A 
ATOM     34  C   UNL A   1      39.658  28.869  28.780  1.00  0.00     0.049 A 
ATOM     35  N   UNL A   1      42.444  28.956  29.925  1.00  0.00    -0.248 NA
ATOM     36  C   UNL A   1      42.811  26.812  29.079  1.00  0.00     0.031 C 
ATOM     37  C   UNL A   1      38.272  28.859  28.306  1.00  0.00     0.029 A 
ATOM     38  N   UNL A   1      39.801  30.107  29.356  1.00  0.00    -0.354 N 
ATOM     39  C   UNL A   1      43.711  28.522  30.295  1.00  0.00     0.074 A 
ATOM     40  C   UNL A   1      43.850  27.165  29.819  1.00  0.00     0.031 C 
ATOM     41  C   UNL A   1      37.703  30.044  28.582  1.00  0.00     0.029 A 
ATOM     42  C   UNL A   1      38.667  30.882  29.288  1.00  0.00     0.049 A 
ATOM     43  H   UNL A   1      40.636  30.411  29.778  1.00  0.00     0.167 HD
ATOM     44  C   UNL A   1      44.686  29.199  30.949  1.00  0.00     0.031 A 
ATOM     45  C   UNL A   1      38.427  32.127  29.744  1.00  0.00     0.031 A 
ATOM     46  C   UNL A   1      44.554  30.559  31.396  1.00  0.00     0.049 A 
ATOM     47  C   UNL A   1      39.530  32.873  30.443  1.00  0.00     0.074 A 
ATOM     48  C   UNL A   1      45.500  31.360  32.009  1.00  0.00     0.029 A 
ATOM     49  N   UNL A   1      43.402  31.321  31.272  1.00  0.00    -0.354 N 
ATOM     50  N   UNL A   1      40.746  32.469  30.727  1.00  0.00    -0.248 NA
ATOM     51  C   UNL A   1      39.235  34.247  30.870  1.00  0.00     0.031 C 
ATOM     52  C   UNL A   1      44.906  32.594  32.295  1.00  0.00     0.029 A 
ATOM     53  C   UNL A   1      43.606  32.579  31.811  1.00  0.00     0.049 A 
ATOM     54  H   UNL A   1      42.562  31.013  30.862  1.00  0.00     0.167 HD
ATOM     55  C   UNL A   1      41.368  33.546  31.347  1.00  0.00     0.074 A 
ATOM     56  C   UNL A   1      40.399  34.624  31.381  1.00  0.00     0.031 C 
ATOM     57  C   UNL A   1      42.628  33.637  31.840  1.00  0.00     0.031 A 
BRANCH  44  58
ATOM     58  C   UNL A   1      45.977  28.466  31.212  1.00  0.00    -0.014 A 
ATOM     59  C   UNL A   1      46.180  27.759  32.412  1.00  0.00     0.010 A 
ATOM     60  C   UNL A   1      47.004  28.489  30.252  1.00  0.00     0.010 A 
ATOM     61  C   UNL A   1      47.406  27.143  32.674  1.00  0.00     0.020 A 
ATOM     62  C   UNL A   1      48.222  27.845  30.497  1.00  0.00     0.020 A 
ATOM     63  C   UNL A   1      48.423  27.198  31.717  1.00  0.00     0.054 A 
BRANCH  63  64
ATOM     64  S   UNL A   1      50.009  26.401  32.088  1.00  0.00     0.124 S 
ATOM     65  O   UNL A   1      50.957  27.480  31.823  1.00  0.00    -0.237 OA
ATOM     66  O   UNL A   1      49.861  26.027  33.492  1.00  0.00    -0.237 OA
ATOM     67  O   UNL A   1      50.061  25.281  31.151  1.00  0.00    -0.744 OA
ENDBRANCH  63  64
ENDBRANCH  44  58
BRANCH  45  68
ATOM     68  C   UNL A   1      37.094  32.750  29.521  1.00  0.00    -0.014 A 
ATOM     69  C   UNL A   1      36.154  32.811  30.565  1.00  0.00     0.010 A 
ATOM     70  C   UNL A   1      36.773  33.325  28.279  1.00  0.00     0.010 A 
ATOM     71  C   UNL A   1      34.916  33.430  30.370  1.00  0.00     0.020 A 
ATOM     72  C   UNL A   1      35.547  33.969  28.087  1.00  0.00     0.020 A 
ATOM     73  C   UNL A   1      34.622  34.011  29.132  1.00  0.00     0.054 A 
BRANCH  73  74
ATOM     74  S   UNL A   1      33.040  34.877  28.926  1.00  0.00     0.124 S 
ATOM     75  O   UNL A   1      32.383  34.070  27.904  1.00  0.00    -0.237 OA
ATOM     76  O   UNL A   1      32.461  34.798  30.265  1.00  0.00    -0.237 OA
ATOM     77  O   UNL A   1      33.439  36.219  28.508  1.00  0.00    -0.744 OA
ENDBRANCH  73  74
ENDBRANCH  45  68
BRANCH  57  78
ATOM     78  C   UNL A   1      43.044  34.954  32.437  1.00  0.00    -0.014 A 
ATOM     79  C   UNL A   1      43.640  35.954  31.649  1.00  0.00     0.010 A 
ATOM     80  C   UNL A   1      42.774  35.216  33.793  1.00  0.00     0.010 A 
ATOM     81  C   UNL A   1      43.986  37.184  32.215  1.00  0.00     0.020 A 
ATOM     82  C   UNL A   1      43.094  36.453  34.355  1.00  0.00     0.020 A 
ATOM     83  C   UNL A   1      43.711  37.425  33.565  1.00  0.00     0.054 A 
BRANCH  83  84
ATOM     84  S   UNL A   1      44.125  39.046  34.264  1.00  0.00     0.124 S 
ATOM     85  O   UNL A   1      42.996  39.863  33.824  1.00  0.00    -0.237 OA
ATOM     86  O   UNL A   1      44.182  38.773  35.697  1.00  0.00    -0.237 OA
ATOM     87  O   UNL A   1      45.408  39.373  33.646  1.00  0.00    -0.744 OA
ENDBRANCH  83  84
ENDBRANCH  57  78
ENDBRANCH  31  32
ENDBRANCH  23  26
ENDBRANCH  21  22
ENDBRANCH  20  21
ENDBRANCH   1  20
TORSDOF 18
ENDMDL
