MODEL 1
REMARK VINA RESULT:     -10.5      0.000      0.000
REMARK SMILES CC[C@@H]1CCCN1c1cc(C)c(N)c(C(=O)NCCCNC(=O)c2ccc(-c3c4nc(c(-c5ccc(S(=O)(=O)[O-])cc5)c5ccc([nH]5)c(-c5ccc(S(=O)(=O)[O-])cc5)c5nc(c(-c6ccc(S(=O)(=O)[O-])cc6)c6ccc3[nH]6)C=C5)C=C4)cc2)c1
REMARK SMILES IDX 19 1 18 2 17 3 15 4 16 5 14 7 8 8 9 9 84 10 10 11 11 12
REMARK SMILES IDX 12 13 7 14 3 15 4 16 5 17 6 18 2 19 1 20 13 21 20 24 21 25
REMARK SMILES IDX 22 26 23 28 24 29 25 30 83 31 26 32 82 33 27 34 28 35 29 36
REMARK SMILES IDX 76 37 30 38 81 39 75 40 77 41 31 42 80 43 74 44 73 45 32 47
REMARK SMILES IDX 62 48 43 49 61 50 44 51 47 52 60 53 78 54 45 55 46 56 59 58
REMARK SMILES IDX 79 59 48 60 33 61 34 62 42 63 35 64 41 65 36 66 37 67 38 68
REMARK SMILES IDX 39 69 40 70 63 71 64 72 72 73 65 74 71 75 66 76 67 77 68 78
REMARK SMILES IDX 69 79 70 80 49 81 50 82 58 83 51 84 57 85 52 86 53 87 54 88
REMARK SMILES IDX 55 89 56 90
REMARK H PARENT 17 6 13 22 13 23 21 27 77 46 47 57
REMARK Flexibility Score: inf
ROOT
ATOM      1  C   UNL A   1      35.208  23.168  25.621  1.00  0.00     0.042 C 
ENDROOT
BRANCH   1   2
ATOM      2  C   UNL A   1      34.411  23.290  26.922  1.00  0.00     0.118 C 
BRANCH   2   3
ATOM      3  N   UNL A   1      32.989  23.342  26.645  1.00  0.00    -0.352 N 
ATOM      4  C   UNL A   1      32.161  24.280  26.081  1.00  0.00     0.253 C 
ATOM      5  O   UNL A   1      30.963  23.980  26.061  1.00  0.00    -0.269 OA
ATOM      6  H   UNL A   1      32.513  22.527  26.922  1.00  0.00     0.163 HD
BRANCH   4   7
ATOM      7  C   UNL A   1      32.620  25.573  25.467  1.00  0.00     0.065 A 
ATOM      8  C   UNL A   1      33.335  27.904  25.674  1.00  0.00     0.038 A 
ATOM      9  C   UNL A   1      33.567  27.929  24.299  1.00  0.00     0.031 A 
ATOM     10  C   UNL A   1      32.808  26.737  26.226  1.00  0.00     0.042 A 
ATOM     11  C   UNL A   1      33.298  26.824  23.480  1.00  0.00    -0.025 A 
ATOM     12  C   UNL A   1      33.532  26.952  22.000  1.00  0.00     0.046 C 
ATOM     13  C   UNL A   1      32.822  25.631  24.059  1.00  0.00     0.047 A 
BRANCH   8  14
ATOM     14  N   UNL A   1      33.659  28.996  26.435  1.00  0.00    -0.369 N 
ATOM     15  C   UNL A   1      32.693  29.957  26.971  1.00  0.00     0.082 C 
ATOM     16  C   UNL A   1      33.636  31.092  27.392  1.00  0.00     0.027 C 
ATOM     17  C   UNL A   1      34.835  30.350  27.977  1.00  0.00     0.024 C 
ATOM     18  C   UNL A   1      34.903  29.030  27.200  1.00  0.00     0.117 C 
BRANCH  15  19
ATOM     19  C   UNL A   1      31.619  30.399  25.979  1.00  0.00     0.021 C 
ATOM     20  C   UNL A   1      31.139  31.819  26.244  1.00  0.00     0.006 C 
ENDBRANCH  15  19
ENDBRANCH   8  14
BRANCH  13  21
ATOM     21  N   UNL A   1      32.710  24.486  23.255  1.00  0.00    -0.398 N 
ATOM     22  H   UNL A   1      33.503  23.928  23.080  1.00  0.00     0.156 HD
ATOM     23  H   UNL A   1      31.840  24.242  22.865  1.00  0.00     0.156 HD
ENDBRANCH  13  21
ENDBRANCH   4   7
ENDBRANCH   2   3
ENDBRANCH   1   2
BRANCH   1  24
ATOM     24  C   UNL A   1      36.586  23.822  25.708  1.00  0.00     0.118 C 
BRANCH  24  25
ATOM     25  N   UNL A   1      37.637  22.834  25.916  1.00  0.00    -0.352 N 
ATOM     26  C   UNL A   1      38.931  23.004  26.340  1.00  0.00     0.251 C 
ATOM     27  H   UNL A   1      37.379  21.904  25.725  1.00  0.00     0.163 HD
ATOM     28  O   UNL A   1      39.738  22.090  26.202  1.00  0.00    -0.269 OA
BRANCH  26  29
ATOM     29  C   UNL A   1      39.351  24.280  26.956  1.00  0.00     0.039 A 
ATOM     30  C   UNL A   1      38.992  24.544  28.282  1.00  0.00     0.014 A 
ATOM     31  C   UNL A   1      40.058  25.232  26.218  1.00  0.00     0.014 A 
ATOM     32  C   UNL A   1      39.392  25.739  28.883  1.00  0.00     0.010 A 
ATOM     33  C   UNL A   1      40.513  26.390  26.837  1.00  0.00     0.010 A 
ATOM     34  C   UNL A   1      40.182  26.659  28.174  1.00  0.00    -0.014 A 
BRANCH  34  35
ATOM     35  C   UNL A   1      40.673  27.911  28.802  1.00  0.00     0.031 A 
ATOM     36  C   UNL A   1      42.068  27.971  29.363  1.00  0.00     0.074 A 
ATOM     37  C   UNL A   1      39.840  28.961  28.940  1.00  0.00     0.049 A 
ATOM     38  N   UNL A   1      42.639  28.922  30.056  1.00  0.00    -0.248 NA
ATOM     39  C   UNL A   1      42.925  26.794  29.140  1.00  0.00     0.031 C 
ATOM     40  C   UNL A   1      38.457  29.014  28.456  1.00  0.00     0.029 A 
ATOM     41  N   UNL A   1      40.027  30.180  29.541  1.00  0.00    -0.354 N 
ATOM     42  C   UNL A   1      43.909  28.452  30.368  1.00  0.00     0.074 A 
ATOM     43  C   UNL A   1      44.011  27.114  29.828  1.00  0.00     0.031 C 
ATOM     44  C   UNL A   1      37.929  30.209  28.765  1.00  0.00     0.029 A 
ATOM     45  C   UNL A   1      38.913  30.986  29.511  1.00  0.00     0.049 A 
ATOM     46  H   UNL A   1      40.877  30.450  29.957  1.00  0.00     0.167 HD
ATOM     47  C   UNL A   1      44.908  29.085  31.030  1.00  0.00     0.031 A 
ATOM     48  C   UNL A   1      38.702  32.209  30.039  1.00  0.00     0.031 A 
ATOM     49  C   UNL A   1      44.802  30.421  31.555  1.00  0.00     0.049 A 
ATOM     50  C   UNL A   1      39.817  32.881  30.792  1.00  0.00     0.074 A 
ATOM     51  C   UNL A   1      45.767  31.169  32.205  1.00  0.00     0.029 A 
ATOM     52  N   UNL A   1      43.661  31.208  31.489  1.00  0.00    -0.354 N 
ATOM     53  N   UNL A   1      41.028  32.439  31.038  1.00  0.00    -0.248 NA
ATOM     54  C   UNL A   1      39.542  34.220  31.333  1.00  0.00     0.031 C 
ATOM     55  C   UNL A   1      45.197  32.389  32.576  1.00  0.00     0.029 A 
ATOM     56  C   UNL A   1      43.894  32.427  32.101  1.00  0.00     0.049 A 
ATOM     57  H   UNL A   1      42.812  30.940  31.069  1.00  0.00     0.167 HD
ATOM     58  C   UNL A   1      41.670  33.462  31.728  1.00  0.00     0.074 A 
ATOM     59  C   UNL A   1      40.716  34.544  31.857  1.00  0.00     0.031 C 
ATOM     60  C   UNL A   1      42.938  33.501  32.205  1.00  0.00     0.031 A 
BRANCH  47  61
ATOM     61  C   UNL A   1      46.200  28.338  31.228  1.00  0.00    -0.014 A 
ATOM     62  C   UNL A   1      47.262  28.467  30.315  1.00  0.00     0.010 A 
ATOM     63  C   UNL A   1      46.374  27.528  32.366  1.00  0.00     0.010 A 
ATOM     64  C   UNL A   1      48.456  27.768  30.512  1.00  0.00     0.020 A 
ATOM     65  C   UNL A   1      47.578  26.851  32.583  1.00  0.00     0.020 A 
ATOM     66  C   UNL A   1      48.606  26.963  31.644  1.00  0.00     0.054 A 
BRANCH  66  67
ATOM     67  S   UNL A   1      50.175  26.086  31.885  1.00  0.00     0.124 S 
ATOM     68  O   UNL A   1      50.629  25.899  30.509  1.00  0.00    -0.237 OA
ATOM     69  O   UNL A   1      50.952  27.035  32.679  1.00  0.00    -0.237 OA
ATOM     70  O   UNL A   1      49.787  24.864  32.584  1.00  0.00    -0.744 OA
ENDBRANCH  66  67
ENDBRANCH  47  61
BRANCH  48  71
ATOM     71  C   UNL A   1      37.384  32.878  29.861  1.00  0.00    -0.014 A 
ATOM     72  C   UNL A   1      36.405  32.800  30.868  1.00  0.00     0.010 A 
ATOM     73  C   UNL A   1      37.103  33.605  28.691  1.00  0.00     0.010 A 
ATOM     74  C   UNL A   1      35.164  33.420  30.699  1.00  0.00     0.020 A 
ATOM     75  C   UNL A   1      35.873  34.252  28.530  1.00  0.00     0.020 A 
ATOM     76  C   UNL A   1      34.907  34.144  29.532  1.00  0.00     0.054 A 
BRANCH  76  77
ATOM     77  S   UNL A   1      33.305  34.979  29.355  1.00  0.00     0.124 S 
ATOM     78  O   UNL A   1      33.705  36.321  28.947  1.00  0.00    -0.237 OA
ATOM     79  O   UNL A   1      32.642  34.174  28.332  1.00  0.00    -0.237 OA
ATOM     80  O   UNL A   1      32.719  34.878  30.691  1.00  0.00    -0.744 OA
ENDBRANCH  76  77
ENDBRANCH  48  71
BRANCH  60  81
ATOM     81  C   UNL A   1      43.400  34.773  32.863  1.00  0.00    -0.014 A 
ATOM     82  C   UNL A   1      43.943  35.831  32.112  1.00  0.00     0.010 A 
ATOM     83  C   UNL A   1      43.200  34.942  34.246  1.00  0.00     0.010 A 
ATOM     84  C   UNL A   1      44.289  37.032  32.738  1.00  0.00     0.020 A 
ATOM     85  C   UNL A   1      43.519  36.151  34.869  1.00  0.00     0.020 A 
ATOM     86  C   UNL A   1      44.070  37.186  34.111  1.00  0.00     0.054 A 
BRANCH  86  87
ATOM     87  S   UNL A   1      44.455  38.782  34.883  1.00  0.00     0.124 S 
ATOM     88  O   UNL A   1      45.871  38.938  34.568  1.00  0.00    -0.237 OA
ATOM     89  O   UNL A   1      43.551  39.697  34.190  1.00  0.00    -0.237 OA
ATOM     90  O   UNL A   1      44.150  38.566  36.296  1.00  0.00    -0.744 OA
ENDBRANCH  86  87
ENDBRANCH  60  81
ENDBRANCH  34  35
ENDBRANCH  26  29
ENDBRANCH  24  25
ENDBRANCH   1  24
TORSDOF 16
ENDMDL
MODEL 2
REMARK VINA RESULT:     -10.2      3.561      9.273
REMARK SMILES CC[C@@H]1CCCN1c1cc(C)c(N)c(C(=O)NCCCNC(=O)c2ccc(-c3c4nc(c(-c5ccc(S(=O)(=O)[O-])cc5)c5ccc([nH]5)c(-c5ccc(S(=O)(=O)[O-])cc5)c5nc(c(-c6ccc(S(=O)(=O)[O-])cc6)c6ccc3[nH]6)C=C5)C=C4)cc2)c1
REMARK SMILES IDX 19 1 18 2 17 3 15 4 16 5 14 7 8 8 9 9 84 10 10 11 11 12
REMARK SMILES IDX 12 13 7 14 3 15 4 16 5 17 6 18 2 19 1 20 13 21 20 24 21 25
REMARK SMILES IDX 22 26 23 28 24 29 25 30 83 31 26 32 82 33 27 34 28 35 29 36
REMARK SMILES IDX 76 37 30 38 81 39 75 40 77 41 31 42 80 43 74 44 73 45 32 47
REMARK SMILES IDX 62 48 43 49 61 50 44 51 47 52 60 53 78 54 45 55 46 56 59 58
REMARK SMILES IDX 79 59 48 60 33 61 34 62 42 63 35 64 41 65 36 66 37 67 38 68
REMARK SMILES IDX 39 69 40 70 63 71 64 72 72 73 65 74 71 75 66 76 67 77 68 78
REMARK SMILES IDX 69 79 70 80 49 81 50 82 58 83 51 84 57 85 52 86 53 87 54 88
REMARK SMILES IDX 55 89 56 90
REMARK H PARENT 17 6 13 22 13 23 21 27 77 46 47 57
REMARK Flexibility Score: inf
ROOT
ATOM      1  C   UNL A   1      39.313  22.818  26.548  1.00  0.00     0.042 C 
ENDROOT
BRANCH   1   2
ATOM      2  C   UNL A   1      38.192  23.798  26.193  1.00  0.00     0.118 C 
BRANCH   2   3
ATOM      3  N   UNL A   1      37.696  23.540  24.856  1.00  0.00    -0.352 N 
ATOM      4  C   UNL A   1      36.445  23.501  24.294  1.00  0.00     0.253 C 
ATOM      5  O   UNL A   1      36.413  23.187  23.099  1.00  0.00    -0.269 OA
ATOM      6  H   UNL A   1      38.413  23.353  24.209  1.00  0.00     0.163 HD
BRANCH   4   7
ATOM      7  C   UNL A   1      35.170  23.853  25.010  1.00  0.00     0.065 A 
ATOM      8  C   UNL A   1      33.200  25.276  25.296  1.00  0.00     0.038 A 
ATOM      9  C   UNL A   1      32.756  24.417  26.301  1.00  0.00     0.031 A 
ATOM     10  C   UNL A   1      34.435  25.008  24.705  1.00  0.00     0.042 A 
ATOM     11  C   UNL A   1      33.505  23.306  26.713  1.00  0.00    -0.025 A 
ATOM     12  C   UNL A   1      32.975  22.459  27.837  1.00  0.00     0.046 C 
ATOM     13  C   UNL A   1      34.723  23.012  26.067  1.00  0.00     0.047 A 
BRANCH   8  14
ATOM     14  N   UNL A   1      32.408  26.320  24.899  1.00  0.00    -0.369 N 
ATOM     15  C   UNL A   1      32.677  27.730  25.191  1.00  0.00     0.082 C 
ATOM     16  C   UNL A   1      31.319  28.351  24.833  1.00  0.00     0.027 C 
ATOM     17  C   UNL A   1      30.905  27.584  23.580  1.00  0.00     0.024 C 
ATOM     18  C   UNL A   1      31.523  26.191  23.745  1.00  0.00     0.117 C 
BRANCH  15  19
ATOM     19  C   UNL A   1      33.109  28.010  26.629  1.00  0.00     0.021 C 
ATOM     20  C   UNL A   1      31.935  28.001  27.597  1.00  0.00     0.006 C 
ENDBRANCH  15  19
ENDBRANCH   8  14
BRANCH  13  21
ATOM     21  N   UNL A   1      35.380  21.812  26.378  1.00  0.00    -0.398 N 
ATOM     22  H   UNL A   1      36.010  21.414  25.733  1.00  0.00     0.156 HD
ATOM     23  H   UNL A   1      35.211  21.367  27.239  1.00  0.00     0.156 HD
ENDBRANCH  13  21
ENDBRANCH   4   7
ENDBRANCH   2   3
ENDBRANCH   1   2
BRANCH   1  24
ATOM     24  C   UNL A   1      40.557  23.516  27.098  1.00  0.00     0.118 C 
BRANCH  24  25
ATOM     25  N   UNL A   1      41.216  24.320  26.077  1.00  0.00    -0.352 N 
ATOM     26  C   UNL A   1      41.398  25.679  26.011  1.00  0.00     0.251 C 
ATOM     27  H   UNL A   1      41.589  23.812  25.321  1.00  0.00     0.163 HD
ATOM     28  O   UNL A   1      41.743  26.192  24.951  1.00  0.00    -0.269 OA
BRANCH  26  29
ATOM     29  C   UNL A   1      41.177  26.518  27.207  1.00  0.00     0.039 A 
ATOM     30  C   UNL A   1      40.145  26.184  28.089  1.00  0.00     0.014 A 
ATOM     31  C   UNL A   1      41.956  27.654  27.437  1.00  0.00     0.014 A 
ATOM     32  C   UNL A   1      39.932  26.960  29.231  1.00  0.00     0.010 A 
ATOM     33  C   UNL A   1      41.787  28.385  28.607  1.00  0.00     0.010 A 
ATOM     34  C   UNL A   1      40.771  28.049  29.515  1.00  0.00    -0.014 A 
BRANCH  34  35
ATOM     35  C   UNL A   1      40.609  28.858  30.749  1.00  0.00     0.031 A 
ATOM     36  C   UNL A   1      39.562  29.937  30.806  1.00  0.00     0.074 A 
ATOM     37  C   UNL A   1      41.457  28.678  31.781  1.00  0.00     0.049 A 
ATOM     38  N   UNL A   1      39.346  30.828  31.737  1.00  0.00    -0.248 NA
ATOM     39  C   UNL A   1      38.655  30.044  29.650  1.00  0.00     0.031 C 
ATOM     40  C   UNL A   1      42.528  27.679  31.834  1.00  0.00     0.029 A 
ATOM     41  N   UNL A   1      41.562  29.339  32.979  1.00  0.00    -0.354 N 
ATOM     42  C   UNL A   1      38.297  31.613  31.273  1.00  0.00     0.074 A 
ATOM     43  C   UNL A   1      37.949  31.122  29.959  1.00  0.00     0.031 C 
ATOM     44  C   UNL A   1      43.168  27.783  33.009  1.00  0.00     0.029 A 
ATOM     45  C   UNL A   1      42.590  28.885  33.771  1.00  0.00     0.049 A 
ATOM     46  H   UNL A   1      40.960  30.071  33.245  1.00  0.00     0.167 HD
ATOM     47  C   UNL A   1      37.668  32.641  31.894  1.00  0.00     0.031 A 
ATOM     48  C   UNL A   1      43.030  29.318  34.969  1.00  0.00     0.031 A 
ATOM     49  C   UNL A   1      38.014  33.117  33.207  1.00  0.00     0.049 A 
ATOM     50  C   UNL A   1      42.333  30.477  35.628  1.00  0.00     0.074 A 
ATOM     51  C   UNL A   1      37.414  34.124  33.943  1.00  0.00     0.029 A 
ATOM     52  N   UNL A   1      39.052  32.619  33.981  1.00  0.00    -0.354 N 
ATOM     53  N   UNL A   1      41.313  31.178  35.193  1.00  0.00    -0.248 NA
ATOM     54  C   UNL A   1      42.840  30.900  36.941  1.00  0.00     0.031 C 
ATOM     55  C   UNL A   1      38.119  34.268  35.141  1.00  0.00     0.029 A 
ATOM     56  C   UNL A   1      39.120  33.308  35.179  1.00  0.00     0.049 A 
ATOM     57  H   UNL A   1      39.652  31.885  33.717  1.00  0.00     0.167 HD
ATOM     58  C   UNL A   1      41.032  32.099  36.197  1.00  0.00     0.074 A 
ATOM     59  C   UNL A   1      41.986  31.863  37.260  1.00  0.00     0.031 C 
ATOM     60  C   UNL A   1      40.066  33.049  36.235  1.00  0.00     0.031 A 
BRANCH  47  61
ATOM     61  C   UNL A   1      36.546  33.322  31.157  1.00  0.00    -0.014 A 
ATOM     62  C   UNL A   1      35.246  33.368  31.694  1.00  0.00     0.010 A 
ATOM     63  C   UNL A   1      36.800  33.965  29.931  1.00  0.00     0.010 A 
ATOM     64  C   UNL A   1      34.214  34.005  31.000  1.00  0.00     0.020 A 
ATOM     65  C   UNL A   1      35.778  34.629  29.247  1.00  0.00     0.020 A 
ATOM     66  C   UNL A   1      34.486  34.630  29.779  1.00  0.00     0.054 A 
BRANCH  66  67
ATOM     67  S   UNL A   1      33.132  35.469  28.912  1.00  0.00     0.124 S 
ATOM     68  O   UNL A   1      32.345  35.998  30.024  1.00  0.00    -0.237 OA
ATOM     69  O   UNL A   1      33.835  36.467  28.110  1.00  0.00    -0.237 OA
ATOM     70  O   UNL A   1      32.492  34.400  28.150  1.00  0.00    -0.744 OA
ENDBRANCH  66  67
ENDBRANCH  47  61
BRANCH  48  71
ATOM     71  C   UNL A   1      44.182  28.643  35.627  1.00  0.00    -0.014 A 
ATOM     72  C   UNL A   1      45.496  29.090  35.396  1.00  0.00     0.010 A 
ATOM     73  C   UNL A   1      43.974  27.556  36.495  1.00  0.00     0.010 A 
ATOM     74  C   UNL A   1      46.579  28.452  36.006  1.00  0.00     0.020 A 
ATOM     75  C   UNL A   1      45.054  26.933  37.130  1.00  0.00     0.020 A 
ATOM     76  C   UNL A   1      46.351  27.378  36.871  1.00  0.00     0.054 A 
BRANCH  76  77
ATOM     77  S   UNL A   1      47.771  26.595  37.686  1.00  0.00     0.124 S 
ATOM     78  O   UNL A   1      47.182  25.366  38.206  1.00  0.00    -0.237 OA
ATOM     79  O   UNL A   1      48.715  26.429  36.584  1.00  0.00    -0.237 OA
ATOM     80  O   UNL A   1      48.169  27.575  38.694  1.00  0.00    -0.744 OA
ENDBRANCH  76  77
ENDBRANCH  48  71
BRANCH  60  81
ATOM     81  C   UNL A   1      39.944  33.874  37.487  1.00  0.00    -0.014 A 
ATOM     82  C   UNL A   1      40.647  35.081  37.641  1.00  0.00     0.010 A 
ATOM     83  C   UNL A   1      39.038  33.473  38.487  1.00  0.00     0.010 A 
ATOM     84  C   UNL A   1      40.454  35.867  38.781  1.00  0.00     0.020 A 
ATOM     85  C   UNL A   1      38.821  34.270  39.613  1.00  0.00     0.020 A 
ATOM     86  C   UNL A   1      39.538  35.460  39.757  1.00  0.00     0.054 A 
BRANCH  86  87
ATOM     87  S   UNL A   1      39.248  36.538  41.187  1.00  0.00     0.124 S 
ATOM     88  O   UNL A   1      38.293  35.756  41.967  1.00  0.00    -0.237 OA
ATOM     89  O   UNL A   1      40.582  36.664  41.767  1.00  0.00    -0.237 OA
ATOM     90  O   UNL A   1      38.714  37.763  40.595  1.00  0.00    -0.744 OA
ENDBRANCH  86  87
ENDBRANCH  60  81
ENDBRANCH  34  35
ENDBRANCH  26  29
ENDBRANCH  24  25
ENDBRANCH   1  24
TORSDOF 16
ENDMDL
MODEL 3
REMARK VINA RESULT:     -10.2      2.621      9.339
REMARK SMILES CC[C@@H]1CCCN1c1cc(C)c(N)c(C(=O)NCCCNC(=O)c2ccc(-c3c4nc(c(-c5ccc(S(=O)(=O)[O-])cc5)c5ccc([nH]5)c(-c5ccc(S(=O)(=O)[O-])cc5)c5nc(c(-c6ccc(S(=O)(=O)[O-])cc6)c6ccc3[nH]6)C=C5)C=C4)cc2)c1
REMARK SMILES IDX 19 1 18 2 17 3 15 4 16 5 14 7 8 8 9 9 84 10 10 11 11 12
REMARK SMILES IDX 12 13 7 14 3 15 4 16 5 17 6 18 2 19 1 20 13 21 20 24 21 25
REMARK SMILES IDX 22 26 23 28 24 29 25 30 83 31 26 32 82 33 27 34 28 35 29 36
REMARK SMILES IDX 76 37 30 38 81 39 75 40 77 41 31 42 80 43 74 44 73 45 32 47
REMARK SMILES IDX 62 48 43 49 61 50 44 51 47 52 60 53 78 54 45 55 46 56 59 58
REMARK SMILES IDX 79 59 48 60 33 61 34 62 42 63 35 64 41 65 36 66 37 67 38 68
REMARK SMILES IDX 39 69 40 70 63 71 64 72 72 73 65 74 71 75 66 76 67 77 68 78
REMARK SMILES IDX 69 79 70 80 49 81 50 82 58 83 51 84 57 85 52 86 53 87 54 88
REMARK SMILES IDX 55 89 56 90
REMARK H PARENT 17 6 13 22 13 23 21 27 77 46 47 57
REMARK Flexibility Score: inf
ROOT
ATOM      1  C   UNL A   1      32.801  27.971  26.073  1.00  0.00     0.042 C 
ENDROOT
BRANCH   1   2
ATOM      2  C   UNL A   1      31.982  27.002  26.928  1.00  0.00     0.118 C 
BRANCH   2   3
ATOM      3  N   UNL A   1      30.720  26.695  26.282  1.00  0.00    -0.352 N 
ATOM      4  C   UNL A   1      30.375  26.041  25.126  1.00  0.00     0.253 C 
ATOM      5  O   UNL A   1      29.167  26.024  24.871  1.00  0.00    -0.269 OA
ATOM      6  H   UNL A   1      29.941  27.030  26.781  1.00  0.00     0.163 HD
BRANCH   4   7
ATOM      7  C   UNL A   1      31.342  25.331  24.219  1.00  0.00     0.065 A 
ATOM      8  C   UNL A   1      32.893  23.494  23.764  1.00  0.00     0.038 A 
ATOM      9  C   UNL A   1      33.057  23.985  22.469  1.00  0.00     0.031 A 
ATOM     10  C   UNL A   1      32.079  24.213  24.638  1.00  0.00     0.042 A 
ATOM     11  C   UNL A   1      32.423  25.156  22.034  1.00  0.00    -0.025 A 
ATOM     12  C   UNL A   1      32.691  25.643  20.637  1.00  0.00     0.046 C 
ATOM     13  C   UNL A   1      31.555  25.842  22.908  1.00  0.00     0.047 A 
BRANCH   8  14
ATOM     14  N   UNL A   1      33.499  22.319  24.124  1.00  0.00    -0.369 N 
ATOM     15  C   UNL A   1      34.673  22.217  24.993  1.00  0.00     0.082 C 
ATOM     16  C   UNL A   1      35.084  20.761  24.733  1.00  0.00     0.027 C 
ATOM     17  C   UNL A   1      33.746  20.029  24.661  1.00  0.00     0.024 C 
ATOM     18  C   UNL A   1      32.759  21.060  24.103  1.00  0.00     0.117 C 
BRANCH  15  19
ATOM     19  C   UNL A   1      35.781  23.222  24.685  1.00  0.00     0.021 C 
ATOM     20  C   UNL A   1      36.621  22.805  23.486  1.00  0.00     0.006 C 
ENDBRANCH  15  19
ENDBRANCH   8  14
BRANCH  13  21
ATOM     21  N   UNL A   1      30.804  26.918  22.410  1.00  0.00    -0.398 N 
ATOM     22  H   UNL A   1      31.170  27.481  21.690  1.00  0.00     0.156 HD
ATOM     23  H   UNL A   1      29.913  27.109  22.782  1.00  0.00     0.156 HD
ENDBRANCH  13  21
ENDBRANCH   4   7
ENDBRANCH   2   3
ENDBRANCH   1   2
BRANCH   1  24
ATOM     24  C   UNL A   1      34.071  28.452  26.775  1.00  0.00     0.118 C 
BRANCH  24  25
ATOM     25  N   UNL A   1      33.939  29.827  27.238  1.00  0.00    -0.352 N 
ATOM     26  C   UNL A   1      34.762  30.562  28.054  1.00  0.00     0.251 C 
ATOM     27  H   UNL A   1      33.139  30.302  26.915  1.00  0.00     0.163 HD
ATOM     28  O   UNL A   1      34.352  31.612  28.540  1.00  0.00    -0.269 OA
BRANCH  26  29
ATOM     29  C   UNL A   1      36.132  30.092  28.347  1.00  0.00     0.039 A 
ATOM     30  C   UNL A   1      37.101  30.155  27.341  1.00  0.00     0.014 A 
ATOM     31  C   UNL A   1      36.451  29.550  29.594  1.00  0.00     0.014 A 
ATOM     32  C   UNL A   1      38.404  29.727  27.606  1.00  0.00     0.010 A 
ATOM     33  C   UNL A   1      37.763  29.187  29.878  1.00  0.00     0.010 A 
ATOM     34  C   UNL A   1      38.752  29.267  28.886  1.00  0.00    -0.014 A 
BRANCH  34  35
ATOM     35  C   UNL A   1      40.141  28.860  29.218  1.00  0.00     0.031 A 
ATOM     36  C   UNL A   1      41.083  29.853  29.843  1.00  0.00     0.074 A 
ATOM     37  C   UNL A   1      40.574  27.630  28.881  1.00  0.00     0.049 A 
ATOM     38  N   UNL A   1      42.361  29.732  30.093  1.00  0.00    -0.248 NA
ATOM     39  C   UNL A   1      40.521  31.163  30.211  1.00  0.00     0.031 C 
ATOM     40  C   UNL A   1      39.759  26.588  28.250  1.00  0.00     0.029 A 
ATOM     41  N   UNL A   1      41.811  27.050  29.008  1.00  0.00    -0.354 N 
ATOM     42  C   UNL A   1      42.759  30.953  30.626  1.00  0.00     0.074 A 
ATOM     43  C   UNL A   1      41.598  31.815  30.622  1.00  0.00     0.031 C 
ATOM     44  C   UNL A   1      40.514  25.494  28.061  1.00  0.00     0.029 A 
ATOM     45  C   UNL A   1      41.875  25.770  28.509  1.00  0.00     0.049 A 
ATOM     46  H   UNL A   1      42.581  27.509  29.415  1.00  0.00     0.167 HD
ATOM     47  C   UNL A   1      43.978  31.317  31.092  1.00  0.00     0.031 A 
ATOM     48  C   UNL A   1      42.916  24.920  28.408  1.00  0.00     0.031 A 
ATOM     49  C   UNL A   1      45.126  30.449  31.101  1.00  0.00     0.049 A 
ATOM     50  C   UNL A   1      44.266  25.356  28.908  1.00  0.00     0.074 A 
ATOM     51  C   UNL A   1      46.395  30.706  31.588  1.00  0.00     0.029 A 
ATOM     52  N   UNL A   1      45.143  29.155  30.600  1.00  0.00    -0.354 N 
ATOM     53  N   UNL A   1      44.613  26.499  29.450  1.00  0.00    -0.248 NA
ATOM     54  C   UNL A   1      45.364  24.386  28.790  1.00  0.00     0.031 C 
ATOM     55  C   UNL A   1      47.193  29.586  31.337  1.00  0.00     0.029 A 
ATOM     56  C   UNL A   1      46.404  28.608  30.752  1.00  0.00     0.049 A 
ATOM     57  H   UNL A   1      44.372  28.695  30.196  1.00  0.00     0.167 HD
ATOM     58  C   UNL A   1      45.959  26.371  29.774  1.00  0.00     0.074 A 
ATOM     59  C   UNL A   1      46.362  25.040  29.370  1.00  0.00     0.031 C 
ATOM     60  C   UNL A   1      46.784  27.273  30.359  1.00  0.00     0.031 A 
BRANCH  47  61
ATOM     61  C   UNL A   1      44.134  32.716  31.625  1.00  0.00    -0.014 A 
ATOM     62  C   UNL A   1      44.453  33.788  30.772  1.00  0.00     0.010 A 
ATOM     63  C   UNL A   1      43.917  32.974  32.992  1.00  0.00     0.010 A 
ATOM     64  C   UNL A   1      44.593  35.083  31.280  1.00  0.00     0.020 A 
ATOM     65  C   UNL A   1      44.026  34.272  33.500  1.00  0.00     0.020 A 
ATOM     66  C   UNL A   1      44.381  35.316  32.642  1.00  0.00     0.054 A 
BRANCH  66  67
ATOM     67  S   UNL A   1      44.547  37.009  33.269  1.00  0.00     0.124 S 
ATOM     68  O   UNL A   1      45.342  37.642  32.218  1.00  0.00    -0.237 OA
ATOM     69  O   UNL A   1      43.159  37.454  33.360  1.00  0.00    -0.237 OA
ATOM     70  O   UNL A   1      45.230  36.841  34.549  1.00  0.00    -0.744 OA
ENDBRANCH  66  67
ENDBRANCH  47  61
BRANCH  48  71
ATOM     71  C   UNL A   1      42.717  23.568  27.818  1.00  0.00    -0.014 A 
ATOM     72  C   UNL A   1      43.197  23.276  26.528  1.00  0.00     0.010 A 
ATOM     73  C   UNL A   1      42.057  22.561  28.545  1.00  0.00     0.010 A 
ATOM     74  C   UNL A   1      43.003  22.010  25.970  1.00  0.00     0.020 A 
ATOM     75  C   UNL A   1      41.887  21.283  28.001  1.00  0.00     0.020 A 
ATOM     76  C   UNL A   1      42.351  21.020  26.711  1.00  0.00     0.054 A 
BRANCH  76  77
ATOM     77  S   UNL A   1      42.152  19.370  25.982  1.00  0.00     0.124 S 
ATOM     78  O   UNL A   1      42.944  19.479  24.762  1.00  0.00    -0.237 OA
ATOM     79  O   UNL A   1      42.699  18.499  27.020  1.00  0.00    -0.237 OA
ATOM     80  O   UNL A   1      40.708  19.257  25.785  1.00  0.00    -0.744 OA
ENDBRANCH  76  77
ENDBRANCH  48  71
BRANCH  60  81
ATOM     81  C   UNL A   1      48.194  26.843  30.657  1.00  0.00    -0.014 A 
ATOM     82  C   UNL A   1      49.249  27.120  29.770  1.00  0.00     0.010 A 
ATOM     83  C   UNL A   1      48.478  26.229  31.892  1.00  0.00     0.010 A 
ATOM     84  C   UNL A   1      50.562  26.780  30.109  1.00  0.00     0.020 A 
ATOM     85  C   UNL A   1      49.792  25.913  32.246  1.00  0.00     0.020 A 
ATOM     86  C   UNL A   1      50.825  26.184  31.347  1.00  0.00     0.054 A 
BRANCH  86  87
ATOM     87  S   UNL A   1      52.546  25.825  31.795  1.00  0.00     0.124 S 
ATOM     88  O   UNL A   1      52.458  24.442  32.255  1.00  0.00    -0.237 OA
ATOM     89  O   UNL A   1      53.253  26.025  30.532  1.00  0.00    -0.237 OA
ATOM     90  O   UNL A   1      52.847  26.809  32.832  1.00  0.00    -0.744 OA
ENDBRANCH  86  87
ENDBRANCH  60  81
ENDBRANCH  34  35
ENDBRANCH  26  29
ENDBRANCH  24  25
ENDBRANCH   1  24
TORSDOF 16
ENDMDL
