MODEL 1
REMARK VINA RESULT:     -14.9      0.000      0.000
REMARK SMILES O=C(NCCCNC(=O)[C@H]1CC=CC[C@H]1C(=O)N[C@@H]1CCN(c2cccc(Cl)c2)C1)c1ccc(-c2c3nc(c(-c4ccc(S(=O)(=O)[O-])cc4)c4ccc([nH]4)c(-c4ccc(S(=O)(=O)[O-])cc4)c4nc(c(-c5ccc(S(=O)(=O)[O-])cc5)c5ccc2[nH]5)C=C4)C=C3)cc1
REMARK SMILES IDX 5 1 4 2 3 3 1 4 2 5 31 7 32 8 90 9 33 10 89 11 34 12 35 13
REMARK SMILES IDX 36 14 83 15 37 16 88 17 82 18 84 19 38 20 87 21 81 22 80 23
REMARK SMILES IDX 39 25 69 26 50 27 68 28 51 29 54 30 67 31 85 32 52 33 53 34
REMARK SMILES IDX 66 36 86 37 55 38 40 39 41 40 49 41 42 42 48 43 43 44 44 45
REMARK SMILES IDX 45 46 46 47 47 48 70 49 71 50 79 51 72 52 78 53 73 54 74 55
REMARK SMILES IDX 75 56 76 57 77 58 56 59 57 60 65 61 58 62 64 63 59 64 60 65
REMARK SMILES IDX 61 66 62 67 63 68 6 69 7 70 8 71 9 73 10 74 11 75 15 76
REMARK SMILES IDX 12 77 14 78 13 79 16 80 17 81 18 82 19 84 20 85 30 86 21 87
REMARK SMILES IDX 22 88 23 89 24 90 29 91 25 92 27 93 26 94 28 95
REMARK H PARENT 3 6 84 24 54 35 7 72 18 83
REMARK Flexibility Score: inf
ROOT
ATOM      1  C   UNL A   1      34.584  29.760  26.836  1.00  0.00     0.042 C 
ENDROOT
BRANCH   1   2
ATOM      2  C   UNL A   1      35.512  29.326  27.968  1.00  0.00     0.118 C 
BRANCH   2   3
ATOM      3  N   UNL A   1      35.339  30.052  29.214  1.00  0.00    -0.352 N 
ATOM      4  O   UNL A   1      36.115  30.862  31.186  1.00  0.00    -0.269 OA
ATOM      5  C   UNL A   1      36.349  30.321  30.113  1.00  0.00     0.251 C 
ATOM      6  H   UNL A   1      34.434  30.375  29.433  1.00  0.00     0.163 HD
BRANCH   5   7
ATOM      7  C   UNL A   1      37.723  29.897  29.755  1.00  0.00     0.039 A 
ATOM      8  C   UNL A   1      38.201  30.088  28.454  1.00  0.00     0.014 A 
ATOM      9  C   UNL A   1      38.505  29.240  30.708  1.00  0.00     0.014 A 
ATOM     10  C   UNL A   1      39.430  29.555  28.083  1.00  0.00     0.010 A 
ATOM     11  C   UNL A   1      39.775  28.780  30.354  1.00  0.00     0.010 A 
ATOM     12  C   UNL A   1      40.250  28.941  29.042  1.00  0.00    -0.014 A 
BRANCH  12  13
ATOM     13  C   UNL A   1      41.661  28.627  28.709  1.00  0.00     0.031 A 
ATOM     14  C   UNL A   1      42.726  29.686  28.706  1.00  0.00     0.074 A 
ATOM     15  C   UNL A   1      41.952  27.359  28.352  1.00  0.00     0.049 A 
ATOM     16  N   UNL A   1      43.976  29.588  28.334  1.00  0.00    -0.248 NA
ATOM     17  C   UNL A   1      42.337  31.029  29.164  1.00  0.00     0.031 C 
ATOM     18  C   UNL A   1      40.986  26.255  28.310  1.00  0.00     0.029 A 
ATOM     19  N   UNL A   1      43.129  26.780  27.958  1.00  0.00    -0.354 N 
ATOM     20  C   UNL A   1      44.520  30.858  28.482  1.00  0.00     0.074 A 
ATOM     21  C   UNL A   1      43.458  31.714  28.968  1.00  0.00     0.031 C 
ATOM     22  C   UNL A   1      41.615  25.130  27.949  1.00  0.00     0.029 A 
ATOM     23  C   UNL A   1      43.006  25.445  27.653  1.00  0.00     0.049 A 
ATOM     24  H   UNL A   1      43.980  27.272  27.897  1.00  0.00     0.167 HD
ATOM     25  C   UNL A   1      45.789  31.266  28.229  1.00  0.00     0.031 A 
ATOM     26  C   UNL A   1      43.898  24.571  27.154  1.00  0.00     0.031 A 
ATOM     27  C   UNL A   1      46.830  30.394  27.742  1.00  0.00     0.049 A 
ATOM     28  C   UNL A   1      45.286  25.057  26.859  1.00  0.00     0.074 A 
ATOM     29  C   UNL A   1      48.156  30.697  27.482  1.00  0.00     0.029 A 
ATOM     30  N   UNL A   1      46.664  29.049  27.437  1.00  0.00    -0.354 N 
ATOM     31  N   UNL A   1      45.787  26.258  27.024  1.00  0.00    -0.248 NA
ATOM     32  C   UNL A   1      46.226  24.074  26.309  1.00  0.00     0.031 C 
ATOM     33  C   UNL A   1      48.775  29.552  26.969  1.00  0.00     0.029 A 
ATOM     34  C   UNL A   1      47.854  28.516  26.970  1.00  0.00     0.049 A 
ATOM     35  H   UNL A   1      45.822  28.549  27.538  1.00  0.00     0.167 HD
ATOM     36  C   UNL A   1      47.110  26.172  26.614  1.00  0.00     0.074 A 
ATOM     37  C   UNL A   1      47.335  24.796  26.216  1.00  0.00     0.031 C 
ATOM     38  C   UNL A   1      48.055  27.145  26.572  1.00  0.00     0.031 A 
BRANCH  25  39
ATOM     39  C   UNL A   1      46.118  32.723  28.441  1.00  0.00    -0.014 A 
ATOM     40  C   UNL A   1      45.947  33.671  27.416  1.00  0.00     0.010 A 
ATOM     41  C   UNL A   1      46.556  33.163  29.705  1.00  0.00     0.010 A 
ATOM     42  C   UNL A   1      46.243  35.020  27.638  1.00  0.00     0.020 A 
ATOM     43  C   UNL A   1      46.827  34.515  29.940  1.00  0.00     0.020 A 
ATOM     44  C   UNL A   1      46.685  35.434  28.899  1.00  0.00     0.054 A 
BRANCH  44  45
ATOM     45  S   UNL A   1      47.042  37.192  29.164  1.00  0.00     0.124 S 
ATOM     46  O   UNL A   1      46.926  37.309  30.616  1.00  0.00    -0.237 OA
ATOM     47  O   UNL A   1      48.395  37.329  28.631  1.00  0.00    -0.237 OA
ATOM     48  O   UNL A   1      46.003  37.878  28.400  1.00  0.00    -0.744 OA
ENDBRANCH  44  45
ENDBRANCH  25  39
BRANCH  26  49
ATOM     49  C   UNL A   1      43.489  23.166  26.891  1.00  0.00    -0.014 A 
ATOM     50  C   UNL A   1      43.590  22.623  25.600  1.00  0.00     0.010 A 
ATOM     51  C   UNL A   1      43.038  22.348  27.944  1.00  0.00     0.010 A 
ATOM     52  C   UNL A   1      43.236  21.292  25.363  1.00  0.00     0.020 A 
ATOM     53  C   UNL A   1      42.714  21.008  27.718  1.00  0.00     0.020 A 
ATOM     54  C   UNL A   1      42.803  20.491  26.425  1.00  0.00     0.054 A 
BRANCH  54  55
ATOM     55  S   UNL A   1      42.404  18.752  26.103  1.00  0.00     0.124 S 
ATOM     56  O   UNL A   1      41.004  18.832  25.701  1.00  0.00    -0.237 OA
ATOM     57  O   UNL A   1      43.348  18.401  25.044  1.00  0.00    -0.237 OA
ATOM     58  O   UNL A   1      42.653  18.100  27.388  1.00  0.00    -0.744 OA
ENDBRANCH  54  55
ENDBRANCH  26  49
BRANCH  38  59
ATOM     59  C   UNL A   1      49.426  26.739  26.106  1.00  0.00    -0.014 A 
ATOM     60  C   UNL A   1      49.847  26.969  24.784  1.00  0.00     0.010 A 
ATOM     61  C   UNL A   1      50.318  26.148  27.019  1.00  0.00     0.010 A 
ATOM     62  C   UNL A   1      51.125  26.581  24.373  1.00  0.00     0.020 A 
ATOM     63  C   UNL A   1      51.607  25.787  26.621  1.00  0.00     0.020 A 
ATOM     64  C   UNL A   1      51.997  25.993  25.295  1.00  0.00     0.054 A 
BRANCH  64  65
ATOM     65  S   UNL A   1      53.664  25.535  24.750  1.00  0.00     0.124 S 
ATOM     66  O   UNL A   1      53.645  24.082  24.898  1.00  0.00    -0.237 OA
ATOM     67  O   UNL A   1      53.697  26.026  23.374  1.00  0.00    -0.237 OA
ATOM     68  O   UNL A   1      54.542  26.244  25.679  1.00  0.00    -0.744 OA
ENDBRANCH  64  65
ENDBRANCH  38  59
ENDBRANCH  12  13
ENDBRANCH   5   7
ENDBRANCH   2   3
ENDBRANCH   1   2
BRANCH   1  69
ATOM     69  C   UNL A   1      32.960  29.236  26.772  1.00  0.00     0.117 C 
BRANCH  69  70
ATOM     70  N   UNL A   1      31.237  29.920  25.751  1.00  0.00    -0.356 N 
ATOM     71  C   UNL A   1      30.685  29.676  24.197  1.00  0.00     0.224 C 
ATOM     72  H   UNL A   1      30.649  30.489  26.298  1.00  0.00     0.163 HD
ATOM     73  O   UNL A   1      29.787  30.377  23.744  1.00  0.00    -0.275 OA
BRANCH  71  74
ATOM     74  C   UNL A   1      31.440  28.240  23.312  1.00  0.00     0.095 C 
ATOM     75  C   UNL A   1      32.736  28.733  22.666  1.00  0.00     0.041 C 
ATOM     76  C   UNL A   1      31.607  26.517  23.932  1.00  0.00     0.095 C 
ATOM     77  C   UNL A   1      33.948  28.410  23.469  1.00  0.00    -0.030 C 
ATOM     78  C   UNL A   1      33.063  26.215  24.390  1.00  0.00     0.041 C 
ATOM     79  C   UNL A   1      34.084  27.310  24.222  1.00  0.00    -0.030 C 
BRANCH  76  80
ATOM     80  C   UNL A   1      30.423  25.497  24.964  1.00  0.00     0.224 C 
ATOM     81  O   UNL A   1      29.576  26.095  25.640  1.00  0.00    -0.275 OA
ATOM     82  N   UNL A   1      30.382  23.938  25.027  1.00  0.00    -0.351 N 
ATOM     83  H   UNL A   1      29.758  23.549  25.682  1.00  0.00     0.163 HD
BRANCH  82  84
ATOM     84  C   UNL A   1      31.302  22.800  24.084  1.00  0.00     0.103 C 
ATOM     85  C   UNL A   1      31.389  22.262  25.588  1.00  0.00     0.048 C 
ATOM     86  C   UNL A   1      33.216  22.840  23.346  1.00  0.00     0.141 C 
ATOM     87  C   UNL A   1      33.258  22.743  26.460  1.00  0.00     0.119 C 
ATOM     88  N   UNL A   1      34.446  22.923  24.894  1.00  0.00    -0.369 N 
BRANCH  88  89
ATOM     89  C   UNL A   1      35.752  22.639  25.254  1.00  0.00     0.038 A 
ATOM     90  C   UNL A   1      36.651  23.546  25.799  1.00  0.00     0.026 A 
ATOM     91  C   UNL A   1      36.257  21.360  24.929  1.00  0.00     0.046 A 
ATOM     92  C   UNL A   1      38.004  23.185  25.979  1.00  0.00     0.004 A 
ATOM     93  C   UNL A   1      37.572  20.979  25.162  1.00  0.00     0.043 A 
ATOM     94  C   UNL A   1      38.463  21.898  25.673  1.00  0.00     0.020 A 
ATOM     95  Cl  UNL A   1      38.065  19.375  24.780  1.00  0.00    -0.084 Cl
ENDBRANCH  88  89
ENDBRANCH  82  84
ENDBRANCH  76  80
ENDBRANCH  71  74
ENDBRANCH  69  70
ENDBRANCH   1  69
TORSDOF 16
ENDMDL
MODEL 2
REMARK VINA RESULT:     -14.6      6.303     12.016
REMARK SMILES O=C(NCCCNC(=O)[C@H]1CC=CC[C@H]1C(=O)N[C@@H]1CCN(c2cccc(Cl)c2)C1)c1ccc(-c2c3nc(c(-c4ccc(S(=O)(=O)[O-])cc4)c4ccc([nH]4)c(-c4ccc(S(=O)(=O)[O-])cc4)c4nc(c(-c5ccc(S(=O)(=O)[O-])cc5)c5ccc2[nH]5)C=C4)C=C3)cc1
REMARK SMILES IDX 5 1 4 2 3 3 1 4 2 5 31 7 32 8 90 9 33 10 89 11 34 12 35 13
REMARK SMILES IDX 36 14 83 15 37 16 88 17 82 18 84 19 38 20 87 21 81 22 80 23
REMARK SMILES IDX 39 25 69 26 50 27 68 28 51 29 54 30 67 31 85 32 52 33 53 34
REMARK SMILES IDX 66 36 86 37 55 38 40 39 41 40 49 41 42 42 48 43 43 44 44 45
REMARK SMILES IDX 45 46 46 47 47 48 70 49 71 50 79 51 72 52 78 53 73 54 74 55
REMARK SMILES IDX 75 56 76 57 77 58 56 59 57 60 65 61 58 62 64 63 59 64 60 65
REMARK SMILES IDX 61 66 62 67 63 68 6 69 7 70 8 71 9 73 10 74 11 75 15 76
REMARK SMILES IDX 12 77 14 78 13 79 16 80 17 81 18 82 19 84 20 85 30 86 21 87
REMARK SMILES IDX 22 88 23 89 24 90 29 91 25 92 27 93 26 94 28 95
REMARK H PARENT 3 6 84 24 54 35 7 72 18 83
REMARK Flexibility Score: inf
ROOT
ATOM      1  C   UNL A   1      37.932  24.116  26.370  1.00  0.00     0.042 C 
ENDROOT
BRANCH   1   2
ATOM      2  C   UNL A   1      39.222  23.736  27.092  1.00  0.00     0.118 C 
BRANCH   2   3
ATOM      3  N   UNL A   1      40.419  23.780  26.272  1.00  0.00    -0.352 N 
ATOM      4  O   UNL A   1      42.345  24.765  25.588  1.00  0.00    -0.269 OA
ATOM      5  C   UNL A   1      41.405  24.738  26.372  1.00  0.00     0.251 C 
ATOM      6  H   UNL A   1      40.535  23.074  25.594  1.00  0.00     0.163 HD
BRANCH   5   7
ATOM      7  C   UNL A   1      41.269  25.760  27.436  1.00  0.00     0.039 A 
ATOM      8  C   UNL A   1      40.292  25.617  28.427  1.00  0.00     0.014 A 
ATOM      9  C   UNL A   1      42.074  26.900  27.394  1.00  0.00     0.014 A 
ATOM     10  C   UNL A   1      40.068  26.648  29.332  1.00  0.00     0.010 A 
ATOM     11  C   UNL A   1      41.903  27.897  28.357  1.00  0.00     0.010 A 
ATOM     12  C   UNL A   1      40.905  27.775  29.337  1.00  0.00    -0.014 A 
BRANCH  12  13
ATOM     13  C   UNL A   1      40.841  28.732  30.469  1.00  0.00     0.031 A 
ATOM     14  C   UNL A   1      41.751  28.611  31.658  1.00  0.00     0.074 A 
ATOM     15  C   UNL A   1      39.894  29.692  30.424  1.00  0.00     0.049 A 
ATOM     16  N   UNL A   1      41.742  29.303  32.768  1.00  0.00    -0.248 NA
ATOM     17  C   UNL A   1      42.792  27.575  31.602  1.00  0.00     0.031 C 
ATOM     18  C   UNL A   1      38.949  29.889  29.318  1.00  0.00     0.029 A 
ATOM     19  N   UNL A   1      39.564  30.677  31.316  1.00  0.00    -0.354 N 
ATOM     20  C   UNL A   1      42.754  28.770  33.559  1.00  0.00     0.074 A 
ATOM     21  C   UNL A   1      43.348  27.687  32.802  1.00  0.00     0.031 C 
ATOM     22  C   UNL A   1      38.174  30.948  29.581  1.00  0.00     0.029 A 
ATOM     23  C   UNL A   1      38.507  31.454  30.906  1.00  0.00     0.049 A 
ATOM     24  H   UNL A   1      40.036  30.814  32.169  1.00  0.00     0.167 HD
ATOM     25  C   UNL A   1      43.141  29.152  34.801  1.00  0.00     0.031 A 
ATOM     26  C   UNL A   1      37.846  32.443  31.534  1.00  0.00     0.031 A 
ATOM     27  C   UNL A   1      42.530  30.232  35.536  1.00  0.00     0.049 A 
ATOM     28  C   UNL A   1      38.279  32.825  32.918  1.00  0.00     0.074 A 
ATOM     29  C   UNL A   1      42.866  30.721  36.787  1.00  0.00     0.029 A 
ATOM     30  N   UNL A   1      41.456  30.991  35.089  1.00  0.00    -0.354 N 
ATOM     31  N   UNL A   1      39.251  32.322  33.641  1.00  0.00    -0.248 NA
ATOM     32  C   UNL A   1      37.528  33.903  33.571  1.00  0.00     0.031 C 
ATOM     33  C   UNL A   1      41.960  31.736  37.119  1.00  0.00     0.029 A 
ATOM     34  C   UNL A   1      41.102  31.925  36.048  1.00  0.00     0.049 A 
ATOM     35  H   UNL A   1      41.011  30.879  34.218  1.00  0.00     0.167 HD
ATOM     36  C   UNL A   1      39.241  33.036  34.831  1.00  0.00     0.074 A 
ATOM     37  C   UNL A   1      38.181  34.019  34.720  1.00  0.00     0.031 C 
ATOM     38  C   UNL A   1      40.037  32.890  35.920  1.00  0.00     0.031 A 
BRANCH  25  39
ATOM     39  C   UNL A   1      44.255  28.378  35.462  1.00  0.00    -0.014 A 
ATOM     40  C   UNL A   1      45.600  28.769  35.331  1.00  0.00     0.010 A 
ATOM     41  C   UNL A   1      43.947  27.270  36.276  1.00  0.00     0.010 A 
ATOM     42  C   UNL A   1      46.615  28.045  35.967  1.00  0.00     0.020 A 
ATOM     43  C   UNL A   1      44.956  26.561  36.935  1.00  0.00     0.020 A 
ATOM     44  C   UNL A   1      46.287  26.944  36.763  1.00  0.00     0.054 A 
BRANCH  44  45
ATOM     45  S   UNL A   1      47.623  26.038  37.591  1.00  0.00     0.124 S 
ATOM     46  O   UNL A   1      47.234  24.649  37.363  1.00  0.00    -0.237 OA
ATOM     47  O   UNL A   1      48.810  26.482  36.866  1.00  0.00    -0.237 OA
ATOM     48  O   UNL A   1      47.541  26.488  38.979  1.00  0.00    -0.744 OA
ENDBRANCH  44  45
ENDBRANCH  25  39
BRANCH  26  49
ATOM     49  C   UNL A   1      36.702  33.113  30.860  1.00  0.00    -0.014 A 
ATOM     50  C   UNL A   1      35.393  32.949  31.341  1.00  0.00     0.010 A 
ATOM     51  C   UNL A   1      36.925  33.960  29.756  1.00  0.00     0.010 A 
ATOM     52  C   UNL A   1      34.325  33.607  30.725  1.00  0.00     0.020 A 
ATOM     53  C   UNL A   1      35.864  34.645  29.158  1.00  0.00     0.020 A 
ATOM     54  C   UNL A   1      34.569  34.454  29.639  1.00  0.00     0.054 A 
BRANCH  54  55
ATOM     55  S   UNL A   1      33.174  35.342  28.893  1.00  0.00     0.124 S 
ATOM     56  O   UNL A   1      32.401  35.731  30.067  1.00  0.00    -0.237 OA
ATOM     57  O   UNL A   1      33.837  36.432  28.181  1.00  0.00    -0.237 OA
ATOM     58  O   UNL A   1      32.548  34.337  28.034  1.00  0.00    -0.744 OA
ENDBRANCH  54  55
ENDBRANCH  26  49
BRANCH  38  59
ATOM     59  C   UNL A   1      39.808  33.843  37.061  1.00  0.00    -0.014 A 
ATOM     60  C   UNL A   1      39.023  33.479  38.170  1.00  0.00     0.010 A 
ATOM     61  C   UNL A   1      40.416  35.111  37.035  1.00  0.00     0.010 A 
ATOM     62  C   UNL A   1      38.822  34.381  39.218  1.00  0.00     0.020 A 
ATOM     63  C   UNL A   1      40.242  36.004  38.094  1.00  0.00     0.020 A 
ATOM     64  C   UNL A   1      39.434  35.639  39.173  1.00  0.00     0.054 A 
BRANCH  64  65
ATOM     65  S   UNL A   1      39.190  36.777  40.562  1.00  0.00     0.124 S 
ATOM     66  O   UNL A   1      38.324  36.001  41.445  1.00  0.00    -0.237 OA
ATOM     67  O   UNL A   1      40.552  36.989  41.044  1.00  0.00    -0.237 OA
ATOM     68  O   UNL A   1      38.565  37.947  39.947  1.00  0.00    -0.744 OA
ENDBRANCH  64  65
ENDBRANCH  38  59
ENDBRANCH  12  13
ENDBRANCH   5   7
ENDBRANCH   2   3
ENDBRANCH   1   2
BRANCH   1  69
ATOM     69  C   UNL A   1      37.375  23.224  25.024  1.00  0.00     0.117 C 
BRANCH  69  70
ATOM     70  N   UNL A   1      37.057  21.163  24.660  1.00  0.00    -0.356 N 
ATOM     71  C   UNL A   1      35.743  20.169  24.914  1.00  0.00     0.224 C 
ATOM     72  H   UNL A   1      37.833  20.704  24.264  1.00  0.00     0.163 HD
ATOM     73  O   UNL A   1      35.870  18.952  24.860  1.00  0.00    -0.275 OA
BRANCH  71  74
ATOM     74  C   UNL A   1      34.133  21.044  25.155  1.00  0.00     0.095 C 
ATOM     75  C   UNL A   1      33.751  20.901  26.629  1.00  0.00     0.041 C 
ATOM     76  C   UNL A   1      33.654  22.691  24.491  1.00  0.00     0.095 C 
ATOM     77  C   UNL A   1      34.107  22.095  27.443  1.00  0.00    -0.030 C 
ATOM     78  C   UNL A   1      33.714  23.789  25.592  1.00  0.00     0.041 C 
ATOM     79  C   UNL A   1      34.091  23.354  26.984  1.00  0.00    -0.030 C 
BRANCH  76  80
ATOM     80  C   UNL A   1      34.044  23.472  22.834  1.00  0.00     0.224 C 
ATOM     81  O   UNL A   1      34.985  23.008  22.178  1.00  0.00    -0.275 OA
ATOM     82  N   UNL A   1      33.260  24.652  22.177  1.00  0.00    -0.351 N 
ATOM     83  H   UNL A   1      33.640  25.009  21.342  1.00  0.00     0.163 HD
BRANCH  82  84
ATOM     84  C   UNL A   1      31.800  25.416  22.738  1.00  0.00     0.103 C 
ATOM     85  C   UNL A   1      32.626  26.578  22.013  1.00  0.00     0.048 C 
ATOM     86  C   UNL A   1      31.230  26.136  24.572  1.00  0.00     0.141 C 
ATOM     87  C   UNL A   1      33.583  27.826  23.429  1.00  0.00     0.119 C 
ATOM     88  N   UNL A   1      32.468  27.606  25.043  1.00  0.00    -0.369 N 
BRANCH  88  89
ATOM     89  C   UNL A   1      32.553  28.737  25.836  1.00  0.00     0.038 A 
ATOM     90  C   UNL A   1      31.654  29.795  25.827  1.00  0.00     0.026 A 
ATOM     91  C   UNL A   1      33.711  28.893  26.631  1.00  0.00     0.046 A 
ATOM     92  C   UNL A   1      31.928  30.967  26.563  1.00  0.00     0.004 A 
ATOM     93  C   UNL A   1      33.956  30.019  27.406  1.00  0.00     0.043 A 
ATOM     94  C   UNL A   1      33.072  31.076  27.363  1.00  0.00     0.020 A 
ATOM     95  Cl  UNL A   1      35.372  30.079  28.382  1.00  0.00    -0.084 Cl
ENDBRANCH  88  89
ENDBRANCH  82  84
ENDBRANCH  76  80
ENDBRANCH  71  74
ENDBRANCH  69  70
ENDBRANCH   1  69
TORSDOF 16
ENDMDL
MODEL 3
REMARK VINA RESULT:     -14.5      4.448     10.550
REMARK SMILES O=C(NCCCNC(=O)[C@H]1CC=CC[C@H]1C(=O)N[C@@H]1CCN(c2cccc(Cl)c2)C1)c1ccc(-c2c3nc(c(-c4ccc(S(=O)(=O)[O-])cc4)c4ccc([nH]4)c(-c4ccc(S(=O)(=O)[O-])cc4)c4nc(c(-c5ccc(S(=O)(=O)[O-])cc5)c5ccc2[nH]5)C=C4)C=C3)cc1
REMARK SMILES IDX 5 1 4 2 3 3 1 4 2 5 31 7 32 8 90 9 33 10 89 11 34 12 35 13
REMARK SMILES IDX 36 14 83 15 37 16 88 17 82 18 84 19 38 20 87 21 81 22 80 23
REMARK SMILES IDX 39 25 69 26 50 27 68 28 51 29 54 30 67 31 85 32 52 33 53 34
REMARK SMILES IDX 66 36 86 37 55 38 40 39 41 40 49 41 42 42 48 43 43 44 44 45
REMARK SMILES IDX 45 46 46 47 47 48 70 49 71 50 79 51 72 52 78 53 73 54 74 55
REMARK SMILES IDX 75 56 76 57 77 58 56 59 57 60 65 61 58 62 64 63 59 64 60 65
REMARK SMILES IDX 61 66 62 67 63 68 6 69 7 70 8 71 9 73 10 74 11 75 15 76
REMARK SMILES IDX 12 77 14 78 13 79 16 80 17 81 18 82 19 84 20 85 30 86 21 87
REMARK SMILES IDX 22 88 23 89 24 90 29 91 25 92 27 93 26 94 28 95
REMARK H PARENT 3 6 84 24 54 35 7 72 18 83
REMARK Flexibility Score: inf
ROOT
ATOM      1  C   UNL A   1      35.826  23.716  26.016  1.00  0.00     0.042 C 
ENDROOT
BRANCH   1   2
ATOM      2  C   UNL A   1      37.266  23.920  25.552  1.00  0.00     0.118 C 
BRANCH   2   3
ATOM      3  N   UNL A   1      38.144  22.783  25.764  1.00  0.00    -0.352 N 
ATOM      4  O   UNL A   1      40.082  21.855  26.492  1.00  0.00    -0.269 OA
ATOM      5  C   UNL A   1      39.351  22.836  26.427  1.00  0.00     0.251 C 
ATOM      6  H   UNL A   1      37.856  21.911  25.407  1.00  0.00     0.163 HD
BRANCH   5   7
ATOM      7  C   UNL A   1      39.755  24.130  27.025  1.00  0.00     0.039 A 
ATOM      8  C   UNL A   1      39.363  24.453  28.329  1.00  0.00     0.014 A 
ATOM      9  C   UNL A   1      40.464  25.049  26.249  1.00  0.00     0.014 A 
ATOM     10  C   UNL A   1      39.614  25.724  28.831  1.00  0.00     0.010 A 
ATOM     11  C   UNL A   1      40.788  26.296  26.788  1.00  0.00     0.010 A 
ATOM     12  C   UNL A   1      40.372  26.640  28.085  1.00  0.00    -0.014 A 
BRANCH  12  13
ATOM     13  C   UNL A   1      40.870  27.880  28.730  1.00  0.00     0.031 A 
ATOM     14  C   UNL A   1      42.261  27.974  29.290  1.00  0.00     0.074 A 
ATOM     15  C   UNL A   1      40.010  28.911  28.850  1.00  0.00     0.049 A 
ATOM     16  N   UNL A   1      42.801  28.949  29.976  1.00  0.00    -0.248 NA
ATOM     17  C   UNL A   1      43.153  26.827  29.067  1.00  0.00     0.031 C 
ATOM     18  C   UNL A   1      38.630  28.917  28.349  1.00  0.00     0.029 A 
ATOM     19  N   UNL A   1      40.156  30.147  29.421  1.00  0.00    -0.354 N 
ATOM     20  C   UNL A   1      44.087  28.525  30.294  1.00  0.00     0.074 A 
ATOM     21  C   UNL A   1      44.239  27.198  29.735  1.00  0.00     0.031 C 
ATOM     22  C   UNL A   1      38.072  30.107  28.604  1.00  0.00     0.029 A 
ATOM     23  C   UNL A   1      39.020  30.918  29.356  1.00  0.00     0.049 A 
ATOM     24  H   UNL A   1      40.993  30.454  29.840  1.00  0.00     0.167 HD
ATOM     25  C   UNL A   1      45.043  29.186  30.992  1.00  0.00     0.031 A 
ATOM     26  C   UNL A   1      38.748  32.129  29.873  1.00  0.00     0.031 A 
ATOM     27  C   UNL A   1      44.866  30.507  31.543  1.00  0.00     0.049 A 
ATOM     28  C   UNL A   1      39.815  32.825  30.664  1.00  0.00     0.074 A 
ATOM     29  C   UNL A   1      45.779  31.280  32.239  1.00  0.00     0.029 A 
ATOM     30  N   UNL A   1      43.696  31.253  31.462  1.00  0.00    -0.354 N 
ATOM     31  N   UNL A   1      41.031  32.416  30.938  1.00  0.00    -0.248 NA
ATOM     32  C   UNL A   1      39.475  34.140  31.217  1.00  0.00     0.031 C 
ATOM     33  C   UNL A   1      45.145  32.466  32.627  1.00  0.00     0.029 A 
ATOM     34  C   UNL A   1      43.857  32.463  32.116  1.00  0.00     0.049 A 
ATOM     35  H   UNL A   1      42.873  30.961  31.007  1.00  0.00     0.167 HD
ATOM     36  C   UNL A   1      41.610  33.434  31.682  1.00  0.00     0.074 A 
ATOM     37  C   UNL A   1      40.618  34.485  31.795  1.00  0.00     0.031 C 
ATOM     38  C   UNL A   1      42.853  33.493  32.224  1.00  0.00     0.031 A 
BRANCH  25  39
ATOM     39  C   UNL A   1      46.355  28.482  31.233  1.00  0.00    -0.014 A 
ATOM     40  C   UNL A   1      46.548  27.648  32.349  1.00  0.00     0.010 A 
ATOM     41  C   UNL A   1      47.399  28.614  30.296  1.00  0.00     0.010 A 
ATOM     42  C   UNL A   1      47.769  26.993  32.544  1.00  0.00     0.020 A 
ATOM     43  C   UNL A   1      48.611  27.938  30.473  1.00  0.00     0.020 A 
ATOM     44  C   UNL A   1      48.794  27.144  31.606  1.00  0.00     0.054 A 
BRANCH  44  45
ATOM     45  S   UNL A   1      50.359  26.266  31.875  1.00  0.00     0.124 S 
ATOM     46  O   UNL A   1      50.827  26.856  33.126  1.00  0.00    -0.237 OA
ATOM     47  O   UNL A   1      49.933  24.871  31.961  1.00  0.00    -0.237 OA
ATOM     48  O   UNL A   1      51.153  26.599  30.695  1.00  0.00    -0.744 OA
ENDBRANCH  44  45
ENDBRANCH  25  39
BRANCH  26  49
ATOM     49  C   UNL A   1      37.404  32.735  29.670  1.00  0.00    -0.014 A 
ATOM     50  C   UNL A   1      36.449  32.715  30.699  1.00  0.00     0.010 A 
ATOM     51  C   UNL A   1      37.091  33.379  28.458  1.00  0.00     0.010 A 
ATOM     52  C   UNL A   1      35.199  33.315  30.516  1.00  0.00     0.020 A 
ATOM     53  C   UNL A   1      35.856  34.008  28.282  1.00  0.00     0.020 A 
ATOM     54  C   UNL A   1      34.913  33.961  29.309  1.00  0.00     0.054 A 
BRANCH  54  55
ATOM     55  S   UNL A   1      33.307  34.782  29.117  1.00  0.00     0.124 S 
ATOM     56  O   UNL A   1      32.783  34.743  30.478  1.00  0.00    -0.237 OA
ATOM     57  O   UNL A   1      33.684  36.103  28.621  1.00  0.00    -0.237 OA
ATOM     58  O   UNL A   1      32.605  33.939  28.150  1.00  0.00    -0.744 OA
ENDBRANCH  54  55
ENDBRANCH  26  49
BRANCH  38  59
ATOM     59  C   UNL A   1      43.213  34.755  32.959  1.00  0.00    -0.014 A 
ATOM     60  C   UNL A   1      42.930  34.909  34.328  1.00  0.00     0.010 A 
ATOM     61  C   UNL A   1      43.875  35.789  32.273  1.00  0.00     0.010 A 
ATOM     62  C   UNL A   1      43.272  36.091  34.990  1.00  0.00     0.020 A 
ATOM     63  C   UNL A   1      44.246  36.959  32.938  1.00  0.00     0.020 A 
ATOM     64  C   UNL A   1      43.929  37.109  34.290  1.00  0.00     0.054 A 
BRANCH  64  65
ATOM     65  S   UNL A   1      44.398  38.617  35.179  1.00  0.00     0.124 S 
ATOM     66  O   UNL A   1      44.003  38.299  36.549  1.00  0.00    -0.237 OA
ATOM     67  O   UNL A   1      45.837  38.694  34.942  1.00  0.00    -0.237 OA
ATOM     68  O   UNL A   1      43.609  39.663  34.530  1.00  0.00    -0.744 OA
ENDBRANCH  64  65
ENDBRANCH  38  59
ENDBRANCH  12  13
ENDBRANCH   5   7
ENDBRANCH   2   3
ENDBRANCH   1   2
BRANCH   1  69
ATOM     69  C   UNL A   1      34.539  24.598  25.321  1.00  0.00     0.117 C 
BRANCH  69  70
ATOM     70  N   UNL A   1      33.928  24.981  23.331  1.00  0.00    -0.356 N 
ATOM     71  C   UNL A   1      32.887  24.180  22.305  1.00  0.00     0.224 C 
ATOM     72  H   UNL A   1      34.336  25.785  22.937  1.00  0.00     0.163 HD
ATOM     73  O   UNL A   1      32.877  24.442  21.108  1.00  0.00    -0.275 OA
BRANCH  71  74
ATOM     74  C   UNL A   1      31.723  23.004  23.128  1.00  0.00     0.095 C 
ATOM     75  C   UNL A   1      32.118  21.592  22.693  1.00  0.00     0.041 C 
ATOM     76  C   UNL A   1      31.164  23.039  24.880  1.00  0.00     0.095 C 
ATOM     77  C   UNL A   1      32.966  20.888  23.696  1.00  0.00    -0.030 C 
ATOM     78  C   UNL A   1      31.890  21.958  25.732  1.00  0.00     0.041 C 
ATOM     79  C   UNL A   1      32.862  21.054  25.021  1.00  0.00    -0.030 C 
BRANCH  76  80
ATOM     80  C   UNL A   1      30.756  24.502  25.976  1.00  0.00     0.224 C 
ATOM     81  O   UNL A   1      31.285  24.558  27.093  1.00  0.00    -0.275 OA
ATOM     82  N   UNL A   1      29.822  25.693  25.593  1.00  0.00    -0.351 N 
ATOM     83  H   UNL A   1      29.638  26.343  26.309  1.00  0.00     0.163 HD
BRANCH  82  84
ATOM     84  C   UNL A   1      29.065  26.014  24.059  1.00  0.00     0.103 C 
ATOM     85  C   UNL A   1      30.550  26.592  23.920  1.00  0.00     0.048 C 
ATOM     86  C   UNL A   1      27.783  27.486  23.428  1.00  0.00     0.141 C 
ATOM     87  C   UNL A   1      30.566  28.699  24.126  1.00  0.00     0.119 C 
ATOM     88  N   UNL A   1      28.735  29.213  23.595  1.00  0.00    -0.369 N 
BRANCH  88  89
ATOM     89  C   UNL A   1      28.731  30.504  23.096  1.00  0.00     0.038 A 
ATOM     90  C   UNL A   1      28.992  31.652  23.832  1.00  0.00     0.026 A 
ATOM     91  C   UNL A   1      28.305  30.687  21.760  1.00  0.00     0.046 A 
ATOM     92  C   UNL A   1      28.802  32.925  23.254  1.00  0.00     0.004 A 
ATOM     93  C   UNL A   1      28.177  31.936  21.167  1.00  0.00     0.043 A 
ATOM     94  C   UNL A   1      28.407  33.069  21.919  1.00  0.00     0.020 A 
ATOM     95  Cl  UNL A   1      27.706  32.041  19.515  1.00  0.00    -0.084 Cl
ENDBRANCH  88  89
ENDBRANCH  82  84
ENDBRANCH  76  80
ENDBRANCH  71  74
ENDBRANCH  69  70
ENDBRANCH   1  69
TORSDOF 16
ENDMDL
