MODEL 1
REMARK VINA RESULT:     -11.2      0.000      0.000
REMARK SMILES CCOC(=O)c1ccc(NC(=O)[C@H]2CC=CC[C@@]2(C)C(=O)NCCCNC(=O)c2ccc(-c3c4nc(c(-c5ccc(S(=O)(=O)[O-])cc5)c5ccc([nH]5)c(-c5ccc(S(=O)(=O)[O-])cc5)c5nc(c(-c6ccc(S(=O)(=O)[O-])cc6)c6ccc3[nH]6)C=C5)C=C4)cc2)cc1
REMARK SMILES IDX 23 1 22 2 20 3 21 4 18 6 13 7 14 8 15 9 17 10 19 11 16 12
REMARK SMILES IDX 11 13 10 14 12 16 9 17 6 18 7 19 90 20 8 21 89 22 4 23 5 24
REMARK SMILES IDX 3 25 2 26 1 27 24 28 25 29 26 30 27 31 28 33 29 34 30 35
REMARK SMILES IDX 88 36 31 37 87 38 32 39 33 40 34 41 81 42 35 43 86 44 80 45
REMARK SMILES IDX 82 46 36 47 85 48 79 49 78 50 37 52 67 53 48 54 66 55 49 56
REMARK SMILES IDX 52 57 65 58 83 59 50 60 51 61 64 63 84 64 53 65 38 66 39 67
REMARK SMILES IDX 47 68 40 69 46 70 41 71 42 72 43 73 44 74 45 75 68 76 69 77
REMARK SMILES IDX 77 78 70 79 76 80 71 81 72 82 73 83 74 84 75 85 54 86 55 87
REMARK SMILES IDX 63 88 56 89 62 90 57 91 58 92 59 93 60 94 61 95
REMARK H PARENT 22 5 10 15 26 32 82 51 52 62
REMARK Flexibility Score: inf
ROOT
ATOM      1  C   UNL A   1      33.855  25.997  25.613  1.00  0.00     0.117 C 
ENDROOT
BRANCH   1   2
ATOM      2  N   UNL A   1      32.884  24.923  25.777  1.00  0.00    -0.356 N 
ATOM      3  C   UNL A   1      33.062  23.618  26.147  1.00  0.00     0.227 C 
ATOM      4  O   UNL A   1      32.094  23.055  26.660  1.00  0.00    -0.274 OA
ATOM      5  H   UNL A   1      31.951  25.177  25.593  1.00  0.00     0.163 HD
BRANCH   3   6
ATOM      6  C   UNL A   1      34.402  22.889  25.926  1.00  0.00     0.062 C 
ATOM      7  C   UNL A   1      34.571  22.458  24.405  1.00  0.00     0.098 C 
ATOM      8  C   UNL A   1      35.767  23.159  23.695  1.00  0.00     0.041 C 
ATOM      9  C   UNL A   1      36.886  23.668  24.538  1.00  0.00    -0.030 C 
ATOM     10  C   UNL A   1      35.512  23.759  26.606  1.00  0.00     0.044 C 
ATOM     11  C   UNL A   1      34.476  21.584  26.786  1.00  0.00     0.023 C 
ATOM     12  C   UNL A   1      36.769  23.951  25.836  1.00  0.00    -0.030 C 
BRANCH   7  13
ATOM     13  C   UNL A   1      33.351  22.561  23.416  1.00  0.00     0.228 C 
ATOM     14  N   UNL A   1      32.400  21.613  23.197  1.00  0.00    -0.326 N 
ATOM     15  H   UNL A   1      31.603  21.963  22.738  1.00  0.00     0.169 HD
ATOM     16  O   UNL A   1      33.179  23.588  22.742  1.00  0.00    -0.274 OA
BRANCH  14  17
ATOM     17  C   UNL A   1      32.315  20.253  23.485  1.00  0.00     0.041 A 
ATOM     18  C   UNL A   1      32.602  17.588  24.193  1.00  0.00     0.060 A 
ATOM     19  C   UNL A   1      32.464  17.936  22.846  1.00  0.00     0.018 A 
ATOM     20  C   UNL A   1      32.444  18.544  25.194  1.00  0.00     0.018 A 
ATOM     21  C   UNL A   1      32.301  19.278  22.496  1.00  0.00     0.027 A 
ATOM     22  C   UNL A   1      32.254  19.879  24.834  1.00  0.00     0.027 A 
BRANCH  18  23
ATOM     23  C   UNL A   1      33.063  16.237  24.548  1.00  0.00     0.338 C 
ATOM     24  O   UNL A   1      32.411  15.449  25.208  1.00  0.00    -0.246 OA
BRANCH  23  25
ATOM     25  O   UNL A   1      34.313  16.070  24.062  1.00  0.00    -0.462 OA
BRANCH  25  26
ATOM     26  C   UNL A   1      35.325  16.842  24.722  1.00  0.00     0.230 C 
ATOM     27  C   UNL A   1      36.043  15.938  25.706  1.00  0.00     0.049 C 
ENDBRANCH  25  26
ENDBRANCH  23  25
ENDBRANCH  18  23
ENDBRANCH  14  17
ENDBRANCH   7  13
ENDBRANCH   3   6
ENDBRANCH   1   2
BRANCH   1  28
ATOM     28  C   UNL A   1      33.483  27.320  26.256  1.00  0.00     0.042 C 
BRANCH  28  29
ATOM     29  C   UNL A   1      34.039  28.544  25.555  1.00  0.00     0.118 C 
BRANCH  29  30
ATOM     30  N   UNL A   1      33.721  29.773  26.266  1.00  0.00    -0.352 N 
ATOM     31  C   UNL A   1      34.326  30.364  27.349  1.00  0.00     0.251 C 
ATOM     32  H   UNL A   1      32.943  30.262  25.914  1.00  0.00     0.163 HD
ATOM     33  O   UNL A   1      33.724  31.246  27.955  1.00  0.00    -0.269 OA
BRANCH  31  34
ATOM     34  C   UNL A   1      35.680  29.954  27.797  1.00  0.00     0.039 A 
ATOM     35  C   UNL A   1      36.757  30.097  26.915  1.00  0.00     0.014 A 
ATOM     36  C   UNL A   1      35.888  29.365  29.045  1.00  0.00     0.014 A 
ATOM     37  C   UNL A   1      38.040  29.699  27.305  1.00  0.00     0.010 A 
ATOM     38  C   UNL A   1      37.179  29.060  29.469  1.00  0.00     0.010 A 
ATOM     39  C   UNL A   1      38.268  29.203  28.598  1.00  0.00    -0.014 A 
BRANCH  39  40
ATOM     40  C   UNL A   1      39.624  28.800  29.053  1.00  0.00     0.031 A 
ATOM     41  C   UNL A   1      40.477  29.763  29.837  1.00  0.00     0.074 A 
ATOM     42  C   UNL A   1      40.116  27.595  28.704  1.00  0.00     0.049 A 
ATOM     43  N   UNL A   1      41.707  29.621  30.261  1.00  0.00    -0.248 NA
ATOM     44  C   UNL A   1      39.879  31.067  30.164  1.00  0.00     0.031 C 
ATOM     45  C   UNL A   1      39.406  26.586  27.916  1.00  0.00     0.029 A 
ATOM     46  N   UNL A   1      41.333  27.018  28.966  1.00  0.00    -0.354 N 
ATOM     47  C   UNL A   1      42.036  30.822  30.879  1.00  0.00     0.074 A 
ATOM     48  C   UNL A   1      40.896  31.699  30.728  1.00  0.00     0.031 C 
ATOM     49  C   UNL A   1      40.187  25.500  27.789  1.00  0.00     0.029 A 
ATOM     50  C   UNL A   1      41.465  25.751  28.446  1.00  0.00     0.049 A 
ATOM     51  H   UNL A   1      42.044  27.467  29.476  1.00  0.00     0.167 HD
ATOM     52  C   UNL A   1      43.175  31.162  31.532  1.00  0.00     0.031 A 
ATOM     53  C   UNL A   1      42.498  24.889  28.492  1.00  0.00     0.031 A 
ATOM     54  C   UNL A   1      44.303  30.284  31.690  1.00  0.00     0.049 A 
ATOM     55  C   UNL A   1      43.756  25.286  29.213  1.00  0.00     0.074 A 
ATOM     56  C   UNL A   1      45.482  30.510  32.380  1.00  0.00     0.029 A 
ATOM     57  N   UNL A   1      44.396  29.010  31.149  1.00  0.00    -0.354 N 
ATOM     58  N   UNL A   1      44.027  26.407  29.839  1.00  0.00    -0.248 NA
ATOM     59  C   UNL A   1      44.843  24.299  29.240  1.00  0.00     0.031 C 
ATOM     60  C   UNL A   1      46.306  29.391  32.216  1.00  0.00     0.029 A 
ATOM     61  C   UNL A   1      45.619  28.446  31.470  1.00  0.00     0.049 A 
ATOM     62  H   UNL A   1      43.694  28.571  30.616  1.00  0.00     0.167 HD
ATOM     63  C   UNL A   1      45.309  26.251  30.355  1.00  0.00     0.074 A 
ATOM     64  C   UNL A   1      45.752  24.923  29.978  1.00  0.00     0.031 C 
ATOM     65  C   UNL A   1      46.050  27.126  31.079  1.00  0.00     0.031 A 
BRANCH  52  66
ATOM     66  C   UNL A   1      43.249  32.552  32.108  1.00  0.00    -0.014 A 
ATOM     67  C   UNL A   1      43.809  33.615  31.374  1.00  0.00     0.010 A 
ATOM     68  C   UNL A   1      42.760  32.801  33.403  1.00  0.00     0.010 A 
ATOM     69  C   UNL A   1      43.938  34.883  31.948  1.00  0.00     0.020 A 
ATOM     70  C   UNL A   1      42.858  34.076  33.969  1.00  0.00     0.020 A 
ATOM     71  C   UNL A   1      43.472  35.102  33.247  1.00  0.00     0.054 A 
BRANCH  71  72
ATOM     72  S   UNL A   1      43.671  36.751  33.978  1.00  0.00     0.124 S 
ATOM     73  O   UNL A   1      43.725  37.599  32.790  1.00  0.00    -0.237 OA
ATOM     74  O   UNL A   1      42.467  36.890  34.792  1.00  0.00    -0.237 OA
ATOM     75  O   UNL A   1      44.919  36.648  34.729  1.00  0.00    -0.744 OA
ENDBRANCH  71  72
ENDBRANCH  52  66
BRANCH  53  76
ATOM     76  C   UNL A   1      42.363  23.547  27.864  1.00  0.00    -0.014 A 
ATOM     77  C   UNL A   1      42.956  23.291  26.616  1.00  0.00     0.010 A 
ATOM     78  C   UNL A   1      41.687  22.508  28.528  1.00  0.00     0.010 A 
ATOM     79  C   UNL A   1      42.874  22.019  26.040  1.00  0.00     0.020 A 
ATOM     80  C   UNL A   1      41.624  21.228  27.967  1.00  0.00     0.020 A 
ATOM     81  C   UNL A   1      42.215  20.994  26.723  1.00  0.00     0.054 A 
BRANCH  81  82
ATOM     82  S   UNL A   1      42.192  19.333  25.993  1.00  0.00     0.124 S 
ATOM     83  O   UNL A   1      40.769  19.128  25.745  1.00  0.00    -0.237 OA
ATOM     84  O   UNL A   1      43.024  19.500  24.804  1.00  0.00    -0.237 OA
ATOM     85  O   UNL A   1      42.774  18.493  27.038  1.00  0.00    -0.744 OA
ENDBRANCH  81  82
ENDBRANCH  53  76
BRANCH  65  86
ATOM     86  C   UNL A   1      47.410  26.668  31.531  1.00  0.00    -0.014 A 
ATOM     87  C   UNL A   1      48.543  26.835  30.715  1.00  0.00     0.010 A 
ATOM     88  C   UNL A   1      47.563  26.109  32.813  1.00  0.00     0.010 A 
ATOM     89  C   UNL A   1      49.800  26.422  31.163  1.00  0.00     0.020 A 
ATOM     90  C   UNL A   1      48.822  25.719  33.273  1.00  0.00     0.020 A 
ATOM     91  C   UNL A   1      49.932  25.864  32.438  1.00  0.00     0.054 A 
BRANCH  91  92
ATOM     92  S   UNL A   1      51.582  25.375  33.013  1.00  0.00     0.124 S 
ATOM     93  O   UNL A   1      51.301  24.887  34.360  1.00  0.00    -0.237 OA
ATOM     94  O   UNL A   1      51.970  24.353  32.043  1.00  0.00    -0.237 OA
ATOM     95  O   UNL A   1      52.353  26.613  32.946  1.00  0.00    -0.744 OA
ENDBRANCH  91  92
ENDBRANCH  65  86
ENDBRANCH  39  40
ENDBRANCH  31  34
ENDBRANCH  29  30
ENDBRANCH  28  29
ENDBRANCH   1  28
TORSDOF 18
ENDMDL
MODEL 2
REMARK VINA RESULT:     -10.8      3.355      9.908
REMARK SMILES CCOC(=O)c1ccc(NC(=O)[C@H]2CC=CC[C@@]2(C)C(=O)NCCCNC(=O)c2ccc(-c3c4nc(c(-c5ccc(S(=O)(=O)[O-])cc5)c5ccc([nH]5)c(-c5ccc(S(=O)(=O)[O-])cc5)c5nc(c(-c6ccc(S(=O)(=O)[O-])cc6)c6ccc3[nH]6)C=C5)C=C4)cc2)cc1
REMARK SMILES IDX 23 1 22 2 20 3 21 4 18 6 13 7 14 8 15 9 17 10 19 11 16 12
REMARK SMILES IDX 11 13 10 14 12 16 9 17 6 18 7 19 90 20 8 21 89 22 4 23 5 24
REMARK SMILES IDX 3 25 2 26 1 27 24 28 25 29 26 30 27 31 28 33 29 34 30 35
REMARK SMILES IDX 88 36 31 37 87 38 32 39 33 40 34 41 81 42 35 43 86 44 80 45
REMARK SMILES IDX 82 46 36 47 85 48 79 49 78 50 37 52 67 53 48 54 66 55 49 56
REMARK SMILES IDX 52 57 65 58 83 59 50 60 51 61 64 63 84 64 53 65 38 66 39 67
REMARK SMILES IDX 47 68 40 69 46 70 41 71 42 72 43 73 44 74 45 75 68 76 69 77
REMARK SMILES IDX 77 78 70 79 76 80 71 81 72 82 73 83 74 84 75 85 54 86 55 87
REMARK SMILES IDX 63 88 56 89 62 90 57 91 58 92 59 93 60 94 61 95
REMARK H PARENT 22 5 10 15 26 32 82 51 52 62
REMARK Flexibility Score: inf
ROOT
ATOM      1  C   UNL A   1      34.703  23.597  23.911  1.00  0.00     0.117 C 
ENDROOT
BRANCH   1   2
ATOM      2  N   UNL A   1      34.401  25.019  23.804  1.00  0.00    -0.356 N 
ATOM      3  C   UNL A   1      33.680  25.835  24.633  1.00  0.00     0.227 C 
ATOM      4  O   UNL A   1      33.953  27.036  24.594  1.00  0.00    -0.274 OA
ATOM      5  H   UNL A   1      34.775  25.463  23.009  1.00  0.00     0.163 HD
BRANCH   3   6
ATOM      6  C   UNL A   1      32.582  25.281  25.561  1.00  0.00     0.062 C 
ATOM      7  C   UNL A   1      31.383  24.665  24.718  1.00  0.00     0.098 C 
ATOM      8  C   UNL A   1      31.201  23.133  24.933  1.00  0.00     0.041 C 
ATOM      9  C   UNL A   1      31.715  22.534  26.198  1.00  0.00    -0.030 C 
ATOM     10  C   UNL A   1      33.297  24.398  26.638  1.00  0.00     0.044 C 
ATOM     11  C   UNL A   1      31.982  26.415  26.455  1.00  0.00     0.023 C 
ATOM     12  C   UNL A   1      32.662  23.090  26.952  1.00  0.00    -0.030 C 
BRANCH   7  13
ATOM     13  C   UNL A   1      31.308  24.903  23.164  1.00  0.00     0.228 C 
ATOM     14  N   UNL A   1      31.033  26.077  22.535  1.00  0.00    -0.326 N 
ATOM     15  H   UNL A   1      31.276  26.071  21.580  1.00  0.00     0.169 HD
ATOM     16  O   UNL A   1      31.516  23.965  22.378  1.00  0.00    -0.274 OA
BRANCH  14  17
ATOM     17  C   UNL A   1      30.483  27.286  22.952  1.00  0.00     0.041 A 
ATOM     18  C   UNL A   1      29.218  29.723  23.336  1.00  0.00     0.060 A 
ATOM     19  C   UNL A   1      30.614  29.662  23.319  1.00  0.00     0.018 A 
ATOM     20  C   UNL A   1      28.455  28.557  23.316  1.00  0.00     0.018 A 
ATOM     21  C   UNL A   1      31.247  28.430  23.143  1.00  0.00     0.027 A 
ATOM     22  C   UNL A   1      29.099  27.328  23.168  1.00  0.00     0.027 A 
BRANCH  18  23
ATOM     23  C   UNL A   1      28.549  31.029  23.224  1.00  0.00     0.338 C 
ATOM     24  O   UNL A   1      28.722  31.948  24.002  1.00  0.00    -0.246 OA
BRANCH  23  25
ATOM     25  O   UNL A   1      27.708  30.989  22.166  1.00  0.00    -0.462 OA
BRANCH  25  26
ATOM     26  C   UNL A   1      28.291  31.381  20.917  1.00  0.00     0.230 C 
ATOM     27  C   UNL A   1      27.707  32.725  20.524  1.00  0.00     0.049 C 
ENDBRANCH  25  26
ENDBRANCH  23  25
ENDBRANCH  18  23
ENDBRANCH  14  17
ENDBRANCH   7  13
ENDBRANCH   3   6
ENDBRANCH   1   2
BRANCH   1  28
ATOM     28  C   UNL A   1      36.178  23.245  23.978  1.00  0.00     0.042 C 
BRANCH  28  29
ATOM     29  C   UNL A   1      36.879  23.699  25.244  1.00  0.00     0.118 C 
BRANCH  29  30
ATOM     30  N   UNL A   1      37.780  22.680  25.765  1.00  0.00    -0.352 N 
ATOM     31  C   UNL A   1      38.981  22.798  26.422  1.00  0.00     0.251 C 
ATOM     32  H   UNL A   1      37.479  21.754  25.622  1.00  0.00     0.163 HD
ATOM     33  O   UNL A   1      39.701  21.808  26.520  1.00  0.00    -0.269 OA
BRANCH  31  34
ATOM     34  C   UNL A   1      39.419  24.089  27.005  1.00  0.00     0.039 A 
ATOM     35  C   UNL A   1      40.178  24.965  26.220  1.00  0.00     0.014 A 
ATOM     36  C   UNL A   1      39.155  24.416  28.336  1.00  0.00     0.014 A 
ATOM     37  C   UNL A   1      40.621  26.180  26.753  1.00  0.00     0.010 A 
ATOM     38  C   UNL A   1      39.512  25.666  28.836  1.00  0.00     0.010 A 
ATOM     39  C   UNL A   1      40.266  26.555  28.058  1.00  0.00    -0.014 A 
BRANCH  39  40
ATOM     40  C   UNL A   1      40.696  27.852  28.642  1.00  0.00     0.031 A 
ATOM     41  C   UNL A   1      42.104  28.023  29.152  1.00  0.00     0.074 A 
ATOM     42  C   UNL A   1      39.805  28.854  28.778  1.00  0.00     0.049 A 
ATOM     43  N   UNL A   1      42.645  29.052  29.754  1.00  0.00    -0.248 NA
ATOM     44  C   UNL A   1      43.014  26.879  28.987  1.00  0.00     0.031 C 
ATOM     45  C   UNL A   1      38.403  28.803  28.359  1.00  0.00     0.029 A 
ATOM     46  N   UNL A   1      39.947  30.110  29.310  1.00  0.00    -0.354 N 
ATOM     47  C   UNL A   1      43.946  28.669  30.062  1.00  0.00     0.074 A 
ATOM     48  C   UNL A   1      44.095  27.298  29.627  1.00  0.00     0.031 C 
ATOM     49  C   UNL A   1      37.824  29.986  28.619  1.00  0.00     0.029 A 
ATOM     50  C   UNL A   1      38.798  30.863  29.259  1.00  0.00     0.049 A 
ATOM     51  H   UNL A   1      40.791  30.440  29.693  1.00  0.00     0.167 HD
ATOM     52  C   UNL A   1      44.936  29.396  30.635  1.00  0.00     0.031 A 
ATOM     53  C   UNL A   1      38.555  32.118  29.682  1.00  0.00     0.031 A 
ATOM     54  C   UNL A   1      44.789  30.763  31.057  1.00  0.00     0.049 A 
ATOM     55  C   UNL A   1      39.662  32.906  30.324  1.00  0.00     0.074 A 
ATOM     56  C   UNL A   1      45.744  31.607  31.598  1.00  0.00     0.029 A 
ATOM     57  N   UNL A   1      43.609  31.489  30.987  1.00  0.00    -0.354 N 
ATOM     58  N   UNL A   1      40.902  32.545  30.556  1.00  0.00    -0.248 NA
ATOM     59  C   UNL A   1      39.339  34.273  30.753  1.00  0.00     0.031 C 
ATOM     60  C   UNL A   1      45.129  32.827  31.898  1.00  0.00     0.029 A 
ATOM     61  C   UNL A   1      43.804  32.762  31.494  1.00  0.00     0.049 A 
ATOM     62  H   UNL A   1      42.757  31.149  30.629  1.00  0.00     0.167 HD
ATOM     63  C   UNL A   1      41.514  33.650  31.138  1.00  0.00     0.074 A 
ATOM     64  C   UNL A   1      40.512  34.694  31.210  1.00  0.00     0.031 C 
ATOM     65  C   UNL A   1      42.793  33.788  31.569  1.00  0.00     0.031 A 
BRANCH  52  66
ATOM     66  C   UNL A   1      46.260  28.709  30.848  1.00  0.00    -0.014 A 
ATOM     67  C   UNL A   1      47.268  28.751  29.865  1.00  0.00     0.010 A 
ATOM     68  C   UNL A   1      46.502  28.006  32.041  1.00  0.00     0.010 A 
ATOM     69  C   UNL A   1      48.463  28.049  30.044  1.00  0.00     0.020 A 
ATOM     70  C   UNL A   1      47.709  27.328  32.237  1.00  0.00     0.020 A 
ATOM     71  C   UNL A   1      48.671  27.332  31.225  1.00  0.00     0.054 A 
BRANCH  71  72
ATOM     72  S   UNL A   1      50.222  26.411  31.424  1.00  0.00     0.124 S 
ATOM     73  O   UNL A   1      50.321  26.304  32.878  1.00  0.00    -0.237 OA
ATOM     74  O   UNL A   1      49.947  25.161  30.721  1.00  0.00    -0.237 OA
ATOM     75  O   UNL A   1      51.218  27.271  30.792  1.00  0.00    -0.744 OA
ENDBRANCH  71  72
ENDBRANCH  52  66
BRANCH  53  76
ATOM     76  C   UNL A   1      37.208  32.715  29.473  1.00  0.00    -0.014 A 
ATOM     77  C   UNL A   1      36.381  32.992  30.575  1.00  0.00     0.010 A 
ATOM     78  C   UNL A   1      36.765  33.054  28.182  1.00  0.00     0.010 A 
ATOM     79  C   UNL A   1      35.134  33.596  30.391  1.00  0.00     0.020 A 
ATOM     80  C   UNL A   1      35.528  33.681  27.995  1.00  0.00     0.020 A 
ATOM     81  C   UNL A   1      34.719  33.943  29.103  1.00  0.00     0.054 A 
BRANCH  81  82
ATOM     82  S   UNL A   1      33.131  34.799  28.897  1.00  0.00     0.124 S 
ATOM     83  O   UNL A   1      32.568  34.723  30.241  1.00  0.00    -0.237 OA
ATOM     84  O   UNL A   1      33.546  36.130  28.459  1.00  0.00    -0.237 OA
ATOM     85  O   UNL A   1      32.444  34.005  27.882  1.00  0.00    -0.744 OA
ENDBRANCH  81  82
ENDBRANCH  53  76
BRANCH  65  86
ATOM     86  C   UNL A   1      43.187  35.124  32.138  1.00  0.00    -0.014 A 
ATOM     87  C   UNL A   1      43.049  35.401  33.510  1.00  0.00     0.010 A 
ATOM     88  C   UNL A   1      43.753  36.098  31.294  1.00  0.00     0.010 A 
ATOM     89  C   UNL A   1      43.441  36.641  34.021  1.00  0.00     0.020 A 
ATOM     90  C   UNL A   1      44.169  37.328  31.807  1.00  0.00     0.020 A 
ATOM     91  C   UNL A   1      43.996  37.598  33.166  1.00  0.00     0.054 A 
BRANCH  91  92
ATOM     92  S   UNL A   1      44.537  39.184  33.862  1.00  0.00     0.124 S 
ATOM     93  O   UNL A   1      44.082  39.078  35.245  1.00  0.00    -0.237 OA
ATOM     94  O   UNL A   1      45.985  39.141  33.672  1.00  0.00    -0.237 OA
ATOM     95  O   UNL A   1      43.837  40.175  33.049  1.00  0.00    -0.744 OA
ENDBRANCH  91  92
ENDBRANCH  65  86
ENDBRANCH  39  40
ENDBRANCH  31  34
ENDBRANCH  29  30
ENDBRANCH  28  29
ENDBRANCH   1  28
TORSDOF 18
ENDMDL
MODEL 3
REMARK VINA RESULT:     -10.7      3.122      8.815
REMARK SMILES CCOC(=O)c1ccc(NC(=O)[C@H]2CC=CC[C@@]2(C)C(=O)NCCCNC(=O)c2ccc(-c3c4nc(c(-c5ccc(S(=O)(=O)[O-])cc5)c5ccc([nH]5)c(-c5ccc(S(=O)(=O)[O-])cc5)c5nc(c(-c6ccc(S(=O)(=O)[O-])cc6)c6ccc3[nH]6)C=C5)C=C4)cc2)cc1
REMARK SMILES IDX 23 1 22 2 20 3 21 4 18 6 13 7 14 8 15 9 17 10 19 11 16 12
REMARK SMILES IDX 11 13 10 14 12 16 9 17 6 18 7 19 90 20 8 21 89 22 4 23 5 24
REMARK SMILES IDX 3 25 2 26 1 27 24 28 25 29 26 30 27 31 28 33 29 34 30 35
REMARK SMILES IDX 88 36 31 37 87 38 32 39 33 40 34 41 81 42 35 43 86 44 80 45
REMARK SMILES IDX 82 46 36 47 85 48 79 49 78 50 37 52 67 53 48 54 66 55 49 56
REMARK SMILES IDX 52 57 65 58 83 59 50 60 51 61 64 63 84 64 53 65 38 66 39 67
REMARK SMILES IDX 47 68 40 69 46 70 41 71 42 72 43 73 44 74 45 75 68 76 69 77
REMARK SMILES IDX 77 78 70 79 76 80 71 81 72 82 73 83 74 84 75 85 54 86 55 87
REMARK SMILES IDX 63 88 56 89 62 90 57 91 58 92 59 93 60 94 61 95
REMARK H PARENT 22 5 10 15 26 32 82 51 52 62
REMARK Flexibility Score: inf
ROOT
ATOM      1  C   UNL A   1      34.958  23.858  24.239  1.00  0.00     0.117 C 
ENDROOT
BRANCH   1   2
ATOM      2  N   UNL A   1      34.659  25.153  24.838  1.00  0.00    -0.356 N 
ATOM      3  C   UNL A   1      33.486  25.856  24.886  1.00  0.00     0.227 C 
ATOM      4  O   UNL A   1      33.363  26.656  25.814  1.00  0.00    -0.274 OA
ATOM      5  H   UNL A   1      35.423  25.590  25.279  1.00  0.00     0.163 HD
BRANCH   3   6
ATOM      6  C   UNL A   1      32.382  25.661  23.829  1.00  0.00     0.062 C 
ATOM      7  C   UNL A   1      30.960  25.485  24.518  1.00  0.00     0.098 C 
ATOM      8  C   UNL A   1      29.961  26.629  24.171  1.00  0.00     0.041 C 
ATOM      9  C   UNL A   1      30.178  27.396  22.912  1.00  0.00    -0.030 C 
ATOM     10  C   UNL A   1      32.580  26.780  22.751  1.00  0.00     0.044 C 
ATOM     11  C   UNL A   1      32.645  24.376  22.977  1.00  0.00     0.023 C 
ATOM     12  C   UNL A   1      31.352  27.477  22.285  1.00  0.00    -0.030 C 
BRANCH   7  13
ATOM     13  C   UNL A   1      30.860  25.270  26.074  1.00  0.00     0.228 C 
ATOM     14  N   UNL A   1      31.420  24.260  26.792  1.00  0.00    -0.326 N 
ATOM     15  H   UNL A   1      31.448  24.441  27.760  1.00  0.00     0.169 HD
ATOM     16  O   UNL A   1      30.223  26.072  26.775  1.00  0.00    -0.274 OA
BRANCH  14  17
ATOM     17  C   UNL A   1      31.964  23.024  26.451  1.00  0.00     0.041 A 
ATOM     18  C   UNL A   1      33.387  20.821  25.553  1.00  0.00     0.060 A 
ATOM     19  C   UNL A   1      32.138  21.112  24.997  1.00  0.00     0.018 A 
ATOM     20  C   UNL A   1      33.858  21.532  26.656  1.00  0.00     0.018 A 
ATOM     21  C   UNL A   1      31.417  22.213  25.465  1.00  0.00     0.027 A 
ATOM     22  C   UNL A   1      33.116  22.613  27.133  1.00  0.00     0.027 A 
BRANCH  18  23
ATOM     23  C   UNL A   1      34.274  19.860  24.878  1.00  0.00     0.338 C 
ATOM     24  O   UNL A   1      35.489  19.921  24.910  1.00  0.00    -0.246 OA
BRANCH  23  25
ATOM     25  O   UNL A   1      33.509  18.971  24.207  1.00  0.00    -0.462 OA
BRANCH  25  26
ATOM     26  C   UNL A   1      33.710  17.601  24.579  1.00  0.00     0.230 C 
ATOM     27  C   UNL A   1      32.572  17.187  25.492  1.00  0.00     0.049 C 
ENDBRANCH  25  26
ENDBRANCH  23  25
ENDBRANCH  18  23
ENDBRANCH  14  17
ENDBRANCH   7  13
ENDBRANCH   3   6
ENDBRANCH   1   2
BRANCH   1  28
ATOM     28  C   UNL A   1      36.387  23.375  24.406  1.00  0.00     0.042 C 
BRANCH  28  29
ATOM     29  C   UNL A   1      36.893  23.376  25.835  1.00  0.00     0.118 C 
BRANCH  29  30
ATOM     30  N   UNL A   1      37.892  22.342  26.062  1.00  0.00    -0.352 N 
ATOM     31  C   UNL A   1      39.230  22.440  26.360  1.00  0.00     0.251 C 
ATOM     32  H   UNL A   1      37.554  21.421  25.989  1.00  0.00     0.163 HD
ATOM     33  O   UNL A   1      39.939  21.445  26.232  1.00  0.00    -0.269 OA
BRANCH  31  34
ATOM     34  C   UNL A   1      39.827  23.716  26.825  1.00  0.00     0.039 A 
ATOM     35  C   UNL A   1      39.934  24.782  25.924  1.00  0.00     0.014 A 
ATOM     36  C   UNL A   1      40.348  23.851  28.112  1.00  0.00     0.014 A 
ATOM     37  C   UNL A   1      40.511  25.989  26.331  1.00  0.00     0.010 A 
ATOM     38  C   UNL A   1      40.834  25.082  28.547  1.00  0.00     0.010 A 
ATOM     39  C   UNL A   1      40.940  26.159  27.657  1.00  0.00    -0.014 A 
BRANCH  39  40
ATOM     40  C   UNL A   1      41.531  27.439  28.128  1.00  0.00     0.031 A 
ATOM     41  C   UNL A   1      43.024  27.640  28.100  1.00  0.00     0.074 A 
ATOM     42  C   UNL A   1      40.733  28.395  28.643  1.00  0.00     0.049 A 
ATOM     43  N   UNL A   1      43.729  28.656  28.530  1.00  0.00    -0.248 NA
ATOM     44  C   UNL A   1      43.831  26.545  27.540  1.00  0.00     0.031 C 
ATOM     45  C   UNL A   1      39.276  28.310  28.761  1.00  0.00     0.029 A 
ATOM     46  N   UNL A   1      41.037  29.625  29.169  1.00  0.00    -0.354 N 
ATOM     47  C   UNL A   1      45.059  28.310  28.317  1.00  0.00     0.074 A 
ATOM     48  C   UNL A   1      45.064  26.972  27.769  1.00  0.00     0.031 C 
ATOM     49  C   UNL A   1      38.811  29.453  29.291  1.00  0.00     0.029 A 
ATOM     50  C   UNL A   1      39.936  30.333  29.589  1.00  0.00     0.049 A 
ATOM     51  H   UNL A   1      41.957  29.969  29.239  1.00  0.00     0.167 HD
ATOM     52  C   UNL A   1      46.177  29.045  28.537  1.00  0.00     0.031 A 
ATOM     53  C   UNL A   1      39.841  31.552  30.152  1.00  0.00     0.031 A 
ATOM     54  C   UNL A   1      46.169  30.381  29.071  1.00  0.00     0.049 A 
ATOM     55  C   UNL A   1      41.092  32.349  30.397  1.00  0.00     0.074 A 
ATOM     56  C   UNL A   1      47.240  31.232  29.281  1.00  0.00     0.029 A 
ATOM     57  N   UNL A   1      45.032  31.060  29.483  1.00  0.00    -0.354 N 
ATOM     58  N   UNL A   1      42.336  32.027  30.137  1.00  0.00    -0.248 NA
ATOM     59  C   UNL A   1      40.923  33.676  31.003  1.00  0.00     0.031 C 
ATOM     60  C   UNL A   1      46.756  32.408  29.864  1.00  0.00     0.029 A 
ATOM     61  C   UNL A   1      45.376  32.311  29.967  1.00  0.00     0.049 A 
ATOM     62  H   UNL A   1      44.115  30.705  29.438  1.00  0.00     0.167 HD
ATOM     63  C   UNL A   1      43.099  33.122  30.527  1.00  0.00     0.074 A 
ATOM     64  C   UNL A   1      42.174  34.119  31.028  1.00  0.00     0.031 C 
ATOM     65  C   UNL A   1      44.444  33.289  30.472  1.00  0.00     0.031 A 
BRANCH  52  66
ATOM     66  C   UNL A   1      47.499  28.402  28.207  1.00  0.00    -0.014 A 
ATOM     67  C   UNL A   1      48.022  28.443  26.900  1.00  0.00     0.010 A 
ATOM     68  C   UNL A   1      48.228  27.743  29.213  1.00  0.00     0.010 A 
ATOM     69  C   UNL A   1      49.214  27.780  26.592  1.00  0.00     0.020 A 
ATOM     70  C   UNL A   1      49.437  27.105  28.915  1.00  0.00     0.020 A 
ATOM     71  C   UNL A   1      49.908  27.105  27.600  1.00  0.00     0.054 A 
BRANCH  71  72
ATOM     72  S   UNL A   1      51.441  26.235  27.171  1.00  0.00     0.124 S 
ATOM     73  O   UNL A   1      51.901  26.996  26.012  1.00  0.00    -0.237 OA
ATOM     74  O   UNL A   1      52.246  26.385  28.379  1.00  0.00    -0.237 OA
ATOM     75  O   UNL A   1      50.997  24.873  26.887  1.00  0.00    -0.744 OA
ENDBRANCH  71  72
ENDBRANCH  52  66
BRANCH  53  76
ATOM     76  C   UNL A   1      38.500  32.104  30.488  1.00  0.00    -0.014 A 
ATOM     77  C   UNL A   1      37.946  31.886  31.761  1.00  0.00     0.010 A 
ATOM     78  C   UNL A   1      37.794  32.889  29.558  1.00  0.00     0.010 A 
ATOM     79  C   UNL A   1      36.708  32.440  32.099  1.00  0.00     0.020 A 
ATOM     80  C   UNL A   1      36.566  33.466  29.902  1.00  0.00     0.020 A 
ATOM     81  C   UNL A   1      36.030  33.232  31.170  1.00  0.00     0.054 A 
BRANCH  81  82
ATOM     82  S   UNL A   1      34.464  34.007  31.661  1.00  0.00     0.124 S 
ATOM     83  O   UNL A   1      34.919  35.236  32.302  1.00  0.00    -0.237 OA
ATOM     84  O   UNL A   1      33.781  34.177  30.380  1.00  0.00    -0.237 OA
ATOM     85  O   UNL A   1      33.860  33.020  32.553  1.00  0.00    -0.744 OA
ENDBRANCH  81  82
ENDBRANCH  53  76
BRANCH  65  86
ATOM     86  C   UNL A   1      44.995  34.607  30.944  1.00  0.00    -0.014 A 
ATOM     87  C   UNL A   1      45.423  34.784  32.272  1.00  0.00     0.010 A 
ATOM     88  C   UNL A   1      45.133  35.669  30.031  1.00  0.00     0.010 A 
ATOM     89  C   UNL A   1      45.951  36.010  32.685  1.00  0.00     0.020 A 
ATOM     90  C   UNL A   1      45.684  36.887  30.434  1.00  0.00     0.020 A 
ATOM     91  C   UNL A   1      46.077  37.055  31.764  1.00  0.00     0.054 A 
BRANCH  91  92
ATOM     92  S   UNL A   1      46.805  38.622  32.314  1.00  0.00     0.124 S 
ATOM     93  O   UNL A   1      46.819  38.457  33.764  1.00  0.00    -0.237 OA
ATOM     94  O   UNL A   1      48.115  38.612  31.668  1.00  0.00    -0.237 OA
ATOM     95  O   UNL A   1      45.876  39.631  31.810  1.00  0.00    -0.744 OA
ENDBRANCH  91  92
ENDBRANCH  65  86
ENDBRANCH  39  40
ENDBRANCH  31  34
ENDBRANCH  29  30
ENDBRANCH  28  29
ENDBRANCH   1  28
TORSDOF 18
ENDMDL
