MODEL 1
REMARK VINA RESULT:      -9.9      0.000      0.000
REMARK SMILES CCC[C@@H]([NH2+]Cc1cc(Cl)cs1)C(=O)NCCCNC(=O)c1ccc(-c2c3nc(c(-c4ccc(S(=O)(=O)[O-])cc4)c4ccc([nH]4)c(-c4ccc(S(=O)(=O)[O-])cc4)c4nc(c(-c5ccc(S(=O)(=O)[O-])cc5)c5ccc2[nH]5)C=C4)C=C3)cc1
REMARK SMILES IDX 17 1 16 2 15 3 13 4 14 5 4 7 3 8 2 9 1 10 5 11 6 14 7 15
REMARK SMILES IDX 8 16 12 17 9 18 11 19 10 20 18 21 19 22 20 23 21 25 22 26
REMARK SMILES IDX 23 27 81 28 24 29 80 30 25 31 26 32 27 33 74 34 28 35 79 36
REMARK SMILES IDX 73 37 75 38 29 39 78 40 72 41 71 42 30 44 60 45 41 46 59 47
REMARK SMILES IDX 42 48 45 49 58 50 76 51 43 52 44 53 57 55 77 56 46 57 31 58
REMARK SMILES IDX 32 59 40 60 33 61 39 62 34 63 35 64 36 65 37 66 38 67 61 68
REMARK SMILES IDX 62 69 70 70 63 71 69 72 64 73 65 74 66 75 67 76 68 77 47 78
REMARK SMILES IDX 48 79 56 80 49 81 55 82 50 83 51 84 52 85 53 86 54 87
REMARK H PARENT 15 6 5 12 5 13 19 24 75 43 45 54
REMARK Flexibility Score: inf
ROOT
ATOM      1  C   UNL A   1      36.160  23.183  23.855  1.00  0.00     0.042 C 
ENDROOT
BRANCH   1   2
ATOM      2  C   UNL A   1      34.936  24.019  23.490  1.00  0.00     0.118 C 
BRANCH   2   3
ATOM      3  N   UNL A   1      33.936  23.247  22.773  1.00  0.00    -0.351 N 
ATOM      4  C   UNL A   1      33.016  22.352  23.233  1.00  0.00     0.278 C 
ATOM      5  O   UNL A   1      32.234  21.865  22.409  1.00  0.00    -0.268 OA
ATOM      6  H   UNL A   1      33.921  23.392  21.799  1.00  0.00     0.163 HD
BRANCH   4   7
ATOM      7  C   UNL A   1      32.923  21.963  24.727  1.00  0.00     0.272 C 
BRANCH   7   8
ATOM      8  C   UNL A   1      31.473  22.129  25.232  1.00  0.00     0.075 C 
BRANCH   8   9
ATOM      9  C   UNL A   1      31.291  22.923  26.531  1.00  0.00     0.003 C 
ATOM     10  C   UNL A   1      32.527  22.946  27.412  1.00  0.00     0.004 C 
ENDBRANCH   8   9
ENDBRANCH   7   8
BRANCH   7  11
ATOM     11  N   UNL A   1      33.456  20.602  24.975  1.00  0.00    -0.332 N 
ATOM     12  H   UNL A   1      33.895  20.594  25.895  1.00  0.00     0.347 HD
ATOM     13  H   UNL A   1      34.112  20.405  24.219  1.00  0.00     0.347 HD
BRANCH  11  14
ATOM     14  C   UNL A   1      32.446  19.538  24.939  1.00  0.00     0.309 C 
BRANCH  14  15
ATOM     15  C   UNL A   1      32.999  18.140  24.887  1.00  0.00     0.060 A 
ATOM     16  C   UNL A   1      32.407  16.986  25.367  1.00  0.00     0.041 A 
ATOM     17  S   UNL A   1      34.562  17.812  24.255  1.00  0.00    -0.141 S 
ATOM     18  C   UNL A   1      33.210  15.832  25.158  1.00  0.00     0.052 A 
ATOM     19  C   UNL A   1      34.391  16.132  24.522  1.00  0.00     0.085 A 
ATOM     20  Cl  UNL A   1      32.734  14.267  25.649  1.00  0.00    -0.083 Cl
ENDBRANCH  14  15
ENDBRANCH  11  14
ENDBRANCH   7  11
ENDBRANCH   4   7
ENDBRANCH   2   3
ENDBRANCH   1   2
BRANCH   1  21
ATOM     21  C   UNL A   1      36.880  23.635  25.122  1.00  0.00     0.118 C 
BRANCH  21  22
ATOM     22  N   UNL A   1      37.869  22.671  25.581  1.00  0.00    -0.352 N 
ATOM     23  C   UNL A   1      39.042  22.861  26.262  1.00  0.00     0.251 C 
ATOM     24  H   UNL A   1      37.661  21.733  25.368  1.00  0.00     0.163 HD
ATOM     25  O   UNL A   1      39.818  21.909  26.388  1.00  0.00    -0.269 OA
BRANCH  23  26
ATOM     26  C   UNL A   1      39.401  24.180  26.828  1.00  0.00     0.039 A 
ATOM     27  C   UNL A   1      39.008  24.475  28.137  1.00  0.00     0.014 A 
ATOM     28  C   UNL A   1      40.081  25.142  26.076  1.00  0.00     0.014 A 
ATOM     29  C   UNL A   1      39.345  25.703  28.707  1.00  0.00     0.010 A 
ATOM     30  C   UNL A   1      40.484  26.338  26.670  1.00  0.00     0.010 A 
ATOM     31  C   UNL A   1      40.116  26.635  27.990  1.00  0.00    -0.014 A 
BRANCH  31  32
ATOM     32  C   UNL A   1      40.561  27.900  28.629  1.00  0.00     0.031 A 
ATOM     33  C   UNL A   1      41.953  28.042  29.182  1.00  0.00     0.074 A 
ATOM     34  C   UNL A   1      39.682  28.913  28.760  1.00  0.00     0.049 A 
ATOM     35  N   UNL A   1      42.511  29.082  29.750  1.00  0.00    -0.248 NA
ATOM     36  C   UNL A   1      42.820  26.857  29.117  1.00  0.00     0.031 C 
ATOM     37  C   UNL A   1      38.279  28.874  28.337  1.00  0.00     0.029 A 
ATOM     38  N   UNL A   1      39.834  30.169  29.291  1.00  0.00    -0.354 N 
ATOM     39  C   UNL A   1      43.785  28.673  30.126  1.00  0.00     0.074 A 
ATOM     40  C   UNL A   1      43.900  27.275  29.763  1.00  0.00     0.031 C 
ATOM     41  C   UNL A   1      37.709  30.060  28.602  1.00  0.00     0.029 A 
ATOM     42  C   UNL A   1      38.692  30.932  29.236  1.00  0.00     0.049 A 
ATOM     43  H   UNL A   1      40.681  30.493  29.674  1.00  0.00     0.167 HD
ATOM     44  C   UNL A   1      44.774  29.394  30.707  1.00  0.00     0.031 A 
ATOM     45  C   UNL A   1      38.457  32.193  29.646  1.00  0.00     0.031 A 
ATOM     46  C   UNL A   1      44.657  30.785  31.063  1.00  0.00     0.049 A 
ATOM     47  C   UNL A   1      39.580  32.992  30.242  1.00  0.00     0.074 A 
ATOM     48  C   UNL A   1      45.630  31.628  31.574  1.00  0.00     0.029 A 
ATOM     49  N   UNL A   1      43.495  31.534  30.960  1.00  0.00    -0.354 N 
ATOM     50  N   UNL A   1      40.812  32.619  30.491  1.00  0.00    -0.248 NA
ATOM     51  C   UNL A   1      39.285  34.386  30.593  1.00  0.00     0.031 C 
ATOM     52  C   UNL A   1      45.040  32.872  31.830  1.00  0.00     0.029 A 
ATOM     53  C   UNL A   1      43.715  32.821  31.427  1.00  0.00     0.049 A 
ATOM     54  H   UNL A   1      42.639  31.201  30.607  1.00  0.00     0.167 HD
ATOM     55  C   UNL A   1      41.445  33.737  31.021  1.00  0.00     0.074 A 
ATOM     56  C   UNL A   1      40.464  34.805  31.030  1.00  0.00     0.031 C 
ATOM     57  C   UNL A   1      42.721  33.865  31.463  1.00  0.00     0.031 A 
BRANCH  44  58
ATOM     58  C   UNL A   1      46.065  28.677  31.010  1.00  0.00    -0.014 A 
ATOM     59  C   UNL A   1      46.279  28.049  32.251  1.00  0.00     0.010 A 
ATOM     60  C   UNL A   1      47.080  28.626  30.037  1.00  0.00     0.010 A 
ATOM     61  C   UNL A   1      47.505  27.440  32.535  1.00  0.00     0.020 A 
ATOM     62  C   UNL A   1      48.297  27.992  30.306  1.00  0.00     0.020 A 
ATOM     63  C   UNL A   1      48.510  27.425  31.564  1.00  0.00     0.054 A 
BRANCH  63  64
ATOM     64  S   UNL A   1      50.096  26.640  31.963  1.00  0.00     0.124 S 
ATOM     65  O   UNL A   1      50.593  27.498  33.037  1.00  0.00    -0.237 OA
ATOM     66  O   UNL A   1      49.699  25.295  32.368  1.00  0.00    -0.237 OA
ATOM     67  O   UNL A   1      50.844  26.715  30.710  1.00  0.00    -0.744 OA
ENDBRANCH  63  64
ENDBRANCH  44  58
BRANCH  45  68
ATOM     68  C   UNL A   1      37.098  32.770  29.472  1.00  0.00    -0.014 A 
ATOM     69  C   UNL A   1      36.240  32.927  30.575  1.00  0.00     0.010 A 
ATOM     70  C   UNL A   1      36.684  33.231  28.209  1.00  0.00     0.010 A 
ATOM     71  C   UNL A   1      34.994  33.541  30.417  1.00  0.00     0.020 A 
ATOM     72  C   UNL A   1      35.450  33.868  28.054  1.00  0.00     0.020 A 
ATOM     73  C   UNL A   1      34.611  34.016  29.160  1.00  0.00     0.054 A 
BRANCH  73  74
ATOM     74  S   UNL A   1      33.036  34.904  29.001  1.00  0.00     0.124 S 
ATOM     75  O   UNL A   1      32.321  34.083  28.028  1.00  0.00    -0.237 OA
ATOM     76  O   UNL A   1      32.514  34.870  30.364  1.00  0.00    -0.237 OA
ATOM     77  O   UNL A   1      33.437  36.228  28.529  1.00  0.00    -0.744 OA
ENDBRANCH  73  74
ENDBRANCH  45  68
BRANCH  57  78
ATOM     78  C   UNL A   1      43.125  35.215  31.997  1.00  0.00    -0.014 A 
ATOM     79  C   UNL A   1      42.866  35.573  33.334  1.00  0.00     0.010 A 
ATOM     80  C   UNL A   1      43.778  36.133  31.156  1.00  0.00     0.010 A 
ATOM     81  C   UNL A   1      43.208  36.844  33.804  1.00  0.00     0.020 A 
ATOM     82  C   UNL A   1      44.148  37.394  31.630  1.00  0.00     0.020 A 
ATOM     83  C   UNL A   1      43.839  37.750  32.946  1.00  0.00     0.054 A 
BRANCH  83  84
ATOM     84  S   UNL A   1      44.277  39.393  33.577  1.00  0.00     0.124 S 
ATOM     85  O   UNL A   1      42.970  39.936  33.940  1.00  0.00    -0.237 OA
ATOM     86  O   UNL A   1      45.162  39.084  34.698  1.00  0.00    -0.237 OA
ATOM     87  O   UNL A   1      44.926  40.038  32.438  1.00  0.00    -0.744 OA
ENDBRANCH  83  84
ENDBRANCH  57  78
ENDBRANCH  31  32
ENDBRANCH  23  26
ENDBRANCH  21  22
ENDBRANCH   1  21
TORSDOF 18
ENDMDL
MODEL 2
REMARK VINA RESULT:      -9.9      4.406      5.578
REMARK SMILES CCC[C@@H]([NH2+]Cc1cc(Cl)cs1)C(=O)NCCCNC(=O)c1ccc(-c2c3nc(c(-c4ccc(S(=O)(=O)[O-])cc4)c4ccc([nH]4)c(-c4ccc(S(=O)(=O)[O-])cc4)c4nc(c(-c5ccc(S(=O)(=O)[O-])cc5)c5ccc2[nH]5)C=C4)C=C3)cc1
REMARK SMILES IDX 17 1 16 2 15 3 13 4 14 5 4 7 3 8 2 9 1 10 5 11 6 14 7 15
REMARK SMILES IDX 8 16 12 17 9 18 11 19 10 20 18 21 19 22 20 23 21 25 22 26
REMARK SMILES IDX 23 27 81 28 24 29 80 30 25 31 26 32 27 33 74 34 28 35 79 36
REMARK SMILES IDX 73 37 75 38 29 39 78 40 72 41 71 42 30 44 60 45 41 46 59 47
REMARK SMILES IDX 42 48 45 49 58 50 76 51 43 52 44 53 57 55 77 56 46 57 31 58
REMARK SMILES IDX 32 59 40 60 33 61 39 62 34 63 35 64 36 65 37 66 38 67 61 68
REMARK SMILES IDX 62 69 70 70 63 71 69 72 64 73 65 74 66 75 67 76 68 77 47 78
REMARK SMILES IDX 48 79 56 80 49 81 55 82 50 83 51 84 52 85 53 86 54 87
REMARK H PARENT 15 6 5 12 5 13 19 24 75 43 45 54
REMARK Flexibility Score: inf
ROOT
ATOM      1  C   UNL A   1      37.702  23.739  26.091  1.00  0.00     0.042 C 
ENDROOT
BRANCH   1   2
ATOM      2  C   UNL A   1      37.167  22.366  25.693  1.00  0.00     0.118 C 
BRANCH   2   3
ATOM      3  N   UNL A   1      35.936  22.033  26.387  1.00  0.00    -0.351 N 
ATOM      4  C   UNL A   1      34.640  22.319  26.072  1.00  0.00     0.278 C 
ATOM      5  O   UNL A   1      33.761  21.867  26.814  1.00  0.00    -0.268 OA
ATOM      6  H   UNL A   1      36.055  21.519  27.218  1.00  0.00     0.163 HD
BRANCH   4   7
ATOM      7  C   UNL A   1      34.263  23.157  24.828  1.00  0.00     0.272 C 
BRANCH   7   8
ATOM      8  C   UNL A   1      32.851  22.771  24.333  1.00  0.00     0.075 C 
BRANCH   8   9
ATOM      9  C   UNL A   1      32.785  21.938  23.048  1.00  0.00     0.003 C 
ATOM     10  C   UNL A   1      32.238  20.537  23.254  1.00  0.00     0.004 C 
ENDBRANCH   8   9
ENDBRANCH   7   8
BRANCH   7  11
ATOM     11  N   UNL A   1      34.394  24.611  25.085  1.00  0.00    -0.332 N 
ATOM     12  H   UNL A   1      35.382  24.857  25.025  1.00  0.00     0.347 HD
ATOM     13  H   UNL A   1      33.998  24.780  26.009  1.00  0.00     0.347 HD
BRANCH  11  14
ATOM     14  C   UNL A   1      33.652  25.463  24.149  1.00  0.00     0.309 C 
BRANCH  14  15
ATOM     15  C   UNL A   1      33.307  26.830  24.673  1.00  0.00     0.060 A 
ATOM     16  C   UNL A   1      32.692  27.136  25.873  1.00  0.00     0.041 A 
ATOM     17  S   UNL A   1      33.586  28.249  23.746  1.00  0.00    -0.141 S 
ATOM     18  C   UNL A   1      32.509  28.535  26.052  1.00  0.00     0.052 A 
ATOM     19  C   UNL A   1      32.992  29.259  24.989  1.00  0.00     0.085 A 
ATOM     20  Cl  UNL A   1      31.774  29.206  27.440  1.00  0.00    -0.083 Cl
ENDBRANCH  14  15
ENDBRANCH  11  14
ENDBRANCH   7  11
ENDBRANCH   4   7
ENDBRANCH   2   3
ENDBRANCH   1   2
BRANCH   1  21
ATOM     21  C   UNL A   1      39.043  23.709  26.819  1.00  0.00     0.118 C 
BRANCH  21  22
ATOM     22  N   UNL A   1      40.137  24.211  26.002  1.00  0.00    -0.352 N 
ATOM     23  C   UNL A   1      40.894  25.346  26.134  1.00  0.00     0.251 C 
ATOM     24  H   UNL A   1      40.372  23.645  25.233  1.00  0.00     0.163 HD
ATOM     25  O   UNL A   1      41.652  25.666  25.215  1.00  0.00    -0.269 OA
BRANCH  23  26
ATOM     26  C   UNL A   1      40.802  26.198  27.341  1.00  0.00     0.039 A 
ATOM     27  C   UNL A   1      41.677  27.282  27.462  1.00  0.00     0.014 A 
ATOM     28  C   UNL A   1      39.897  25.920  28.369  1.00  0.00     0.014 A 
ATOM     29  C   UNL A   1      41.604  28.115  28.579  1.00  0.00     0.010 A 
ATOM     30  C   UNL A   1      39.774  26.796  29.448  1.00  0.00     0.010 A 
ATOM     31  C   UNL A   1      40.630  27.900  29.568  1.00  0.00    -0.014 A 
BRANCH  31  32
ATOM     32  C   UNL A   1      40.486  28.843  30.707  1.00  0.00     0.031 A 
ATOM     33  C   UNL A   1      41.343  28.711  31.936  1.00  0.00     0.074 A 
ATOM     34  C   UNL A   1      39.533  29.795  30.654  1.00  0.00     0.049 A 
ATOM     35  N   UNL A   1      41.364  29.462  33.009  1.00  0.00    -0.248 NA
ATOM     36  C   UNL A   1      42.276  27.576  31.980  1.00  0.00     0.031 C 
ATOM     37  C   UNL A   1      38.584  29.979  29.552  1.00  0.00     0.029 A 
ATOM     38  N   UNL A   1      39.202  30.783  31.547  1.00  0.00    -0.354 N 
ATOM     39  C   UNL A   1      42.294  28.881  33.863  1.00  0.00     0.074 A 
ATOM     40  C   UNL A   1      42.782  27.689  33.200  1.00  0.00     0.031 C 
ATOM     41  C   UNL A   1      37.796  31.030  29.825  1.00  0.00     0.029 A 
ATOM     42  C   UNL A   1      38.162  31.578  31.127  1.00  0.00     0.049 A 
ATOM     43  H   UNL A   1      39.665  30.909  32.406  1.00  0.00     0.167 HD
ATOM     44  C   UNL A   1      42.716  29.305  35.078  1.00  0.00     0.031 A 
ATOM     45  C   UNL A   1      37.568  32.632  31.718  1.00  0.00     0.031 A 
ATOM     46  C   UNL A   1      42.231  30.493  35.733  1.00  0.00     0.049 A 
ATOM     47  C   UNL A   1      38.082  33.116  33.043  1.00  0.00     0.074 A 
ATOM     48  C   UNL A   1      42.657  31.056  36.924  1.00  0.00     0.029 A 
ATOM     49  N   UNL A   1      41.201  31.293  35.260  1.00  0.00    -0.354 N 
ATOM     50  N   UNL A   1      39.040  32.615  33.786  1.00  0.00    -0.248 NA
ATOM     51  C   UNL A   1      37.450  34.319  33.597  1.00  0.00     0.031 C 
ATOM     52  C   UNL A   1      41.849  32.166  37.198  1.00  0.00     0.029 A 
ATOM     53  C   UNL A   1      40.955  32.327  36.150  1.00  0.00     0.049 A 
ATOM     54  H   UNL A   1      40.716  31.147  34.416  1.00  0.00     0.167 HD
ATOM     55  C   UNL A   1      39.132  33.447  34.895  1.00  0.00     0.074 A 
ATOM     56  C   UNL A   1      38.150  34.498  34.709  1.00  0.00     0.031 C 
ATOM     57  C   UNL A   1      39.952  33.348  35.971  1.00  0.00     0.031 A 
BRANCH  44  58
ATOM     58  C   UNL A   1      43.744  28.459  35.787  1.00  0.00    -0.014 A 
ATOM     59  C   UNL A   1      45.122  28.682  35.611  1.00  0.00     0.010 A 
ATOM     60  C   UNL A   1      43.325  27.426  36.646  1.00  0.00     0.010 A 
ATOM     61  C   UNL A   1      46.059  27.850  36.231  1.00  0.00     0.020 A 
ATOM     62  C   UNL A   1      44.259  26.611  37.291  1.00  0.00     0.020 A 
ATOM     63  C   UNL A   1      45.621  26.812  37.058  1.00  0.00     0.054 A 
BRANCH  63  64
ATOM     64  S   UNL A   1      46.857  25.738  37.839  1.00  0.00     0.124 S 
ATOM     65  O   UNL A   1      48.009  26.632  37.941  1.00  0.00    -0.237 OA
ATOM     66  O   UNL A   1      46.223  25.385  39.107  1.00  0.00    -0.237 OA
ATOM     67  O   UNL A   1      47.005  24.636  36.892  1.00  0.00    -0.744 OA
ENDBRANCH  63  64
ENDBRANCH  44  58
BRANCH  45  68
ATOM     68  C   UNL A   1      36.436  33.306  31.030  1.00  0.00    -0.014 A 
ATOM     69  C   UNL A   1      35.169  33.377  31.636  1.00  0.00     0.010 A 
ATOM     70  C   UNL A   1      36.640  33.942  29.792  1.00  0.00     0.010 A 
ATOM     71  C   UNL A   1      34.130  34.078  31.018  1.00  0.00     0.020 A 
ATOM     72  C   UNL A   1      35.611  34.665  29.184  1.00  0.00     0.020 A 
ATOM     73  C   UNL A   1      34.359  34.726  29.801  1.00  0.00     0.054 A 
BRANCH  73  74
ATOM     74  S   UNL A   1      33.027  35.718  29.070  1.00  0.00     0.124 S 
ATOM     75  O   UNL A   1      33.771  36.776  28.394  1.00  0.00    -0.237 OA
ATOM     76  O   UNL A   1      32.359  34.756  28.197  1.00  0.00    -0.237 OA
ATOM     77  O   UNL A   1      32.244  36.143  30.229  1.00  0.00    -0.744 OA
ENDBRANCH  73  74
ENDBRANCH  45  68
BRANCH  57  78
ATOM     78  C   UNL A   1      39.816  34.408  37.032  1.00  0.00    -0.014 A 
ATOM     79  C   UNL A   1      39.033  34.189  38.181  1.00  0.00     0.010 A 
ATOM     80  C   UNL A   1      40.487  35.636  36.884  1.00  0.00     0.010 A 
ATOM     81  C   UNL A   1      38.882  35.197  39.136  1.00  0.00     0.020 A 
ATOM     82  C   UNL A   1      40.362  36.636  37.852  1.00  0.00     0.020 A 
ATOM     83  C   UNL A   1      39.541  36.418  38.961  1.00  0.00     0.054 A 
BRANCH  83  84
ATOM     84  S   UNL A   1      39.333  37.712  40.215  1.00  0.00     0.124 S 
ATOM     85  O   UNL A   1      38.271  38.529  39.634  1.00  0.00    -0.237 OA
ATOM     86  O   UNL A   1      38.960  36.951  41.406  1.00  0.00    -0.237 OA
ATOM     87  O   UNL A   1      40.647  38.347  40.276  1.00  0.00    -0.744 OA
ENDBRANCH  83  84
ENDBRANCH  57  78
ENDBRANCH  31  32
ENDBRANCH  23  26
ENDBRANCH  21  22
ENDBRANCH   1  21
TORSDOF 18
ENDMDL
MODEL 3
REMARK VINA RESULT:      -9.7      4.300     10.313
REMARK SMILES CCC[C@@H]([NH2+]Cc1cc(Cl)cs1)C(=O)NCCCNC(=O)c1ccc(-c2c3nc(c(-c4ccc(S(=O)(=O)[O-])cc4)c4ccc([nH]4)c(-c4ccc(S(=O)(=O)[O-])cc4)c4nc(c(-c5ccc(S(=O)(=O)[O-])cc5)c5ccc2[nH]5)C=C4)C=C3)cc1
REMARK SMILES IDX 17 1 16 2 15 3 13 4 14 5 4 7 3 8 2 9 1 10 5 11 6 14 7 15
REMARK SMILES IDX 8 16 12 17 9 18 11 19 10 20 18 21 19 22 20 23 21 25 22 26
REMARK SMILES IDX 23 27 81 28 24 29 80 30 25 31 26 32 27 33 74 34 28 35 79 36
REMARK SMILES IDX 73 37 75 38 29 39 78 40 72 41 71 42 30 44 60 45 41 46 59 47
REMARK SMILES IDX 42 48 45 49 58 50 76 51 43 52 44 53 57 55 77 56 46 57 31 58
REMARK SMILES IDX 32 59 40 60 33 61 39 62 34 63 35 64 36 65 37 66 38 67 61 68
REMARK SMILES IDX 62 69 70 70 63 71 69 72 64 73 65 74 66 75 67 76 68 77 47 78
REMARK SMILES IDX 48 79 56 80 49 81 55 82 50 83 51 84 52 85 53 86 54 87
REMARK H PARENT 15 6 5 12 5 13 19 24 75 43 45 54
REMARK Flexibility Score: inf
ROOT
ATOM      1  C   UNL A   1      33.958  28.548  24.751  1.00  0.00     0.042 C 
ENDROOT
BRANCH   1   2
ATOM      2  C   UNL A   1      32.771  28.952  23.880  1.00  0.00     0.118 C 
BRANCH   2   3
ATOM      3  N   UNL A   1      32.585  28.055  22.753  1.00  0.00    -0.351 N 
ATOM      4  C   UNL A   1      31.642  27.093  22.539  1.00  0.00     0.278 C 
ATOM      5  O   UNL A   1      31.675  26.497  21.457  1.00  0.00    -0.268 OA
ATOM      6  H   UNL A   1      33.244  28.157  22.029  1.00  0.00     0.163 HD
BRANCH   4   7
ATOM      7  C   UNL A   1      30.555  26.759  23.586  1.00  0.00     0.272 C 
BRANCH   7   8
ATOM      8  C   UNL A   1      31.183  26.026  24.792  1.00  0.00     0.075 C 
BRANCH   8   9
ATOM      9  C   UNL A   1      32.330  25.059  24.479  1.00  0.00     0.003 C 
ATOM     10  C   UNL A   1      33.393  25.000  25.561  1.00  0.00     0.004 C 
ENDBRANCH   8   9
ENDBRANCH   7   8
BRANCH   7  11
ATOM     11  N   UNL A   1      29.793  27.964  23.990  1.00  0.00    -0.332 N 
ATOM     12  H   UNL A   1      30.436  28.755  24.012  1.00  0.00     0.347 HD
ATOM     13  H   UNL A   1      29.383  27.758  24.901  1.00  0.00     0.347 HD
BRANCH  11  14
ATOM     14  C   UNL A   1      28.678  28.305  23.098  1.00  0.00     0.309 C 
BRANCH  14  15
ATOM     15  C   UNL A   1      28.614  29.751  22.688  1.00  0.00     0.060 A 
ATOM     16  C   UNL A   1      28.159  30.261  21.486  1.00  0.00     0.041 A 
ATOM     17  S   UNL A   1      29.209  31.003  23.702  1.00  0.00    -0.141 S 
ATOM     18  C   UNL A   1      28.243  31.679  21.429  1.00  0.00     0.052 A 
ATOM     19  C   UNL A   1      28.755  32.215  22.586  1.00  0.00     0.085 A 
ATOM     20  Cl  UNL A   1      27.754  32.584  20.065  1.00  0.00    -0.083 Cl
ENDBRANCH  14  15
ENDBRANCH  11  14
ENDBRANCH   7  11
ENDBRANCH   4   7
ENDBRANCH   2   3
ENDBRANCH   1   2
BRANCH   1  21
ATOM     21  C   UNL A   1      33.671  28.543  26.249  1.00  0.00     0.118 C 
BRANCH  21  22
ATOM     22  N   UNL A   1      33.535  29.884  26.800  1.00  0.00    -0.352 N 
ATOM     23  C   UNL A   1      34.349  30.578  27.655  1.00  0.00     0.251 C 
ATOM     24  H   UNL A   1      32.729  30.369  26.510  1.00  0.00     0.163 HD
ATOM     25  O   UNL A   1      33.941  31.639  28.135  1.00  0.00    -0.269 OA
BRANCH  23  26
ATOM     26  C   UNL A   1      35.690  30.072  28.024  1.00  0.00     0.039 A 
ATOM     27  C   UNL A   1      36.690  30.055  27.047  1.00  0.00     0.014 A 
ATOM     28  C   UNL A   1      35.963  29.580  29.304  1.00  0.00     0.014 A 
ATOM     29  C   UNL A   1      37.970  29.601  27.368  1.00  0.00     0.010 A 
ATOM     30  C   UNL A   1      37.261  29.198  29.644  1.00  0.00     0.010 A 
ATOM     31  C   UNL A   1      38.278  29.198  28.678  1.00  0.00    -0.014 A 
BRANCH  31  32
ATOM     32  C   UNL A   1      39.664  28.810  29.046  1.00  0.00     0.031 A 
ATOM     33  C   UNL A   1      40.584  29.779  29.735  1.00  0.00     0.074 A 
ATOM     34  C   UNL A   1      40.114  27.586  28.704  1.00  0.00     0.049 A 
ATOM     35  N   UNL A   1      41.814  29.596  30.146  1.00  0.00    -0.248 NA
ATOM     36  C   UNL A   1      40.071  31.137  29.967  1.00  0.00     0.031 C 
ATOM     37  C   UNL A   1      39.347  26.581  27.963  1.00  0.00     0.029 A 
ATOM     38  N   UNL A   1      41.325  26.981  28.928  1.00  0.00    -0.354 N 
ATOM     39  C   UNL A   1      42.228  30.817  30.666  1.00  0.00     0.074 A 
ATOM     40  C   UNL A   1      41.133  31.745  30.477  1.00  0.00     0.031 C 
ATOM     41  C   UNL A   1      40.097  25.477  27.818  1.00  0.00     0.029 A 
ATOM     42  C   UNL A   1      41.403  25.704  28.428  1.00  0.00     0.049 A 
ATOM     43  H   UNL A   1      42.067  27.421  29.403  1.00  0.00     0.167 HD
ATOM     44  C   UNL A   1      43.404  31.135  31.260  1.00  0.00     0.031 A 
ATOM     45  C   UNL A   1      42.409  24.810  28.455  1.00  0.00     0.031 A 
ATOM     46  C   UNL A   1      44.490  30.208  31.450  1.00  0.00     0.049 A 
ATOM     47  C   UNL A   1      43.687  25.164  29.160  1.00  0.00     0.074 A 
ATOM     48  C   UNL A   1      45.687  30.407  32.118  1.00  0.00     0.029 A 
ATOM     49  N   UNL A   1      44.519  28.911  30.960  1.00  0.00    -0.354 N 
ATOM     50  N   UNL A   1      44.019  26.291  29.743  1.00  0.00    -0.248 NA
ATOM     51  C   UNL A   1      44.715  24.119  29.229  1.00  0.00     0.031 C 
ATOM     52  C   UNL A   1      46.461  29.248  31.984  1.00  0.00     0.029 A 
ATOM     53  C   UNL A   1      45.725  28.307  31.281  1.00  0.00     0.049 A 
ATOM     54  H   UNL A   1      43.790  28.482  30.456  1.00  0.00     0.167 HD
ATOM     55  C   UNL A   1      45.294  26.089  30.258  1.00  0.00     0.074 A 
ATOM     56  C   UNL A   1      45.659  24.722  29.939  1.00  0.00     0.031 C 
ATOM     57  C   UNL A   1      46.091  26.958  30.929  1.00  0.00     0.031 A 
BRANCH  44  58
ATOM     58  C   UNL A   1      43.579  32.557  31.729  1.00  0.00    -0.014 A 
ATOM     59  C   UNL A   1      43.112  32.975  32.989  1.00  0.00     0.010 A 
ATOM     60  C   UNL A   1      44.224  33.492  30.897  1.00  0.00     0.010 A 
ATOM     61  C   UNL A   1      43.231  34.311  33.381  1.00  0.00     0.020 A 
ATOM     62  C   UNL A   1      44.371  34.822  31.298  1.00  0.00     0.020 A 
ATOM     63  C   UNL A   1      43.850  35.229  32.528  1.00  0.00     0.054 A 
BRANCH  63  64
ATOM     64  S   UNL A   1      43.979  36.960  33.055  1.00  0.00     0.124 S 
ATOM     65  O   UNL A   1      42.880  37.065  34.012  1.00  0.00    -0.237 OA
ATOM     66  O   UNL A   1      45.320  37.024  33.631  1.00  0.00    -0.237 OA
ATOM     67  O   UNL A   1      43.801  37.713  31.816  1.00  0.00    -0.744 OA
ENDBRANCH  63  64
ENDBRANCH  44  58
BRANCH  45  68
ATOM     68  C   UNL A   1      42.220  23.484  27.809  1.00  0.00    -0.014 A 
ATOM     69  C   UNL A   1      42.582  23.283  26.466  1.00  0.00     0.010 A 
ATOM     70  C   UNL A   1      41.739  22.396  28.561  1.00  0.00     0.010 A 
ATOM     71  C   UNL A   1      42.473  22.015  25.888  1.00  0.00     0.020 A 
ATOM     72  C   UNL A   1      41.652  21.122  27.993  1.00  0.00     0.020 A 
ATOM     73  C   UNL A   1      42.017  20.940  26.658  1.00  0.00     0.054 A 
BRANCH  73  74
ATOM     74  S   UNL A   1      41.983  19.284  25.918  1.00  0.00     0.124 S 
ATOM     75  O   UNL A   1      40.571  19.129  25.581  1.00  0.00    -0.237 OA
ATOM     76  O   UNL A   1      42.894  19.425  24.785  1.00  0.00    -0.237 OA
ATOM     77  O   UNL A   1      42.470  18.421  26.993  1.00  0.00    -0.744 OA
ENDBRANCH  73  74
ENDBRANCH  45  68
BRANCH  57  78
ATOM     78  C   UNL A   1      47.442  26.449  31.361  1.00  0.00    -0.014 A 
ATOM     79  C   UNL A   1      48.557  26.537  30.507  1.00  0.00     0.010 A 
ATOM     80  C   UNL A   1      47.600  25.885  32.640  1.00  0.00     0.010 A 
ATOM     81  C   UNL A   1      49.794  26.023  30.905  1.00  0.00     0.020 A 
ATOM     82  C   UNL A   1      48.842  25.396  33.052  1.00  0.00     0.020 A 
ATOM     83  C   UNL A   1      49.926  25.448  32.173  1.00  0.00     0.054 A 
BRANCH  83  84
ATOM     84  S   UNL A   1      51.541  24.789  32.670  1.00  0.00     0.124 S 
ATOM     85  O   UNL A   1      52.459  25.614  31.889  1.00  0.00    -0.237 OA
ATOM     86  O   UNL A   1      51.556  25.024  34.112  1.00  0.00    -0.237 OA
ATOM     87  O   UNL A   1      51.477  23.383  32.276  1.00  0.00    -0.744 OA
ENDBRANCH  83  84
ENDBRANCH  57  78
ENDBRANCH  31  32
ENDBRANCH  23  26
ENDBRANCH  21  22
ENDBRANCH   1  21
TORSDOF 18
ENDMDL
