MODEL 1
REMARK VINA RESULT:     -12.7      0.000      0.000
REMARK SMILES CC[NH+]1CC[NH+]([C@@H]2CC(=O)N(c3ccc(C(=O)NCCCNC(=O)c4ccc(-c5c6nc(c(-c7ccc(S(=O)(=O)[O-])cc7)c7ccc([nH]7)c(-c7ccc(S(=O)(=O)[O-])cc7)c7nc(c(-c8ccc(S(=O)(=O)[O-])cc8)c8ccc5[nH]8)C=C7)C=C6)cc4)cc3)C2=O)CC1
REMARK SMILES IDX 20 1 19 2 18 3 16 4 17 5 15 7 12 8 13 9 86 10 14 11 85 12
REMARK SMILES IDX 11 13 7 14 8 15 87 16 9 17 88 18 10 19 6 20 3 21 4 22 90 23
REMARK SMILES IDX 5 25 89 26 2 28 1 29 21 30 22 31 23 32 24 34 25 35 26 36
REMARK SMILES IDX 84 37 27 38 83 39 28 40 29 41 30 42 77 43 31 44 82 45 76 46
REMARK SMILES IDX 78 47 32 48 81 49 75 50 74 51 33 53 63 54 44 55 62 56 45 57
REMARK SMILES IDX 48 58 61 59 79 60 46 61 47 62 60 64 80 65 49 66 34 67 35 68
REMARK SMILES IDX 43 69 36 70 42 71 37 72 38 73 39 74 40 75 41 76 64 77 65 78
REMARK SMILES IDX 73 79 66 80 72 81 67 82 68 83 69 84 70 85 71 86 50 87 51 88
REMARK SMILES IDX 59 89 52 90 58 91 53 92 54 93 55 94 56 95 57 96
REMARK H PARENT 18 6 3 24 6 27 22 33 78 52 48 63
REMARK Flexibility Score: inf
ROOT
ATOM      1  C   UNL A   1      39.620  22.292  26.539  1.00  0.00     0.042 C 
ENDROOT
BRANCH   1   2
ATOM      2  C   UNL A   1      38.228  22.750  26.096  1.00  0.00     0.118 C 
BRANCH   2   3
ATOM      3  N   UNL A   1      37.398  21.624  25.710  1.00  0.00    -0.352 N 
ATOM      4  C   UNL A   1      36.076  21.539  25.356  1.00  0.00     0.251 C 
ATOM      5  O   UNL A   1      35.651  20.441  24.992  1.00  0.00    -0.269 OA
ATOM      6  H   UNL A   1      37.872  20.761  25.701  1.00  0.00     0.163 HD
BRANCH   4   7
ATOM      7  C   UNL A   1      35.153  22.708  25.356  1.00  0.00     0.039 A 
ATOM      8  C   UNL A   1      33.475  24.966  25.229  1.00  0.00     0.052 A 
ATOM      9  C   UNL A   1      34.301  24.645  24.148  1.00  0.00     0.027 A 
ATOM     10  C   UNL A   1      33.474  24.148  26.354  1.00  0.00     0.027 A 
ATOM     11  C   UNL A   1      35.157  23.540  24.227  1.00  0.00     0.016 A 
ATOM     12  C   UNL A   1      34.260  23.003  26.387  1.00  0.00     0.016 A 
BRANCH   8  13
ATOM     13  N   UNL A   1      32.604  26.066  25.194  1.00  0.00    -0.245 N 
ATOM     14  C   UNL A   1      30.725  27.401  24.780  1.00  0.00     0.285 C 
ATOM     15  C   UNL A   1      31.707  28.166  25.659  1.00  0.00     0.176 C 
ATOM     16  C   UNL A   1      31.330  26.006  24.678  1.00  0.00     0.292 C 
ATOM     17  C   UNL A   1      32.906  27.284  25.740  1.00  0.00     0.240 C 
ATOM     18  O   UNL A   1      30.756  25.034  24.220  1.00  0.00    -0.267 OA
ATOM     19  O   UNL A   1      33.972  27.661  26.217  1.00  0.00    -0.274 OA
BRANCH  14  20
ATOM     20  N   UNL A   1      30.381  27.909  23.441  1.00  0.00    -0.315 N 
ATOM     21  N   UNL A   1      28.199  29.940  23.018  1.00  0.00    -0.326 N 
ATOM     22  C   UNL A   1      27.912  28.522  23.310  1.00  0.00     0.324 C 
ATOM     23  C   UNL A   1      29.530  30.305  23.549  1.00  0.00     0.324 C 
ATOM     24  H   UNL A   1      27.471  30.481  23.486  1.00  0.00     0.348 HD
ATOM     25  C   UNL A   1      29.044  27.529  22.969  1.00  0.00     0.325 C 
ATOM     26  C   UNL A   1      30.662  29.325  23.169  1.00  0.00     0.325 C 
ATOM     27  H   UNL A   1      31.064  27.405  22.876  1.00  0.00     0.349 HD
BRANCH  21  28
ATOM     28  C   UNL A   1      28.111  30.283  21.592  1.00  0.00     0.259 C 
ATOM     29  C   UNL A   1      28.390  31.752  21.293  1.00  0.00     0.071 C 
ENDBRANCH  21  28
ENDBRANCH  14  20
ENDBRANCH   8  13
ENDBRANCH   4   7
ENDBRANCH   2   3
ENDBRANCH   1   2
BRANCH   1  30
ATOM     30  C   UNL A   1      40.433  23.397  27.197  1.00  0.00     0.118 C 
BRANCH  30  31
ATOM     31  N   UNL A   1      41.102  24.221  26.206  1.00  0.00    -0.352 N 
ATOM     32  C   UNL A   1      41.234  25.580  26.127  1.00  0.00     0.251 C 
ATOM     33  H   UNL A   1      41.528  23.721  25.473  1.00  0.00     0.163 HD
ATOM     34  O   UNL A   1      41.593  26.075  25.061  1.00  0.00    -0.269 OA
BRANCH  32  35
ATOM     35  C   UNL A   1      40.964  26.446  27.296  1.00  0.00     0.039 A 
ATOM     36  C   UNL A   1      41.792  27.552  27.498  1.00  0.00     0.014 A 
ATOM     37  C   UNL A   1      39.971  26.137  28.231  1.00  0.00     0.014 A 
ATOM     38  C   UNL A   1      41.617  28.351  28.627  1.00  0.00     0.010 A 
ATOM     39  C   UNL A   1      39.743  26.985  29.313  1.00  0.00     0.010 A 
ATOM     40  C   UNL A   1      40.581  28.084  29.536  1.00  0.00    -0.014 A 
BRANCH  40  41
ATOM     41  C   UNL A   1      40.387  28.956  30.721  1.00  0.00     0.031 A 
ATOM     42  C   UNL A   1      41.246  28.794  31.946  1.00  0.00     0.074 A 
ATOM     43  C   UNL A   1      39.418  29.892  30.689  1.00  0.00     0.049 A 
ATOM     44  N   UNL A   1      41.263  29.514  33.038  1.00  0.00    -0.248 NA
ATOM     45  C   UNL A   1      42.191  27.665  31.959  1.00  0.00     0.031 C 
ATOM     46  C   UNL A   1      38.480  30.097  29.582  1.00  0.00     0.029 A 
ATOM     47  N   UNL A   1      39.068  30.850  31.604  1.00  0.00    -0.354 N 
ATOM     48  C   UNL A   1      42.205  28.920  33.871  1.00  0.00     0.074 A 
ATOM     49  C   UNL A   1      42.701  27.751  33.179  1.00  0.00     0.031 C 
ATOM     50  C   UNL A   1      37.690  31.144  29.866  1.00  0.00     0.029 A 
ATOM     51  C   UNL A   1      38.043  31.663  31.183  1.00  0.00     0.049 A 
ATOM     52  H   UNL A   1      39.510  30.947  32.479  1.00  0.00     0.167 HD
ATOM     53  C   UNL A   1      42.630  29.321  35.093  1.00  0.00     0.031 A 
ATOM     54  C   UNL A   1      37.456  32.714  31.784  1.00  0.00     0.031 A 
ATOM     55  C   UNL A   1      42.132  30.490  35.772  1.00  0.00     0.049 A 
ATOM     56  C   UNL A   1      37.972  33.166  33.122  1.00  0.00     0.074 A 
ATOM     57  C   UNL A   1      42.544  31.026  36.979  1.00  0.00     0.029 A 
ATOM     58  N   UNL A   1      41.106  31.300  35.305  1.00  0.00    -0.354 N 
ATOM     59  N   UNL A   1      38.928  32.647  33.853  1.00  0.00    -0.248 NA
ATOM     60  C   UNL A   1      37.347  34.362  33.700  1.00  0.00     0.031 C 
ATOM     61  C   UNL A   1      41.727  32.124  37.271  1.00  0.00     0.029 A 
ATOM     62  C   UNL A   1      40.853  32.314  36.212  1.00  0.00     0.049 A 
ATOM     63  H   UNL A   1      40.629  31.171  34.453  1.00  0.00     0.167 HD
ATOM     64  C   UNL A   1      39.035  33.465  34.972  1.00  0.00     0.074 A 
ATOM     65  C   UNL A   1      38.062  34.526  34.804  1.00  0.00     0.031 C 
ATOM     66  C   UNL A   1      39.865  33.351  36.040  1.00  0.00     0.031 A 
BRANCH  53  67
ATOM     67  C   UNL A   1      43.676  28.479  35.780  1.00  0.00    -0.014 A 
ATOM     68  C   UNL A   1      45.050  28.740  35.623  1.00  0.00     0.010 A 
ATOM     69  C   UNL A   1      43.277  27.424  36.622  1.00  0.00     0.010 A 
ATOM     70  C   UNL A   1      46.003  27.935  36.253  1.00  0.00     0.020 A 
ATOM     71  C   UNL A   1      44.226  26.636  37.280  1.00  0.00     0.020 A 
ATOM     72  C   UNL A   1      45.585  26.885  37.074  1.00  0.00     0.054 A 
BRANCH  72  73
ATOM     73  S   UNL A   1      46.843  25.863  37.890  1.00  0.00     0.124 S 
ATOM     74  O   UNL A   1      48.062  26.277  37.199  1.00  0.00    -0.237 OA
ATOM     75  O   UNL A   1      46.740  26.281  39.286  1.00  0.00    -0.237 OA
ATOM     76  O   UNL A   1      46.409  24.495  37.618  1.00  0.00    -0.744 OA
ENDBRANCH  72  73
ENDBRANCH  53  67
BRANCH  54  77
ATOM     77  C   UNL A   1      36.338  33.419  31.103  1.00  0.00    -0.014 A 
ATOM     78  C   UNL A   1      35.176  33.780  31.806  1.00  0.00     0.010 A 
ATOM     79  C   UNL A   1      36.453  33.774  29.745  1.00  0.00     0.010 A 
ATOM     80  C   UNL A   1      34.146  34.474  31.164  1.00  0.00     0.020 A 
ATOM     81  C   UNL A   1      35.439  34.494  29.108  1.00  0.00     0.020 A 
ATOM     82  C   UNL A   1      34.287  34.832  29.820  1.00  0.00     0.054 A 
BRANCH  82  83
ATOM     83  S   UNL A   1      32.970  35.794  29.026  1.00  0.00     0.124 S 
ATOM     84  O   UNL A   1      32.374  34.811  28.128  1.00  0.00    -0.237 OA
ATOM     85  O   UNL A   1      32.145  36.196  30.163  1.00  0.00    -0.237 OA
ATOM     86  O   UNL A   1      33.690  36.886  28.374  1.00  0.00    -0.744 OA
ENDBRANCH  82  83
ENDBRANCH  54  77
BRANCH  66  87
ATOM     87  C   UNL A   1      39.769  34.420  37.097  1.00  0.00    -0.014 A 
ATOM     88  C   UNL A   1      38.956  34.256  38.233  1.00  0.00     0.010 A 
ATOM     89  C   UNL A   1      40.515  35.604  36.953  1.00  0.00     0.010 A 
ATOM     90  C   UNL A   1      38.846  35.282  39.176  1.00  0.00     0.020 A 
ATOM     91  C   UNL A   1      40.434  36.617  37.911  1.00  0.00     0.020 A 
ATOM     92  C   UNL A   1      39.580  36.460  39.004  1.00  0.00     0.054 A 
BRANCH  92  93
ATOM     93  S   UNL A   1      39.420  37.778  40.238  1.00  0.00     0.124 S 
ATOM     94  O   UNL A   1      38.311  38.561  39.702  1.00  0.00    -0.237 OA
ATOM     95  O   UNL A   1      39.131  37.037  41.465  1.00  0.00    -0.237 OA
ATOM     96  O   UNL A   1      40.722  38.439  40.210  1.00  0.00    -0.744 OA
ENDBRANCH  92  93
ENDBRANCH  66  87
ENDBRANCH  40  41
ENDBRANCH  32  35
ENDBRANCH  30  31
ENDBRANCH   1  30
TORSDOF 16
ENDMDL
MODEL 2
REMARK VINA RESULT:     -12.5      6.303     12.438
REMARK SMILES CC[NH+]1CC[NH+]([C@@H]2CC(=O)N(c3ccc(C(=O)NCCCNC(=O)c4ccc(-c5c6nc(c(-c7ccc(S(=O)(=O)[O-])cc7)c7ccc([nH]7)c(-c7ccc(S(=O)(=O)[O-])cc7)c7nc(c(-c8ccc(S(=O)(=O)[O-])cc8)c8ccc5[nH]8)C=C7)C=C6)cc4)cc3)C2=O)CC1
REMARK SMILES IDX 20 1 19 2 18 3 16 4 17 5 15 7 12 8 13 9 86 10 14 11 85 12
REMARK SMILES IDX 11 13 7 14 8 15 87 16 9 17 88 18 10 19 6 20 3 21 4 22 90 23
REMARK SMILES IDX 5 25 89 26 2 28 1 29 21 30 22 31 23 32 24 34 25 35 26 36
REMARK SMILES IDX 84 37 27 38 83 39 28 40 29 41 30 42 77 43 31 44 82 45 76 46
REMARK SMILES IDX 78 47 32 48 81 49 75 50 74 51 33 53 63 54 44 55 62 56 45 57
REMARK SMILES IDX 48 58 61 59 79 60 46 61 47 62 60 64 80 65 49 66 34 67 35 68
REMARK SMILES IDX 43 69 36 70 42 71 37 72 38 73 39 74 40 75 41 76 64 77 65 78
REMARK SMILES IDX 73 79 66 80 72 81 67 82 68 83 69 84 70 85 71 86 50 87 51 88
REMARK SMILES IDX 59 89 52 90 58 91 53 92 54 93 55 94 56 95 57 96
REMARK H PARENT 18 6 3 24 6 27 22 33 78 52 48 63
REMARK Flexibility Score: inf
ROOT
ATOM      1  C   UNL A   1      34.458  31.654  27.671  1.00  0.00     0.042 C 
ENDROOT
BRANCH   1   2
ATOM      2  C   UNL A   1      33.528  30.445  27.536  1.00  0.00     0.118 C 
BRANCH   2   3
ATOM      3  N   UNL A   1      32.483  30.687  26.559  1.00  0.00    -0.352 N 
ATOM      4  C   UNL A   1      31.906  29.877  25.615  1.00  0.00     0.251 C 
ATOM      5  O   UNL A   1      30.966  30.337  24.965  1.00  0.00    -0.269 OA
ATOM      6  H   UNL A   1      32.123  31.603  26.576  1.00  0.00     0.163 HD
BRANCH   4   7
ATOM      7  C   UNL A   1      32.335  28.472  25.372  1.00  0.00     0.039 A 
ATOM      8  C   UNL A   1      33.006  25.769  24.950  1.00  0.00     0.052 A 
ATOM      9  C   UNL A   1      31.673  26.137  25.153  1.00  0.00     0.027 A 
ATOM     10  C   UNL A   1      33.990  26.752  24.936  1.00  0.00     0.027 A 
ATOM     11  C   UNL A   1      31.346  27.477  25.394  1.00  0.00     0.016 A 
ATOM     12  C   UNL A   1      33.646  28.089  25.086  1.00  0.00     0.016 A 
BRANCH   8  13
ATOM     13  N   UNL A   1      33.378  24.438  24.707  1.00  0.00    -0.245 N 
ATOM     14  C   UNL A   1      33.844  22.166  25.032  1.00  0.00     0.285 C 
ATOM     15  C   UNL A   1      33.936  22.496  23.547  1.00  0.00     0.176 C 
ATOM     16  C   UNL A   1      33.320  23.450  25.664  1.00  0.00     0.292 C 
ATOM     17  C   UNL A   1      33.759  23.974  23.477  1.00  0.00     0.240 C 
ATOM     18  O   UNL A   1      32.926  23.547  26.812  1.00  0.00    -0.267 OA
ATOM     19  O   UNL A   1      33.959  24.616  22.451  1.00  0.00    -0.274 OA
BRANCH  14  20
ATOM     20  N   UNL A   1      35.033  21.687  25.757  1.00  0.00    -0.315 N 
ATOM     21  N   UNL A   1      37.825  22.424  24.908  1.00  0.00    -0.326 N 
ATOM     22  C   UNL A   1      37.016  21.428  24.180  1.00  0.00     0.324 C 
ATOM     23  C   UNL A   1      36.940  23.367  25.626  1.00  0.00     0.324 C 
ATOM     24  H   UNL A   1      38.371  22.919  24.202  1.00  0.00     0.348 HD
ATOM     25  C   UNL A   1      35.883  20.765  24.994  1.00  0.00     0.325 C 
ATOM     26  C   UNL A   1      35.835  22.692  26.468  1.00  0.00     0.325 C 
ATOM     27  H   UNL A   1      34.586  21.151  26.502  1.00  0.00     0.349 HD
BRANCH  21  28
ATOM     28  C   UNL A   1      38.799  21.835  25.838  1.00  0.00     0.259 C 
ATOM     29  C   UNL A   1      39.441  22.846  26.781  1.00  0.00     0.071 C 
ENDBRANCH  21  28
ENDBRANCH  14  20
ENDBRANCH   8  13
ENDBRANCH   4   7
ENDBRANCH   2   3
ENDBRANCH   1   2
BRANCH   1  30
ATOM     30  C   UNL A   1      35.830  31.296  28.222  1.00  0.00     0.118 C 
BRANCH  30  31
ATOM     31  N   UNL A   1      35.761  30.965  29.634  1.00  0.00    -0.352 N 
ATOM     32  C   UNL A   1      36.609  30.228  30.414  1.00  0.00     0.251 C 
ATOM     33  H   UNL A   1      34.977  31.328  30.106  1.00  0.00     0.163 HD
ATOM     34  O   UNL A   1      36.213  29.840  31.511  1.00  0.00    -0.269 OA
BRANCH  32  35
ATOM     35  C   UNL A   1      37.981  29.907  29.963  1.00  0.00     0.039 A 
ATOM     36  C   UNL A   1      38.207  29.777  28.591  1.00  0.00     0.014 A 
ATOM     37  C   UNL A   1      39.017  29.652  30.868  1.00  0.00     0.014 A 
ATOM     38  C   UNL A   1      39.468  29.403  28.129  1.00  0.00     0.010 A 
ATOM     39  C   UNL A   1      40.297  29.361  30.401  1.00  0.00     0.010 A 
ATOM     40  C   UNL A   1      40.528  29.207  29.029  1.00  0.00    -0.014 A 
BRANCH  40  41
ATOM     41  C   UNL A   1      41.873  28.836  28.526  1.00  0.00     0.031 A 
ATOM     42  C   UNL A   1      42.973  29.861  28.437  1.00  0.00     0.074 A 
ATOM     43  C   UNL A   1      42.096  27.566  28.136  1.00  0.00     0.049 A 
ATOM     44  N   UNL A   1      44.224  29.695  28.092  1.00  0.00    -0.248 NA
ATOM     45  C   UNL A   1      42.618  31.254  28.752  1.00  0.00     0.031 C 
ATOM     46  C   UNL A   1      41.089  26.501  28.115  1.00  0.00     0.029 A 
ATOM     47  N   UNL A   1      43.239  26.951  27.696  1.00  0.00    -0.354 N 
ATOM     48  C   UNL A   1      44.801  30.959  28.134  1.00  0.00     0.074 A 
ATOM     49  C   UNL A   1      43.751  31.889  28.488  1.00  0.00     0.031 C 
ATOM     50  C   UNL A   1      41.669  25.357  27.723  1.00  0.00     0.029 A 
ATOM     51  C   UNL A   1      43.076  25.611  27.437  1.00  0.00     0.049 A 
ATOM     52  H   UNL A   1      44.094  27.424  27.576  1.00  0.00     0.167 HD
ATOM     53  C   UNL A   1      46.090  31.312  27.915  1.00  0.00     0.031 A 
ATOM     54  C   UNL A   1      43.962  24.686  27.024  1.00  0.00     0.031 A 
ATOM     55  C   UNL A   1      47.129  30.376  27.567  1.00  0.00     0.049 A 
ATOM     56  C   UNL A   1      45.396  25.091  26.827  1.00  0.00     0.074 A 
ATOM     57  C   UNL A   1      48.481  30.616  27.391  1.00  0.00     0.029 A 
ATOM     58  N   UNL A   1      46.930  29.023  27.332  1.00  0.00    -0.354 N 
ATOM     59  N   UNL A   1      45.943  26.275  26.962  1.00  0.00    -0.248 NA
ATOM     60  C   UNL A   1      46.335  24.028  26.447  1.00  0.00     0.031 C 
ATOM     61  C   UNL A   1      49.088  29.420  26.993  1.00  0.00     0.029 A 
ATOM     62  C   UNL A   1      48.128  28.420  26.988  1.00  0.00     0.049 A 
ATOM     63  H   UNL A   1      46.064  28.560  27.401  1.00  0.00     0.167 HD
ATOM     64  C   UNL A   1      47.297  26.098  26.704  1.00  0.00     0.074 A 
ATOM     65  C   UNL A   1      47.486  24.687  26.430  1.00  0.00     0.031 C 
ATOM     66  C   UNL A   1      48.295  27.018  26.697  1.00  0.00     0.031 A 
BRANCH  53  67
ATOM     67  C   UNL A   1      46.445  32.773  28.030  1.00  0.00    -0.014 A 
ATOM     68  C   UNL A   1      46.460  33.617  26.903  1.00  0.00     0.010 A 
ATOM     69  C   UNL A   1      46.743  33.321  29.291  1.00  0.00     0.010 A 
ATOM     70  C   UNL A   1      46.810  34.964  27.028  1.00  0.00     0.020 A 
ATOM     71  C   UNL A   1      47.063  34.675  29.426  1.00  0.00     0.020 A 
ATOM     72  C   UNL A   1      47.115  35.483  28.289  1.00  0.00     0.054 A 
BRANCH  72  73
ATOM     73  S   UNL A   1      47.555  37.238  28.425  1.00  0.00     0.124 S 
ATOM     74  O   UNL A   1      47.599  37.427  29.872  1.00  0.00    -0.237 OA
ATOM     75  O   UNL A   1      48.847  37.298  27.745  1.00  0.00    -0.237 OA
ATOM     76  O   UNL A   1      46.462  37.925  27.741  1.00  0.00    -0.744 OA
ENDBRANCH  72  73
ENDBRANCH  53  67
BRANCH  54  77
ATOM     77  C   UNL A   1      43.512  23.285  26.803  1.00  0.00    -0.014 A 
ATOM     78  C   UNL A   1      43.606  22.688  25.534  1.00  0.00     0.010 A 
ATOM     79  C   UNL A   1      43.025  22.524  27.883  1.00  0.00     0.010 A 
ATOM     80  C   UNL A   1      43.212  21.360  25.346  1.00  0.00     0.020 A 
ATOM     81  C   UNL A   1      42.658  21.188  27.705  1.00  0.00     0.020 A 
ATOM     82  C   UNL A   1      42.746  20.616  26.434  1.00  0.00     0.054 A 
BRANCH  82  83
ATOM     83  S   UNL A   1      42.309  18.874  26.182  1.00  0.00     0.124 S 
ATOM     84  O   UNL A   1      42.516  18.312  27.512  1.00  0.00    -0.237 OA
ATOM     85  O   UNL A   1      40.919  18.959  25.739  1.00  0.00    -0.237 OA
ATOM     86  O   UNL A   1      43.253  18.429  25.159  1.00  0.00    -0.744 OA
ENDBRANCH  82  83
ENDBRANCH  54  77
BRANCH  66  87
ATOM     87  C   UNL A   1      49.686  26.515  26.408  1.00  0.00    -0.014 A 
ATOM     88  C   UNL A   1      50.192  26.477  25.096  1.00  0.00     0.010 A 
ATOM     89  C   UNL A   1      50.501  26.086  27.470  1.00  0.00     0.010 A 
ATOM     90  C   UNL A   1      51.467  25.962  24.846  1.00  0.00     0.020 A 
ATOM     91  C   UNL A   1      51.789  25.602  27.228  1.00  0.00     0.020 A 
ATOM     92  C   UNL A   1      52.254  25.520  25.915  1.00  0.00     0.054 A 
BRANCH  92  93
ATOM     93  S   UNL A   1      53.904  24.853  25.568  1.00  0.00     0.124 S 
ATOM     94  O   UNL A   1      54.551  24.952  26.872  1.00  0.00    -0.237 OA
ATOM     95  O   UNL A   1      53.613  23.496  25.110  1.00  0.00    -0.237 OA
ATOM     96  O   UNL A   1      54.431  25.750  24.541  1.00  0.00    -0.744 OA
ENDBRANCH  92  93
ENDBRANCH  66  87
ENDBRANCH  40  41
ENDBRANCH  32  35
ENDBRANCH  30  31
ENDBRANCH   1  30
TORSDOF 16
ENDMDL
MODEL 3
REMARK VINA RESULT:     -12.5      1.389      2.280
REMARK SMILES CC[NH+]1CC[NH+]([C@@H]2CC(=O)N(c3ccc(C(=O)NCCCNC(=O)c4ccc(-c5c6nc(c(-c7ccc(S(=O)(=O)[O-])cc7)c7ccc([nH]7)c(-c7ccc(S(=O)(=O)[O-])cc7)c7nc(c(-c8ccc(S(=O)(=O)[O-])cc8)c8ccc5[nH]8)C=C7)C=C6)cc4)cc3)C2=O)CC1
REMARK SMILES IDX 20 1 19 2 18 3 16 4 17 5 15 7 12 8 13 9 86 10 14 11 85 12
REMARK SMILES IDX 11 13 7 14 8 15 87 16 9 17 88 18 10 19 6 20 3 21 4 22 90 23
REMARK SMILES IDX 5 25 89 26 2 28 1 29 21 30 22 31 23 32 24 34 25 35 26 36
REMARK SMILES IDX 84 37 27 38 83 39 28 40 29 41 30 42 77 43 31 44 82 45 76 46
REMARK SMILES IDX 78 47 32 48 81 49 75 50 74 51 33 53 63 54 44 55 62 56 45 57
REMARK SMILES IDX 48 58 61 59 79 60 46 61 47 62 60 64 80 65 49 66 34 67 35 68
REMARK SMILES IDX 43 69 36 70 42 71 37 72 38 73 39 74 40 75 41 76 64 77 65 78
REMARK SMILES IDX 73 79 66 80 72 81 67 82 68 83 69 84 70 85 71 86 50 87 51 88
REMARK SMILES IDX 59 89 52 90 58 91 53 92 54 93 55 94 56 95 57 96
REMARK H PARENT 18 6 3 24 6 27 22 33 78 52 48 63
REMARK Flexibility Score: inf
ROOT
ATOM      1  C   UNL A   1      39.767  22.048  26.626  1.00  0.00     0.042 C 
ENDROOT
BRANCH   1   2
ATOM      2  C   UNL A   1      38.694  22.314  25.566  1.00  0.00     0.118 C 
BRANCH   2   3
ATOM      3  N   UNL A   1      37.828  21.164  25.389  1.00  0.00    -0.352 N 
ATOM      4  C   UNL A   1      36.474  21.057  25.202  1.00  0.00     0.251 C 
ATOM      5  O   UNL A   1      36.012  19.933  24.996  1.00  0.00    -0.269 OA
ATOM      6  H   UNL A   1      38.299  20.300  25.408  1.00  0.00     0.163 HD
BRANCH   4   7
ATOM      7  C   UNL A   1      35.554  22.229  25.198  1.00  0.00     0.039 A 
ATOM      8  C   UNL A   1      33.769  24.402  25.052  1.00  0.00     0.052 A 
ATOM      9  C   UNL A   1      33.721  23.389  24.090  1.00  0.00     0.027 A 
ATOM     10  C   UNL A   1      34.691  24.313  26.091  1.00  0.00     0.027 A 
ATOM     11  C   UNL A   1      34.630  22.326  24.147  1.00  0.00     0.016 A 
ATOM     12  C   UNL A   1      35.528  23.209  26.190  1.00  0.00     0.016 A 
BRANCH   8  13
ATOM     13  N   UNL A   1      32.880  25.487  25.031  1.00  0.00    -0.245 N 
ATOM     14  C   UNL A   1      31.841  27.499  24.434  1.00  0.00     0.285 C 
ATOM     15  C   UNL A   1      31.003  26.790  25.490  1.00  0.00     0.176 C 
ATOM     16  C   UNL A   1      32.937  26.495  24.096  1.00  0.00     0.292 C 
ATOM     17  C   UNL A   1      31.819  25.608  25.889  1.00  0.00     0.240 C 
ATOM     18  O   UNL A   1      33.705  26.597  23.157  1.00  0.00    -0.267 OA
ATOM     19  O   UNL A   1      31.539  24.908  26.856  1.00  0.00    -0.274 OA
BRANCH  14  20
ATOM     20  N   UNL A   1      32.427  28.820  24.718  1.00  0.00    -0.315 N 
ATOM     21  N   UNL A   1      33.023  29.729  27.526  1.00  0.00    -0.326 N 
ATOM     22  C   UNL A   1      31.651  29.688  26.983  1.00  0.00     0.324 C 
ATOM     23  C   UNL A   1      33.879  28.760  26.808  1.00  0.00     0.324 C 
ATOM     24  H   UNL A   1      32.949  29.474  28.510  1.00  0.00     0.348 HD
ATOM     25  C   UNL A   1      31.541  29.738  25.444  1.00  0.00     0.325 C 
ATOM     26  C   UNL A   1      33.790  28.844  25.268  1.00  0.00     0.325 C 
ATOM     27  H   UNL A   1      32.534  29.178  23.769  1.00  0.00     0.349 HD
BRANCH  21  28
ATOM     28  C   UNL A   1      33.635  31.065  27.495  1.00  0.00     0.259 C 
ATOM     29  C   UNL A   1      35.076  31.094  27.990  1.00  0.00     0.071 C 
ENDBRANCH  21  28
ENDBRANCH  14  20
ENDBRANCH   8  13
ENDBRANCH   4   7
ENDBRANCH   2   3
ENDBRANCH   1   2
BRANCH   1  30
ATOM     30  C   UNL A   1      40.347  23.322  27.223  1.00  0.00     0.118 C 
BRANCH  30  31
ATOM     31  N   UNL A   1      41.078  24.085  26.227  1.00  0.00    -0.352 N 
ATOM     32  C   UNL A   1      41.365  25.422  26.170  1.00  0.00     0.251 C 
ATOM     33  H   UNL A   1      41.422  23.556  25.471  1.00  0.00     0.163 HD
ATOM     34  O   UNL A   1      41.747  25.896  25.102  1.00  0.00    -0.269 OA
BRANCH  32  35
ATOM     35  C   UNL A   1      41.231  26.286  27.363  1.00  0.00     0.039 A 
ATOM     36  C   UNL A   1      40.144  26.069  28.213  1.00  0.00     0.014 A 
ATOM     37  C   UNL A   1      42.105  27.351  27.606  1.00  0.00     0.014 A 
ATOM     38  C   UNL A   1      39.942  26.908  29.307  1.00  0.00     0.010 A 
ATOM     39  C   UNL A   1      41.949  28.136  28.747  1.00  0.00     0.010 A 
ATOM     40  C   UNL A   1      40.851  27.939  29.593  1.00  0.00    -0.014 A 
BRANCH  40  41
ATOM     41  C   UNL A   1      40.641  28.811  30.775  1.00  0.00     0.031 A 
ATOM     42  C   UNL A   1      41.473  28.637  32.017  1.00  0.00     0.074 A 
ATOM     43  C   UNL A   1      39.682  29.757  30.726  1.00  0.00     0.049 A 
ATOM     44  N   UNL A   1      41.475  29.355  33.111  1.00  0.00    -0.248 NA
ATOM     45  C   UNL A   1      42.406  27.499  32.046  1.00  0.00     0.031 C 
ATOM     46  C   UNL A   1      38.769  29.974  29.600  1.00  0.00     0.029 A 
ATOM     47  N   UNL A   1      39.324  30.716  31.635  1.00  0.00    -0.354 N 
ATOM     48  C   UNL A   1      42.394  28.750  33.961  1.00  0.00     0.074 A 
ATOM     49  C   UNL A   1      42.892  27.577  33.277  1.00  0.00     0.031 C 
ATOM     50  C   UNL A   1      37.984  31.028  29.871  1.00  0.00     0.029 A 
ATOM     51  C   UNL A   1      38.316  31.540  31.195  1.00  0.00     0.049 A 
ATOM     52  H   UNL A   1      39.748  30.807  32.519  1.00  0.00     0.167 HD
ATOM     53  C   UNL A   1      42.798  29.144  35.193  1.00  0.00     0.031 A 
ATOM     54  C   UNL A   1      37.727  32.596  31.788  1.00  0.00     0.031 A 
ATOM     55  C   UNL A   1      42.298  30.316  35.864  1.00  0.00     0.049 A 
ATOM     56  C   UNL A   1      38.220  33.040  33.136  1.00  0.00     0.074 A 
ATOM     57  C   UNL A   1      42.690  30.845  37.081  1.00  0.00     0.029 A 
ATOM     58  N   UNL A   1      41.290  31.137  35.378  1.00  0.00    -0.354 N 
ATOM     59  N   UNL A   1      39.156  32.509  33.886  1.00  0.00    -0.248 NA
ATOM     60  C   UNL A   1      37.595  34.241  33.704  1.00  0.00     0.031 C 
ATOM     61  C   UNL A   1      41.879  31.951  37.358  1.00  0.00     0.029 A 
ATOM     62  C   UNL A   1      41.029  32.152  36.282  1.00  0.00     0.049 A 
ATOM     63  H   UNL A   1      40.829  31.015  34.517  1.00  0.00     0.167 HD
ATOM     64  C   UNL A   1      39.248  33.324  35.008  1.00  0.00     0.074 A 
ATOM     65  C   UNL A   1      38.289  34.395  34.823  1.00  0.00     0.031 C 
ATOM     66  C   UNL A   1      40.055  33.199  36.093  1.00  0.00     0.031 A 
BRANCH  53  67
ATOM     67  C   UNL A   1      43.821  28.290  35.899  1.00  0.00    -0.014 A 
ATOM     68  C   UNL A   1      45.201  28.525  35.756  1.00  0.00     0.010 A 
ATOM     69  C   UNL A   1      43.394  27.249  36.745  1.00  0.00     0.010 A 
ATOM     70  C   UNL A   1      46.133  27.709  36.404  1.00  0.00     0.020 A 
ATOM     71  C   UNL A   1      44.322  26.450  37.420  1.00  0.00     0.020 A 
ATOM     72  C   UNL A   1      45.687  26.673  37.228  1.00  0.00     0.054 A 
BRANCH  72  73
ATOM     73  S   UNL A   1      46.917  25.637  38.067  1.00  0.00     0.124 S 
ATOM     74  O   UNL A   1      47.425  26.543  39.094  1.00  0.00    -0.237 OA
ATOM     75  O   UNL A   1      46.115  24.519  38.557  1.00  0.00    -0.237 OA
ATOM     76  O   UNL A   1      47.868  25.302  37.010  1.00  0.00    -0.744 OA
ENDBRANCH  72  73
ENDBRANCH  53  67
BRANCH  54  77
ATOM     77  C   UNL A   1      36.630  33.314  31.085  1.00  0.00    -0.014 A 
ATOM     78  C   UNL A   1      36.880  34.038  29.906  1.00  0.00     0.010 A 
ATOM     79  C   UNL A   1      35.312  33.237  31.573  1.00  0.00     0.010 A 
ATOM     80  C   UNL A   1      35.835  34.680  29.235  1.00  0.00     0.020 A 
ATOM     81  C   UNL A   1      34.261  33.852  30.889  1.00  0.00     0.020 A 
ATOM     82  C   UNL A   1      34.531  34.577  29.727  1.00  0.00     0.054 A 
BRANCH  82  83
ATOM     83  S   UNL A   1      33.180  35.357  28.801  1.00  0.00     0.124 S 
ATOM     84  O   UNL A   1      32.376  35.942  29.869  1.00  0.00    -0.237 OA
ATOM     85  O   UNL A   1      33.890  36.309  27.949  1.00  0.00    -0.237 OA
ATOM     86  O   UNL A   1      32.563  34.239  28.091  1.00  0.00    -0.744 OA
ENDBRANCH  82  83
ENDBRANCH  54  77
BRANCH  66  87
ATOM     87  C   UNL A   1      39.948  34.267  37.150  1.00  0.00    -0.014 A 
ATOM     88  C   UNL A   1      40.708  35.449  37.078  1.00  0.00     0.010 A 
ATOM     89  C   UNL A   1      39.063  34.087  38.228  1.00  0.00     0.010 A 
ATOM     90  C   UNL A   1      40.627  36.404  38.095  1.00  0.00     0.020 A 
ATOM     91  C   UNL A   1      38.954  35.054  39.229  1.00  0.00     0.020 A 
ATOM     92  C   UNL A   1      39.756  36.196  39.169  1.00  0.00     0.054 A 
BRANCH  92  93
ATOM     93  S   UNL A   1      39.670  37.446  40.479  1.00  0.00     0.124 S 
ATOM     94  O   UNL A   1      39.000  36.716  41.551  1.00  0.00    -0.237 OA
ATOM     95  O   UNL A   1      41.077  37.761  40.717  1.00  0.00    -0.237 OA
ATOM     96  O   UNL A   1      38.890  38.525  39.877  1.00  0.00    -0.744 OA
ENDBRANCH  92  93
ENDBRANCH  66  87
ENDBRANCH  40  41
ENDBRANCH  32  35
ENDBRANCH  30  31
ENDBRANCH   1  30
TORSDOF 16
ENDMDL
