MODEL 1
REMARK VINA RESULT:     -11.4      0.000      0.000
REMARK SMILES N#C/C(=C\c1ccc(Oc2ccccc2Cl)c([N+](=O)[O-])c1)C(=O)NCCCNC(=O)c1ccc(-c2c3nc(c(-c4ccc(S(=O)(=O)[O-])cc4)c4ccc([nH]4)c(-c4ccc(S(=O)(=O)[O-])cc4)c4nc(c(-c5ccc(S(=O)(=O)[O-])cc5)c5ccc2[nH]5)C=C4)C=C3)cc1
REMARK SMILES IDX 26 1 25 2 24 3 22 4 23 5 3 7 4 8 2 9 1 10 5 11 6 12 21 13
REMARK SMILES IDX 7 14 17 15 8 16 18 17 19 18 20 19 9 20 10 21 11 22 15 23
REMARK SMILES IDX 12 24 14 25 16 26 13 27 27 28 28 29 29 30 30 32 31 33 32 34
REMARK SMILES IDX 90 35 33 36 89 37 34 38 35 39 36 40 83 41 37 42 88 43 82 44
REMARK SMILES IDX 84 45 38 46 87 47 81 48 80 49 39 51 69 52 50 53 68 54 51 55
REMARK SMILES IDX 54 56 67 57 85 58 52 59 53 60 66 62 86 63 55 64 40 65 41 66
REMARK SMILES IDX 49 67 42 68 48 69 43 70 44 71 45 72 46 73 47 74 70 75 71 76
REMARK SMILES IDX 79 77 72 78 78 79 73 80 74 81 75 82 76 83 77 84 56 85 57 86
REMARK SMILES IDX 65 87 58 88 64 89 59 90 60 91 61 92 62 93 63 94
REMARK H PARENT 24 6 28 31 84 50 54 61
REMARK Flexibility Score: inf
ROOT
ATOM      1  C   UNL A   1      32.408  28.239  25.811  1.00  0.00     0.042 C 
ENDROOT
BRANCH   1   2
ATOM      2  C   UNL A   1      32.007  29.164  24.662  1.00  0.00     0.118 C 
BRANCH   2   3
ATOM      3  N   UNL A   1      32.932  29.083  23.546  1.00  0.00    -0.351 N 
ATOM      4  C   UNL A   1      33.542  28.032  22.932  1.00  0.00     0.261 C 
ATOM      5  O   UNL A   1      34.210  28.279  21.928  1.00  0.00    -0.268 OA
ATOM      6  H   UNL A   1      33.163  29.958  23.158  1.00  0.00     0.163 HD
BRANCH   4   7
ATOM      7  C   UNL A   1      33.420  26.626  23.405  1.00  0.00     0.117 C 
ATOM      8  C   UNL A   1      34.363  25.893  24.047  1.00  0.00     0.033 C 
BRANCH   7   9
ATOM      9  C   UNL A   1      32.212  25.842  22.919  1.00  0.00     0.105 C 
ATOM     10  N   UNL A   1      31.209  25.192  22.515  1.00  0.00    -0.192 NA
ENDBRANCH   7   9
BRANCH   8  11
ATOM     11  C   UNL A   1      34.223  24.470  24.441  1.00  0.00    -0.017 A 
ATOM     12  C   UNL A   1      34.915  23.488  23.727  1.00  0.00     0.012 A 
ATOM     13  C   UNL A   1      33.455  24.073  25.541  1.00  0.00     0.098 A 
ATOM     14  C   UNL A   1      34.874  22.146  24.140  1.00  0.00     0.055 A 
ATOM     15  C   UNL A   1      33.496  22.742  25.997  1.00  0.00     0.312 A 
ATOM     16  C   UNL A   1      34.176  21.747  25.292  1.00  0.00     0.204 A 
BRANCH  15  17
ATOM     17  N   UNL A   1      32.915  22.533  27.306  1.00  0.00     0.066 N 
ATOM     18  O   UNL A   1      31.754  22.927  27.477  1.00  0.00    -0.258 OA
ATOM     19  O   UNL A   1      33.597  21.912  28.133  1.00  0.00    -0.258 OA
ENDBRANCH  15  17
BRANCH  16  20
ATOM     20  O   UNL A   1      34.303  20.398  25.542  1.00  0.00    -0.449 OA
BRANCH  20  21
ATOM     21  C   UNL A   1      33.821  19.469  24.656  1.00  0.00     0.146 A 
ATOM     22  C   UNL A   1      32.555  19.729  24.121  1.00  0.00     0.049 A 
ATOM     23  C   UNL A   1      34.492  18.287  24.319  1.00  0.00     0.083 A 
ATOM     24  C   UNL A   1      32.004  18.868  23.174  1.00  0.00     0.004 A 
ATOM     25  C   UNL A   1      33.944  17.435  23.358  1.00  0.00     0.024 A 
ATOM     26  Cl  UNL A   1      35.998  17.855  25.041  1.00  0.00    -0.080 Cl
ATOM     27  C   UNL A   1      32.708  17.731  22.777  1.00  0.00     0.002 A 
ENDBRANCH  20  21
ENDBRANCH  16  20
ENDBRANCH   8  11
ENDBRANCH   4   7
ENDBRANCH   2   3
ENDBRANCH   1   2
BRANCH   1  28
ATOM     28  C   UNL A   1      33.708  28.641  26.503  1.00  0.00     0.118 C 
BRANCH  28  29
ATOM     29  N   UNL A   1      33.624  29.975  27.072  1.00  0.00    -0.352 N 
ATOM     30  C   UNL A   1      34.483  30.640  27.908  1.00  0.00     0.251 C 
ATOM     31  H   UNL A   1      32.821  30.483  26.817  1.00  0.00     0.163 HD
ATOM     32  O   UNL A   1      34.094  31.674  28.443  1.00  0.00    -0.269 OA
BRANCH  30  33
ATOM     33  C   UNL A   1      35.854  30.141  28.172  1.00  0.00     0.039 A 
ATOM     34  C   UNL A   1      36.139  29.632  29.444  1.00  0.00     0.014 A 
ATOM     35  C   UNL A   1      36.877  30.249  27.224  1.00  0.00     0.014 A 
ATOM     36  C   UNL A   1      37.436  29.221  29.759  1.00  0.00     0.010 A 
ATOM     37  C   UNL A   1      38.156  29.777  27.518  1.00  0.00     0.010 A 
ATOM     38  C   UNL A   1      38.454  29.284  28.796  1.00  0.00    -0.014 A 
BRANCH  38  39
ATOM     39  C   UNL A   1      39.845  28.885  29.130  1.00  0.00     0.031 A 
ATOM     40  C   UNL A   1      40.751  29.842  29.860  1.00  0.00     0.074 A 
ATOM     41  C   UNL A   1      40.304  27.677  28.751  1.00  0.00     0.049 A 
ATOM     42  N   UNL A   1      41.998  29.684  30.223  1.00  0.00    -0.248 NA
ATOM     43  C   UNL A   1      40.185  31.156  30.207  1.00  0.00     0.031 C 
ATOM     44  C   UNL A   1      39.534  26.671  28.015  1.00  0.00     0.029 A 
ATOM     45  N   UNL A   1      41.528  27.088  28.937  1.00  0.00    -0.354 N 
ATOM     46  C   UNL A   1      42.373  30.885  30.817  1.00  0.00     0.074 A 
ATOM     47  C   UNL A   1      41.236  31.774  30.728  1.00  0.00     0.031 C 
ATOM     48  C   UNL A   1      40.293  25.576  27.845  1.00  0.00     0.029 A 
ATOM     49  C   UNL A   1      41.610  25.813  28.428  1.00  0.00     0.049 A 
ATOM     50  H   UNL A   1      42.278  27.536  29.392  1.00  0.00     0.167 HD
ATOM     51  C   UNL A   1      43.552  31.214  31.401  1.00  0.00     0.031 A 
ATOM     52  C   UNL A   1      42.628  24.932  28.437  1.00  0.00     0.031 A 
ATOM     53  C   UNL A   1      44.674  30.322  31.506  1.00  0.00     0.049 A 
ATOM     54  C   UNL A   1      43.922  25.313  29.102  1.00  0.00     0.074 A 
ATOM     55  C   UNL A   1      45.894  30.537  32.124  1.00  0.00     0.029 A 
ATOM     56  N   UNL A   1      44.713  29.037  30.984  1.00  0.00    -0.354 N 
ATOM     57  N   UNL A   1      44.240  26.435  29.702  1.00  0.00    -0.248 NA
ATOM     58  C   UNL A   1      44.988  24.301  29.101  1.00  0.00     0.031 C 
ATOM     59  C   UNL A   1      46.684  29.395  31.943  1.00  0.00     0.029 A 
ATOM     60  C   UNL A   1      45.940  28.453  31.252  1.00  0.00     0.049 A 
ATOM     61  H   UNL A   1      43.977  28.605  30.494  1.00  0.00     0.167 HD
ATOM     62  C   UNL A   1      45.534  26.253  30.178  1.00  0.00     0.074 A 
ATOM     63  C   UNL A   1      45.934  24.911  29.801  1.00  0.00     0.031 C 
ATOM     64  C   UNL A   1      46.318  27.117  30.869  1.00  0.00     0.031 A 
BRANCH  51  65
ATOM     65  C   UNL A   1      43.680  32.608  31.956  1.00  0.00    -0.014 A 
ATOM     66  C   UNL A   1      43.258  32.913  33.263  1.00  0.00     0.010 A 
ATOM     67  C   UNL A   1      44.227  33.630  31.159  1.00  0.00     0.010 A 
ATOM     68  C   UNL A   1      43.324  34.224  33.742  1.00  0.00     0.020 A 
ATOM     69  C   UNL A   1      44.320  34.939  31.644  1.00  0.00     0.020 A 
ATOM     70  C   UNL A   1      43.844  35.231  32.924  1.00  0.00     0.054 A 
BRANCH  70  71
ATOM     71  S   UNL A   1      43.905  36.929  33.560  1.00  0.00     0.124 S 
ATOM     72  O   UNL A   1      43.834  37.712  32.329  1.00  0.00    -0.237 OA
ATOM     73  O   UNL A   1      42.722  36.997  34.415  1.00  0.00    -0.237 OA
ATOM     74  O   UNL A   1      45.182  36.989  34.265  1.00  0.00    -0.744 OA
ENDBRANCH  70  71
ENDBRANCH  51  65
BRANCH  52  75
ATOM     75  C   UNL A   1      42.444  23.584  27.838  1.00  0.00    -0.014 A 
ATOM     76  C   UNL A   1      42.955  23.305  26.558  1.00  0.00     0.010 A 
ATOM     77  C   UNL A   1      41.786  22.567  28.552  1.00  0.00     0.010 A 
ATOM     78  C   UNL A   1      42.801  22.034  25.997  1.00  0.00     0.020 A 
ATOM     79  C   UNL A   1      41.650  21.288  28.002  1.00  0.00     0.020 A 
ATOM     80  C   UNL A   1      42.151  21.033  26.724  1.00  0.00     0.054 A 
BRANCH  80  81
ATOM     81  S   UNL A   1      42.021  19.373  26.003  1.00  0.00     0.124 S 
ATOM     82  O   UNL A   1      42.840  19.498  24.803  1.00  0.00    -0.237 OA
ATOM     83  O   UNL A   1      42.568  18.525  27.059  1.00  0.00    -0.237 OA
ATOM     84  O   UNL A   1      40.587  19.215  25.771  1.00  0.00    -0.744 OA
ENDBRANCH  80  81
ENDBRANCH  52  75
BRANCH  64  85
ATOM     85  C   UNL A   1      47.674  26.622  31.294  1.00  0.00    -0.014 A 
ATOM     86  C   UNL A   1      47.869  26.017  32.547  1.00  0.00     0.010 A 
ATOM     87  C   UNL A   1      48.761  26.737  30.408  1.00  0.00     0.010 A 
ATOM     88  C   UNL A   1      49.137  25.567  32.921  1.00  0.00     0.020 A 
ATOM     89  C   UNL A   1      50.024  26.266  30.770  1.00  0.00     0.020 A 
ATOM     90  C   UNL A   1      50.209  25.699  32.032  1.00  0.00     0.054 A 
BRANCH  90  91
ATOM     91  S   UNL A   1      51.841  25.080  32.526  1.00  0.00     0.124 S 
ATOM     92  O   UNL A   1      52.724  25.784  31.602  1.00  0.00    -0.237 OA
ATOM     93  O   UNL A   1      51.934  25.494  33.924  1.00  0.00    -0.237 OA
ATOM     94  O   UNL A   1      51.739  23.637  32.317  1.00  0.00    -0.744 OA
ENDBRANCH  90  91
ENDBRANCH  64  85
ENDBRANCH  38  39
ENDBRANCH  30  33
ENDBRANCH  28  29
ENDBRANCH   1  28
TORSDOF 18
ENDMDL
MODEL 2
REMARK VINA RESULT:     -11.2      4.421     10.405
REMARK SMILES N#C/C(=C\c1ccc(Oc2ccccc2Cl)c([N+](=O)[O-])c1)C(=O)NCCCNC(=O)c1ccc(-c2c3nc(c(-c4ccc(S(=O)(=O)[O-])cc4)c4ccc([nH]4)c(-c4ccc(S(=O)(=O)[O-])cc4)c4nc(c(-c5ccc(S(=O)(=O)[O-])cc5)c5ccc2[nH]5)C=C4)C=C3)cc1
REMARK SMILES IDX 26 1 25 2 24 3 22 4 23 5 3 7 4 8 2 9 1 10 5 11 6 12 21 13
REMARK SMILES IDX 7 14 17 15 8 16 18 17 19 18 20 19 9 20 10 21 11 22 15 23
REMARK SMILES IDX 12 24 14 25 16 26 13 27 27 28 28 29 29 30 30 32 31 33 32 34
REMARK SMILES IDX 90 35 33 36 89 37 34 38 35 39 36 40 83 41 37 42 88 43 82 44
REMARK SMILES IDX 84 45 38 46 87 47 81 48 80 49 39 51 69 52 50 53 68 54 51 55
REMARK SMILES IDX 54 56 67 57 85 58 52 59 53 60 66 62 86 63 55 64 40 65 41 66
REMARK SMILES IDX 49 67 42 68 48 69 43 70 44 71 45 72 46 73 47 74 70 75 71 76
REMARK SMILES IDX 79 77 72 78 78 79 73 80 74 81 75 82 76 83 77 84 56 85 57 86
REMARK SMILES IDX 65 87 58 88 64 89 59 90 60 91 61 92 62 93 63 94
REMARK H PARENT 24 6 28 31 84 50 54 61
REMARK Flexibility Score: inf
ROOT
ATOM      1  C   UNL A   1      39.783  21.768  26.641  1.00  0.00     0.042 C 
ENDROOT
BRANCH   1   2
ATOM      2  C   UNL A   1      38.646  22.014  25.648  1.00  0.00     0.118 C 
BRANCH   2   3
ATOM      3  N   UNL A   1      37.864  20.816  25.405  1.00  0.00    -0.351 N 
ATOM      4  C   UNL A   1      36.578  20.623  25.002  1.00  0.00     0.261 C 
ATOM      5  O   UNL A   1      36.225  19.463  24.787  1.00  0.00    -0.268 OA
ATOM      6  H   UNL A   1      38.360  19.980  25.561  1.00  0.00     0.163 HD
BRANCH   4   7
ATOM      7  C   UNL A   1      35.608  21.735  24.801  1.00  0.00     0.117 C 
ATOM      8  C   UNL A   1      35.860  23.065  24.877  1.00  0.00     0.033 C 
BRANCH   7   9
ATOM      9  C   UNL A   1      34.137  21.357  24.736  1.00  0.00     0.105 C 
ATOM     10  N   UNL A   1      32.917  21.043  24.681  1.00  0.00    -0.192 NA
ENDBRANCH   7   9
BRANCH   8  11
ATOM     11  C   UNL A   1      34.847  24.139  24.736  1.00  0.00    -0.017 A 
ATOM     12  C   UNL A   1      34.419  24.835  25.870  1.00  0.00     0.012 A 
ATOM     13  C   UNL A   1      34.333  24.520  23.492  1.00  0.00     0.098 A 
ATOM     14  C   UNL A   1      33.534  25.919  25.750  1.00  0.00     0.055 A 
ATOM     15  C   UNL A   1      33.521  25.663  23.375  1.00  0.00     0.312 A 
ATOM     16  C   UNL A   1      33.078  26.365  24.499  1.00  0.00     0.204 A 
BRANCH  15  17
ATOM     17  N   UNL A   1      33.315  26.124  22.018  1.00  0.00     0.066 N 
ATOM     18  O   UNL A   1      33.990  27.093  21.644  1.00  0.00    -0.258 OA
ATOM     19  O   UNL A   1      32.534  25.471  21.314  1.00  0.00    -0.258 OA
ENDBRANCH  15  17
BRANCH  16  20
ATOM     20  O   UNL A   1      32.257  27.467  24.602  1.00  0.00    -0.449 OA
BRANCH  20  21
ATOM     21  C   UNL A   1      30.948  27.410  24.200  1.00  0.00     0.146 A 
ATOM     22  C   UNL A   1      30.170  26.402  24.778  1.00  0.00     0.049 A 
ATOM     23  C   UNL A   1      30.390  28.252  23.230  1.00  0.00     0.083 A 
ATOM     24  C   UNL A   1      28.815  26.297  24.468  1.00  0.00     0.004 A 
ATOM     25  C   UNL A   1      29.029  28.155  22.934  1.00  0.00     0.024 A 
ATOM     26  Cl  UNL A   1      31.332  29.431  22.395  1.00  0.00    -0.080 Cl
ATOM     27  C   UNL A   1      28.240  27.187  23.562  1.00  0.00     0.002 A 
ENDBRANCH  20  21
ENDBRANCH  16  20
ENDBRANCH   8  11
ENDBRANCH   4   7
ENDBRANCH   2   3
ENDBRANCH   1   2
BRANCH   1  28
ATOM     28  C   UNL A   1      40.393  23.044  27.212  1.00  0.00     0.118 C 
BRANCH  28  29
ATOM     29  N   UNL A   1      41.069  23.822  26.187  1.00  0.00    -0.352 N 
ATOM     30  C   UNL A   1      41.360  25.160  26.135  1.00  0.00     0.251 C 
ATOM     31  H   UNL A   1      41.365  23.304  25.404  1.00  0.00     0.163 HD
ATOM     32  O   UNL A   1      41.733  25.636  25.066  1.00  0.00    -0.269 OA
BRANCH  30  33
ATOM     33  C   UNL A   1      41.235  26.030  27.328  1.00  0.00     0.039 A 
ATOM     34  C   UNL A   1      40.013  26.046  28.011  1.00  0.00     0.014 A 
ATOM     35  C   UNL A   1      42.261  26.892  27.727  1.00  0.00     0.014 A 
ATOM     36  C   UNL A   1      39.827  26.907  29.094  1.00  0.00     0.010 A 
ATOM     37  C   UNL A   1      42.098  27.703  28.850  1.00  0.00     0.010 A 
ATOM     38  C   UNL A   1      40.871  27.738  29.528  1.00  0.00    -0.014 A 
BRANCH  38  39
ATOM     39  C   UNL A   1      40.674  28.684  30.655  1.00  0.00     0.031 A 
ATOM     40  C   UNL A   1      41.545  28.592  31.880  1.00  0.00     0.074 A 
ATOM     41  C   UNL A   1      39.695  29.607  30.591  1.00  0.00     0.049 A 
ATOM     42  N   UNL A   1      41.515  29.313  32.972  1.00  0.00    -0.248 NA
ATOM     43  C   UNL A   1      42.569  27.534  31.888  1.00  0.00     0.031 C 
ATOM     44  C   UNL A   1      38.767  29.781  29.471  1.00  0.00     0.029 A 
ATOM     45  N   UNL A   1      39.320  30.575  31.486  1.00  0.00    -0.354 N 
ATOM     46  C   UNL A   1      42.495  28.782  33.804  1.00  0.00     0.074 A 
ATOM     47  C   UNL A   1      43.072  27.652  33.109  1.00  0.00     0.031 C 
ATOM     48  C   UNL A   1      37.955  30.817  29.731  1.00  0.00     0.029 A 
ATOM     49  C   UNL A   1      38.279  31.359  31.048  1.00  0.00     0.049 A 
ATOM     50  H   UNL A   1      39.754  30.696  32.362  1.00  0.00     0.167 HD
ATOM     51  C   UNL A   1      42.893  29.205  35.028  1.00  0.00     0.031 A 
ATOM     52  C   UNL A   1      37.663  32.402  31.634  1.00  0.00     0.031 A 
ATOM     53  C   UNL A   1      42.332  30.340  35.709  1.00  0.00     0.049 A 
ATOM     54  C   UNL A   1      38.129  32.864  32.987  1.00  0.00     0.074 A 
ATOM     55  C   UNL A   1      42.698  30.884  36.928  1.00  0.00     0.029 A 
ATOM     56  N   UNL A   1      41.284  31.112  35.226  1.00  0.00    -0.354 N 
ATOM     57  N   UNL A   1      39.091  32.379  33.736  1.00  0.00    -0.248 NA
ATOM     58  C   UNL A   1      37.434  34.021  33.567  1.00  0.00     0.031 C 
ATOM     59  C   UNL A   1      41.847  31.963  37.198  1.00  0.00     0.029 A 
ATOM     60  C   UNL A   1      40.982  32.118  36.128  1.00  0.00     0.049 A 
ATOM     61  H   UNL A   1      40.825  30.965  34.368  1.00  0.00     0.167 HD
ATOM     62  C   UNL A   1      39.137  33.192  34.863  1.00  0.00     0.074 A 
ATOM     63  C   UNL A   1      38.111  34.203  34.691  1.00  0.00     0.031 C 
ATOM     64  C   UNL A   1      39.958  33.113  35.939  1.00  0.00     0.031 A 
BRANCH  51  65
ATOM     65  C   UNL A   1      43.981  28.418  35.709  1.00  0.00    -0.014 A 
ATOM     66  C   UNL A   1      45.337  28.763  35.552  1.00  0.00     0.010 A 
ATOM     67  C   UNL A   1      43.647  27.315  36.515  1.00  0.00     0.010 A 
ATOM     68  C   UNL A   1      46.339  27.986  36.137  1.00  0.00     0.020 A 
ATOM     69  C   UNL A   1      44.647  26.550  37.126  1.00  0.00     0.020 A 
ATOM     70  C   UNL A   1      45.987  26.876  36.911  1.00  0.00     0.054 A 
BRANCH  70  71
ATOM     71  S   UNL A   1      47.306  25.871  37.648  1.00  0.00     0.124 S 
ATOM     72  O   UNL A   1      46.837  24.515  37.372  1.00  0.00    -0.237 OA
ATOM     73  O   UNL A   1      48.488  26.290  36.900  1.00  0.00    -0.237 OA
ATOM     74  O   UNL A   1      47.293  26.262  39.055  1.00  0.00    -0.744 OA
ENDBRANCH  70  71
ENDBRANCH  51  65
BRANCH  52  75
ATOM     75  C   UNL A   1      36.569  33.112  30.920  1.00  0.00    -0.014 A 
ATOM     76  C   UNL A   1      35.251  33.047  31.404  1.00  0.00     0.010 A 
ATOM     77  C   UNL A   1      36.842  33.877  29.772  1.00  0.00     0.010 A 
ATOM     78  C   UNL A   1      34.222  33.727  30.748  1.00  0.00     0.020 A 
ATOM     79  C   UNL A   1      35.818  34.576  29.126  1.00  0.00     0.020 A 
ATOM     80  C   UNL A   1      34.512  34.489  29.614  1.00  0.00     0.054 A 
BRANCH  80  81
ATOM     81  S   UNL A   1      33.172  35.416  28.815  1.00  0.00     0.124 S 
ATOM     82  O   UNL A   1      32.494  34.373  28.052  1.00  0.00    -0.237 OA
ATOM     83  O   UNL A   1      32.431  35.949  29.956  1.00  0.00    -0.237 OA
ATOM     84  O   UNL A   1      33.878  36.418  28.020  1.00  0.00    -0.744 OA
ENDBRANCH  80  81
ENDBRANCH  52  75
BRANCH  64  85
ATOM     85  C   UNL A   1      39.803  34.171  36.998  1.00  0.00    -0.014 A 
ATOM     86  C   UNL A   1      38.950  33.981  38.098  1.00  0.00     0.010 A 
ATOM     87  C   UNL A   1      40.550  35.359  36.902  1.00  0.00     0.010 A 
ATOM     88  C   UNL A   1      38.820  34.978  39.069  1.00  0.00     0.020 A 
ATOM     89  C   UNL A   1      40.440  36.347  37.883  1.00  0.00     0.020 A 
ATOM     90  C   UNL A   1      39.563  36.158  38.951  1.00  0.00     0.054 A 
BRANCH  90  91
ATOM     91  S   UNL A   1      39.402  37.427  40.238  1.00  0.00     0.124 S 
ATOM     92  O   UNL A   1      38.462  38.360  39.627  1.00  0.00    -0.237 OA
ATOM     93  O   UNL A   1      38.887  36.670  41.376  1.00  0.00    -0.237 OA
ATOM     94  O   UNL A   1      40.765  37.928  40.398  1.00  0.00    -0.744 OA
ENDBRANCH  90  91
ENDBRANCH  64  85
ENDBRANCH  38  39
ENDBRANCH  30  33
ENDBRANCH  28  29
ENDBRANCH   1  28
TORSDOF 18
ENDMDL
MODEL 3
REMARK VINA RESULT:     -11.1      3.847      9.781
REMARK SMILES N#C/C(=C\c1ccc(Oc2ccccc2Cl)c([N+](=O)[O-])c1)C(=O)NCCCNC(=O)c1ccc(-c2c3nc(c(-c4ccc(S(=O)(=O)[O-])cc4)c4ccc([nH]4)c(-c4ccc(S(=O)(=O)[O-])cc4)c4nc(c(-c5ccc(S(=O)(=O)[O-])cc5)c5ccc2[nH]5)C=C4)C=C3)cc1
REMARK SMILES IDX 26 1 25 2 24 3 22 4 23 5 3 7 4 8 2 9 1 10 5 11 6 12 21 13
REMARK SMILES IDX 7 14 17 15 8 16 18 17 19 18 20 19 9 20 10 21 11 22 15 23
REMARK SMILES IDX 12 24 14 25 16 26 13 27 27 28 28 29 29 30 30 32 31 33 32 34
REMARK SMILES IDX 90 35 33 36 89 37 34 38 35 39 36 40 83 41 37 42 88 43 82 44
REMARK SMILES IDX 84 45 38 46 87 47 81 48 80 49 39 51 69 52 50 53 68 54 51 55
REMARK SMILES IDX 54 56 67 57 85 58 52 59 53 60 66 62 86 63 55 64 40 65 41 66
REMARK SMILES IDX 49 67 42 68 48 69 43 70 44 71 45 72 46 73 47 74 70 75 71 76
REMARK SMILES IDX 79 77 72 78 78 79 73 80 74 81 75 82 76 83 77 84 56 85 57 86
REMARK SMILES IDX 65 87 58 88 64 89 59 90 60 91 61 92 62 93 63 94
REMARK H PARENT 24 6 28 31 84 50 54 61
REMARK Flexibility Score: inf
ROOT
ATOM      1  C   UNL A   1      38.174  19.574  25.148  1.00  0.00     0.042 C 
ENDROOT
BRANCH   1   2
ATOM      2  C   UNL A   1      36.950  20.449  24.875  1.00  0.00     0.118 C 
BRANCH   2   3
ATOM      3  N   UNL A   1      35.710  19.700  24.969  1.00  0.00    -0.351 N 
ATOM      4  C   UNL A   1      34.405  20.083  25.021  1.00  0.00     0.261 C 
ATOM      5  O   UNL A   1      33.557  19.191  24.998  1.00  0.00    -0.268 OA
ATOM      6  H   UNL A   1      35.839  18.724  25.001  1.00  0.00     0.163 HD
BRANCH   4   7
ATOM      7  C   UNL A   1      33.973  21.506  25.085  1.00  0.00     0.117 C 
ATOM      8  C   UNL A   1      33.613  22.300  24.047  1.00  0.00     0.033 C 
BRANCH   7   9
ATOM      9  C   UNL A   1      34.177  22.224  26.409  1.00  0.00     0.105 C 
ATOM     10  N   UNL A   1      34.347  22.820  27.508  1.00  0.00    -0.192 NA
ENDBRANCH   7   9
BRANCH   8  11
ATOM     11  C   UNL A   1      33.253  23.736  24.149  1.00  0.00    -0.017 A 
ATOM     12  C   UNL A   1      34.067  24.694  23.539  1.00  0.00     0.012 A 
ATOM     13  C   UNL A   1      32.093  24.169  24.799  1.00  0.00     0.098 A 
ATOM     14  C   UNL A   1      33.697  26.049  23.540  1.00  0.00     0.055 A 
ATOM     15  C   UNL A   1      31.687  25.514  24.714  1.00  0.00     0.312 A 
ATOM     16  C   UNL A   1      32.492  26.485  24.115  1.00  0.00     0.204 A 
BRANCH  15  17
ATOM     17  N   UNL A   1      30.332  25.767  25.156  1.00  0.00     0.066 N 
ATOM     18  O   UNL A   1      30.096  25.623  26.363  1.00  0.00    -0.258 OA
ATOM     19  O   UNL A   1      29.530  26.177  24.305  1.00  0.00    -0.258 OA
ENDBRANCH  15  17
BRANCH  16  20
ATOM     20  O   UNL A   1      32.301  27.842  23.967  1.00  0.00    -0.449 OA
BRANCH  20  21
ATOM     21  C   UNL A   1      32.412  28.690  25.038  1.00  0.00     0.146 A 
ATOM     22  C   UNL A   1      33.394  28.366  25.979  1.00  0.00     0.049 A 
ATOM     23  C   UNL A   1      31.578  29.794  25.251  1.00  0.00     0.083 A 
ATOM     24  C   UNL A   1      33.614  29.197  27.077  1.00  0.00     0.004 A 
ATOM     25  C   UNL A   1      31.812  30.634  26.342  1.00  0.00     0.024 A 
ATOM     26  Cl  UNL A   1      30.273  30.170  24.188  1.00  0.00    -0.080 Cl
ATOM     27  C   UNL A   1      32.837  30.342  27.247  1.00  0.00     0.002 A 
ENDBRANCH  20  21
ENDBRANCH  16  20
ENDBRANCH   8  11
ENDBRANCH   4   7
ENDBRANCH   2   3
ENDBRANCH   1   2
BRANCH   1  28
ATOM     28  C   UNL A   1      39.280  20.282  25.924  1.00  0.00     0.118 C 
BRANCH  28  29
ATOM     29  N   UNL A   1      40.456  19.442  26.072  1.00  0.00    -0.352 N 
ATOM     30  C   UNL A   1      41.775  19.779  26.237  1.00  0.00     0.251 C 
ATOM     31  H   UNL A   1      40.278  18.474  26.049  1.00  0.00     0.163 HD
ATOM     32  O   UNL A   1      42.623  18.901  26.109  1.00  0.00    -0.269 OA
BRANCH  30  33
ATOM     33  C   UNL A   1      42.187  21.165  26.565  1.00  0.00     0.039 A 
ATOM     34  C   UNL A   1      42.273  22.094  25.521  1.00  0.00     0.014 A 
ATOM     35  C   UNL A   1      42.576  21.537  27.855  1.00  0.00     0.014 A 
ATOM     36  C   UNL A   1      42.730  23.389  25.772  1.00  0.00     0.010 A 
ATOM     37  C   UNL A   1      42.968  22.849  28.118  1.00  0.00     0.010 A 
ATOM     38  C   UNL A   1      43.075  23.780  27.075  1.00  0.00    -0.014 A 
BRANCH  38  39
ATOM     39  C   UNL A   1      43.598  25.142  27.349  1.00  0.00     0.031 A 
ATOM     40  C   UNL A   1      45.033  25.478  27.039  1.00  0.00     0.074 A 
ATOM     41  C   UNL A   1      42.793  26.069  27.903  1.00  0.00     0.049 A 
ATOM     42  N   UNL A   1      45.677  26.602  27.223  1.00  0.00    -0.248 NA
ATOM     43  C   UNL A   1      45.858  24.400  26.467  1.00  0.00     0.031 C 
ATOM     44  C   UNL A   1      41.391  25.859  28.275  1.00  0.00     0.029 A 
ATOM     45  N   UNL A   1      43.037  27.374  28.246  1.00  0.00    -0.354 N 
ATOM     46  C   UNL A   1      46.985  26.360  26.815  1.00  0.00     0.074 A 
ATOM     47  C   UNL A   1      47.052  24.971  26.414  1.00  0.00     0.031 C 
ATOM     48  C   UNL A   1      40.891  27.007  28.761  1.00  0.00     0.029 A 
ATOM     49  C   UNL A   1      41.941  28.021  28.766  1.00  0.00     0.049 A 
ATOM     50  H   UNL A   1      43.914  27.806  28.132  1.00  0.00     0.167 HD
ATOM     51  C   UNL A   1      48.032  27.218  26.761  1.00  0.00     0.031 A 
ATOM     52  C   UNL A   1      41.796  29.290  29.192  1.00  0.00     0.031 A 
ATOM     53  C   UNL A   1      47.959  28.603  27.142  1.00  0.00     0.049 A 
ATOM     54  C   UNL A   1      42.967  30.229  29.110  1.00  0.00     0.074 A 
ATOM     55  C   UNL A   1      48.946  29.571  27.076  1.00  0.00     0.029 A 
ATOM     56  N   UNL A   1      46.828  29.221  27.656  1.00  0.00    -0.354 N 
ATOM     57  N   UNL A   1      44.182  29.995  28.675  1.00  0.00    -0.248 NA
ATOM     58  C   UNL A   1      42.742  31.608  29.566  1.00  0.00     0.031 C 
ATOM     59  C   UNL A   1      48.422  30.765  27.585  1.00  0.00     0.029 A 
ATOM     60  C   UNL A   1      47.097  30.552  27.925  1.00  0.00     0.049 A 
ATOM     61  H   UNL A   1      45.962  28.777  27.807  1.00  0.00     0.167 HD
ATOM     62  C   UNL A   1      44.859  31.205  28.776  1.00  0.00     0.074 A 
ATOM     63  C   UNL A   1      43.914  32.169  29.306  1.00  0.00     0.031 C 
ATOM     64  C   UNL A   1      46.143  31.495  28.453  1.00  0.00     0.031 A 
BRANCH  51  65
ATOM     65  C   UNL A   1      49.351  26.667  26.284  1.00  0.00    -0.014 A 
ATOM     66  C   UNL A   1      50.106  25.790  27.085  1.00  0.00     0.010 A 
ATOM     67  C   UNL A   1      49.844  27.033  25.019  1.00  0.00     0.010 A 
ATOM     68  C   UNL A   1      51.356  25.338  26.657  1.00  0.00     0.020 A 
ATOM     69  C   UNL A   1      51.084  26.560  24.574  1.00  0.00     0.020 A 
ATOM     70  C   UNL A   1      51.843  25.736  25.408  1.00  0.00     0.054 A 
BRANCH  70  71
ATOM     71  S   UNL A   1      53.476  25.150  24.879  1.00  0.00     0.124 S 
ATOM     72  O   UNL A   1      53.410  23.732  25.222  1.00  0.00    -0.237 OA
ATOM     73  O   UNL A   1      53.480  25.450  23.450  1.00  0.00    -0.237 OA
ATOM     74  O   UNL A   1      54.404  25.944  25.681  1.00  0.00    -0.744 OA
ENDBRANCH  70  71
ENDBRANCH  51  65
BRANCH  52  75
ATOM     75  C   UNL A   1      40.474  29.758  29.685  1.00  0.00    -0.014 A 
ATOM     76  C   UNL A   1      40.223  29.834  31.066  1.00  0.00     0.010 A 
ATOM     77  C   UNL A   1      39.472  30.157  28.782  1.00  0.00     0.010 A 
ATOM     78  C   UNL A   1      38.988  30.289  31.537  1.00  0.00     0.020 A 
ATOM     79  C   UNL A   1      38.244  30.634  29.251  1.00  0.00     0.020 A 
ATOM     80  C   UNL A   1      38.008  30.689  30.626  1.00  0.00     0.054 A 
BRANCH  80  81
ATOM     81  S   UNL A   1      36.437  31.339  31.260  1.00  0.00     0.124 S 
ATOM     82  O   UNL A   1      36.864  32.558  31.938  1.00  0.00    -0.237 OA
ATOM     83  O   UNL A   1      35.658  31.533  30.039  1.00  0.00    -0.237 OA
ATOM     84  O   UNL A   1      35.953  30.271  32.132  1.00  0.00    -0.744 OA
ENDBRANCH  80  81
ENDBRANCH  52  75
BRANCH  64  85
ATOM     85  C   UNL A   1      46.591  32.920  28.632  1.00  0.00    -0.014 A 
ATOM     86  C   UNL A   1      47.178  33.355  29.832  1.00  0.00     0.010 A 
ATOM     87  C   UNL A   1      46.448  33.827  27.566  1.00  0.00     0.010 A 
ATOM     88  C   UNL A   1      47.584  34.684  29.976  1.00  0.00     0.020 A 
ATOM     89  C   UNL A   1      46.875  35.150  27.698  1.00  0.00     0.020 A 
ATOM     90  C   UNL A   1      47.425  35.575  28.909  1.00  0.00     0.054 A 
BRANCH  90  91
ATOM     91  S   UNL A   1      47.986  37.289  29.107  1.00  0.00     0.124 S 
ATOM     92  O   UNL A   1      46.961  38.029  28.378  1.00  0.00    -0.237 OA
ATOM     93  O   UNL A   1      47.980  37.466  30.557  1.00  0.00    -0.237 OA
ATOM     94  O   UNL A   1      49.312  37.289  28.492  1.00  0.00    -0.744 OA
ENDBRANCH  90  91
ENDBRANCH  64  85
ENDBRANCH  38  39
ENDBRANCH  30  33
ENDBRANCH  28  29
ENDBRANCH   1  28
TORSDOF 18
ENDMDL
