MODEL 1
REMARK VINA RESULT:     -10.6      0.000      0.000
REMARK SMILES O=C(NCCCNC(=O)c1cc2n[nH]cc2cc1[N+](=O)[O-])c1ccc(-c2c3nc(c(-c4ccc(S(=O)(=O)[O-])cc4)c4ccc([nH]4)c(-c4ccc(S(=O)(=O)[O-])cc4)c4nc(c(-c5ccc(S(=O)(=O)[O-])cc5)c5ccc2[nH]5)C=C4)C=C3)cc1
REMARK SMILES IDX 4 1 3 2 1 3 2 4 22 6 23 7 81 8 24 9 80 10 25 11 26 12 27 13
REMARK SMILES IDX 74 14 28 15 79 16 73 17 75 18 29 19 78 20 72 21 71 22 30 24
REMARK SMILES IDX 60 25 41 26 59 27 42 28 45 29 58 30 76 31 43 32 44 33 57 35
REMARK SMILES IDX 77 36 46 37 31 38 32 39 40 40 33 41 39 42 34 43 35 44 36 45
REMARK SMILES IDX 37 46 38 47 61 48 62 49 70 50 63 51 69 52 64 53 65 54 66 55
REMARK SMILES IDX 67 56 68 57 47 58 48 59 56 60 49 61 55 62 50 63 51 64 52 65
REMARK SMILES IDX 53 66 54 67 5 68 6 69 7 70 8 71 9 73 10 74 11 75 18 76 12 77
REMARK SMILES IDX 17 78 13 79 16 80 14 81 15 82 19 84 20 85 21 86
REMARK H PARENT 3 5 75 23 45 34 7 72 14 83
REMARK Flexibility Score: inf
ROOT
ATOM      1  C   UNL A   1      33.589  28.316  27.102  1.00  0.00     0.118 C 
ENDROOT
BRANCH   1   2
ATOM      2  N   UNL A   1      33.488  29.727  27.456  1.00  0.00    -0.352 N 
ATOM      3  O   UNL A   1      34.047  31.693  28.393  1.00  0.00    -0.269 OA
ATOM      4  C   UNL A   1      34.397  30.566  28.053  1.00  0.00     0.251 C 
ATOM      5  H   UNL A   1      32.626  30.146  27.230  1.00  0.00     0.163 HD
BRANCH   4   6
ATOM      6  C   UNL A   1      35.781  30.114  28.319  1.00  0.00     0.039 A 
ATOM      7  C   UNL A   1      36.155  29.641  29.576  1.00  0.00     0.014 A 
ATOM      8  C   UNL A   1      36.720  30.146  27.282  1.00  0.00     0.014 A 
ATOM      9  C   UNL A   1      37.492  29.378  29.848  1.00  0.00     0.010 A 
ATOM     10  C   UNL A   1      38.047  29.778  27.530  1.00  0.00     0.010 A 
ATOM     11  C   UNL A   1      38.453  29.430  28.826  1.00  0.00    -0.014 A 
BRANCH  11  12
ATOM     12  C   UNL A   1      39.860  29.063  29.135  1.00  0.00     0.031 A 
ATOM     13  C   UNL A   1      40.761  29.991  29.902  1.00  0.00     0.074 A 
ATOM     14  C   UNL A   1      40.310  27.851  28.751  1.00  0.00     0.049 A 
ATOM     15  N   UNL A   1      41.996  29.801  30.294  1.00  0.00    -0.248 NA
ATOM     16  C   UNL A   1      40.212  31.305  30.276  1.00  0.00     0.031 C 
ATOM     17  C   UNL A   1      39.532  26.863  27.997  1.00  0.00     0.029 A 
ATOM     18  N   UNL A   1      41.513  27.229  28.966  1.00  0.00    -0.354 N 
ATOM     19  C   UNL A   1      42.381  30.974  30.932  1.00  0.00     0.074 A 
ATOM     20  C   UNL A   1      41.254  31.880  30.861  1.00  0.00     0.031 C 
ATOM     21  C   UNL A   1      40.251  25.740  27.873  1.00  0.00     0.029 A 
ATOM     22  C   UNL A   1      41.563  25.948  28.473  1.00  0.00     0.049 A 
ATOM     23  H   UNL A   1      42.268  27.660  29.428  1.00  0.00     0.167 HD
ATOM     24  C   UNL A   1      43.564  31.268  31.526  1.00  0.00     0.031 A 
ATOM     25  C   UNL A   1      42.554  25.038  28.489  1.00  0.00     0.031 A 
ATOM     26  C   UNL A   1      44.682  30.362  31.597  1.00  0.00     0.049 A 
ATOM     27  C   UNL A   1      43.859  25.394  29.135  1.00  0.00     0.074 A 
ATOM     28  C   UNL A   1      45.912  30.558  32.201  1.00  0.00     0.029 A 
ATOM     29  N   UNL A   1      44.709  29.091  31.043  1.00  0.00    -0.354 N 
ATOM     30  N   UNL A   1      44.194  26.502  29.751  1.00  0.00    -0.248 NA
ATOM     31  C   UNL A   1      44.921  24.381  29.084  1.00  0.00     0.031 C 
ATOM     32  C   UNL A   1      46.698  29.423  31.972  1.00  0.00     0.029 A 
ATOM     33  C   UNL A   1      45.940  28.499  31.269  1.00  0.00     0.049 A 
ATOM     34  H   UNL A   1      43.960  28.671  30.559  1.00  0.00     0.167 HD
ATOM     35  C   UNL A   1      45.506  26.318  30.169  1.00  0.00     0.074 A 
ATOM     36  C   UNL A   1      45.894  24.984  29.753  1.00  0.00     0.031 C 
ATOM     37  C   UNL A   1      46.317  27.178  30.834  1.00  0.00     0.031 A 
BRANCH  24  38
ATOM     38  C   UNL A   1      43.720  32.647  32.116  1.00  0.00    -0.014 A 
ATOM     39  C   UNL A   1      44.187  33.725  31.343  1.00  0.00     0.010 A 
ATOM     40  C   UNL A   1      43.375  32.869  33.462  1.00  0.00     0.010 A 
ATOM     41  C   UNL A   1      44.353  34.988  31.918  1.00  0.00     0.020 A 
ATOM     42  C   UNL A   1      43.518  34.137  34.035  1.00  0.00     0.020 A 
ATOM     43  C   UNL A   1      44.028  35.184  33.265  1.00  0.00     0.054 A 
BRANCH  43  44
ATOM     44  S   UNL A   1      44.263  36.829  33.992  1.00  0.00     0.124 S 
ATOM     45  O   UNL A   1      42.924  37.401  33.876  1.00  0.00    -0.237 OA
ATOM     46  O   UNL A   1      44.697  36.523  35.352  1.00  0.00    -0.237 OA
ATOM     47  O   UNL A   1      45.279  37.443  33.141  1.00  0.00    -0.744 OA
ENDBRANCH  43  44
ENDBRANCH  24  38
BRANCH  25  48
ATOM     48  C   UNL A   1      42.332  23.708  27.864  1.00  0.00    -0.014 A 
ATOM     49  C   UNL A   1      42.736  23.464  26.540  1.00  0.00     0.010 A 
ATOM     50  C   UNL A   1      41.775  22.657  28.616  1.00  0.00     0.010 A 
ATOM     51  C   UNL A   1      42.590  22.192  25.981  1.00  0.00     0.020 A 
ATOM     52  C   UNL A   1      41.652  21.378  28.070  1.00  0.00     0.020 A 
ATOM     53  C   UNL A   1      42.056  21.154  26.752  1.00  0.00     0.054 A 
BRANCH  53  54
ATOM     54  S   UNL A   1      41.958  19.489  26.038  1.00  0.00     0.124 S 
ATOM     55  O   UNL A   1      40.531  19.363  25.758  1.00  0.00    -0.237 OA
ATOM     56  O   UNL A   1      42.826  19.595  24.867  1.00  0.00    -0.237 OA
ATOM     57  O   UNL A   1      42.468  18.631  27.104  1.00  0.00    -0.744 OA
ENDBRANCH  53  54
ENDBRANCH  25  48
BRANCH  37  58
ATOM     58  C   UNL A   1      47.701  26.693  31.165  1.00  0.00    -0.014 A 
ATOM     59  C   UNL A   1      48.766  26.873  30.265  1.00  0.00     0.010 A 
ATOM     60  C   UNL A   1      47.944  26.079  32.406  1.00  0.00     0.010 A 
ATOM     61  C   UNL A   1      50.046  26.419  30.589  1.00  0.00     0.020 A 
ATOM     62  C   UNL A   1      49.228  25.644  32.743  1.00  0.00     0.020 A 
ATOM     63  C   UNL A   1      50.269  25.804  31.825  1.00  0.00     0.054 A 
BRANCH  63  64
ATOM     64  S   UNL A   1      51.946  25.255  32.240  1.00  0.00     0.124 S 
ATOM     65  O   UNL A   1      51.809  23.802  32.203  1.00  0.00    -0.237 OA
ATOM     66  O   UNL A   1      52.752  25.838  31.168  1.00  0.00    -0.237 OA
ATOM     67  O   UNL A   1      52.179  25.827  33.565  1.00  0.00    -0.744 OA
ENDBRANCH  63  64
ENDBRANCH  37  58
ENDBRANCH  11  12
ENDBRANCH   4   6
ENDBRANCH   1   2
BRANCH   1  68
ATOM     68  C   UNL A   1      33.669  28.074  25.600  1.00  0.00     0.042 C 
BRANCH  68  69
ATOM     69  C   UNL A   1      32.447  27.396  25.001  1.00  0.00     0.118 C 
BRANCH  69  70
ATOM     70  N   UNL A   1      31.911  26.339  25.848  1.00  0.00    -0.352 N 
ATOM     71  C   UNL A   1      32.241  25.015  25.940  1.00  0.00     0.258 C 
ATOM     72  H   UNL A   1      31.191  26.625  26.455  1.00  0.00     0.163 HD
ATOM     73  O   UNL A   1      31.588  24.257  26.652  1.00  0.00    -0.269 OA
BRANCH  71  74
ATOM     74  C   UNL A   1      33.355  24.463  25.150  1.00  0.00     0.119 A 
ATOM     75  C   UNL A   1      34.619  24.487  25.794  1.00  0.00     0.052 A 
ATOM     76  C   UNL A   1      33.172  23.971  23.815  1.00  0.00     0.282 A 
ATOM     77  C   UNL A   1      35.653  23.939  25.022  1.00  0.00     0.093 A 
ATOM     78  C   UNL A   1      34.188  23.383  23.024  1.00  0.00     0.098 A 
ATOM     79  N   UNL A   1      36.958  23.799  25.301  1.00  0.00    -0.176 NA
ATOM     80  C   UNL A   1      35.397  23.411  23.704  1.00  0.00     0.026 A 
ATOM     81  N   UNL A   1      37.485  23.197  24.218  1.00  0.00    -0.285 N 
ATOM     82  C   UNL A   1      36.585  22.940  23.223  1.00  0.00     0.114 A 
ATOM     83  H   UNL A   1      38.439  22.962  24.148  1.00  0.00     0.189 HD
BRANCH  76  84
ATOM     84  N   UNL A   1      31.870  24.102  23.182  1.00  0.00     0.063 N 
ATOM     85  O   UNL A   1      31.130  23.110  23.224  1.00  0.00    -0.258 OA
ATOM     86  O   UNL A   1      31.613  25.169  22.615  1.00  0.00    -0.258 OA
ENDBRANCH  76  84
ENDBRANCH  71  74
ENDBRANCH  69  70
ENDBRANCH  68  69
ENDBRANCH   1  68
TORSDOF 14
ENDMDL
MODEL 2
REMARK VINA RESULT:     -10.6      4.475     10.318
REMARK SMILES O=C(NCCCNC(=O)c1cc2n[nH]cc2cc1[N+](=O)[O-])c1ccc(-c2c3nc(c(-c4ccc(S(=O)(=O)[O-])cc4)c4ccc([nH]4)c(-c4ccc(S(=O)(=O)[O-])cc4)c4nc(c(-c5ccc(S(=O)(=O)[O-])cc5)c5ccc2[nH]5)C=C4)C=C3)cc1
REMARK SMILES IDX 4 1 3 2 1 3 2 4 22 6 23 7 81 8 24 9 80 10 25 11 26 12 27 13
REMARK SMILES IDX 74 14 28 15 79 16 73 17 75 18 29 19 78 20 72 21 71 22 30 24
REMARK SMILES IDX 60 25 41 26 59 27 42 28 45 29 58 30 76 31 43 32 44 33 57 35
REMARK SMILES IDX 77 36 46 37 31 38 32 39 40 40 33 41 39 42 34 43 35 44 36 45
REMARK SMILES IDX 37 46 38 47 61 48 62 49 70 50 63 51 69 52 64 53 65 54 66 55
REMARK SMILES IDX 67 56 68 57 47 58 48 59 56 60 49 61 55 62 50 63 51 64 52 65
REMARK SMILES IDX 53 66 54 67 5 68 6 69 7 70 8 71 9 73 10 74 11 75 18 76 12 77
REMARK SMILES IDX 17 78 13 79 16 80 14 81 15 82 19 84 20 85 21 86
REMARK H PARENT 3 5 75 23 45 34 7 72 14 83
REMARK Flexibility Score: inf
ROOT
ATOM      1  C   UNL A   1      38.724  23.841  26.774  1.00  0.00     0.118 C 
ENDROOT
BRANCH   1   2
ATOM      2  N   UNL A   1      39.887  24.283  26.014  1.00  0.00    -0.352 N 
ATOM      3  O   UNL A   1      41.522  25.652  25.300  1.00  0.00    -0.269 OA
ATOM      4  C   UNL A   1      40.671  25.403  26.151  1.00  0.00     0.251 C 
ATOM      5  H   UNL A   1      40.153  23.680  25.283  1.00  0.00     0.163 HD
BRANCH   4   6
ATOM      6  C   UNL A   1      40.479  26.325  27.292  1.00  0.00     0.039 A 
ATOM      7  C   UNL A   1      41.062  27.591  27.301  1.00  0.00     0.014 A 
ATOM      8  C   UNL A   1      39.682  25.921  28.369  1.00  0.00     0.014 A 
ATOM      9  C   UNL A   1      41.005  28.372  28.449  1.00  0.00     0.010 A 
ATOM     10  C   UNL A   1      39.537  26.754  29.482  1.00  0.00     0.010 A 
ATOM     11  C   UNL A   1      40.230  27.970  29.549  1.00  0.00    -0.014 A 
BRANCH  11  12
ATOM     12  C   UNL A   1      40.126  28.870  30.728  1.00  0.00     0.031 A 
ATOM     13  C   UNL A   1      41.073  28.750  31.890  1.00  0.00     0.074 A 
ATOM     14  C   UNL A   1      39.186  29.836  30.722  1.00  0.00     0.049 A 
ATOM     15  N   UNL A   1      41.145  29.487  32.971  1.00  0.00    -0.248 NA
ATOM     16  C   UNL A   1      42.065  27.663  31.841  1.00  0.00     0.031 C 
ATOM     17  C   UNL A   1      38.205  30.050  29.653  1.00  0.00     0.029 A 
ATOM     18  N   UNL A   1      38.918  30.836  31.621  1.00  0.00    -0.354 N 
ATOM     19  C   UNL A   1      42.165  28.939  33.741  1.00  0.00     0.074 A 
ATOM     20  C   UNL A   1      42.674  27.796  33.012  1.00  0.00     0.031 C 
ATOM     21  C   UNL A   1      37.492  31.151  29.925  1.00  0.00     0.029 A 
ATOM     22  C   UNL A   1      37.912  31.681  31.217  1.00  0.00     0.049 A 
ATOM     23  H   UNL A   1      39.399  30.939  32.473  1.00  0.00     0.167 HD
ATOM     24  C   UNL A   1      42.637  29.353  34.943  1.00  0.00     0.031 A 
ATOM     25  C   UNL A   1      37.374  32.757  31.818  1.00  0.00     0.031 A 
ATOM     26  C   UNL A   1      42.131  30.493  35.663  1.00  0.00     0.049 A 
ATOM     27  C   UNL A   1      37.901  33.184  33.156  1.00  0.00     0.074 A 
ATOM     28  C   UNL A   1      42.561  31.008  36.873  1.00  0.00     0.029 A 
ATOM     29  N   UNL A   1      41.079  31.293  35.242  1.00  0.00    -0.354 N 
ATOM     30  N   UNL A   1      38.880  32.663  33.855  1.00  0.00    -0.248 NA
ATOM     31  C   UNL A   1      37.247  34.337  33.786  1.00  0.00     0.031 C 
ATOM     32  C   UNL A   1      41.739  32.091  37.205  1.00  0.00     0.029 A 
ATOM     33  C   UNL A   1      40.829  32.283  36.178  1.00  0.00     0.049 A 
ATOM     34  H   UNL A   1      40.582  31.174  34.399  1.00  0.00     0.167 HD
ATOM     35  C   UNL A   1      38.966  33.432  35.009  1.00  0.00     0.074 A 
ATOM     36  C   UNL A   1      37.953  34.464  34.902  1.00  0.00     0.031 C 
ATOM     37  C   UNL A   1      39.807  33.292  36.064  1.00  0.00     0.031 A 
BRANCH  24  38
ATOM     38  C   UNL A   1      43.740  28.539  35.572  1.00  0.00    -0.014 A 
ATOM     39  C   UNL A   1      45.094  28.829  35.326  1.00  0.00     0.010 A 
ATOM     40  C   UNL A   1      43.414  27.480  36.439  1.00  0.00     0.010 A 
ATOM     41  C   UNL A   1      46.100  28.042  35.895  1.00  0.00     0.020 A 
ATOM     42  C   UNL A   1      44.418  26.705  37.028  1.00  0.00     0.020 A 
ATOM     43  C   UNL A   1      45.755  26.978  36.734  1.00  0.00     0.054 A 
BRANCH  43  44
ATOM     44  S   UNL A   1      47.079  25.965  37.451  1.00  0.00     0.124 S 
ATOM     45  O   UNL A   1      47.493  26.778  38.592  1.00  0.00    -0.237 OA
ATOM     46  O   UNL A   1      46.389  24.722  37.788  1.00  0.00    -0.237 OA
ATOM     47  O   UNL A   1      48.058  25.858  36.374  1.00  0.00    -0.744 OA
ENDBRANCH  43  44
ENDBRANCH  24  38
BRANCH  25  48
ATOM     48  C   UNL A   1      36.273  33.493  31.145  1.00  0.00    -0.014 A 
ATOM     49  C   UNL A   1      35.104  33.831  31.849  1.00  0.00     0.010 A 
ATOM     50  C   UNL A   1      36.417  33.918  29.811  1.00  0.00     0.010 A 
ATOM     51  C   UNL A   1      34.102  34.585  31.233  1.00  0.00     0.020 A 
ATOM     52  C   UNL A   1      35.429  34.694  29.201  1.00  0.00     0.020 A 
ATOM     53  C   UNL A   1      34.274  35.018  29.914  1.00  0.00     0.054 A 
BRANCH  53  54
ATOM     54  S   UNL A   1      33.002  36.072  29.162  1.00  0.00     0.124 S 
ATOM     55  O   UNL A   1      32.305  35.130  28.292  1.00  0.00    -0.237 OA
ATOM     56  O   UNL A   1      32.249  36.537  30.324  1.00  0.00    -0.237 OA
ATOM     57  O   UNL A   1      33.776  37.105  28.479  1.00  0.00    -0.744 OA
ENDBRANCH  53  54
ENDBRANCH  25  48
BRANCH  37  58
ATOM     58  C   UNL A   1      39.674  34.291  37.180  1.00  0.00    -0.014 A 
ATOM     59  C   UNL A   1      38.947  33.985  38.344  1.00  0.00     0.010 A 
ATOM     60  C   UNL A   1      40.312  35.540  37.074  1.00  0.00     0.010 A 
ATOM     61  C   UNL A   1      38.835  34.923  39.372  1.00  0.00     0.020 A 
ATOM     62  C   UNL A   1      40.221  36.472  38.111  1.00  0.00     0.020 A 
ATOM     63  C   UNL A   1      39.471  36.163  39.247  1.00  0.00     0.054 A 
BRANCH  63  64
ATOM     64  S   UNL A   1      39.342  37.353  40.610  1.00  0.00     0.124 S 
ATOM     65  O   UNL A   1      38.883  36.508  41.709  1.00  0.00    -0.237 OA
ATOM     66  O   UNL A   1      40.710  37.854  40.731  1.00  0.00    -0.237 OA
ATOM     67  O   UNL A   1      38.370  38.329  40.124  1.00  0.00    -0.744 OA
ENDBRANCH  63  64
ENDBRANCH  37  58
ENDBRANCH  11  12
ENDBRANCH   4   6
ENDBRANCH   1   2
BRANCH   1  68
ATOM     68  C   UNL A   1      37.697  23.098  25.930  1.00  0.00     0.042 C 
BRANCH  68  69
ATOM     69  C   UNL A   1      36.554  23.959  25.418  1.00  0.00     0.118 C 
BRANCH  69  70
ATOM     70  N   UNL A   1      35.251  23.523  25.905  1.00  0.00    -0.352 N 
ATOM     71  C   UNL A   1      34.009  24.074  25.749  1.00  0.00     0.258 C 
ATOM     72  H   UNL A   1      35.268  22.694  26.436  1.00  0.00     0.163 HD
ATOM     73  O   UNL A   1      33.040  23.603  26.336  1.00  0.00    -0.269 OA
BRANCH  71  74
ATOM     74  C   UNL A   1      33.821  25.271  24.912  1.00  0.00     0.119 A 
ATOM     75  C   UNL A   1      33.786  26.500  25.619  1.00  0.00     0.052 A 
ATOM     76  C   UNL A   1      33.652  25.187  23.490  1.00  0.00     0.282 A 
ATOM     77  C   UNL A   1      33.624  27.620  24.790  1.00  0.00     0.093 A 
ATOM     78  C   UNL A   1      33.519  26.300  22.624  1.00  0.00     0.098 A 
ATOM     79  N   UNL A   1      33.545  28.922  25.105  1.00  0.00    -0.176 NA
ATOM     80  C   UNL A   1      33.511  27.476  23.359  1.00  0.00     0.026 A 
ATOM     81  N   UNL A   1      33.409  29.559  23.926  1.00  0.00    -0.285 N 
ATOM     82  C   UNL A   1      33.382  28.732  22.839  1.00  0.00     0.114 A 
ATOM     83  H   UNL A   1      33.334  30.539  23.853  1.00  0.00     0.189 HD
BRANCH  76  84
ATOM     84  N   UNL A   1      33.570  23.880  22.859  1.00  0.00     0.063 N 
ATOM     85  O   UNL A   1      34.643  23.347  22.545  1.00  0.00    -0.258 OA
ATOM     86  O   UNL A   1      32.446  23.415  22.647  1.00  0.00    -0.258 OA
ENDBRANCH  76  84
ENDBRANCH  71  74
ENDBRANCH  69  70
ENDBRANCH  68  69
ENDBRANCH   1  68
TORSDOF 14
ENDMDL
MODEL 3
REMARK VINA RESULT:     -10.6      4.456     10.329
REMARK SMILES O=C(NCCCNC(=O)c1cc2n[nH]cc2cc1[N+](=O)[O-])c1ccc(-c2c3nc(c(-c4ccc(S(=O)(=O)[O-])cc4)c4ccc([nH]4)c(-c4ccc(S(=O)(=O)[O-])cc4)c4nc(c(-c5ccc(S(=O)(=O)[O-])cc5)c5ccc2[nH]5)C=C4)C=C3)cc1
REMARK SMILES IDX 4 1 3 2 1 3 2 4 22 6 23 7 81 8 24 9 80 10 25 11 26 12 27 13
REMARK SMILES IDX 74 14 28 15 79 16 73 17 75 18 29 19 78 20 72 21 71 22 30 24
REMARK SMILES IDX 60 25 41 26 59 27 42 28 45 29 58 30 76 31 43 32 44 33 57 35
REMARK SMILES IDX 77 36 46 37 31 38 32 39 40 40 33 41 39 42 34 43 35 44 36 45
REMARK SMILES IDX 37 46 38 47 61 48 62 49 70 50 63 51 69 52 64 53 65 54 66 55
REMARK SMILES IDX 67 56 68 57 47 58 48 59 56 60 49 61 55 62 50 63 51 64 52 65
REMARK SMILES IDX 53 66 54 67 5 68 6 69 7 70 8 71 9 73 10 74 11 75 18 76 12 77
REMARK SMILES IDX 17 78 13 79 16 80 14 81 15 82 19 84 20 85 21 86
REMARK H PARENT 3 5 75 23 45 34 7 72 14 83
REMARK Flexibility Score: inf
ROOT
ATOM      1  C   UNL A   1      38.294  24.074  26.534  1.00  0.00     0.118 C 
ENDROOT
BRANCH   1   2
ATOM      2  N   UNL A   1      39.679  24.127  26.081  1.00  0.00    -0.352 N 
ATOM      3  O   UNL A   1      41.762  24.932  25.811  1.00  0.00    -0.269 OA
ATOM      4  C   UNL A   1      40.702  24.976  26.431  1.00  0.00     0.251 C 
ATOM      5  H   UNL A   1      39.920  23.443  25.415  1.00  0.00     0.163 HD
BRANCH   4   6
ATOM      6  C   UNL A   1      40.527  25.960  27.522  1.00  0.00     0.039 A 
ATOM      7  C   UNL A   1      41.247  27.154  27.537  1.00  0.00     0.014 A 
ATOM      8  C   UNL A   1      39.608  25.691  28.543  1.00  0.00     0.014 A 
ATOM      9  C   UNL A   1      41.190  27.984  28.651  1.00  0.00     0.010 A 
ATOM     10  C   UNL A   1      39.472  26.581  29.612  1.00  0.00     0.010 A 
ATOM     11  C   UNL A   1      40.292  27.716  29.696  1.00  0.00    -0.014 A 
BRANCH  11  12
ATOM     12  C   UNL A   1      40.199  28.669  30.832  1.00  0.00     0.031 A 
ATOM     13  C   UNL A   1      41.156  28.603  31.991  1.00  0.00     0.074 A 
ATOM     14  C   UNL A   1      39.259  29.635  30.789  1.00  0.00     0.049 A 
ATOM     15  N   UNL A   1      41.238  29.389  33.035  1.00  0.00    -0.248 NA
ATOM     16  C   UNL A   1      42.147  27.514  31.983  1.00  0.00     0.031 C 
ATOM     17  C   UNL A   1      38.269  29.800  29.720  1.00  0.00     0.029 A 
ATOM     18  N   UNL A   1      39.000  30.677  31.643  1.00  0.00    -0.354 N 
ATOM     19  C   UNL A   1      42.265  28.878  33.820  1.00  0.00     0.074 A 
ATOM     20  C   UNL A   1      42.766  27.701  33.141  1.00  0.00     0.031 C 
ATOM     21  C   UNL A   1      37.559  30.913  29.947  1.00  0.00     0.029 A 
ATOM     22  C   UNL A   1      37.991  31.502  31.209  1.00  0.00     0.049 A 
ATOM     23  H   UNL A   1      39.489  30.818  32.485  1.00  0.00     0.167 HD
ATOM     24  C   UNL A   1      42.748  29.346  34.997  1.00  0.00     0.031 A 
ATOM     25  C   UNL A   1      37.459  32.606  31.764  1.00  0.00     0.031 A 
ATOM     26  C   UNL A   1      42.249  30.519  35.667  1.00  0.00     0.049 A 
ATOM     27  C   UNL A   1      37.998  33.094  33.075  1.00  0.00     0.074 A 
ATOM     28  C   UNL A   1      42.690  31.090  36.849  1.00  0.00     0.029 A 
ATOM     29  N   UNL A   1      41.194  31.300  35.219  1.00  0.00    -0.354 N 
ATOM     30  N   UNL A   1      38.983  32.606  33.790  1.00  0.00    -0.248 NA
ATOM     31  C   UNL A   1      37.351  34.277  33.657  1.00  0.00     0.031 C 
ATOM     32  C   UNL A   1      41.872  32.188  37.137  1.00  0.00     0.029 A 
ATOM     33  C   UNL A   1      40.953  32.333  36.110  1.00  0.00     0.049 A 
ATOM     34  H   UNL A   1      40.689  31.142  34.387  1.00  0.00     0.167 HD
ATOM     35  C   UNL A   1      39.080  33.428  34.905  1.00  0.00     0.074 A 
ATOM     36  C   UNL A   1      38.067  34.455  34.759  1.00  0.00     0.031 C 
ATOM     37  C   UNL A   1      39.931  33.337  35.958  1.00  0.00     0.031 A 
BRANCH  24  38
ATOM     38  C   UNL A   1      43.855  28.562  35.654  1.00  0.00    -0.014 A 
ATOM     39  C   UNL A   1      45.208  28.838  35.382  1.00  0.00     0.010 A 
ATOM     40  C   UNL A   1      43.536  27.545  36.573  1.00  0.00     0.010 A 
ATOM     41  C   UNL A   1      46.218  28.078  35.978  1.00  0.00     0.020 A 
ATOM     42  C   UNL A   1      44.545  26.797  37.189  1.00  0.00     0.020 A 
ATOM     43  C   UNL A   1      45.880  27.054  36.869  1.00  0.00     0.054 A 
BRANCH  43  44
ATOM     44  S   UNL A   1      47.209  26.075  37.622  1.00  0.00     0.124 S 
ATOM     45  O   UNL A   1      47.923  27.085  38.400  1.00  0.00    -0.237 OA
ATOM     46  O   UNL A   1      46.477  25.085  38.407  1.00  0.00    -0.237 OA
ATOM     47  O   UNL A   1      47.939  25.540  36.476  1.00  0.00    -0.744 OA
ENDBRANCH  43  44
ENDBRANCH  24  38
BRANCH  25  48
ATOM     48  C   UNL A   1      36.352  33.311  31.067  1.00  0.00    -0.014 A 
ATOM     49  C   UNL A   1      35.111  33.495  31.701  1.00  0.00     0.010 A 
ATOM     50  C   UNL A   1      36.557  33.861  29.788  1.00  0.00     0.010 A 
ATOM     51  C   UNL A   1      34.097  34.220  31.069  1.00  0.00     0.020 A 
ATOM     52  C   UNL A   1      35.555  34.609  29.165  1.00  0.00     0.020 A 
ATOM     53  C   UNL A   1      34.328  34.779  29.808  1.00  0.00     0.054 A 
BRANCH  53  54
ATOM     54  S   UNL A   1      33.031  35.793  29.045  1.00  0.00     0.124 S 
ATOM     55  O   UNL A   1      32.363  34.827  28.179  1.00  0.00    -0.237 OA
ATOM     56  O   UNL A   1      32.261  36.245  30.201  1.00  0.00    -0.237 OA
ATOM     57  O   UNL A   1      33.779  36.842  28.357  1.00  0.00    -0.744 OA
ENDBRANCH  53  54
ENDBRANCH  25  48
BRANCH  37  58
ATOM     58  C   UNL A   1      39.808  34.387  37.027  1.00  0.00    -0.014 A 
ATOM     59  C   UNL A   1      40.483  35.615  36.916  1.00  0.00     0.010 A 
ATOM     60  C   UNL A   1      38.979  34.155  38.138  1.00  0.00     0.010 A 
ATOM     61  C   UNL A   1      40.356  36.582  37.916  1.00  0.00     0.020 A 
ATOM     62  C   UNL A   1      38.831  35.128  39.129  1.00  0.00     0.020 A 
ATOM     63  C   UNL A   1      39.533  36.331  39.018  1.00  0.00     0.054 A 
BRANCH  63  64
ATOM     64  S   UNL A   1      39.353  37.614  40.287  1.00  0.00     0.124 S 
ATOM     65  O   UNL A   1      38.260  38.420  39.752  1.00  0.00    -0.237 OA
ATOM     66  O   UNL A   1      39.036  36.841  41.486  1.00  0.00    -0.237 OA
ATOM     67  O   UNL A   1      40.661  38.267  40.305  1.00  0.00    -0.744 OA
ENDBRANCH  63  64
ENDBRANCH  37  58
ENDBRANCH  11  12
ENDBRANCH   4   6
ENDBRANCH   1   2
BRANCH   1  68
ATOM     68  C   UNL A   1      37.394  23.244  25.629  1.00  0.00     0.042 C 
BRANCH  68  69
ATOM     69  C   UNL A   1      35.994  23.804  25.440  1.00  0.00     0.118 C 
BRANCH  69  70
ATOM     70  N   UNL A   1      35.533  23.730  24.060  1.00  0.00    -0.352 N 
ATOM     71  C   UNL A   1      34.298  23.448  23.545  1.00  0.00     0.258 C 
ATOM     72  H   UNL A   1      36.226  23.912  23.385  1.00  0.00     0.163 HD
ATOM     73  O   UNL A   1      34.139  23.330  22.334  1.00  0.00    -0.269 OA
BRANCH  71  74
ATOM     74  C   UNL A   1      33.145  23.233  24.437  1.00  0.00     0.119 A 
ATOM     75  C   UNL A   1      32.475  24.414  24.848  1.00  0.00     0.052 A 
ATOM     76  C   UNL A   1      32.757  21.925  24.878  1.00  0.00     0.282 A 
ATOM     77  C   UNL A   1      31.372  24.172  25.681  1.00  0.00     0.093 A 
ATOM     78  C   UNL A   1      31.632  21.646  25.691  1.00  0.00     0.098 A 
ATOM     79  N   UNL A   1      30.519  25.034  26.256  1.00  0.00    -0.176 NA
ATOM     80  C   UNL A   1      30.999  22.828  26.049  1.00  0.00     0.026 A 
ATOM     81  N   UNL A   1      29.647  24.263  26.933  1.00  0.00    -0.285 N 
ATOM     82  C   UNL A   1      29.892  22.922  26.842  1.00  0.00     0.114 A 
ATOM     83  H   UNL A   1      28.895  24.635  27.450  1.00  0.00     0.189 HD
BRANCH  76  84
ATOM     84  N   UNL A   1      33.576  20.780  24.514  1.00  0.00     0.063 N 
ATOM     85  O   UNL A   1      33.057  19.943  23.764  1.00  0.00    -0.258 OA
ATOM     86  O   UNL A   1      34.706  20.703  25.007  1.00  0.00    -0.258 OA
ENDBRANCH  76  84
ENDBRANCH  71  74
ENDBRANCH  69  70
ENDBRANCH  68  69
ENDBRANCH   1  68
TORSDOF 14
ENDMDL
