MODEL 1
REMARK VINA RESULT:     -11.8      0.000      0.000
REMARK SMILES Cc1c(F)cc(C(=O)NCCCNC(=O)c2ccc(-c3c4nc(c(-c5ccc(S(=O)(=O)[O-])cc5)c5ccc([nH]5)c(-c5ccc(S(=O)(=O)[O-])cc5)c5nc(c(-c6ccc(S(=O)(=O)[O-])cc6)c6ccc3[nH]6)C=C5)C=C4)cc2)cc1S(=O)(=O)NC#N
REMARK SMILES IDX 11 1 10 2 9 3 7 4 8 5 6 7 1 8 2 9 3 10 77 11 4 12 5 13 76 14
REMARK SMILES IDX 78 15 79 16 80 17 81 18 82 20 83 21 12 22 13 23 14 24 15 26
REMARK SMILES IDX 16 27 17 28 75 29 18 30 74 31 19 32 20 33 21 34 68 35 22 36
REMARK SMILES IDX 73 37 67 38 69 39 23 40 72 41 66 42 65 43 24 45 54 46 35 47
REMARK SMILES IDX 53 48 36 49 39 50 52 51 70 52 37 53 38 54 51 56 71 57 40 58
REMARK SMILES IDX 25 59 26 60 34 61 27 62 33 63 28 64 29 65 30 66 31 67 32 68
REMARK SMILES IDX 55 69 56 70 64 71 57 72 63 73 58 74 59 75 60 76 61 77 62 78
REMARK SMILES IDX 41 79 42 80 50 81 43 82 49 83 44 84 45 85 46 86 47 87 48 88
REMARK H PARENT 9 6 81 19 13 25 69 44 39 55
REMARK Flexibility Score: inf
ROOT
ATOM      1  C   UNL A   1      34.098  29.199  27.496  1.00  0.00     0.042 C 
ENDROOT
BRANCH   1   2
ATOM      2  C   UNL A   1      33.185  29.824  26.443  1.00  0.00     0.118 C 
BRANCH   2   3
ATOM      3  N   UNL A   1      33.667  29.519  25.109  1.00  0.00    -0.352 N 
ATOM      4  C   UNL A   1      33.089  29.000  23.984  1.00  0.00     0.251 C 
ATOM      5  O   UNL A   1      33.823  28.842  23.007  1.00  0.00    -0.269 OA
ATOM      6  H   UNL A   1      34.619  29.734  24.986  1.00  0.00     0.163 HD
BRANCH   4   7
ATOM      7  C   UNL A   1      31.643  28.670  23.847  1.00  0.00     0.044 A 
ATOM      8  C   UNL A   1      27.551  27.240  23.581  1.00  0.00     0.049 C 
ATOM      9  C   UNL A   1      28.921  27.832  23.595  1.00  0.00     0.005 A 
ATOM     10  C   UNL A   1      29.953  26.957  23.988  1.00  0.00     0.128 A 
ATOM     11  C   UNL A   1      29.287  29.139  23.261  1.00  0.00     0.095 A 
ATOM     12  F   UNL A   1      29.665  25.674  24.259  1.00  0.00    -0.207 F 
ATOM     13  C   UNL A   1      31.281  27.349  24.099  1.00  0.00     0.053 A 
ATOM     14  C   UNL A   1      30.629  29.554  23.480  1.00  0.00     0.036 A 
BRANCH  11  15
ATOM     15  S   UNL A   1      28.355  30.413  22.409  1.00  0.00     0.270 S 
ATOM     16  O   UNL A   1      28.051  29.823  21.119  1.00  0.00    -0.201 OA
ATOM     17  O   UNL A   1      27.272  30.777  23.297  1.00  0.00    -0.201 OA
BRANCH  15  18
ATOM     18  N   UNL A   1      29.191  31.767  21.984  1.00  0.00    -0.215 NA
ATOM     19  H   UNL A   1      29.886  31.696  21.289  1.00  0.00     0.193 HD
BRANCH  18  20
ATOM     20  C   UNL A   1      28.964  32.942  22.541  1.00  0.00     0.191 C 
ATOM     21  N   UNL A   1      28.591  33.899  23.065  1.00  0.00    -0.172 NA
ENDBRANCH  18  20
ENDBRANCH  15  18
ENDBRANCH  11  15
ENDBRANCH   4   7
ENDBRANCH   2   3
ENDBRANCH   1   2
BRANCH   1  22
ATOM     22  C   UNL A   1      35.358  30.031  27.738  1.00  0.00     0.118 C 
BRANCH  22  23
ATOM     23  N   UNL A   1      35.408  30.543  29.104  1.00  0.00    -0.352 N 
ATOM     24  C   UNL A   1      36.356  30.363  30.078  1.00  0.00     0.251 C 
ATOM     25  H   UNL A   1      34.644  31.105  29.367  1.00  0.00     0.163 HD
ATOM     26  O   UNL A   1      36.084  30.623  31.246  1.00  0.00    -0.269 OA
BRANCH  24  27
ATOM     27  C   UNL A   1      37.696  29.864  29.715  1.00  0.00     0.039 A 
ATOM     28  C   UNL A   1      38.090  29.882  28.376  1.00  0.00     0.014 A 
ATOM     29  C   UNL A   1      38.551  29.358  30.697  1.00  0.00     0.014 A 
ATOM     30  C   UNL A   1      39.369  29.445  28.031  1.00  0.00     0.010 A 
ATOM     31  C   UNL A   1      39.853  29.009  30.364  1.00  0.00     0.010 A 
ATOM     32  C   UNL A   1      40.274  29.043  29.028  1.00  0.00    -0.014 A 
BRANCH  32  33
ATOM     33  C   UNL A   1      41.669  28.668  28.694  1.00  0.00     0.031 A 
ATOM     34  C   UNL A   1      42.752  29.713  28.685  1.00  0.00     0.074 A 
ATOM     35  C   UNL A   1      41.943  27.399  28.333  1.00  0.00     0.049 A 
ATOM     36  N   UNL A   1      44.012  29.587  28.359  1.00  0.00    -0.248 NA
ATOM     37  C   UNL A   1      42.365  31.080  29.068  1.00  0.00     0.031 C 
ATOM     38  C   UNL A   1      40.967  26.308  28.272  1.00  0.00     0.029 A 
ATOM     39  N   UNL A   1      43.121  26.811  27.947  1.00  0.00    -0.354 N 
ATOM     40  C   UNL A   1      44.565  30.856  28.487  1.00  0.00     0.074 A 
ATOM     41  C   UNL A   1      43.490  31.749  28.863  1.00  0.00     0.031 C 
ATOM     42  C   UNL A   1      41.593  25.178  27.906  1.00  0.00     0.029 A 
ATOM     43  C   UNL A   1      42.999  25.475  27.648  1.00  0.00     0.049 A 
ATOM     44  H   UNL A   1      43.974  27.300  27.889  1.00  0.00     0.167 HD
ATOM     45  C   UNL A   1      45.852  31.240  28.323  1.00  0.00     0.031 A 
ATOM     46  C   UNL A   1      43.909  24.588  27.201  1.00  0.00     0.031 A 
ATOM     47  C   UNL A   1      46.912  30.343  27.942  1.00  0.00     0.049 A 
ATOM     48  C   UNL A   1      45.324  25.049  26.981  1.00  0.00     0.074 A 
ATOM     49  C   UNL A   1      48.259  30.620  27.793  1.00  0.00     0.029 A 
ATOM     50  N   UNL A   1      46.744  28.999  27.636  1.00  0.00    -0.354 N 
ATOM     51  N   UNL A   1      45.842  26.239  27.176  1.00  0.00    -0.248 NA
ATOM     52  C   UNL A   1      46.279  24.048  26.490  1.00  0.00     0.031 C 
ATOM     53  C   UNL A   1      48.892  29.467  27.323  1.00  0.00     0.029 A 
ATOM     54  C   UNL A   1      47.957  28.445  27.263  1.00  0.00     0.049 A 
ATOM     55  H   UNL A   1      45.890  28.513  27.679  1.00  0.00     0.167 HD
ATOM     56  C   UNL A   1      47.191  26.120  26.861  1.00  0.00     0.074 A 
ATOM     57  C   UNL A   1      47.410  24.740  26.482  1.00  0.00     0.031 C 
ATOM     58  C   UNL A   1      48.161  27.067  26.887  1.00  0.00     0.031 A 
BRANCH  45  59
ATOM     59  C   UNL A   1      46.186  32.694  28.538  1.00  0.00    -0.014 A 
ATOM     60  C   UNL A   1      46.480  33.196  29.820  1.00  0.00     0.010 A 
ATOM     61  C   UNL A   1      46.255  33.564  27.434  1.00  0.00     0.010 A 
ATOM     62  C   UNL A   1      46.796  34.546  29.997  1.00  0.00     0.020 A 
ATOM     63  C   UNL A   1      46.606  34.906  27.602  1.00  0.00     0.020 A 
ATOM     64  C   UNL A   1      46.860  35.391  28.886  1.00  0.00     0.054 A 
BRANCH  64  65
ATOM     65  S   UNL A   1      47.306  37.130  29.145  1.00  0.00     0.124 S 
ATOM     66  O   UNL A   1      45.997  37.752  29.335  1.00  0.00    -0.237 OA
ATOM     67  O   UNL A   1      48.149  37.067  30.336  1.00  0.00    -0.237 OA
ATOM     68  O   UNL A   1      47.996  37.501  27.913  1.00  0.00    -0.744 OA
ENDBRANCH  64  65
ENDBRANCH  45  59
BRANCH  46  69
ATOM     69  C   UNL A   1      43.509  23.179  26.930  1.00  0.00    -0.014 A 
ATOM     70  C   UNL A   1      43.631  22.633  25.640  1.00  0.00     0.010 A 
ATOM     71  C   UNL A   1      43.009  22.369  27.968  1.00  0.00     0.010 A 
ATOM     72  C   UNL A   1      43.238  21.315  25.388  1.00  0.00     0.020 A 
ATOM     73  C   UNL A   1      42.652  21.040  27.728  1.00  0.00     0.020 A 
ATOM     74  C   UNL A   1      42.757  20.525  26.436  1.00  0.00     0.054 A 
BRANCH  74  75
ATOM     75  S   UNL A   1      42.301  18.803  26.094  1.00  0.00     0.124 S 
ATOM     76  O   UNL A   1      40.901  18.931  25.704  1.00  0.00    -0.237 OA
ATOM     77  O   UNL A   1      43.227  18.442  25.023  1.00  0.00    -0.237 OA
ATOM     78  O   UNL A   1      42.538  18.126  27.367  1.00  0.00    -0.744 OA
ENDBRANCH  74  75
ENDBRANCH  46  69
BRANCH  58  79
ATOM     79  C   UNL A   1      49.562  26.641  26.534  1.00  0.00    -0.014 A 
ATOM     80  C   UNL A   1      50.413  26.047  27.483  1.00  0.00     0.010 A 
ATOM     81  C   UNL A   1      50.011  26.779  25.207  1.00  0.00     0.010 A 
ATOM     82  C   UNL A   1      51.694  25.625  27.119  1.00  0.00     0.020 A 
ATOM     83  C   UNL A   1      51.276  26.323  24.829  1.00  0.00     0.020 A 
ATOM     84  C   UNL A   1      52.114  25.759  25.791  1.00  0.00     0.054 A 
BRANCH  84  85
ATOM     85  S   UNL A   1      53.758  25.146  25.333  1.00  0.00     0.124 S 
ATOM     86  O   UNL A   1      53.579  23.699  25.421  1.00  0.00    -0.237 OA
ATOM     87  O   UNL A   1      53.928  25.676  23.982  1.00  0.00    -0.237 OA
ATOM     88  O   UNL A   1      54.640  25.727  26.341  1.00  0.00    -0.744 OA
ENDBRANCH  84  85
ENDBRANCH  58  79
ENDBRANCH  32  33
ENDBRANCH  24  27
ENDBRANCH  22  23
ENDBRANCH   1  22
TORSDOF 16
ENDMDL
MODEL 2
REMARK VINA RESULT:     -11.8      3.833      5.316
REMARK SMILES Cc1c(F)cc(C(=O)NCCCNC(=O)c2ccc(-c3c4nc(c(-c5ccc(S(=O)(=O)[O-])cc5)c5ccc([nH]5)c(-c5ccc(S(=O)(=O)[O-])cc5)c5nc(c(-c6ccc(S(=O)(=O)[O-])cc6)c6ccc3[nH]6)C=C5)C=C4)cc2)cc1S(=O)(=O)NC#N
REMARK SMILES IDX 11 1 10 2 9 3 7 4 8 5 6 7 1 8 2 9 3 10 77 11 4 12 5 13 76 14
REMARK SMILES IDX 78 15 79 16 80 17 81 18 82 20 83 21 12 22 13 23 14 24 15 26
REMARK SMILES IDX 16 27 17 28 75 29 18 30 74 31 19 32 20 33 21 34 68 35 22 36
REMARK SMILES IDX 73 37 67 38 69 39 23 40 72 41 66 42 65 43 24 45 54 46 35 47
REMARK SMILES IDX 53 48 36 49 39 50 52 51 70 52 37 53 38 54 51 56 71 57 40 58
REMARK SMILES IDX 25 59 26 60 34 61 27 62 33 63 28 64 29 65 30 66 31 67 32 68
REMARK SMILES IDX 55 69 56 70 64 71 57 72 63 73 58 74 59 75 60 76 61 77 62 78
REMARK SMILES IDX 41 79 42 80 50 81 43 82 49 83 44 84 45 85 46 86 47 87 48 88
REMARK H PARENT 9 6 81 19 13 25 69 44 39 55
REMARK Flexibility Score: inf
ROOT
ATOM      1  C   UNL A   1      33.829  28.197  25.256  1.00  0.00     0.042 C 
ENDROOT
BRANCH   1   2
ATOM      2  C   UNL A   1      32.986  27.025  24.759  1.00  0.00     0.118 C 
BRANCH   2   3
ATOM      3  N   UNL A   1      33.210  26.803  23.343  1.00  0.00    -0.352 N 
ATOM      4  C   UNL A   1      33.493  25.700  22.586  1.00  0.00     0.251 C 
ATOM      5  O   UNL A   1      33.657  25.885  21.378  1.00  0.00    -0.269 OA
ATOM      6  H   UNL A   1      33.144  27.627  22.809  1.00  0.00     0.163 HD
BRANCH   4   7
ATOM      7  C   UNL A   1      33.560  24.307  23.107  1.00  0.00     0.044 A 
ATOM      8  C   UNL A   1      33.350  20.150  24.347  1.00  0.00     0.049 C 
ATOM      9  C   UNL A   1      33.496  21.601  24.028  1.00  0.00     0.005 A 
ATOM     10  C   UNL A   1      32.558  22.114  23.109  1.00  0.00     0.128 A 
ATOM     11  C   UNL A   1      34.443  22.494  24.538  1.00  0.00     0.095 A 
ATOM     12  F   UNL A   1      31.589  21.315  22.637  1.00  0.00    -0.207 F 
ATOM     13  C   UNL A   1      32.571  23.431  22.667  1.00  0.00     0.053 A 
ATOM     14  C   UNL A   1      34.508  23.807  23.998  1.00  0.00     0.036 A 
BRANCH  11  15
ATOM     15  S   UNL A   1      35.547  22.322  25.941  1.00  0.00     0.270 S 
ATOM     16  O   UNL A   1      36.447  21.253  25.551  1.00  0.00    -0.201 OA
ATOM     17  O   UNL A   1      36.079  23.644  26.194  1.00  0.00    -0.201 OA
BRANCH  15  18
ATOM     18  N   UNL A   1      34.880  21.728  27.325  1.00  0.00    -0.215 NA
ATOM     19  H   UNL A   1      35.414  21.116  27.883  1.00  0.00     0.193 HD
BRANCH  18  20
ATOM     20  C   UNL A   1      33.658  22.041  27.712  1.00  0.00     0.191 C 
ATOM     21  N   UNL A   1      32.675  22.452  28.154  1.00  0.00    -0.172 NA
ENDBRANCH  18  20
ENDBRANCH  15  18
ENDBRANCH  11  15
ENDBRANCH   4   7
ENDBRANCH   2   3
ENDBRANCH   1   2
BRANCH   1  22
ATOM     22  C   UNL A   1      33.767  28.353  26.776  1.00  0.00     0.118 C 
BRANCH  22  23
ATOM     23  N   UNL A   1      33.666  29.755  27.168  1.00  0.00    -0.352 N 
ATOM     24  C   UNL A   1      34.493  30.510  27.958  1.00  0.00     0.251 C 
ATOM     25  H   UNL A   1      32.883  30.232  26.810  1.00  0.00     0.163 HD
ATOM     26  O   UNL A   1      34.091  31.577  28.412  1.00  0.00    -0.269 OA
BRANCH  24  27
ATOM     27  C   UNL A   1      35.859  30.039  28.251  1.00  0.00     0.039 A 
ATOM     28  C   UNL A   1      36.838  30.128  27.259  1.00  0.00     0.014 A 
ATOM     29  C   UNL A   1      36.165  29.489  29.498  1.00  0.00     0.014 A 
ATOM     30  C   UNL A   1      38.141  29.718  27.542  1.00  0.00     0.010 A 
ATOM     31  C   UNL A   1      37.480  29.165  29.806  1.00  0.00     0.010 A 
ATOM     32  C   UNL A   1      38.480  29.271  28.830  1.00  0.00    -0.014 A 
BRANCH  32  33
ATOM     33  C   UNL A   1      39.879  28.923  29.180  1.00  0.00     0.031 A 
ATOM     34  C   UNL A   1      40.770  29.942  29.835  1.00  0.00     0.074 A 
ATOM     35  C   UNL A   1      40.360  27.710  28.844  1.00  0.00     0.049 A 
ATOM     36  N   UNL A   1      42.035  29.841  30.157  1.00  0.00    -0.248 NA
ATOM     37  C   UNL A   1      40.174  31.251  30.147  1.00  0.00     0.031 C 
ATOM     38  C   UNL A   1      39.598  26.652  28.175  1.00  0.00     0.029 A 
ATOM     39  N   UNL A   1      41.606  27.161  29.014  1.00  0.00    -0.354 N 
ATOM     40  C   UNL A   1      42.386  31.072  30.698  1.00  0.00     0.074 A 
ATOM     41  C   UNL A   1      41.220  31.923  30.606  1.00  0.00     0.031 C 
ATOM     42  C   UNL A   1      40.381  25.573  28.024  1.00  0.00     0.029 A 
ATOM     43  C   UNL A   1      41.716  25.879  28.529  1.00  0.00     0.049 A 
ATOM     44  H   UNL A   1      42.351  27.640  29.445  1.00  0.00     0.167 HD
ATOM     45  C   UNL A   1      43.568  31.454  31.236  1.00  0.00     0.031 A 
ATOM     46  C   UNL A   1      42.774  25.048  28.480  1.00  0.00     0.031 A 
ATOM     47  C   UNL A   1      44.724  30.600  31.315  1.00  0.00     0.049 A 
ATOM     48  C   UNL A   1      44.089  25.512  29.042  1.00  0.00     0.074 A 
ATOM     49  C   UNL A   1      45.955  30.874  31.883  1.00  0.00     0.029 A 
ATOM     50  N   UNL A   1      44.798  29.314  30.800  1.00  0.00    -0.354 N 
ATOM     51  N   UNL A   1      44.383  26.656  29.614  1.00  0.00    -0.248 NA
ATOM     52  C   UNL A   1      45.214  24.571  28.962  1.00  0.00     0.031 C 
ATOM     53  C   UNL A   1      46.798  29.785  31.643  1.00  0.00     0.029 A 
ATOM     54  C   UNL A   1      46.067  28.796  31.004  1.00  0.00     0.049 A 
ATOM     55  H   UNL A   1      44.059  28.839  30.357  1.00  0.00     0.167 HD
ATOM     56  C   UNL A   1      45.718  26.559  29.990  1.00  0.00     0.074 A 
ATOM     57  C   UNL A   1      46.167  25.239  29.597  1.00  0.00     0.031 C 
ATOM     58  C   UNL A   1      46.500  27.478  30.607  1.00  0.00     0.031 A 
BRANCH  45  59
ATOM     59  C   UNL A   1      43.676  32.860  31.768  1.00  0.00    -0.014 A 
ATOM     60  C   UNL A   1      44.120  33.919  30.953  1.00  0.00     0.010 A 
ATOM     61  C   UNL A   1      43.282  33.138  33.090  1.00  0.00     0.010 A 
ATOM     62  C   UNL A   1      44.205  35.218  31.463  1.00  0.00     0.020 A 
ATOM     63  C   UNL A   1      43.331  34.442  33.591  1.00  0.00     0.020 A 
ATOM     64  C   UNL A   1      43.807  35.471  32.778  1.00  0.00     0.054 A 
BRANCH  64  65
ATOM     65  S   UNL A   1      43.897  37.172  33.398  1.00  0.00     0.124 S 
ATOM     66  O   UNL A   1      43.837  37.948  32.161  1.00  0.00    -0.237 OA
ATOM     67  O   UNL A   1      42.716  37.262  34.253  1.00  0.00    -0.237 OA
ATOM     68  O   UNL A   1      45.178  37.221  34.099  1.00  0.00    -0.744 OA
ENDBRANCH  64  65
ENDBRANCH  45  59
BRANCH  46  69
ATOM     69  C   UNL A   1      42.632  23.694  27.872  1.00  0.00    -0.014 A 
ATOM     70  C   UNL A   1      42.953  23.476  26.521  1.00  0.00     0.010 A 
ATOM     71  C   UNL A   1      42.180  22.610  28.649  1.00  0.00     0.010 A 
ATOM     72  C   UNL A   1      42.802  22.207  25.952  1.00  0.00     0.020 A 
ATOM     73  C   UNL A   1      42.065  21.333  28.094  1.00  0.00     0.020 A 
ATOM     74  C   UNL A   1      42.365  21.142  26.745  1.00  0.00     0.054 A 
BRANCH  74  75
ATOM     75  S   UNL A   1      42.225  19.496  25.997  1.00  0.00     0.124 S 
ATOM     76  O   UNL A   1      40.796  19.411  25.715  1.00  0.00    -0.237 OA
ATOM     77  O   UNL A   1      43.096  19.609  24.829  1.00  0.00    -0.237 OA
ATOM     78  O   UNL A   1      42.712  18.600  27.044  1.00  0.00    -0.744 OA
ENDBRANCH  74  75
ENDBRANCH  46  69
BRANCH  58  79
ATOM     79  C   UNL A   1      47.916  27.082  30.937  1.00  0.00    -0.014 A 
ATOM     80  C   UNL A   1      48.975  27.320  30.042  1.00  0.00     0.010 A 
ATOM     81  C   UNL A   1      48.200  26.522  32.197  1.00  0.00     0.010 A 
ATOM     82  C   UNL A   1      50.285  26.979  30.390  1.00  0.00     0.020 A 
ATOM     83  C   UNL A   1      49.511  26.215  32.564  1.00  0.00     0.020 A 
ATOM     84  C   UNL A   1      50.545  26.435  31.652  1.00  0.00     0.054 A 
BRANCH  84  85
ATOM     85  S   UNL A   1      52.261  26.060  32.100  1.00  0.00     0.124 S 
ATOM     86  O   UNL A   1      53.006  26.718  31.030  1.00  0.00    -0.237 OA
ATOM     87  O   UNL A   1      52.385  26.672  33.420  1.00  0.00    -0.237 OA
ATOM     88  O   UNL A   1      52.313  24.600  32.087  1.00  0.00    -0.744 OA
ENDBRANCH  84  85
ENDBRANCH  58  79
ENDBRANCH  32  33
ENDBRANCH  24  27
ENDBRANCH  22  23
ENDBRANCH   1  22
TORSDOF 16
ENDMDL
MODEL 3
REMARK VINA RESULT:     -11.7      4.364      5.766
REMARK SMILES Cc1c(F)cc(C(=O)NCCCNC(=O)c2ccc(-c3c4nc(c(-c5ccc(S(=O)(=O)[O-])cc5)c5ccc([nH]5)c(-c5ccc(S(=O)(=O)[O-])cc5)c5nc(c(-c6ccc(S(=O)(=O)[O-])cc6)c6ccc3[nH]6)C=C5)C=C4)cc2)cc1S(=O)(=O)NC#N
REMARK SMILES IDX 11 1 10 2 9 3 7 4 8 5 6 7 1 8 2 9 3 10 77 11 4 12 5 13 76 14
REMARK SMILES IDX 78 15 79 16 80 17 81 18 82 20 83 21 12 22 13 23 14 24 15 26
REMARK SMILES IDX 16 27 17 28 75 29 18 30 74 31 19 32 20 33 21 34 68 35 22 36
REMARK SMILES IDX 73 37 67 38 69 39 23 40 72 41 66 42 65 43 24 45 54 46 35 47
REMARK SMILES IDX 53 48 36 49 39 50 52 51 70 52 37 53 38 54 51 56 71 57 40 58
REMARK SMILES IDX 25 59 26 60 34 61 27 62 33 63 28 64 29 65 30 66 31 67 32 68
REMARK SMILES IDX 55 69 56 70 64 71 57 72 63 73 58 74 59 75 60 76 61 77 62 78
REMARK SMILES IDX 41 79 42 80 50 81 43 82 49 83 44 84 45 85 46 86 47 87 48 88
REMARK H PARENT 9 6 81 19 13 25 69 44 39 55
REMARK Flexibility Score: inf
ROOT
ATOM      1  C   UNL A   1      32.302  27.589  27.071  1.00  0.00     0.042 C 
ENDROOT
BRANCH   1   2
ATOM      2  C   UNL A   1      32.228  26.368  26.156  1.00  0.00     0.118 C 
BRANCH   2   3
ATOM      3  N   UNL A   1      31.370  25.352  26.736  1.00  0.00    -0.352 N 
ATOM      4  C   UNL A   1      31.449  23.992  26.849  1.00  0.00     0.251 C 
ATOM      5  O   UNL A   1      30.497  23.425  27.389  1.00  0.00    -0.269 OA
ATOM      6  H   UNL A   1      30.552  25.723  27.138  1.00  0.00     0.163 HD
BRANCH   4   7
ATOM      7  C   UNL A   1      32.613  23.170  26.417  1.00  0.00     0.044 A 
ATOM      8  C   UNL A   1      36.288  21.180  25.239  1.00  0.00     0.049 C 
ATOM      9  C   UNL A   1      34.960  21.770  25.577  1.00  0.00     0.005 A 
ATOM     10  C   UNL A   1      34.988  23.112  26.008  1.00  0.00     0.128 A 
ATOM     11  C   UNL A   1      33.710  21.149  25.509  1.00  0.00     0.095 A 
ATOM     12  F   UNL A   1      36.155  23.774  26.032  1.00  0.00    -0.207 F 
ATOM     13  C   UNL A   1      33.852  23.806  26.403  1.00  0.00     0.053 A 
ATOM     14  C   UNL A   1      32.573  21.836  26.015  1.00  0.00     0.036 A 
BRANCH  11  15
ATOM     15  S   UNL A   1      33.229  19.618  24.707  1.00  0.00     0.270 S 
ATOM     16  O   UNL A   1      32.340  18.984  25.663  1.00  0.00    -0.201 OA
ATOM     17  O   UNL A   1      32.722  19.992  23.404  1.00  0.00    -0.201 OA
BRANCH  15  18
ATOM     18  N   UNL A   1      34.411  18.485  24.528  1.00  0.00    -0.215 NA
ATOM     19  H   UNL A   1      35.311  18.681  24.878  1.00  0.00     0.193 HD
BRANCH  18  20
ATOM     20  C   UNL A   1      34.196  17.326  23.935  1.00  0.00     0.191 C 
ATOM     21  N   UNL A   1      34.020  16.413  23.253  1.00  0.00    -0.172 NA
ENDBRANCH  18  20
ENDBRANCH  15  18
ENDBRANCH  11  15
ENDBRANCH   4   7
ENDBRANCH   2   3
ENDBRANCH   1   2
BRANCH   1  22
ATOM     22  C   UNL A   1      33.691  28.229  27.072  1.00  0.00     0.118 C 
BRANCH  22  23
ATOM     23  N   UNL A   1      33.624  29.657  27.363  1.00  0.00    -0.352 N 
ATOM     24  C   UNL A   1      34.500  30.459  28.047  1.00  0.00     0.251 C 
ATOM     25  H   UNL A   1      32.826  30.117  27.013  1.00  0.00     0.163 HD
ATOM     26  O   UNL A   1      34.133  31.562  28.441  1.00  0.00    -0.269 OA
BRANCH  24  27
ATOM     27  C   UNL A   1      35.877  29.995  28.299  1.00  0.00     0.039 A 
ATOM     28  C   UNL A   1      36.821  30.074  27.274  1.00  0.00     0.014 A 
ATOM     29  C   UNL A   1      36.225  29.459  29.541  1.00  0.00     0.014 A 
ATOM     30  C   UNL A   1      38.134  29.670  27.517  1.00  0.00     0.010 A 
ATOM     31  C   UNL A   1      37.551  29.142  29.809  1.00  0.00     0.010 A 
ATOM     32  C   UNL A   1      38.518  29.239  28.798  1.00  0.00    -0.014 A 
BRANCH  32  33
ATOM     33  C   UNL A   1      39.928  28.897  29.104  1.00  0.00     0.031 A 
ATOM     34  C   UNL A   1      40.841  29.928  29.709  1.00  0.00     0.074 A 
ATOM     35  C   UNL A   1      40.398  27.678  28.774  1.00  0.00     0.049 A 
ATOM     36  N   UNL A   1      42.116  29.834  29.988  1.00  0.00    -0.248 NA
ATOM     37  C   UNL A   1      40.255  31.242  30.018  1.00  0.00     0.031 C 
ATOM     38  C   UNL A   1      39.613  26.608  28.152  1.00  0.00     0.029 A 
ATOM     39  N   UNL A   1      41.649  27.133  28.911  1.00  0.00    -0.354 N 
ATOM     40  C   UNL A   1      42.485  31.075  30.493  1.00  0.00     0.074 A 
ATOM     41  C   UNL A   1      41.316  31.923  30.427  1.00  0.00     0.031 C 
ATOM     42  C   UNL A   1      40.392  25.527  27.994  1.00  0.00     0.029 A 
ATOM     43  C   UNL A   1      41.743  25.843  28.446  1.00  0.00     0.049 A 
ATOM     44  H   UNL A   1      42.409  27.620  29.305  1.00  0.00     0.167 HD
ATOM     45  C   UNL A   1      43.685  31.467  30.982  1.00  0.00     0.031 A 
ATOM     46  C   UNL A   1      42.800  25.010  28.374  1.00  0.00     0.031 A 
ATOM     47  C   UNL A   1      44.844  30.615  31.035  1.00  0.00     0.049 A 
ATOM     48  C   UNL A   1      44.134  25.485  28.881  1.00  0.00     0.074 A 
ATOM     49  C   UNL A   1      46.095  30.900  31.555  1.00  0.00     0.029 A 
ATOM     50  N   UNL A   1      44.901  29.319  30.543  1.00  0.00    -0.354 N 
ATOM     51  N   UNL A   1      44.447  26.640  29.421  1.00  0.00    -0.248 NA
ATOM     52  C   UNL A   1      45.256  24.544  28.778  1.00  0.00     0.031 C 
ATOM     53  C   UNL A   1      46.929  29.807  31.305  1.00  0.00     0.029 A 
ATOM     54  C   UNL A   1      46.177  28.805  30.710  1.00  0.00     0.049 A 
ATOM     55  H   UNL A   1      44.147  28.836  30.134  1.00  0.00     0.167 HD
ATOM     56  C   UNL A   1      45.794  26.550  29.751  1.00  0.00     0.074 A 
ATOM     57  C   UNL A   1      46.230  25.224  29.366  1.00  0.00     0.031 C 
ATOM     58  C   UNL A   1      46.597  27.481  30.323  1.00  0.00     0.031 A 
BRANCH  45  59
ATOM     59  C   UNL A   1      43.811  32.882  31.484  1.00  0.00    -0.014 A 
ATOM     60  C   UNL A   1      43.592  33.203  32.837  1.00  0.00     0.010 A 
ATOM     61  C   UNL A   1      44.203  33.904  30.599  1.00  0.00     0.010 A 
ATOM     62  C   UNL A   1      43.723  34.520  33.284  1.00  0.00     0.020 A 
ATOM     63  C   UNL A   1      44.371  35.216  31.049  1.00  0.00     0.020 A 
ATOM     64  C   UNL A   1      44.115  35.518  32.387  1.00  0.00     0.054 A 
BRANCH  64  65
ATOM     65  S   UNL A   1      44.309  37.211  33.006  1.00  0.00     0.124 S 
ATOM     66  O   UNL A   1      43.512  37.178  34.231  1.00  0.00    -0.237 OA
ATOM     67  O   UNL A   1      45.753  37.315  33.200  1.00  0.00    -0.237 OA
ATOM     68  O   UNL A   1      43.764  38.040  31.934  1.00  0.00    -0.744 OA
ENDBRANCH  64  65
ENDBRANCH  45  59
BRANCH  46  69
ATOM     69  C   UNL A   1      42.638  23.646  27.797  1.00  0.00    -0.014 A 
ATOM     70  C   UNL A   1      42.205  22.574  28.598  1.00  0.00     0.010 A 
ATOM     71  C   UNL A   1      42.911  23.412  26.436  1.00  0.00     0.010 A 
ATOM     72  C   UNL A   1      42.071  21.293  28.055  1.00  0.00     0.020 A 
ATOM     73  C   UNL A   1      42.742  22.141  25.881  1.00  0.00     0.020 A 
ATOM     74  C   UNL A   1      42.334  21.086  26.698  1.00  0.00     0.054 A 
BRANCH  74  75
ATOM     75  S   UNL A   1      42.105  19.425  26.007  1.00  0.00     0.124 S 
ATOM     76  O   UNL A   1      40.663  19.383  25.788  1.00  0.00    -0.237 OA
ATOM     77  O   UNL A   1      42.928  19.472  24.801  1.00  0.00    -0.237 OA
ATOM     78  O   UNL A   1      42.605  18.543  27.060  1.00  0.00    -0.744 OA
ENDBRANCH  74  75
ENDBRANCH  46  69
BRANCH  58  79
ATOM     79  C   UNL A   1      48.024  27.091  30.609  1.00  0.00    -0.014 A 
ATOM     80  C   UNL A   1      49.076  27.465  29.754  1.00  0.00     0.010 A 
ATOM     81  C   UNL A   1      48.324  26.395  31.796  1.00  0.00     0.010 A 
ATOM     82  C   UNL A   1      50.395  27.125  30.064  1.00  0.00     0.020 A 
ATOM     83  C   UNL A   1      49.644  26.086  32.130  1.00  0.00     0.020 A 
ATOM     84  C   UNL A   1      50.671  26.444  31.254  1.00  0.00     0.054 A 
BRANCH  84  85
ATOM     85  S   UNL A   1      52.397  26.070  31.662  1.00  0.00     0.124 S 
ATOM     86  O   UNL A   1      52.277  24.785  32.347  1.00  0.00    -0.237 OA
ATOM     87  O   UNL A   1      53.031  26.023  30.347  1.00  0.00    -0.237 OA
ATOM     88  O   UNL A   1      52.806  27.189  32.507  1.00  0.00    -0.744 OA
ENDBRANCH  84  85
ENDBRANCH  58  79
ENDBRANCH  32  33
ENDBRANCH  24  27
ENDBRANCH  22  23
ENDBRANCH   1  22
TORSDOF 16
ENDMDL
