MODEL 1
REMARK VINA RESULT:      -8.6      0.000      0.000
REMARK SMILES C[NH2+]CCCC(=O)NC[C@@H]1CC[C@H](C(=O)NCCCNC(=O)c2ccc(-c3c4nc(c(-c5ccc(S(=O)(=O)[O-])cc5)c5ccc([nH]5)c(-c5ccc(S(=O)(=O)[O-])cc5)c5nc(c(-c6ccc(S(=O)(=O)[O-])cc6)c6ccc3[nH]6)C=C5)C=C4)cc2)O1
REMARK SMILES IDX 14 1 15 2 16 3 13 5 10 6 11 7 83 8 12 9 9 10 8 11 6 12 7 13
REMARK SMILES IDX 5 15 4 16 3 17 2 18 1 19 17 22 18 23 19 24 20 25 21 26 22 28
REMARK SMILES IDX 23 29 24 30 82 31 25 32 81 33 26 34 27 35 28 36 75 37 29 38
REMARK SMILES IDX 80 39 74 40 76 41 30 42 79 43 73 44 72 45 31 47 61 48 42 49
REMARK SMILES IDX 60 50 43 51 46 52 59 53 77 54 44 55 45 56 58 58 78 59 47 60
REMARK SMILES IDX 32 61 33 62 41 63 34 64 40 65 35 66 36 67 37 68 38 69 39 70
REMARK SMILES IDX 62 71 63 72 71 73 64 74 70 75 65 76 66 77 67 78 68 79 69 80
REMARK SMILES IDX 48 81 49 82 57 83 50 84 56 85 51 86 52 87 53 88 54 89 55 90
REMARK H PARENT 16 4 8 14 2 20 2 21 20 27 76 46 46 57
REMARK Flexibility Score: inf
ROOT
ATOM      1  C   UNL A   1      43.934  21.959  26.248  1.00  0.00     0.249 C 
ATOM      2  O   UNL A   1      44.583  21.773  25.214  1.00  0.00    -0.272 OA
ATOM      3  N   UNL A   1      42.982  21.031  26.560  1.00  0.00    -0.354 N 
ATOM      4  H   UNL A   1      42.892  20.295  25.913  1.00  0.00     0.163 HD
ENDROOT
BRANCH   1   5
ATOM      5  C   UNL A   1      44.191  23.207  27.122  1.00  0.00     0.207 C 
ATOM      6  C   UNL A   1      45.033  25.351  26.668  1.00  0.00     0.138 C 
ATOM      7  C   UNL A   1      46.207  24.504  27.142  1.00  0.00     0.037 C 
ATOM      8  O   UNL A   1      43.936  24.443  26.454  1.00  0.00    -0.363 OA
ATOM      9  C   UNL A   1      45.578  23.268  27.735  1.00  0.00     0.045 C 
BRANCH   6  10
ATOM     10  C   UNL A   1      45.263  26.135  25.354  1.00  0.00     0.147 C 
BRANCH  10  11
ATOM     11  N   UNL A   1      44.056  26.747  24.828  1.00  0.00    -0.353 N 
ATOM     12  C   UNL A   1      43.336  27.808  25.278  1.00  0.00     0.220 C 
ATOM     13  O   UNL A   1      42.429  28.235  24.561  1.00  0.00    -0.275 OA
ATOM     14  H   UNL A   1      43.701  26.324  24.013  1.00  0.00     0.163 HD
BRANCH  12  15
ATOM     15  C   UNL A   1      43.636  28.457  26.615  1.00  0.00     0.106 C 
BRANCH  15  16
ATOM     16  C   UNL A   1      43.006  29.844  26.791  1.00  0.00     0.071 C 
BRANCH  16  17
ATOM     17  C   UNL A   1      43.898  30.905  27.434  1.00  0.00     0.260 C 
BRANCH  17  18
ATOM     18  N   UNL A   1      45.324  30.569  27.463  1.00  0.00    -0.349 N 
ATOM     19  C   UNL A   1      46.112  31.414  26.575  1.00  0.00     0.330 C 
ATOM     20  H   UNL A   1      45.668  30.686  28.417  1.00  0.00     0.346 HD
ATOM     21  H   UNL A   1      45.423  29.606  27.146  1.00  0.00     0.346 HD
ENDBRANCH  17  18
ENDBRANCH  16  17
ENDBRANCH  15  16
ENDBRANCH  12  15
ENDBRANCH  10  11
ENDBRANCH   6  10
ENDBRANCH   1   5
BRANCH   3  22
ATOM     22  C   UNL A   1      42.087  20.962  27.693  1.00  0.00     0.117 C 
BRANCH  22  23
ATOM     23  C   UNL A   1      40.643  21.260  27.313  1.00  0.00     0.042 C 
BRANCH  23  24
ATOM     24  C   UNL A   1      40.499  21.860  25.921  1.00  0.00     0.118 C 
BRANCH  24  25
ATOM     25  N   UNL A   1      39.131  22.288  25.643  1.00  0.00    -0.352 N 
ATOM     26  C   UNL A   1      38.401  23.348  26.123  1.00  0.00     0.251 C 
ATOM     27  H   UNL A   1      38.649  21.719  25.001  1.00  0.00     0.163 HD
ATOM     28  O   UNL A   1      37.191  23.376  25.914  1.00  0.00    -0.269 OA
BRANCH  26  29
ATOM     29  C   UNL A   1      39.044  24.433  26.897  1.00  0.00     0.039 A 
ATOM     30  C   UNL A   1      39.887  25.327  26.227  1.00  0.00     0.014 A 
ATOM     31  C   UNL A   1      38.850  24.562  28.272  1.00  0.00     0.014 A 
ATOM     32  C   UNL A   1      40.461  26.394  26.923  1.00  0.00     0.010 A 
ATOM     33  C   UNL A   1      39.347  25.676  28.945  1.00  0.00     0.010 A 
ATOM     34  C   UNL A   1      40.152  26.607  28.276  1.00  0.00    -0.014 A 
BRANCH  34  35
ATOM     35  C   UNL A   1      40.625  27.816  28.996  1.00  0.00     0.031 A 
ATOM     36  C   UNL A   1      41.976  27.833  29.658  1.00  0.00     0.074 A 
ATOM     37  C   UNL A   1      39.794  28.871  29.123  1.00  0.00     0.049 A 
ATOM     38  N   UNL A   1      42.518  28.767  30.396  1.00  0.00    -0.248 NA
ATOM     39  C   UNL A   1      42.817  26.637  29.490  1.00  0.00     0.031 C 
ATOM     40  C   UNL A   1      38.442  28.957  28.564  1.00  0.00     0.029 A 
ATOM     41  N   UNL A   1      39.958  30.070  29.772  1.00  0.00    -0.354 N 
ATOM     42  C   UNL A   1      43.753  28.268  30.793  1.00  0.00     0.074 A 
ATOM     43  C   UNL A   1      43.860  26.929  30.254  1.00  0.00     0.031 C 
ATOM     44  C   UNL A   1      37.913  30.152  28.871  1.00  0.00     0.029 A 
ATOM     45  C   UNL A   1      38.862  30.896  29.690  1.00  0.00     0.049 A 
ATOM     46  H   UNL A   1      40.784  30.314  30.250  1.00  0.00     0.167 HD
ATOM     47  C   UNL A   1      44.717  28.874  31.527  1.00  0.00     0.031 A 
ATOM     48  C   UNL A   1      38.636  32.110  30.228  1.00  0.00     0.031 A 
ATOM     49  C   UNL A   1      44.604  30.208  32.058  1.00  0.00     0.049 A 
ATOM     50  C   UNL A   1      39.710  32.750  31.061  1.00  0.00     0.074 A 
ATOM     51  C   UNL A   1      45.549  30.936  32.762  1.00  0.00     0.029 A 
ATOM     52  N   UNL A   1      43.479  31.011  31.954  1.00  0.00    -0.354 N 
ATOM     53  N   UNL A   1      40.903  32.292  31.360  1.00  0.00    -0.248 NA
ATOM     54  C   UNL A   1      39.412  34.074  31.626  1.00  0.00     0.031 C 
ATOM     55  C   UNL A   1      44.971  32.152  33.138  1.00  0.00     0.029 A 
ATOM     56  C   UNL A   1      43.690  32.211  32.613  1.00  0.00     0.049 A 
ATOM     57  H   UNL A   1      42.650  30.764  31.482  1.00  0.00     0.167 HD
ATOM     58  C   UNL A   1      41.503  33.278  32.135  1.00  0.00     0.074 A 
ATOM     59  C   UNL A   1      40.552  34.366  32.236  1.00  0.00     0.031 C 
ATOM     60  C   UNL A   1      42.728  33.280  32.714  1.00  0.00     0.031 A 
BRANCH  47  61
ATOM     61  C   UNL A   1      45.977  28.096  31.809  1.00  0.00    -0.014 A 
ATOM     62  C   UNL A   1      46.049  27.194  32.886  1.00  0.00     0.010 A 
ATOM     63  C   UNL A   1      47.089  28.231  30.957  1.00  0.00     0.010 A 
ATOM     64  C   UNL A   1      47.221  26.471  33.128  1.00  0.00     0.020 A 
ATOM     65  C   UNL A   1      48.253  27.488  31.178  1.00  0.00     0.020 A 
ATOM     66  C   UNL A   1      48.315  26.624  32.273  1.00  0.00     0.054 A 
BRANCH  66  67
ATOM     67  S   UNL A   1      49.812  25.652  32.597  1.00  0.00     0.124 S 
ATOM     68  O   UNL A   1      49.411  24.860  33.758  1.00  0.00    -0.237 OA
ATOM     69  O   UNL A   1      49.982  24.904  31.355  1.00  0.00    -0.237 OA
ATOM     70  O   UNL A   1      50.834  26.663  32.858  1.00  0.00    -0.744 OA
ENDBRANCH  66  67
ENDBRANCH  47  61
BRANCH  48  71
ATOM     71  C   UNL A   1      37.334  32.794  29.996  1.00  0.00    -0.014 A 
ATOM     72  C   UNL A   1      36.276  32.645  30.911  1.00  0.00     0.010 A 
ATOM     73  C   UNL A   1      37.150  33.611  28.866  1.00  0.00     0.010 A 
ATOM     74  C   UNL A   1      35.054  33.290  30.691  1.00  0.00     0.020 A 
ATOM     75  C   UNL A   1      35.942  34.282  28.659  1.00  0.00     0.020 A 
ATOM     76  C   UNL A   1      34.897  34.108  29.568  1.00  0.00     0.054 A 
BRANCH  76  77
ATOM     77  S   UNL A   1      33.323  34.979  29.335  1.00  0.00     0.124 S 
ATOM     78  O   UNL A   1      32.747  34.928  30.675  1.00  0.00    -0.237 OA
ATOM     79  O   UNL A   1      33.757  36.298  28.881  1.00  0.00    -0.237 OA
ATOM     80  O   UNL A   1      32.636  34.177  28.325  1.00  0.00    -0.744 OA
ENDBRANCH  76  77
ENDBRANCH  48  71
BRANCH  60  81
ATOM     81  C   UNL A   1      43.118  34.503  33.501  1.00  0.00    -0.014 A 
ATOM     82  C   UNL A   1      43.031  34.521  34.905  1.00  0.00     0.010 A 
ATOM     83  C   UNL A   1      43.629  35.630  32.833  1.00  0.00     0.010 A 
ATOM     84  C   UNL A   1      43.420  35.655  35.623  1.00  0.00     0.020 A 
ATOM     85  C   UNL A   1      44.048  36.755  33.548  1.00  0.00     0.020 A 
ATOM     86  C   UNL A   1      43.928  36.763  34.940  1.00  0.00     0.054 A 
BRANCH  86  87
ATOM     87  S   UNL A   1      44.470  38.204  35.900  1.00  0.00     0.124 S 
ATOM     88  O   UNL A   1      44.124  39.309  35.010  1.00  0.00    -0.237 OA
ATOM     89  O   UNL A   1      43.665  38.099  37.114  1.00  0.00    -0.237 OA
ATOM     90  O   UNL A   1      45.902  37.978  36.086  1.00  0.00    -0.744 OA
ENDBRANCH  86  87
ENDBRANCH  60  81
ENDBRANCH  34  35
ENDBRANCH  26  29
ENDBRANCH  24  25
ENDBRANCH  23  24
ENDBRANCH  22  23
ENDBRANCH   3  22
TORSDOF 19
ENDMDL
MODEL 2
REMARK VINA RESULT:      -8.5      4.024     11.049
REMARK SMILES C[NH2+]CCCC(=O)NC[C@@H]1CC[C@H](C(=O)NCCCNC(=O)c2ccc(-c3c4nc(c(-c5ccc(S(=O)(=O)[O-])cc5)c5ccc([nH]5)c(-c5ccc(S(=O)(=O)[O-])cc5)c5nc(c(-c6ccc(S(=O)(=O)[O-])cc6)c6ccc3[nH]6)C=C5)C=C4)cc2)O1
REMARK SMILES IDX 14 1 15 2 16 3 13 5 10 6 11 7 83 8 12 9 9 10 8 11 6 12 7 13
REMARK SMILES IDX 5 15 4 16 3 17 2 18 1 19 17 22 18 23 19 24 20 25 21 26 22 28
REMARK SMILES IDX 23 29 24 30 82 31 25 32 81 33 26 34 27 35 28 36 75 37 29 38
REMARK SMILES IDX 80 39 74 40 76 41 30 42 79 43 73 44 72 45 31 47 61 48 42 49
REMARK SMILES IDX 60 50 43 51 46 52 59 53 77 54 44 55 45 56 58 58 78 59 47 60
REMARK SMILES IDX 32 61 33 62 41 63 34 64 40 65 35 66 36 67 37 68 38 69 39 70
REMARK SMILES IDX 62 71 63 72 71 73 64 74 70 75 65 76 66 77 67 78 68 79 69 80
REMARK SMILES IDX 48 81 49 82 57 83 50 84 56 85 51 86 52 87 53 88 54 89 55 90
REMARK H PARENT 16 4 8 14 2 20 2 21 20 27 76 46 46 57
REMARK Flexibility Score: inf
ROOT
ATOM      1  C   UNL A   1      33.302  26.654  23.001  1.00  0.00     0.249 C 
ATOM      2  O   UNL A   1      33.715  26.278  21.899  1.00  0.00    -0.272 OA
ATOM      3  N   UNL A   1      33.715  27.881  23.434  1.00  0.00    -0.354 N 
ATOM      4  H   UNL A   1      34.324  28.354  22.822  1.00  0.00     0.163 HD
ENDROOT
BRANCH   1   5
ATOM      5  C   UNL A   1      32.378  25.747  23.844  1.00  0.00     0.207 C 
ATOM      6  C   UNL A   1      32.035  23.426  23.932  1.00  0.00     0.138 C 
ATOM      7  C   UNL A   1      30.984  23.995  22.987  1.00  0.00     0.037 C 
ATOM      8  O   UNL A   1      32.964  24.494  24.198  1.00  0.00    -0.363 OA
ATOM      9  C   UNL A   1      31.020  25.485  23.221  1.00  0.00     0.045 C 
BRANCH   6  10
ATOM     10  C   UNL A   1      32.841  22.222  23.388  1.00  0.00     0.147 C 
BRANCH  10  11
ATOM     11  N   UNL A   1      34.022  21.915  24.174  1.00  0.00    -0.353 N 
ATOM     12  C   UNL A   1      34.332  20.813  24.908  1.00  0.00     0.220 C 
ATOM     13  O   UNL A   1      35.475  20.725  25.361  1.00  0.00    -0.275 OA
ATOM     14  H   UNL A   1      34.711  22.618  24.176  1.00  0.00     0.163 HD
BRANCH  12  15
ATOM     15  C   UNL A   1      33.313  19.719  25.160  1.00  0.00     0.106 C 
BRANCH  15  16
ATOM     16  C   UNL A   1      33.227  18.676  24.040  1.00  0.00     0.071 C 
BRANCH  16  17
ATOM     17  C   UNL A   1      33.413  17.221  24.467  1.00  0.00     0.260 C 
BRANCH  17  18
ATOM     18  N   UNL A   1      32.168  16.504  24.751  1.00  0.00    -0.349 N 
ATOM     19  C   UNL A   1      32.310  15.560  25.853  1.00  0.00     0.330 C 
ATOM     20  H   UNL A   1      31.447  17.184  24.994  1.00  0.00     0.346 HD
ATOM     21  H   UNL A   1      31.916  15.974  23.918  1.00  0.00     0.346 HD
ENDBRANCH  17  18
ENDBRANCH  16  17
ENDBRANCH  15  16
ENDBRANCH  12  15
ENDBRANCH  10  11
ENDBRANCH   6  10
ENDBRANCH   1   5
BRANCH   3  22
ATOM     22  C   UNL A   1      33.396  28.595  24.650  1.00  0.00     0.117 C 
BRANCH  22  23
ATOM     23  C   UNL A   1      34.025  27.957  25.881  1.00  0.00     0.042 C 
BRANCH  23  24
ATOM     24  C   UNL A   1      33.343  28.359  27.182  1.00  0.00     0.118 C 
BRANCH  24  25
ATOM     25  N   UNL A   1      33.374  29.802  27.398  1.00  0.00    -0.352 N 
ATOM     26  C   UNL A   1      34.321  30.610  27.978  1.00  0.00     0.251 C 
ATOM     27  H   UNL A   1      32.578  30.280  27.070  1.00  0.00     0.163 HD
ATOM     28  O   UNL A   1      34.025  31.770  28.248  1.00  0.00    -0.269 OA
BRANCH  26  29
ATOM     29  C   UNL A   1      35.672  30.097  28.297  1.00  0.00     0.039 A 
ATOM     30  C   UNL A   1      36.661  30.150  27.308  1.00  0.00     0.014 A 
ATOM     31  C   UNL A   1      35.967  29.543  29.543  1.00  0.00     0.014 A 
ATOM     32  C   UNL A   1      37.960  29.726  27.601  1.00  0.00     0.010 A 
ATOM     33  C   UNL A   1      37.280  29.206  29.862  1.00  0.00     0.010 A 
ATOM     34  C   UNL A   1      38.292  29.301  28.898  1.00  0.00    -0.014 A 
BRANCH  34  35
ATOM     35  C   UNL A   1      39.694  28.992  29.275  1.00  0.00     0.031 A 
ATOM     36  C   UNL A   1      40.554  30.031  29.941  1.00  0.00     0.074 A 
ATOM     37  C   UNL A   1      40.216  27.795  28.937  1.00  0.00     0.049 A 
ATOM     38  N   UNL A   1      41.819  29.966  30.267  1.00  0.00    -0.248 NA
ATOM     39  C   UNL A   1      39.918  31.319  30.262  1.00  0.00     0.031 C 
ATOM     40  C   UNL A   1      39.496  26.720  28.248  1.00  0.00     0.029 A 
ATOM     41  N   UNL A   1      41.477  27.283  29.116  1.00  0.00    -0.354 N 
ATOM     42  C   UNL A   1      42.135  31.204  30.813  1.00  0.00     0.074 A 
ATOM     43  C   UNL A   1      40.941  32.018  30.732  1.00  0.00     0.031 C 
ATOM     44  C   UNL A   1      40.317  25.671  28.088  1.00  0.00     0.029 A 
ATOM     45  C   UNL A   1      41.634  26.013  28.612  1.00  0.00     0.049 A 
ATOM     46  H   UNL A   1      42.201  27.779  29.563  1.00  0.00     0.167 HD
ATOM     47  C   UNL A   1      43.307  31.621  31.349  1.00  0.00     0.031 A 
ATOM     48  C   UNL A   1      42.718  25.216  28.561  1.00  0.00     0.031 A 
ATOM     49  C   UNL A   1      44.491  30.804  31.429  1.00  0.00     0.049 A 
ATOM     50  C   UNL A   1      44.015  25.712  29.137  1.00  0.00     0.074 A 
ATOM     51  C   UNL A   1      45.710  31.112  32.008  1.00  0.00     0.029 A 
ATOM     52  N   UNL A   1      44.608  29.525  30.908  1.00  0.00    -0.354 N 
ATOM     53  N   UNL A   1      44.271  26.859  29.720  1.00  0.00    -0.248 NA
ATOM     54  C   UNL A   1      45.168  24.804  29.054  1.00  0.00     0.031 C 
ATOM     55  C   UNL A   1      46.583  30.044  31.780  1.00  0.00     0.029 A 
ATOM     56  C   UNL A   1      45.891  29.044  31.117  1.00  0.00     0.049 A 
ATOM     57  H   UNL A   1      43.887  29.030  30.454  1.00  0.00     0.167 HD
ATOM     58  C   UNL A   1      45.611  26.805  30.088  1.00  0.00     0.074 A 
ATOM     59  C   UNL A   1      46.102  25.503  29.684  1.00  0.00     0.031 C 
ATOM     60  C   UNL A   1      46.367  27.749  30.699  1.00  0.00     0.031 A 
BRANCH  47  61
ATOM     61  C   UNL A   1      43.374  33.029  31.883  1.00  0.00    -0.014 A 
ATOM     62  C   UNL A   1      43.096  33.309  33.234  1.00  0.00     0.010 A 
ATOM     63  C   UNL A   1      43.767  34.081  31.035  1.00  0.00     0.010 A 
ATOM     64  C   UNL A   1      43.173  34.619  33.716  1.00  0.00     0.020 A 
ATOM     65  C   UNL A   1      43.874  35.388  31.520  1.00  0.00     0.020 A 
ATOM     66  C   UNL A   1      43.560  35.650  32.855  1.00  0.00     0.054 A 
BRANCH  66  67
ATOM     67  S   UNL A   1      43.677  37.335  33.517  1.00  0.00     0.124 S 
ATOM     68  O   UNL A   1      42.395  37.477  34.205  1.00  0.00    -0.237 OA
ATOM     69  O   UNL A   1      44.849  37.256  34.385  1.00  0.00    -0.237 OA
ATOM     70  O   UNL A   1      43.840  38.166  32.328  1.00  0.00    -0.744 OA
ENDBRANCH  66  67
ENDBRANCH  47  61
BRANCH  48  71
ATOM     71  C   UNL A   1      42.621  23.868  27.936  1.00  0.00    -0.014 A 
ATOM     72  C   UNL A   1      42.945  23.685  26.579  1.00  0.00     0.010 A 
ATOM     73  C   UNL A   1      42.220  22.757  28.699  1.00  0.00     0.010 A 
ATOM     74  C   UNL A   1      42.853  22.418  25.995  1.00  0.00     0.020 A 
ATOM     75  C   UNL A   1      42.158  21.483  28.127  1.00  0.00     0.020 A 
ATOM     76  C   UNL A   1      42.465  21.324  26.775  1.00  0.00     0.054 A 
BRANCH  76  77
ATOM     77  S   UNL A   1      42.410  19.681  26.008  1.00  0.00     0.124 S 
ATOM     78  O   UNL A   1      42.916  18.829  27.079  1.00  0.00    -0.237 OA
ATOM     79  O   UNL A   1      40.992  19.528  25.691  1.00  0.00    -0.237 OA
ATOM     80  O   UNL A   1      43.288  19.817  24.847  1.00  0.00    -0.744 OA
ENDBRANCH  76  77
ENDBRANCH  48  71
BRANCH  60  81
ATOM     81  C   UNL A   1      47.806  27.406  30.981  1.00  0.00    -0.014 A 
ATOM     82  C   UNL A   1      48.160  26.620  32.093  1.00  0.00     0.010 A 
ATOM     83  C   UNL A   1      48.812  27.829  30.094  1.00  0.00     0.010 A 
ATOM     84  C   UNL A   1      49.497  26.290  32.328  1.00  0.00     0.020 A 
ATOM     85  C   UNL A   1      50.146  27.474  30.307  1.00  0.00     0.020 A 
ATOM     86  C   UNL A   1      50.481  26.717  31.432  1.00  0.00     0.054 A 
BRANCH  86  87
ATOM     87  S   UNL A   1      52.203  26.233  31.735  1.00  0.00     0.124 S 
ATOM     88  O   UNL A   1      52.048  25.157  32.710  1.00  0.00    -0.237 OA
ATOM     89  O   UNL A   1      52.655  25.819  30.409  1.00  0.00    -0.237 OA
ATOM     90  O   UNL A   1      52.822  27.453  32.246  1.00  0.00    -0.744 OA
ENDBRANCH  86  87
ENDBRANCH  60  81
ENDBRANCH  34  35
ENDBRANCH  26  29
ENDBRANCH  24  25
ENDBRANCH  23  24
ENDBRANCH  22  23
ENDBRANCH   3  22
TORSDOF 19
ENDMDL
MODEL 3
REMARK VINA RESULT:      -8.5      4.101      9.993
REMARK SMILES C[NH2+]CCCC(=O)NC[C@@H]1CC[C@H](C(=O)NCCCNC(=O)c2ccc(-c3c4nc(c(-c5ccc(S(=O)(=O)[O-])cc5)c5ccc([nH]5)c(-c5ccc(S(=O)(=O)[O-])cc5)c5nc(c(-c6ccc(S(=O)(=O)[O-])cc6)c6ccc3[nH]6)C=C5)C=C4)cc2)O1
REMARK SMILES IDX 14 1 15 2 16 3 13 5 10 6 11 7 83 8 12 9 9 10 8 11 6 12 7 13
REMARK SMILES IDX 5 15 4 16 3 17 2 18 1 19 17 22 18 23 19 24 20 25 21 26 22 28
REMARK SMILES IDX 23 29 24 30 82 31 25 32 81 33 26 34 27 35 28 36 75 37 29 38
REMARK SMILES IDX 80 39 74 40 76 41 30 42 79 43 73 44 72 45 31 47 61 48 42 49
REMARK SMILES IDX 60 50 43 51 46 52 59 53 77 54 44 55 45 56 58 58 78 59 47 60
REMARK SMILES IDX 32 61 33 62 41 63 34 64 40 65 35 66 36 67 37 68 38 69 39 70
REMARK SMILES IDX 62 71 63 72 71 73 64 74 70 75 65 76 66 77 67 78 68 79 69 80
REMARK SMILES IDX 48 81 49 82 57 83 50 84 56 85 51 86 52 87 53 88 54 89 55 90
REMARK H PARENT 16 4 8 14 2 20 2 21 20 27 76 46 46 57
REMARK Flexibility Score: inf
ROOT
ATOM      1  C   UNL A   1      33.388  28.127  22.580  1.00  0.00     0.249 C 
ATOM      2  O   UNL A   1      34.055  28.134  21.540  1.00  0.00    -0.272 OA
ATOM      3  N   UNL A   1      33.895  28.810  23.648  1.00  0.00    -0.354 N 
ATOM      4  H   UNL A   1      34.766  29.241  23.489  1.00  0.00     0.163 HD
ENDROOT
BRANCH   1   5
ATOM      5  C   UNL A   1      32.053  27.353  22.651  1.00  0.00     0.207 C 
ATOM      6  C   UNL A   1      31.008  26.085  24.329  1.00  0.00     0.138 C 
ATOM      7  C   UNL A   1      31.783  25.109  23.451  1.00  0.00     0.037 C 
ATOM      8  O   UNL A   1      31.421  27.406  23.931  1.00  0.00    -0.363 OA
ATOM      9  C   UNL A   1      32.146  25.901  22.220  1.00  0.00     0.045 C 
BRANCH   6  10
ATOM     10  C   UNL A   1      31.250  25.951  25.851  1.00  0.00     0.147 C 
BRANCH  10  11
ATOM     11  N   UNL A   1      30.402  24.958  26.486  1.00  0.00    -0.353 N 
ATOM     12  C   UNL A   1      30.631  23.646  26.757  1.00  0.00     0.220 C 
ATOM     13  O   UNL A   1      29.806  23.049  27.451  1.00  0.00    -0.275 OA
ATOM     14  H   UNL A   1      29.518  25.289  26.766  1.00  0.00     0.163 HD
BRANCH  12  15
ATOM     15  C   UNL A   1      31.863  22.933  26.233  1.00  0.00     0.106 C 
BRANCH  15  16
ATOM     16  C   UNL A   1      33.120  23.155  27.082  1.00  0.00     0.071 C 
BRANCH  16  17
ATOM     17  C   UNL A   1      33.772  21.895  27.651  1.00  0.00     0.260 C 
BRANCH  17  18
ATOM     18  N   UNL A   1      34.900  21.385  26.869  1.00  0.00    -0.349 N 
ATOM     19  C   UNL A   1      35.522  22.420  26.051  1.00  0.00     0.330 C 
ATOM     20  H   UNL A   1      35.600  21.010  27.510  1.00  0.00     0.346 HD
ATOM     21  H   UNL A   1      34.544  20.665  26.242  1.00  0.00     0.346 HD
ENDBRANCH  17  18
ENDBRANCH  16  17
ENDBRANCH  15  16
ENDBRANCH  12  15
ENDBRANCH  10  11
ENDBRANCH   6  10
ENDBRANCH   1   5
BRANCH   3  22
ATOM     22  C   UNL A   1      33.351  29.000  24.974  1.00  0.00     0.117 C 
BRANCH  22  23
ATOM     23  C   UNL A   1      33.994  28.082  26.003  1.00  0.00     0.042 C 
BRANCH  23  24
ATOM     24  C   UNL A   1      33.570  28.390  27.433  1.00  0.00     0.118 C 
BRANCH  24  25
ATOM     25  N   UNL A   1      33.581  29.823  27.714  1.00  0.00    -0.352 N 
ATOM     26  C   UNL A   1      34.549  30.629  28.261  1.00  0.00     0.251 C 
ATOM     27  H   UNL A   1      32.751  30.292  27.469  1.00  0.00     0.163 HD
ATOM     28  O   UNL A   1      34.246  31.768  28.607  1.00  0.00    -0.269 OA
BRANCH  26  29
ATOM     29  C   UNL A   1      35.933  30.140  28.455  1.00  0.00     0.039 A 
ATOM     30  C   UNL A   1      36.832  30.229  27.387  1.00  0.00     0.014 A 
ATOM     31  C   UNL A   1      36.344  29.574  29.662  1.00  0.00     0.014 A 
ATOM     32  C   UNL A   1      38.160  29.828  27.561  1.00  0.00     0.010 A 
ATOM     33  C   UNL A   1      37.686  29.260  29.863  1.00  0.00     0.010 A 
ATOM     34  C   UNL A   1      38.609  29.390  28.817  1.00  0.00    -0.014 A 
BRANCH  34  35
ATOM     35  C   UNL A   1      40.044  29.105  29.068  1.00  0.00     0.031 A 
ATOM     36  C   UNL A   1      40.630  27.763  28.721  1.00  0.00     0.074 A 
ATOM     37  C   UNL A   1      40.799  30.034  29.690  1.00  0.00     0.049 A 
ATOM     38  N   UNL A   1      41.837  27.311  28.944  1.00  0.00    -0.248 NA
ATOM     39  C   UNL A   1      39.738  26.796  28.062  1.00  0.00     0.031 C 
ATOM     40  C   UNL A   1      40.333  31.356  30.118  1.00  0.00     0.029 A 
ATOM     41  N   UNL A   1      42.114  30.006  30.083  1.00  0.00    -0.354 N 
ATOM     42  C   UNL A   1      41.846  26.005  28.468  1.00  0.00     0.074 A 
ATOM     43  C   UNL A   1      40.510  25.721  27.988  1.00  0.00     0.031 C 
ATOM     44  C   UNL A   1      41.352  32.020  30.686  1.00  0.00     0.029 A 
ATOM     45  C   UNL A   1      42.526  31.157  30.713  1.00  0.00     0.049 A 
ATOM     46  H   UNL A   1      42.706  29.235  29.926  1.00  0.00     0.167 HD
ATOM     47  C   UNL A   1      42.877  25.127  28.419  1.00  0.00     0.031 A 
ATOM     48  C   UNL A   1      43.711  31.478  31.267  1.00  0.00     0.031 A 
ATOM     49  C   UNL A   1      44.204  25.418  28.896  1.00  0.00     0.049 A 
ATOM     50  C   UNL A   1      44.831  30.476  31.226  1.00  0.00     0.074 A 
ATOM     51  C   UNL A   1      45.333  24.618  28.837  1.00  0.00     0.029 A 
ATOM     52  N   UNL A   1      44.580  26.593  29.528  1.00  0.00    -0.354 N 
ATOM     53  N   UNL A   1      44.840  29.274  30.701  1.00  0.00    -0.248 NA
ATOM     54  C   UNL A   1      46.102  30.875  31.847  1.00  0.00     0.031 C 
ATOM     55  C   UNL A   1      46.374  25.284  29.490  1.00  0.00     0.029 A 
ATOM     56  C   UNL A   1      45.914  26.526  29.898  1.00  0.00     0.049 A 
ATOM     57  H   UNL A   1      43.987  27.362  29.691  1.00  0.00     0.167 HD
ATOM     58  C   UNL A   1      46.122  28.779  30.914  1.00  0.00     0.074 A 
ATOM     59  C   UNL A   1      46.865  29.822  31.593  1.00  0.00     0.031 C 
ATOM     60  C   UNL A   1      46.636  27.568  30.583  1.00  0.00     0.031 A 
BRANCH  47  61
ATOM     61  C   UNL A   1      42.608  23.761  27.840  1.00  0.00    -0.014 A 
ATOM     62  C   UNL A   1      42.920  23.466  26.500  1.00  0.00     0.010 A 
ATOM     63  C   UNL A   1      42.084  22.745  28.658  1.00  0.00     0.010 A 
ATOM     64  C   UNL A   1      42.676  22.191  25.980  1.00  0.00     0.020 A 
ATOM     65  C   UNL A   1      41.866  21.460  28.151  1.00  0.00     0.020 A 
ATOM     66  C   UNL A   1      42.149  21.197  26.809  1.00  0.00     0.054 A 
BRANCH  66  67
ATOM     67  S   UNL A   1      41.868  19.546  26.113  1.00  0.00     0.124 S 
ATOM     68  O   UNL A   1      42.711  19.575  24.920  1.00  0.00    -0.237 OA
ATOM     69  O   UNL A   1      42.328  18.666  27.184  1.00  0.00    -0.237 OA
ATOM     70  O   UNL A   1      40.431  19.514  25.858  1.00  0.00    -0.744 OA
ENDBRANCH  66  67
ENDBRANCH  47  61
BRANCH  48  71
ATOM     71  C   UNL A   1      43.893  32.807  31.913  1.00  0.00    -0.014 A 
ATOM     72  C   UNL A   1      44.350  33.907  31.166  1.00  0.00     0.010 A 
ATOM     73  C   UNL A   1      43.594  32.982  33.277  1.00  0.00     0.010 A 
ATOM     74  C   UNL A   1      44.519  35.155  31.776  1.00  0.00     0.020 A 
ATOM     75  C   UNL A   1      43.731  34.235  33.881  1.00  0.00     0.020 A 
ATOM     76  C   UNL A   1      44.203  35.311  33.129  1.00  0.00     0.054 A 
BRANCH  76  77
ATOM     77  S   UNL A   1      44.375  36.953  33.882  1.00  0.00     0.124 S 
ATOM     78  O   UNL A   1      44.622  37.797  32.717  1.00  0.00    -0.237 OA
ATOM     79  O   UNL A   1      43.082  37.136  34.536  1.00  0.00    -0.237 OA
ATOM     80  O   UNL A   1      45.508  36.793  34.792  1.00  0.00    -0.744 OA
ENDBRANCH  76  77
ENDBRANCH  48  71
BRANCH  60  81
ATOM     81  C   UNL A   1      48.076  27.309  30.939  1.00  0.00    -0.014 A 
ATOM     82  C   UNL A   1      49.115  27.668  30.063  1.00  0.00     0.010 A 
ATOM     83  C   UNL A   1      48.396  26.747  32.188  1.00  0.00     0.010 A 
ATOM     84  C   UNL A   1      50.448  27.443  30.417  1.00  0.00     0.020 A 
ATOM     85  C   UNL A   1      49.728  26.549  32.560  1.00  0.00     0.020 A 
ATOM     86  C   UNL A   1      50.746  26.887  31.665  1.00  0.00     0.054 A 
BRANCH  86  87
ATOM     87  S   UNL A   1      52.486  26.650  32.119  1.00  0.00     0.124 S 
ATOM     88  O   UNL A   1      53.111  26.423  30.819  1.00  0.00    -0.237 OA
ATOM     89  O   UNL A   1      52.821  27.917  32.765  1.00  0.00    -0.237 OA
ATOM     90  O   UNL A   1      52.458  25.492  33.009  1.00  0.00    -0.744 OA
ENDBRANCH  86  87
ENDBRANCH  60  81
ENDBRANCH  34  35
ENDBRANCH  26  29
ENDBRANCH  24  25
ENDBRANCH  23  24
ENDBRANCH  22  23
ENDBRANCH   3  22
TORSDOF 19
ENDMDL
