MODEL 1
REMARK VINA RESULT:     -12.5      0.000      0.000
REMARK SMILES CCOC(=O)c1ccc(NC(=O)[C@@H]2[C@H]3c4ccccc4[C@H](c4ccccc43)[C@@H]2C(=O)NCCCNC(=O)c2ccc(-c3c4nc(c(-c5ccc(S(=O)(=O)[O-])cc5)c5ccc([nH]5)c(-c5ccc(S(=O)(=O)[O-])cc5)c5nc(c(-c6ccc(S(=O)(=O)[O-])cc6)c6ccc3[nH]6)C=C5)C=C4)cc2)cc1
REMARK SMILES IDX 32 1 31 2 29 3 30 4 28 6 13 7 14 8 27 9 15 10 21 11 26 12
REMARK SMILES IDX 22 13 20 14 16 15 25 16 23 17 19 18 17 19 24 20 18 21 11 22
REMARK SMILES IDX 10 23 12 25 9 26 6 27 7 28 99 29 8 30 98 31 4 32 5 33 3 34
REMARK SMILES IDX 2 35 1 36 33 37 34 38 35 39 36 40 37 42 38 43 39 44 97 45
REMARK SMILES IDX 40 46 96 47 41 48 42 49 43 50 90 51 44 52 95 53 89 54 91 55
REMARK SMILES IDX 45 56 94 57 88 58 87 59 46 61 76 62 57 63 75 64 58 65 61 66
REMARK SMILES IDX 74 67 92 68 59 69 60 70 73 72 93 73 62 74 47 75 48 76 56 77
REMARK SMILES IDX 49 78 55 79 50 80 51 81 52 82 53 83 54 84 77 85 78 86 86 87
REMARK SMILES IDX 79 88 85 89 80 90 81 91 82 92 83 93 84 94 63 95 64 96 72 97
REMARK SMILES IDX 65 98 71 99 66 100 67 101 68 102 69 103 70 104
REMARK H PARENT 31 5 10 24 35 41 91 60 61 71
REMARK Flexibility Score: inf
ROOT
ATOM      1  C   UNL A   1      31.886  27.016  26.699  1.00  0.00     0.117 C 
ENDROOT
BRANCH   1   2
ATOM      2  N   UNL A   1      30.774  26.515  25.858  1.00  0.00    -0.356 N 
ATOM      3  C   UNL A   1      30.748  25.288  25.143  1.00  0.00     0.224 C 
ATOM      4  O   UNL A   1      29.690  24.753  24.828  1.00  0.00    -0.275 OA
ATOM      5  H   UNL A   1      29.975  27.086  25.789  1.00  0.00     0.163 HD
BRANCH   3   6
ATOM      6  C   UNL A   1      32.111  24.670  24.856  1.00  0.00     0.104 C 
ATOM      7  C   UNL A   1      32.234  23.168  24.617  1.00  0.00     0.104 C 
ATOM      8  C   UNL A   1      33.390  23.136  23.467  1.00  0.00     0.063 C 
ATOM      9  C   UNL A   1      34.700  23.179  24.191  1.00  0.00    -0.036 A 
ATOM     10  C   UNL A   1      33.478  24.519  22.615  1.00  0.00    -0.036 A 
ATOM     11  C   UNL A   1      33.584  25.296  24.961  1.00  0.00     0.063 C 
ATOM     12  C   UNL A   1      35.791  22.388  23.837  1.00  0.00     0.004 A 
ATOM     13  C   UNL A   1      34.792  24.298  25.068  1.00  0.00    -0.036 A 
ATOM     14  C   UNL A   1      33.690  25.691  23.464  1.00  0.00    -0.036 A 
ATOM     15  C   UNL A   1      33.078  24.721  21.304  1.00  0.00     0.004 A 
ATOM     16  C   UNL A   1      37.023  22.696  24.390  1.00  0.00     0.000 A 
ATOM     17  C   UNL A   1      36.030  24.570  25.634  1.00  0.00     0.004 A 
ATOM     18  C   UNL A   1      33.474  26.993  23.031  1.00  0.00     0.004 A 
ATOM     19  C   UNL A   1      32.843  26.046  20.879  1.00  0.00     0.000 A 
ATOM     20  C   UNL A   1      37.136  23.764  25.294  1.00  0.00     0.000 A 
ATOM     21  C   UNL A   1      33.029  27.159  21.727  1.00  0.00     0.000 A 
BRANCH   7  22
ATOM     22  C   UNL A   1      32.377  22.600  26.075  1.00  0.00     0.229 C 
ATOM     23  N   UNL A   1      32.328  21.214  26.239  1.00  0.00    -0.326 N 
ATOM     24  H   UNL A   1      31.891  20.899  27.062  1.00  0.00     0.169 HD
ATOM     25  O   UNL A   1      32.361  23.289  27.093  1.00  0.00    -0.274 OA
BRANCH  23  26
ATOM     26  C   UNL A   1      32.817  20.204  25.386  1.00  0.00     0.041 A 
ATOM     27  C   UNL A   1      33.701  17.947  23.965  1.00  0.00     0.060 A 
ATOM     28  C   UNL A   1      32.415  18.462  23.760  1.00  0.00     0.018 A 
ATOM     29  C   UNL A   1      34.589  18.641  24.793  1.00  0.00     0.018 A 
ATOM     30  C   UNL A   1      31.970  19.572  24.481  1.00  0.00     0.027 A 
ATOM     31  C   UNL A   1      34.160  19.804  25.461  1.00  0.00     0.027 A 
BRANCH  27  32
ATOM     32  C   UNL A   1      34.040  16.666  23.298  1.00  0.00     0.338 C 
ATOM     33  O   UNL A   1      34.647  16.619  22.236  1.00  0.00    -0.246 OA
BRANCH  32  34
ATOM     34  O   UNL A   1      33.491  15.612  23.951  1.00  0.00    -0.462 OA
BRANCH  34  35
ATOM     35  C   UNL A   1      33.580  15.652  25.392  1.00  0.00     0.230 C 
ATOM     36  C   UNL A   1      32.311  15.167  26.066  1.00  0.00     0.049 C 
ENDBRANCH  34  35
ENDBRANCH  32  34
ENDBRANCH  27  32
ENDBRANCH  23  26
ENDBRANCH   7  22
ENDBRANCH   3   6
ENDBRANCH   1   2
BRANCH   1  37
ATOM     37  C   UNL A   1      32.370  28.437  26.518  1.00  0.00     0.042 C 
BRANCH  37  38
ATOM     38  C   UNL A   1      33.665  28.758  27.216  1.00  0.00     0.118 C 
BRANCH  38  39
ATOM     39  N   UNL A   1      33.707  30.109  27.761  1.00  0.00    -0.352 N 
ATOM     40  C   UNL A   1      34.690  30.800  28.430  1.00  0.00     0.251 C 
ATOM     41  H   UNL A   1      32.878  30.622  27.625  1.00  0.00     0.163 HD
ATOM     42  O   UNL A   1      34.415  31.901  28.902  1.00  0.00    -0.269 OA
BRANCH  40  43
ATOM     43  C   UNL A   1      36.051  30.241  28.605  1.00  0.00     0.039 A 
ATOM     44  C   UNL A   1      36.958  30.268  27.541  1.00  0.00     0.014 A 
ATOM     45  C   UNL A   1      36.444  29.666  29.809  1.00  0.00     0.014 A 
ATOM     46  C   UNL A   1      38.263  29.799  27.727  1.00  0.00     0.010 A 
ATOM     47  C   UNL A   1      37.763  29.317  30.039  1.00  0.00     0.010 A 
ATOM     48  C   UNL A   1      38.685  29.364  28.994  1.00  0.00    -0.014 A 
BRANCH  48  49
ATOM     49  C   UNL A   1      40.081  28.975  29.287  1.00  0.00     0.031 A 
ATOM     50  C   UNL A   1      41.042  29.982  29.863  1.00  0.00     0.074 A 
ATOM     51  C   UNL A   1      40.505  27.755  28.906  1.00  0.00     0.049 A 
ATOM     52  N   UNL A   1      42.317  29.849  30.119  1.00  0.00    -0.248 NA
ATOM     53  C   UNL A   1      40.510  31.325  30.159  1.00  0.00     0.031 C 
ATOM     54  C   UNL A   1      39.679  26.739  28.246  1.00  0.00     0.029 A 
ATOM     55  N   UNL A   1      41.739  27.168  28.999  1.00  0.00    -0.354 N 
ATOM     56  C   UNL A   1      42.736  31.082  30.606  1.00  0.00     0.074 A 
ATOM     57  C   UNL A   1      41.602  31.975  30.534  1.00  0.00     0.031 C 
ATOM     58  C   UNL A   1      40.422  25.643  28.024  1.00  0.00     0.029 A 
ATOM     59  C   UNL A   1      41.781  25.892  28.488  1.00  0.00     0.049 A 
ATOM     60  H   UNL A   1      42.522  27.617  29.392  1.00  0.00     0.167 HD
ATOM     61  C   UNL A   1      43.946  31.428  31.103  1.00  0.00     0.031 A 
ATOM     62  C   UNL A   1      42.804  25.022  28.407  1.00  0.00     0.031 A 
ATOM     63  C   UNL A   1      45.069  30.529  31.157  1.00  0.00     0.049 A 
ATOM     64  C   UNL A   1      44.143  25.432  28.957  1.00  0.00     0.074 A 
ATOM     65  C   UNL A   1      46.328  30.753  31.684  1.00  0.00     0.029 A 
ATOM     66  N   UNL A   1      45.063  29.232  30.665  1.00  0.00    -0.354 N 
ATOM     67  N   UNL A   1      44.493  26.571  29.508  1.00  0.00    -0.248 NA
ATOM     68  C   UNL A   1      45.217  24.434  28.894  1.00  0.00     0.031 C 
ATOM     69  C   UNL A   1      47.099  29.608  31.465  1.00  0.00     0.029 A 
ATOM     70  C   UNL A   1      46.302  28.648  30.861  1.00  0.00     0.049 A 
ATOM     71  H   UNL A   1      44.292  28.792  30.239  1.00  0.00     0.167 HD
ATOM     72  C   UNL A   1      45.820  26.411  29.892  1.00  0.00     0.074 A 
ATOM     73  C   UNL A   1      46.199  25.062  29.525  1.00  0.00     0.031 C 
ATOM     74  C   UNL A   1      46.651  27.299  30.493  1.00  0.00     0.031 A 
BRANCH  61  75
ATOM     75  C   UNL A   1      44.106  32.821  31.656  1.00  0.00    -0.014 A 
ATOM     76  C   UNL A   1      43.852  33.085  33.016  1.00  0.00     0.010 A 
ATOM     77  C   UNL A   1      44.569  33.866  30.836  1.00  0.00     0.010 A 
ATOM     78  C   UNL A   1      44.026  34.369  33.535  1.00  0.00     0.020 A 
ATOM     79  C   UNL A   1      44.774  35.146  31.360  1.00  0.00     0.020 A 
ATOM     80  C   UNL A   1      44.489  35.392  32.705  1.00  0.00     0.054 A 
BRANCH  80  81
ATOM     81  S   UNL A   1      44.746  37.037  33.423  1.00  0.00     0.124 S 
ATOM     82  O   UNL A   1      44.020  37.893  32.487  1.00  0.00    -0.237 OA
ATOM     83  O   UNL A   1      44.144  36.904  34.748  1.00  0.00    -0.237 OA
ATOM     84  O   UNL A   1      46.198  37.199  33.415  1.00  0.00    -0.744 OA
ENDBRANCH  80  81
ENDBRANCH  61  75
BRANCH  62  85
ATOM     85  C   UNL A   1      42.596  23.672  27.816  1.00  0.00    -0.014 A 
ATOM     86  C   UNL A   1      42.347  22.563  28.644  1.00  0.00     0.010 A 
ATOM     87  C   UNL A   1      42.652  23.484  26.422  1.00  0.00     0.010 A 
ATOM     88  C   UNL A   1      42.203  21.286  28.096  1.00  0.00     0.020 A 
ATOM     89  C   UNL A   1      42.473  22.214  25.868  1.00  0.00     0.020 A 
ATOM     90  C   UNL A   1      42.272  21.119  26.711  1.00  0.00     0.054 A 
BRANCH  90  91
ATOM     91  S   UNL A   1      42.073  19.453  26.022  1.00  0.00     0.124 S 
ATOM     92  O   UNL A   1      42.908  19.519  24.826  1.00  0.00    -0.237 OA
ATOM     93  O   UNL A   1      42.575  18.604  27.098  1.00  0.00    -0.237 OA
ATOM     94  O   UNL A   1      40.636  19.353  25.777  1.00  0.00    -0.744 OA
ENDBRANCH  90  91
ENDBRANCH  62  85
BRANCH  74  95
ATOM     95  C   UNL A   1      48.036  26.821  30.832  1.00  0.00    -0.014 A 
ATOM     96  C   UNL A   1      49.133  27.109  30.002  1.00  0.00     0.010 A 
ATOM     97  C   UNL A   1      48.248  26.112  32.030  1.00  0.00     0.010 A 
ATOM     98  C   UNL A   1      50.412  26.663  30.345  1.00  0.00     0.020 A 
ATOM     99  C   UNL A   1      49.529  25.696  32.393  1.00  0.00     0.020 A 
ATOM    100  C   UNL A   1      50.601  25.961  31.540  1.00  0.00     0.054 A 
BRANCH 100 101
ATOM    101  S   UNL A   1      52.279  25.433  31.982  1.00  0.00     0.124 S 
ATOM    102  O   UNL A   1      52.068  24.040  32.366  1.00  0.00    -0.237 OA
ATOM    103  O   UNL A   1      53.015  25.638  30.737  1.00  0.00    -0.237 OA
ATOM    104  O   UNL A   1      52.649  26.331  33.074  1.00  0.00    -0.744 OA
ENDBRANCH 100 101
ENDBRANCH  74  95
ENDBRANCH  48  49
ENDBRANCH  40  43
ENDBRANCH  38  39
ENDBRANCH  37  38
ENDBRANCH   1  37
TORSDOF 18
ENDMDL
MODEL 2
REMARK VINA RESULT:     -12.1      2.742      3.284
REMARK SMILES CCOC(=O)c1ccc(NC(=O)[C@@H]2[C@H]3c4ccccc4[C@H](c4ccccc43)[C@@H]2C(=O)NCCCNC(=O)c2ccc(-c3c4nc(c(-c5ccc(S(=O)(=O)[O-])cc5)c5ccc([nH]5)c(-c5ccc(S(=O)(=O)[O-])cc5)c5nc(c(-c6ccc(S(=O)(=O)[O-])cc6)c6ccc3[nH]6)C=C5)C=C4)cc2)cc1
REMARK SMILES IDX 32 1 31 2 29 3 30 4 28 6 13 7 14 8 27 9 15 10 21 11 26 12
REMARK SMILES IDX 22 13 20 14 16 15 25 16 23 17 19 18 17 19 24 20 18 21 11 22
REMARK SMILES IDX 10 23 12 25 9 26 6 27 7 28 99 29 8 30 98 31 4 32 5 33 3 34
REMARK SMILES IDX 2 35 1 36 33 37 34 38 35 39 36 40 37 42 38 43 39 44 97 45
REMARK SMILES IDX 40 46 96 47 41 48 42 49 43 50 90 51 44 52 95 53 89 54 91 55
REMARK SMILES IDX 45 56 94 57 88 58 87 59 46 61 76 62 57 63 75 64 58 65 61 66
REMARK SMILES IDX 74 67 92 68 59 69 60 70 73 72 93 73 62 74 47 75 48 76 56 77
REMARK SMILES IDX 49 78 55 79 50 80 51 81 52 82 53 83 54 84 77 85 78 86 86 87
REMARK SMILES IDX 79 88 85 89 80 90 81 91 82 92 83 93 84 94 63 95 64 96 72 97
REMARK SMILES IDX 65 98 71 99 66 100 67 101 68 102 69 103 70 104
REMARK H PARENT 31 5 10 24 35 41 91 60 61 71
REMARK Flexibility Score: inf
ROOT
ATOM      1  C   UNL A   1      32.395  27.529  26.835  1.00  0.00     0.117 C 
ENDROOT
BRANCH   1   2
ATOM      2  N   UNL A   1      31.148  26.918  26.320  1.00  0.00    -0.356 N 
ATOM      3  C   UNL A   1      30.998  25.588  25.845  1.00  0.00     0.224 C 
ATOM      4  O   UNL A   1      29.905  25.031  25.833  1.00  0.00    -0.275 OA
ATOM      5  H   UNL A   1      30.345  27.487  26.307  1.00  0.00     0.163 HD
BRANCH   3   6
ATOM      6  C   UNL A   1      32.286  24.898  25.415  1.00  0.00     0.104 C 
ATOM      7  C   UNL A   1      32.296  23.397  25.142  1.00  0.00     0.104 C 
ATOM      8  C   UNL A   1      33.330  23.323  23.883  1.00  0.00     0.063 C 
ATOM      9  C   UNL A   1      34.705  23.274  24.475  1.00  0.00    -0.036 A 
ATOM     10  C   UNL A   1      33.416  24.715  23.048  1.00  0.00    -0.036 A 
ATOM     11  C   UNL A   1      33.798  25.435  25.384  1.00  0.00     0.063 C 
ATOM     12  C   UNL A   1      35.707  22.429  24.003  1.00  0.00     0.004 A 
ATOM     13  C   UNL A   1      34.949  24.368  25.356  1.00  0.00    -0.036 A 
ATOM     14  C   UNL A   1      33.780  25.856  23.890  1.00  0.00    -0.036 A 
ATOM     15  C   UNL A   1      32.903  24.968  21.786  1.00  0.00     0.004 A 
ATOM     16  C   UNL A   1      37.003  22.654  24.436  1.00  0.00     0.000 A 
ATOM     17  C   UNL A   1      36.250  24.555  25.800  1.00  0.00     0.004 A 
ATOM     18  C   UNL A   1      33.601  27.176  23.500  1.00  0.00     0.004 A 
ATOM     19  C   UNL A   1      32.707  26.312  21.406  1.00  0.00     0.000 A 
ATOM     20  C   UNL A   1      37.267  23.695  25.340  1.00  0.00     0.000 A 
ATOM     21  C   UNL A   1      33.041  27.395  22.249  1.00  0.00     0.000 A 
BRANCH   7  22
ATOM     22  C   UNL A   1      32.547  22.791  26.570  1.00  0.00     0.229 C 
ATOM     23  N   UNL A   1      32.561  21.400  26.692  1.00  0.00    -0.326 N 
ATOM     24  H   UNL A   1      32.186  21.043  27.528  1.00  0.00     0.169 HD
ATOM     25  O   UNL A   1      32.566  23.447  27.609  1.00  0.00    -0.274 OA
BRANCH  23  26
ATOM     26  C   UNL A   1      33.036  20.437  25.780  1.00  0.00     0.041 A 
ATOM     27  C   UNL A   1      33.937  18.264  24.243  1.00  0.00     0.060 A 
ATOM     28  C   UNL A   1      32.605  18.687  24.168  1.00  0.00     0.018 A 
ATOM     29  C   UNL A   1      34.849  19.011  24.995  1.00  0.00     0.018 A 
ATOM     30  C   UNL A   1      32.153  19.755  24.948  1.00  0.00     0.027 A 
ATOM     31  C   UNL A   1      34.405  20.132  25.720  1.00  0.00     0.027 A 
BRANCH  27  32
ATOM     32  C   UNL A   1      34.301  17.017  23.525  1.00  0.00     0.338 C 
ATOM     33  O   UNL A   1      33.982  16.813  22.361  1.00  0.00    -0.246 OA
BRANCH  32  34
ATOM     34  O   UNL A   1      34.902  16.130  24.356  1.00  0.00    -0.462 OA
BRANCH  34  35
ATOM     35  C   UNL A   1      34.174  15.806  25.560  1.00  0.00     0.230 C 
ATOM     36  C   UNL A   1      32.832  15.162  25.272  1.00  0.00     0.049 C 
ENDBRANCH  34  35
ENDBRANCH  32  34
ENDBRANCH  27  32
ENDBRANCH  23  26
ENDBRANCH   7  22
ENDBRANCH   3   6
ENDBRANCH   1   2
BRANCH   1  37
ATOM     37  C   UNL A   1      32.381  28.972  27.290  1.00  0.00     0.042 C 
BRANCH  37  38
ATOM     38  C   UNL A   1      33.477  29.828  26.712  1.00  0.00     0.118 C 
BRANCH  38  39
ATOM     39  N   UNL A   1      33.416  31.216  27.150  1.00  0.00    -0.352 N 
ATOM     40  C   UNL A   1      34.220  31.952  27.988  1.00  0.00     0.251 C 
ATOM     41  H   UNL A   1      32.658  31.721  26.777  1.00  0.00     0.163 HD
ATOM     42  O   UNL A   1      33.864  33.087  28.297  1.00  0.00    -0.269 OA
BRANCH  40  43
ATOM     43  C   UNL A   1      35.484  31.401  28.533  1.00  0.00     0.039 A 
ATOM     44  C   UNL A   1      36.678  32.110  28.375  1.00  0.00     0.014 A 
ATOM     45  C   UNL A   1      35.512  30.174  29.186  1.00  0.00     0.014 A 
ATOM     46  C   UNL A   1      37.858  31.621  28.946  1.00  0.00     0.010 A 
ATOM     47  C   UNL A   1      36.643  29.746  29.858  1.00  0.00     0.010 A 
ATOM     48  C   UNL A   1      37.835  30.457  29.732  1.00  0.00    -0.014 A 
BRANCH  48  49
ATOM     49  C   UNL A   1      39.019  29.957  30.464  1.00  0.00     0.031 A 
ATOM     50  C   UNL A   1      39.479  30.649  31.720  1.00  0.00     0.074 A 
ATOM     51  C   UNL A   1      39.746  28.966  29.915  1.00  0.00     0.049 A 
ATOM     52  N   UNL A   1      40.531  30.403  32.456  1.00  0.00    -0.248 NA
ATOM     53  C   UNL A   1      38.672  31.790  32.193  1.00  0.00     0.031 C 
ATOM     54  C   UNL A   1      39.442  28.294  28.648  1.00  0.00     0.029 A 
ATOM     55  N   UNL A   1      40.899  28.362  30.341  1.00  0.00    -0.354 N 
ATOM     56  C   UNL A   1      40.510  31.349  33.475  1.00  0.00     0.074 A 
ATOM     57  C   UNL A   1      39.390  32.226  33.218  1.00  0.00     0.031 C 
ATOM     58  C   UNL A   1      40.369  27.350  28.416  1.00  0.00     0.029 A 
ATOM     59  C   UNL A   1      41.348  27.376  29.495  1.00  0.00     0.049 A 
ATOM     60  H   UNL A   1      41.363  28.611  31.173  1.00  0.00     0.167 HD
ATOM     61  C   UNL A   1      41.329  31.455  34.548  1.00  0.00     0.031 A 
ATOM     62  C   UNL A   1      42.431  26.581  29.584  1.00  0.00     0.031 A 
ATOM     63  C   UNL A   1      42.446  30.580  34.783  1.00  0.00     0.049 A 
ATOM     64  C   UNL A   1      43.332  26.723  30.780  1.00  0.00     0.074 A 
ATOM     65  C   UNL A   1      43.315  30.560  35.859  1.00  0.00     0.029 A 
ATOM     66  N   UNL A   1      42.849  29.568  33.923  1.00  0.00    -0.354 N 
ATOM     67  N   UNL A   1      43.237  27.559  31.787  1.00  0.00    -0.248 NA
ATOM     68  C   UNL A   1      44.471  25.802  30.863  1.00  0.00     0.031 C 
ATOM     69  C   UNL A   1      44.272  29.569  35.626  1.00  0.00     0.029 A 
ATOM     70  C   UNL A   1      43.962  28.928  34.437  1.00  0.00     0.049 A 
ATOM     71  H   UNL A   1      42.407  29.339  33.073  1.00  0.00     0.167 HD
ATOM     72  C   UNL A   1      44.284  27.238  32.644  1.00  0.00     0.074 A 
ATOM     73  C   UNL A   1      44.986  26.122  32.042  1.00  0.00     0.031 C 
ATOM     74  C   UNL A   1      44.637  27.813  33.820  1.00  0.00     0.031 A 
BRANCH  61  75
ATOM     75  C   UNL A   1      41.023  32.529  35.560  1.00  0.00    -0.014 A 
ATOM     76  C   UNL A   1      40.112  32.289  36.606  1.00  0.00     0.010 A 
ATOM     77  C   UNL A   1      41.691  33.766  35.511  1.00  0.00     0.010 A 
ATOM     78  C   UNL A   1      39.849  33.274  37.560  1.00  0.00     0.020 A 
ATOM     79  C   UNL A   1      41.454  34.744  36.483  1.00  0.00     0.020 A 
ATOM     80  C   UNL A   1      40.524  34.495  37.495  1.00  0.00     0.054 A 
BRANCH  80  81
ATOM     81  S   UNL A   1      40.191  35.735  38.776  1.00  0.00     0.124 S 
ATOM     82  O   UNL A   1      39.663  36.847  37.990  1.00  0.00    -0.237 OA
ATOM     83  O   UNL A   1      39.222  35.056  39.632  1.00  0.00    -0.237 OA
ATOM     84  O   UNL A   1      41.499  35.968  39.383  1.00  0.00    -0.744 OA
ENDBRANCH  80  81
ENDBRANCH  61  75
BRANCH  62  85
ATOM     85  C   UNL A   1      42.702  25.561  28.534  1.00  0.00    -0.014 A 
ATOM     86  C   UNL A   1      42.276  24.233  28.705  1.00  0.00     0.010 A 
ATOM     87  C   UNL A   1      43.392  25.911  27.358  1.00  0.00     0.010 A 
ATOM     88  C   UNL A   1      42.574  23.263  27.744  1.00  0.00     0.020 A 
ATOM     89  C   UNL A   1      43.662  24.951  26.379  1.00  0.00     0.020 A 
ATOM     90  C   UNL A   1      43.270  23.627  26.589  1.00  0.00     0.054 A 
BRANCH  90  91
ATOM     91  S   UNL A   1      43.638  22.353  25.353  1.00  0.00     0.124 S 
ATOM     92  O   UNL A   1      44.831  21.724  25.914  1.00  0.00    -0.237 OA
ATOM     93  O   UNL A   1      42.426  21.538  25.368  1.00  0.00    -0.237 OA
ATOM     94  O   UNL A   1      43.852  23.117  24.127  1.00  0.00    -0.744 OA
ENDBRANCH  90  91
ENDBRANCH  62  85
BRANCH  74  95
ATOM     95  C   UNL A   1      45.805  27.213  34.555  1.00  0.00    -0.014 A 
ATOM     96  C   UNL A   1      45.675  26.018  35.284  1.00  0.00     0.010 A 
ATOM     97  C   UNL A   1      47.065  27.834  34.472  1.00  0.00     0.010 A 
ATOM     98  C   UNL A   1      46.777  25.475  35.948  1.00  0.00     0.020 A 
ATOM     99  C   UNL A   1      48.176  27.276  35.105  1.00  0.00     0.020 A 
ATOM    100  C   UNL A   1      48.021  26.107  35.852  1.00  0.00     0.054 A 
BRANCH 100 101
ATOM    101  S   UNL A   1      49.444  25.356  36.688  1.00  0.00     0.124 S 
ATOM    102  O   UNL A   1      49.240  23.936  36.419  1.00  0.00    -0.237 OA
ATOM    103  O   UNL A   1      50.577  25.971  36.001  1.00  0.00    -0.237 OA
ATOM    104  O   UNL A   1      49.277  25.757  38.084  1.00  0.00    -0.744 OA
ENDBRANCH 100 101
ENDBRANCH  74  95
ENDBRANCH  48  49
ENDBRANCH  40  43
ENDBRANCH  38  39
ENDBRANCH  37  38
ENDBRANCH   1  37
TORSDOF 18
ENDMDL
MODEL 3
REMARK VINA RESULT:     -11.9      0.775      7.673
REMARK SMILES CCOC(=O)c1ccc(NC(=O)[C@@H]2[C@H]3c4ccccc4[C@H](c4ccccc43)[C@@H]2C(=O)NCCCNC(=O)c2ccc(-c3c4nc(c(-c5ccc(S(=O)(=O)[O-])cc5)c5ccc([nH]5)c(-c5ccc(S(=O)(=O)[O-])cc5)c5nc(c(-c6ccc(S(=O)(=O)[O-])cc6)c6ccc3[nH]6)C=C5)C=C4)cc2)cc1
REMARK SMILES IDX 32 1 31 2 29 3 30 4 28 6 13 7 14 8 27 9 15 10 21 11 26 12
REMARK SMILES IDX 22 13 20 14 16 15 25 16 23 17 19 18 17 19 24 20 18 21 11 22
REMARK SMILES IDX 10 23 12 25 9 26 6 27 7 28 99 29 8 30 98 31 4 32 5 33 3 34
REMARK SMILES IDX 2 35 1 36 33 37 34 38 35 39 36 40 37 42 38 43 39 44 97 45
REMARK SMILES IDX 40 46 96 47 41 48 42 49 43 50 90 51 44 52 95 53 89 54 91 55
REMARK SMILES IDX 45 56 94 57 88 58 87 59 46 61 76 62 57 63 75 64 58 65 61 66
REMARK SMILES IDX 74 67 92 68 59 69 60 70 73 72 93 73 62 74 47 75 48 76 56 77
REMARK SMILES IDX 49 78 55 79 50 80 51 81 52 82 53 83 54 84 77 85 78 86 86 87
REMARK SMILES IDX 79 88 85 89 80 90 81 91 82 92 83 93 84 94 63 95 64 96 72 97
REMARK SMILES IDX 65 98 71 99 66 100 67 101 68 102 69 103 70 104
REMARK H PARENT 31 5 10 24 35 41 91 60 61 71
REMARK Flexibility Score: inf
ROOT
ATOM      1  C   UNL A   1      32.388  27.204  27.027  1.00  0.00     0.117 C 
ENDROOT
BRANCH   1   2
ATOM      2  N   UNL A   1      31.151  26.676  26.406  1.00  0.00    -0.356 N 
ATOM      3  C   UNL A   1      30.996  25.404  25.793  1.00  0.00     0.224 C 
ATOM      4  O   UNL A   1      29.893  24.876  25.684  1.00  0.00    -0.275 OA
ATOM      5  H   UNL A   1      30.360  27.262  26.419  1.00  0.00     0.163 HD
BRANCH   3   6
ATOM      6  C   UNL A   1      32.287  24.732  25.346  1.00  0.00     0.104 C 
ATOM      7  C   UNL A   1      32.310  23.233  25.061  1.00  0.00     0.104 C 
ATOM      8  C   UNL A   1      33.332  23.179  23.792  1.00  0.00     0.063 C 
ATOM      9  C   UNL A   1      34.714  23.141  24.370  1.00  0.00    -0.036 A 
ATOM     10  C   UNL A   1      33.396  24.579  22.966  1.00  0.00    -0.036 A 
ATOM     11  C   UNL A   1      33.792  25.285  25.304  1.00  0.00     0.063 C 
ATOM     12  C   UNL A   1      35.720  22.311  23.881  1.00  0.00     0.004 A 
ATOM     13  C   UNL A   1      34.954  24.230  25.256  1.00  0.00    -0.036 A 
ATOM     14  C   UNL A   1      33.755  25.717  23.814  1.00  0.00    -0.036 A 
ATOM     15  C   UNL A   1      32.867  24.836  21.712  1.00  0.00     0.004 A 
ATOM     16  C   UNL A   1      37.018  22.546  24.303  1.00  0.00     0.000 A 
ATOM     17  C   UNL A   1      36.258  24.429  25.689  1.00  0.00     0.004 A 
ATOM     18  C   UNL A   1      33.559  27.038  23.435  1.00  0.00     0.004 A 
ATOM     19  C   UNL A   1      32.653  26.181  21.344  1.00  0.00     0.000 A 
ATOM     20  C   UNL A   1      37.280  23.582  25.213  1.00  0.00     0.000 A 
ATOM     21  C   UNL A   1      32.984  27.261  22.192  1.00  0.00     0.000 A 
BRANCH   7  22
ATOM     22  C   UNL A   1      32.581  22.619  26.482  1.00  0.00     0.229 C 
ATOM     23  N   UNL A   1      32.577  21.227  26.599  1.00  0.00    -0.326 N 
ATOM     24  H   UNL A   1      32.215  20.873  27.442  1.00  0.00     0.169 HD
ATOM     25  O   UNL A   1      32.632  23.271  27.522  1.00  0.00    -0.274 OA
BRANCH  23  26
ATOM     26  C   UNL A   1      33.019  20.260  25.674  1.00  0.00     0.041 A 
ATOM     27  C   UNL A   1      33.835  18.076  24.106  1.00  0.00     0.060 A 
ATOM     28  C   UNL A   1      32.530  18.574  24.013  1.00  0.00     0.018 A 
ATOM     29  C   UNL A   1      34.770  18.754  24.895  1.00  0.00     0.018 A 
ATOM     30  C   UNL A   1      32.120  19.646  24.808  1.00  0.00     0.027 A 
ATOM     31  C   UNL A   1      34.371  19.882  25.636  1.00  0.00     0.027 A 
BRANCH  27  32
ATOM     32  C   UNL A   1      34.146  16.828  23.366  1.00  0.00     0.338 C 
ATOM     33  O   UNL A   1      34.266  16.799  22.148  1.00  0.00    -0.246 OA
BRANCH  32  34
ATOM     34  O   UNL A   1      34.153  15.754  24.195  1.00  0.00    -0.462 OA
BRANCH  34  35
ATOM     35  C   UNL A   1      33.578  15.968  25.502  1.00  0.00     0.230 C 
ATOM     36  C   UNL A   1      32.298  15.181  25.710  1.00  0.00     0.049 C 
ENDBRANCH  34  35
ENDBRANCH  32  34
ENDBRANCH  27  32
ENDBRANCH  23  26
ENDBRANCH   7  22
ENDBRANCH   3   6
ENDBRANCH   1   2
BRANCH   1  37
ATOM     37  C   UNL A   1      32.897  28.569  26.621  1.00  0.00     0.042 C 
BRANCH  37  38
ATOM     38  C   UNL A   1      34.237  28.942  27.198  1.00  0.00     0.118 C 
BRANCH  38  39
ATOM     39  N   UNL A   1      34.208  30.174  27.976  1.00  0.00    -0.352 N 
ATOM     40  C   UNL A   1      35.159  30.795  28.750  1.00  0.00     0.251 C 
ATOM     41  H   UNL A   1      33.347  30.649  27.941  1.00  0.00     0.163 HD
ATOM     42  O   UNL A   1      34.828  31.774  29.415  1.00  0.00    -0.269 OA
BRANCH  40  43
ATOM     43  C   UNL A   1      36.556  30.301  28.811  1.00  0.00     0.039 A 
ATOM     44  C   UNL A   1      37.313  30.205  27.639  1.00  0.00     0.014 A 
ATOM     45  C   UNL A   1      37.128  29.906  30.015  1.00  0.00     0.014 A 
ATOM     46  C   UNL A   1      38.650  29.801  27.707  1.00  0.00     0.010 A 
ATOM     47  C   UNL A   1      38.479  29.626  30.108  1.00  0.00     0.010 A 
ATOM     48  C   UNL A   1      39.254  29.554  28.950  1.00  0.00    -0.014 A 
BRANCH  48  49
ATOM     49  C   UNL A   1      40.692  29.246  29.100  1.00  0.00     0.031 A 
ATOM     50  C   UNL A   1      41.205  27.862  28.798  1.00  0.00     0.074 A 
ATOM     51  C   UNL A   1      41.500  30.181  29.634  1.00  0.00     0.049 A 
ATOM     52  N   UNL A   1      42.413  27.384  28.939  1.00  0.00    -0.248 NA
ATOM     53  C   UNL A   1      40.225  26.875  28.309  1.00  0.00     0.031 C 
ATOM     54  C   UNL A   1      41.083  31.522  30.055  1.00  0.00     0.029 A 
ATOM     55  N   UNL A   1      42.837  30.142  29.934  1.00  0.00    -0.354 N 
ATOM     56  C   UNL A   1      42.340  26.051  28.553  1.00  0.00     0.074 A 
ATOM     57  C   UNL A   1      40.954  25.770  28.251  1.00  0.00     0.031 C 
ATOM     58  C   UNL A   1      42.149  32.187  30.528  1.00  0.00     0.029 A 
ATOM     59  C   UNL A   1      43.312  31.311  30.480  1.00  0.00     0.049 A 
ATOM     60  H   UNL A   1      43.402  29.352  29.774  1.00  0.00     0.167 HD
ATOM     61  C   UNL A   1      43.343  25.151  28.425  1.00  0.00     0.031 A 
ATOM     62  C   UNL A   1      44.551  31.636  30.893  1.00  0.00     0.031 A 
ATOM     63  C   UNL A   1      44.716  25.443  28.740  1.00  0.00     0.049 A 
ATOM     64  C   UNL A   1      45.647  30.616  30.751  1.00  0.00     0.074 A 
ATOM     65  C   UNL A   1      45.825  24.627  28.603  1.00  0.00     0.029 A 
ATOM     66  N   UNL A   1      45.167  26.649  29.256  1.00  0.00    -0.354 N 
ATOM     67  N   UNL A   1      45.577  29.390  30.288  1.00  0.00    -0.248 NA
ATOM     68  C   UNL A   1      46.993  31.030  31.167  1.00  0.00     0.031 C 
ATOM     69  C   UNL A   1      46.938  25.323  29.083  1.00  0.00     0.029 A 
ATOM     70  C   UNL A   1      46.534  26.595  29.458  1.00  0.00     0.049 A 
ATOM     71  H   UNL A   1      44.598  27.429  29.449  1.00  0.00     0.167 HD
ATOM     72  C   UNL A   1      46.878  28.900  30.321  1.00  0.00     0.074 A 
ATOM     73  C   UNL A   1      47.712  29.968  30.833  1.00  0.00     0.031 C 
ATOM     74  C   UNL A   1      47.342  27.677  29.962  1.00  0.00     0.031 A 
BRANCH  61  75
ATOM     75  C   UNL A   1      42.997  23.783  27.894  1.00  0.00    -0.014 A 
ATOM     76  C   UNL A   1      42.609  22.751  28.769  1.00  0.00     0.010 A 
ATOM     77  C   UNL A   1      42.997  23.536  26.508  1.00  0.00     0.010 A 
ATOM     78  C   UNL A   1      42.261  21.492  28.275  1.00  0.00     0.020 A 
ATOM     79  C   UNL A   1      42.620  22.285  26.008  1.00  0.00     0.020 A 
ATOM     80  C   UNL A   1      42.266  21.267  26.897  1.00  0.00     0.054 A 
BRANCH  80  81
ATOM     81  S   UNL A   1      41.766  19.634  26.287  1.00  0.00     0.124 S 
ATOM     82  O   UNL A   1      40.332  19.817  26.075  1.00  0.00    -0.237 OA
ATOM     83  O   UNL A   1      42.566  19.488  25.074  1.00  0.00    -0.237 OA
ATOM     84  O   UNL A   1      42.123  18.731  27.379  1.00  0.00    -0.744 OA
ENDBRANCH  80  81
ENDBRANCH  61  75
BRANCH  62  85
ATOM     85  C   UNL A   1      44.827  32.991  31.445  1.00  0.00    -0.014 A 
ATOM     86  C   UNL A   1      44.710  33.235  32.824  1.00  0.00     0.010 A 
ATOM     87  C   UNL A   1      45.202  34.047  30.594  1.00  0.00     0.010 A 
ATOM     88  C   UNL A   1      44.919  34.517  33.338  1.00  0.00     0.020 A 
ATOM     89  C   UNL A   1      45.445  35.324  31.109  1.00  0.00     0.020 A 
ATOM     90  C   UNL A   1      45.280  35.555  32.476  1.00  0.00     0.054 A 
BRANCH  90  91
ATOM     91  S   UNL A   1      45.553  37.209  33.167  1.00  0.00     0.124 S 
ATOM     92  O   UNL A   1      45.728  38.015  31.962  1.00  0.00    -0.237 OA
ATOM     93  O   UNL A   1      44.321  37.447  33.915  1.00  0.00    -0.237 OA
ATOM     94  O   UNL A   1      46.749  37.043  33.989  1.00  0.00    -0.744 OA
ENDBRANCH  90  91
ENDBRANCH  62  85
BRANCH  74  95
ATOM     95  C   UNL A   1      48.825  27.448  30.067  1.00  0.00    -0.014 A 
ATOM     96  C   UNL A   1      49.681  27.689  28.979  1.00  0.00     0.010 A 
ATOM     97  C   UNL A   1      49.374  27.031  31.294  1.00  0.00     0.010 A 
ATOM     98  C   UNL A   1      51.057  27.479  29.105  1.00  0.00     0.020 A 
ATOM     99  C   UNL A   1      50.751  26.854  31.435  1.00  0.00     0.020 A 
ATOM    100  C   UNL A   1      51.582  27.065  30.333  1.00  0.00     0.054 A 
BRANCH 100 101
ATOM    101  S   UNL A   1      53.376  26.843  30.481  1.00  0.00     0.124 S 
ATOM    102  O   UNL A   1      53.791  26.786  29.083  1.00  0.00    -0.237 OA
ATOM    103  O   UNL A   1      53.785  28.040  31.211  1.00  0.00    -0.237 OA
ATOM    104  O   UNL A   1      53.510  25.591  31.223  1.00  0.00    -0.744 OA
ENDBRANCH 100 101
ENDBRANCH  74  95
ENDBRANCH  48  49
ENDBRANCH  40  43
ENDBRANCH  38  39
ENDBRANCH  37  38
ENDBRANCH   1  37
TORSDOF 18
ENDMDL
