MODEL 1
REMARK VINA RESULT:     -11.9      0.000      0.000
REMARK SMILES COCc1nc2ccccc2n1CC(=O)NCCCNC(=O)c1ccc(-c2c3nc(c(-c4ccc(S(=O)(=O)[O-])cc4)c4ccc([nH]4)c(-c4ccc(S(=O)(=O)[O-])cc4)c4nc(c(-c5ccc(S(=O)(=O)[O-])cc5)c5ccc2[nH]5)C=C4)C=C3)cc1
REMARK SMILES IDX 18 1 17 2 16 3 14 4 15 5 13 7 12 8 4 9 5 10 6 11 11 12 7 13
REMARK SMILES IDX 10 14 8 15 9 16 3 17 2 18 1 19 19 20 20 21 21 22 22 24 23 25
REMARK SMILES IDX 24 26 82 27 25 28 81 29 26 30 27 31 28 32 75 33 29 34 80 35
REMARK SMILES IDX 74 36 76 37 30 38 79 39 73 40 72 41 31 43 61 44 42 45 60 46
REMARK SMILES IDX 43 47 46 48 59 49 77 50 44 51 45 52 58 54 78 55 47 56 32 57
REMARK SMILES IDX 33 58 41 59 34 60 40 61 35 62 36 63 37 64 38 65 39 66 62 67
REMARK SMILES IDX 63 68 71 69 64 70 70 71 65 72 66 73 67 74 68 75 69 76 48 77
REMARK SMILES IDX 49 78 57 79 50 80 56 81 51 82 52 83 53 84 54 85 55 86
REMARK H PARENT 16 6 20 23 76 42 46 53
REMARK Flexibility Score: inf
ROOT
ATOM      1  C   UNL A   1      38.741  21.897  25.980  1.00  0.00     0.042 C 
ENDROOT
BRANCH   1   2
ATOM      2  C   UNL A   1      37.945  23.184  25.768  1.00  0.00     0.117 C 
BRANCH   2   3
ATOM      3  N   UNL A   1      37.426  23.298  24.416  1.00  0.00    -0.354 N 
ATOM      4  C   UNL A   1      36.283  22.798  23.869  1.00  0.00     0.240 C 
ATOM      5  O   UNL A   1      36.064  23.058  22.683  1.00  0.00    -0.273 OA
ATOM      6  H   UNL A   1      37.990  23.817  23.797  1.00  0.00     0.163 HD
BRANCH   4   7
ATOM      7  C   UNL A   1      35.291  22.024  24.711  1.00  0.00     0.223 C 
BRANCH   7   8
ATOM      8  N   UNL A   1      33.956  22.597  24.730  1.00  0.00    -0.316 N 
ATOM      9  C   UNL A   1      32.778  21.971  24.371  1.00  0.00     0.136 A 
ATOM     10  N   UNL A   1      31.745  22.759  24.610  1.00  0.00    -0.231 NA
ATOM     11  C   UNL A   1      32.266  23.947  25.055  1.00  0.00     0.089 A 
ATOM     12  C   UNL A   1      33.655  23.895  25.091  1.00  0.00     0.069 A 
ATOM     13  C   UNL A   1      31.608  25.124  25.447  1.00  0.00     0.030 A 
ATOM     14  C   UNL A   1      34.438  24.998  25.466  1.00  0.00     0.028 A 
ATOM     15  C   UNL A   1      32.371  26.225  25.850  1.00  0.00     0.002 A 
ATOM     16  C   UNL A   1      33.764  26.162  25.851  1.00  0.00     0.002 A 
BRANCH   9  17
ATOM     17  C   UNL A   1      32.666  20.592  23.804  1.00  0.00     0.235 C 
BRANCH  17  18
ATOM     18  O   UNL A   1      31.988  19.727  24.717  1.00  0.00    -0.377 OA
ATOM     19  C   UNL A   1      32.863  18.872  25.439  1.00  0.00     0.195 C 
ENDBRANCH  17  18
ENDBRANCH   9  17
ENDBRANCH   7   8
ENDBRANCH   4   7
ENDBRANCH   2   3
ENDBRANCH   1   2
BRANCH   1  20
ATOM     20  C   UNL A   1      40.065  22.111  26.716  1.00  0.00     0.118 C 
BRANCH  20  21
ATOM     21  N   UNL A   1      41.210  22.268  25.840  1.00  0.00    -0.352 N 
ATOM     22  C   UNL A   1      42.164  23.228  25.651  1.00  0.00     0.251 C 
ATOM     23  H   UNL A   1      41.330  21.499  25.238  1.00  0.00     0.163 HD
ATOM     24  O   UNL A   1      43.043  22.950  24.830  1.00  0.00    -0.269 OA
BRANCH  22  25
ATOM     25  C   UNL A   1      42.182  24.569  26.297  1.00  0.00     0.039 A 
ATOM     26  C   UNL A   1      42.915  24.920  27.431  1.00  0.00     0.014 A 
ATOM     27  C   UNL A   1      41.329  25.533  25.725  1.00  0.00     0.014 A 
ATOM     28  C   UNL A   1      42.713  26.152  28.047  1.00  0.00     0.010 A 
ATOM     29  C   UNL A   1      41.141  26.773  26.323  1.00  0.00     0.010 A 
ATOM     30  C   UNL A   1      41.789  27.056  27.520  1.00  0.00    -0.014 A 
BRANCH  30  31
ATOM     31  C   UNL A   1      41.543  28.297  28.252  1.00  0.00     0.031 A 
ATOM     32  C   UNL A   1      42.596  29.349  28.149  1.00  0.00     0.074 A 
ATOM     33  C   UNL A   1      40.390  28.531  28.910  1.00  0.00     0.049 A 
ATOM     34  N   UNL A   1      43.271  29.910  29.099  1.00  0.00    -0.248 NA
ATOM     35  C   UNL A   1      42.991  29.780  26.799  1.00  0.00     0.031 C 
ATOM     36  C   UNL A   1      39.151  27.747  28.879  1.00  0.00     0.029 A 
ATOM     37  N   UNL A   1      40.052  29.608  29.670  1.00  0.00    -0.354 N 
ATOM     38  C   UNL A   1      44.085  30.867  28.493  1.00  0.00     0.074 A 
ATOM     39  C   UNL A   1      43.942  30.676  27.070  1.00  0.00     0.031 C 
ATOM     40  C   UNL A   1      38.140  28.494  29.377  1.00  0.00     0.029 A 
ATOM     41  C   UNL A   1      38.689  29.728  29.906  1.00  0.00     0.049 A 
ATOM     42  H   UNL A   1      40.715  30.245  30.022  1.00  0.00     0.167 HD
ATOM     43  C   UNL A   1      44.729  31.845  29.192  1.00  0.00     0.031 A 
ATOM     44  C   UNL A   1      38.054  30.804  30.433  1.00  0.00     0.031 A 
ATOM     45  C   UNL A   1      44.787  31.557  30.597  1.00  0.00     0.049 A 
ATOM     46  C   UNL A   1      39.064  31.598  31.171  1.00  0.00     0.074 A 
ATOM     47  C   UNL A   1      45.410  30.595  31.363  1.00  0.00     0.029 A 
ATOM     48  N   UNL A   1      43.842  32.136  31.409  1.00  0.00    -0.354 N 
ATOM     49  N   UNL A   1      39.672  31.178  32.245  1.00  0.00    -0.248 NA
ATOM     50  C   UNL A   1      39.703  32.708  30.484  1.00  0.00     0.031 C 
ATOM     51  C   UNL A   1      44.498  30.319  32.420  1.00  0.00     0.029 A 
ATOM     52  C   UNL A   1      43.394  31.164  32.267  1.00  0.00     0.049 A 
ATOM     53  H   UNL A   1      43.543  33.074  31.382  1.00  0.00     0.167 HD
ATOM     54  C   UNL A   1      40.962  31.675  32.140  1.00  0.00     0.074 A 
ATOM     55  C   UNL A   1      40.891  32.692  31.094  1.00  0.00     0.031 C 
ATOM     56  C   UNL A   1      42.022  31.034  32.718  1.00  0.00     0.031 A 
BRANCH  43  57
ATOM     57  C   UNL A   1      45.096  33.197  28.633  1.00  0.00    -0.014 A 
ATOM     58  C   UNL A   1      44.131  34.127  28.198  1.00  0.00     0.010 A 
ATOM     59  C   UNL A   1      46.422  33.665  28.756  1.00  0.00     0.010 A 
ATOM     60  C   UNL A   1      44.463  35.448  27.885  1.00  0.00     0.020 A 
ATOM     61  C   UNL A   1      46.759  35.001  28.486  1.00  0.00     0.020 A 
ATOM     62  C   UNL A   1      45.772  35.883  28.048  1.00  0.00     0.054 A 
BRANCH  62  63
ATOM     63  S   UNL A   1      46.132  37.636  27.767  1.00  0.00     0.124 S 
ATOM     64  O   UNL A   1      45.798  38.223  29.062  1.00  0.00    -0.237 OA
ATOM     65  O   UNL A   1      47.553  37.614  27.433  1.00  0.00    -0.237 OA
ATOM     66  O   UNL A   1      45.241  37.998  26.669  1.00  0.00    -0.744 OA
ENDBRANCH  62  63
ENDBRANCH  43  57
BRANCH  44  67
ATOM     67  C   UNL A   1      36.784  31.399  29.947  1.00  0.00    -0.014 A 
ATOM     68  C   UNL A   1      36.733  31.979  28.661  1.00  0.00     0.010 A 
ATOM     69  C   UNL A   1      35.736  31.685  30.841  1.00  0.00     0.010 A 
ATOM     70  C   UNL A   1      35.719  32.874  28.309  1.00  0.00     0.020 A 
ATOM     71  C   UNL A   1      34.715  32.586  30.493  1.00  0.00     0.020 A 
ATOM     72  C   UNL A   1      34.738  33.203  29.240  1.00  0.00     0.054 A 
BRANCH  72  73
ATOM     73  S   UNL A   1      33.557  34.516  28.820  1.00  0.00     0.124 S 
ATOM     74  O   UNL A   1      33.021  34.872  30.134  1.00  0.00    -0.237 OA
ATOM     75  O   UNL A   1      34.418  35.528  28.205  1.00  0.00    -0.237 OA
ATOM     76  O   UNL A   1      32.620  33.869  27.916  1.00  0.00    -0.744 OA
ENDBRANCH  72  73
ENDBRANCH  44  67
BRANCH  56  77
ATOM     77  C   UNL A   1      41.752  29.900  33.689  1.00  0.00    -0.014 A 
ATOM     78  C   UNL A   1      41.936  30.152  35.061  1.00  0.00     0.010 A 
ATOM     79  C   UNL A   1      41.542  28.568  33.278  1.00  0.00     0.010 A 
ATOM     80  C   UNL A   1      41.961  29.107  35.990  1.00  0.00     0.020 A 
ATOM     81  C   UNL A   1      41.539  27.516  34.209  1.00  0.00     0.020 A 
ATOM     82  C   UNL A   1      41.780  27.792  35.556  1.00  0.00     0.054 A 
BRANCH  82  83
ATOM     83  S   UNL A   1      41.907  26.455  36.776  1.00  0.00     0.124 S 
ATOM     84  O   UNL A   1      42.244  25.303  35.941  1.00  0.00    -0.237 OA
ATOM     85  O   UNL A   1      42.975  26.921  37.658  1.00  0.00    -0.237 OA
ATOM     86  O   UNL A   1      40.580  26.401  37.386  1.00  0.00    -0.744 OA
ENDBRANCH  82  83
ENDBRANCH  56  77
ENDBRANCH  30  31
ENDBRANCH  22  25
ENDBRANCH  20  21
ENDBRANCH   1  20
TORSDOF 16
ENDMDL
MODEL 2
REMARK VINA RESULT:     -11.8      1.019      2.219
REMARK SMILES COCc1nc2ccccc2n1CC(=O)NCCCNC(=O)c1ccc(-c2c3nc(c(-c4ccc(S(=O)(=O)[O-])cc4)c4ccc([nH]4)c(-c4ccc(S(=O)(=O)[O-])cc4)c4nc(c(-c5ccc(S(=O)(=O)[O-])cc5)c5ccc2[nH]5)C=C4)C=C3)cc1
REMARK SMILES IDX 18 1 17 2 16 3 14 4 15 5 13 7 12 8 4 9 5 10 6 11 11 12 7 13
REMARK SMILES IDX 10 14 8 15 9 16 3 17 2 18 1 19 19 20 20 21 21 22 22 24 23 25
REMARK SMILES IDX 24 26 82 27 25 28 81 29 26 30 27 31 28 32 75 33 29 34 80 35
REMARK SMILES IDX 74 36 76 37 30 38 79 39 73 40 72 41 31 43 61 44 42 45 60 46
REMARK SMILES IDX 43 47 46 48 59 49 77 50 44 51 45 52 58 54 78 55 47 56 32 57
REMARK SMILES IDX 33 58 41 59 34 60 40 61 35 62 36 63 37 64 38 65 39 66 62 67
REMARK SMILES IDX 63 68 71 69 64 70 70 71 65 72 66 73 67 74 68 75 69 76 48 77
REMARK SMILES IDX 49 78 57 79 50 80 56 81 51 82 52 83 53 84 54 85 55 86
REMARK H PARENT 16 6 20 23 76 42 46 53
REMARK Flexibility Score: inf
ROOT
ATOM      1  C   UNL A   1      38.936  22.575  26.214  1.00  0.00     0.042 C 
ENDROOT
BRANCH   1   2
ATOM      2  C   UNL A   1      38.113  21.556  25.427  1.00  0.00     0.117 C 
BRANCH   2   3
ATOM      3  N   UNL A   1      37.289  22.179  24.405  1.00  0.00    -0.354 N 
ATOM      4  C   UNL A   1      35.933  22.229  24.280  1.00  0.00     0.240 C 
ATOM      5  O   UNL A   1      35.479  22.847  23.313  1.00  0.00    -0.273 OA
ATOM      6  H   UNL A   1      37.789  22.637  23.691  1.00  0.00     0.163 HD
BRANCH   4   7
ATOM      7  C   UNL A   1      35.032  21.615  25.330  1.00  0.00     0.223 C 
BRANCH   7   8
ATOM      8  N   UNL A   1      33.967  20.789  24.786  1.00  0.00    -0.316 N 
ATOM      9  C   UNL A   1      32.678  21.184  24.488  1.00  0.00     0.136 A 
ATOM     10  N   UNL A   1      32.013  20.196  23.915  1.00  0.00    -0.231 NA
ATOM     11  C   UNL A   1      32.858  19.117  23.914  1.00  0.00     0.089 A 
ATOM     12  C   UNL A   1      34.076  19.442  24.502  1.00  0.00     0.069 A 
ATOM     13  C   UNL A   1      32.651  17.817  23.426  1.00  0.00     0.030 A 
ATOM     14  C   UNL A   1      35.103  18.501  24.670  1.00  0.00     0.028 A 
ATOM     15  C   UNL A   1      33.674  16.872  23.560  1.00  0.00     0.002 A 
ATOM     16  C   UNL A   1      34.877  17.210  24.179  1.00  0.00     0.002 A 
BRANCH   9  17
ATOM     17  C   UNL A   1      32.102  22.537  24.758  1.00  0.00     0.235 C 
BRANCH  17  18
ATOM     18  O   UNL A   1      30.986  22.440  25.646  1.00  0.00    -0.377 OA
ATOM     19  C   UNL A   1      31.123  23.239  26.813  1.00  0.00     0.195 C 
ENDBRANCH  17  18
ENDBRANCH   9  17
ENDBRANCH   7   8
ENDBRANCH   4   7
ENDBRANCH   2   3
ENDBRANCH   1   2
BRANCH   1  20
ATOM     20  C   UNL A   1      40.268  22.023  26.723  1.00  0.00     0.118 C 
BRANCH  20  21
ATOM     21  N   UNL A   1      41.379  22.223  25.814  1.00  0.00    -0.352 N 
ATOM     22  C   UNL A   1      42.297  23.213  25.605  1.00  0.00     0.251 C 
ATOM     23  H   UNL A   1      41.503  21.464  25.200  1.00  0.00     0.163 HD
ATOM     24  O   UNL A   1      43.157  22.970  24.753  1.00  0.00    -0.269 OA
BRANCH  22  25
ATOM     25  C   UNL A   1      42.296  24.548  26.264  1.00  0.00     0.039 A 
ATOM     26  C   UNL A   1      42.904  24.859  27.481  1.00  0.00     0.014 A 
ATOM     27  C   UNL A   1      41.558  25.551  25.607  1.00  0.00     0.014 A 
ATOM     28  C   UNL A   1      42.684  26.095  28.082  1.00  0.00     0.010 A 
ATOM     29  C   UNL A   1      41.353  26.795  26.193  1.00  0.00     0.010 A 
ATOM     30  C   UNL A   1      41.867  27.041  27.461  1.00  0.00    -0.014 A 
BRANCH  30  31
ATOM     31  C   UNL A   1      41.590  28.286  28.174  1.00  0.00     0.031 A 
ATOM     32  C   UNL A   1      42.613  29.365  28.051  1.00  0.00     0.074 A 
ATOM     33  C   UNL A   1      40.432  28.500  28.832  1.00  0.00     0.049 A 
ATOM     34  N   UNL A   1      43.275  29.959  28.991  1.00  0.00    -0.248 NA
ATOM     35  C   UNL A   1      42.994  29.785  26.694  1.00  0.00     0.031 C 
ATOM     36  C   UNL A   1      39.215  27.683  28.817  1.00  0.00     0.029 A 
ATOM     37  N   UNL A   1      40.066  29.580  29.575  1.00  0.00    -0.354 N 
ATOM     38  C   UNL A   1      44.061  30.928  28.367  1.00  0.00     0.074 A 
ATOM     39  C   UNL A   1      43.921  30.710  26.948  1.00  0.00     0.031 C 
ATOM     40  C   UNL A   1      38.185  28.410  29.305  1.00  0.00     0.029 A 
ATOM     41  C   UNL A   1      38.702  29.667  29.813  1.00  0.00     0.049 A 
ATOM     42  H   UNL A   1      40.713  30.240  29.915  1.00  0.00     0.167 HD
ATOM     43  C   UNL A   1      44.680  31.934  29.048  1.00  0.00     0.031 A 
ATOM     44  C   UNL A   1      38.039  30.734  30.324  1.00  0.00     0.031 A 
ATOM     45  C   UNL A   1      44.749  31.671  30.458  1.00  0.00     0.049 A 
ATOM     46  C   UNL A   1      39.028  31.566  31.046  1.00  0.00     0.074 A 
ATOM     47  C   UNL A   1      45.400  30.738  31.237  1.00  0.00     0.029 A 
ATOM     48  N   UNL A   1      43.791  32.237  31.263  1.00  0.00    -0.354 N 
ATOM     49  N   UNL A   1      39.650  31.180  32.125  1.00  0.00    -0.248 NA
ATOM     50  C   UNL A   1      39.636  32.682  30.340  1.00  0.00     0.031 C 
ATOM     51  C   UNL A   1      44.498  30.455  32.301  1.00  0.00     0.029 A 
ATOM     52  C   UNL A   1      43.371  31.267  32.138  1.00  0.00     0.049 A 
ATOM     53  H   UNL A   1      43.467  33.165  31.221  1.00  0.00     0.167 HD
ATOM     54  C   UNL A   1      40.926  31.710  32.009  1.00  0.00     0.074 A 
ATOM     55  C   UNL A   1      40.825  32.708  30.947  1.00  0.00     0.031 C 
ATOM     56  C   UNL A   1      42.004  31.107  32.595  1.00  0.00     0.031 A 
BRANCH  43  57
ATOM     57  C   UNL A   1      45.009  33.286  28.467  1.00  0.00    -0.014 A 
ATOM     58  C   UNL A   1      44.023  34.159  27.966  1.00  0.00     0.010 A 
ATOM     59  C   UNL A   1      46.307  33.818  28.632  1.00  0.00     0.010 A 
ATOM     60  C   UNL A   1      44.308  35.485  27.629  1.00  0.00     0.020 A 
ATOM     61  C   UNL A   1      46.594  35.161  28.338  1.00  0.00     0.020 A 
ATOM     62  C   UNL A   1      45.588  35.985  27.834  1.00  0.00     0.054 A 
BRANCH  62  63
ATOM     63  S   UNL A   1      45.879  37.744  27.519  1.00  0.00     0.124 S 
ATOM     64  O   UNL A   1      46.270  38.227  28.840  1.00  0.00    -0.237 OA
ATOM     65  O   UNL A   1      46.945  37.710  26.520  1.00  0.00    -0.237 OA
ATOM     66  O   UNL A   1      44.589  38.225  27.034  1.00  0.00    -0.744 OA
ENDBRANCH  62  63
ENDBRANCH  43  57
BRANCH  44  67
ATOM     67  C   UNL A   1      36.752  31.286  29.832  1.00  0.00    -0.014 A 
ATOM     68  C   UNL A   1      36.639  31.698  28.486  1.00  0.00     0.010 A 
ATOM     69  C   UNL A   1      35.758  31.705  30.735  1.00  0.00     0.010 A 
ATOM     70  C   UNL A   1      35.620  32.561  28.075  1.00  0.00     0.020 A 
ATOM     71  C   UNL A   1      34.730  32.573  30.327  1.00  0.00     0.020 A 
ATOM     72  C   UNL A   1      34.694  33.025  29.006  1.00  0.00     0.054 A 
BRANCH  72  73
ATOM     73  S   UNL A   1      33.508  34.296  28.481  1.00  0.00     0.124 S 
ATOM     74  O   UNL A   1      32.953  34.736  29.762  1.00  0.00    -0.237 OA
ATOM     75  O   UNL A   1      34.370  35.271  27.810  1.00  0.00    -0.237 OA
ATOM     76  O   UNL A   1      32.589  33.581  27.612  1.00  0.00    -0.744 OA
ENDBRANCH  72  73
ENDBRANCH  44  67
BRANCH  56  77
ATOM     77  C   UNL A   1      41.767  29.983  33.584  1.00  0.00    -0.014 A 
ATOM     78  C   UNL A   1      41.852  30.285  34.956  1.00  0.00     0.010 A 
ATOM     79  C   UNL A   1      41.684  28.627  33.204  1.00  0.00     0.010 A 
ATOM     80  C   UNL A   1      41.904  29.271  35.916  1.00  0.00     0.020 A 
ATOM     81  C   UNL A   1      41.708  27.604  34.166  1.00  0.00     0.020 A 
ATOM     82  C   UNL A   1      41.850  27.934  35.515  1.00  0.00     0.054 A 
BRANCH  82  83
ATOM     83  S   UNL A   1      42.010  26.644  36.781  1.00  0.00     0.124 S 
ATOM     84  O   UNL A   1      43.172  27.098  37.542  1.00  0.00    -0.237 OA
ATOM     85  O   UNL A   1      40.731  26.723  37.487  1.00  0.00    -0.237 OA
ATOM     86  O   UNL A   1      42.219  25.417  36.017  1.00  0.00    -0.744 OA
ENDBRANCH  82  83
ENDBRANCH  56  77
ENDBRANCH  30  31
ENDBRANCH  22  25
ENDBRANCH  20  21
ENDBRANCH   1  20
TORSDOF 16
ENDMDL
MODEL 3
REMARK VINA RESULT:     -11.6      3.314      9.598
REMARK SMILES COCc1nc2ccccc2n1CC(=O)NCCCNC(=O)c1ccc(-c2c3nc(c(-c4ccc(S(=O)(=O)[O-])cc4)c4ccc([nH]4)c(-c4ccc(S(=O)(=O)[O-])cc4)c4nc(c(-c5ccc(S(=O)(=O)[O-])cc5)c5ccc2[nH]5)C=C4)C=C3)cc1
REMARK SMILES IDX 18 1 17 2 16 3 14 4 15 5 13 7 12 8 4 9 5 10 6 11 11 12 7 13
REMARK SMILES IDX 10 14 8 15 9 16 3 17 2 18 1 19 19 20 20 21 21 22 22 24 23 25
REMARK SMILES IDX 24 26 82 27 25 28 81 29 26 30 27 31 28 32 75 33 29 34 80 35
REMARK SMILES IDX 74 36 76 37 30 38 79 39 73 40 72 41 31 43 61 44 42 45 60 46
REMARK SMILES IDX 43 47 46 48 59 49 77 50 44 51 45 52 58 54 78 55 47 56 32 57
REMARK SMILES IDX 33 58 41 59 34 60 40 61 35 62 36 63 37 64 38 65 39 66 62 67
REMARK SMILES IDX 63 68 71 69 64 70 70 71 65 72 66 73 67 74 68 75 69 76 48 77
REMARK SMILES IDX 49 78 57 79 50 80 56 81 51 82 52 83 53 84 54 85 55 86
REMARK H PARENT 16 6 20 23 76 42 46 53
REMARK Flexibility Score: inf
ROOT
ATOM      1  C   UNL A   1      34.882  30.467  27.645  1.00  0.00     0.042 C 
ENDROOT
BRANCH   1   2
ATOM      2  C   UNL A   1      33.629  29.863  27.015  1.00  0.00     0.117 C 
BRANCH   2   3
ATOM      3  N   UNL A   1      33.688  29.855  25.563  1.00  0.00    -0.354 N 
ATOM      4  C   UNL A   1      33.111  29.009  24.664  1.00  0.00     0.240 C 
ATOM      5  O   UNL A   1      33.308  29.237  23.468  1.00  0.00    -0.273 OA
ATOM      6  H   UNL A   1      34.231  30.575  25.166  1.00  0.00     0.163 HD
BRANCH   4   7
ATOM      7  C   UNL A   1      32.205  27.887  25.124  1.00  0.00     0.223 C 
BRANCH   7   8
ATOM      8  N   UNL A   1      32.231  26.715  24.264  1.00  0.00    -0.316 N 
ATOM      9  C   UNL A   1      31.320  26.387  23.278  1.00  0.00     0.136 A 
ATOM     10  N   UNL A   1      31.713  25.305  22.629  1.00  0.00    -0.231 NA
ATOM     11  C   UNL A   1      32.854  24.876  23.256  1.00  0.00     0.089 A 
ATOM     12  C   UNL A   1      33.177  25.711  24.321  1.00  0.00     0.069 A 
ATOM     13  C   UNL A   1      33.673  23.773  22.970  1.00  0.00     0.030 A 
ATOM     14  C   UNL A   1      34.276  25.468  25.158  1.00  0.00     0.028 A 
ATOM     15  C   UNL A   1      34.790  23.529  23.778  1.00  0.00     0.002 A 
ATOM     16  C   UNL A   1      35.079  24.362  24.859  1.00  0.00     0.002 A 
BRANCH   9  17
ATOM     17  C   UNL A   1      30.069  27.144  22.967  1.00  0.00     0.235 C 
BRANCH  17  18
ATOM     18  O   UNL A   1      30.316  28.129  21.960  1.00  0.00    -0.377 OA
ATOM     19  C   UNL A   1      29.937  29.441  22.350  1.00  0.00     0.195 C 
ENDBRANCH  17  18
ENDBRANCH   9  17
ENDBRANCH   7   8
ENDBRANCH   4   7
ENDBRANCH   2   3
ENDBRANCH   1   2
BRANCH   1  20
ATOM     20  C   UNL A   1      34.726  31.940  28.026  1.00  0.00     0.118 C 
BRANCH  20  21
ATOM     21  N   UNL A   1      34.454  32.162  29.433  1.00  0.00    -0.352 N 
ATOM     22  C   UNL A   1      35.128  31.937  30.600  1.00  0.00     0.251 C 
ATOM     23  H   UNL A   1      33.573  32.575  29.584  1.00  0.00     0.163 HD
ATOM     24  O   UNL A   1      34.571  32.346  31.623  1.00  0.00    -0.269 OA
BRANCH  22  25
ATOM     25  C   UNL A   1      36.416  31.201  30.728  1.00  0.00     0.039 A 
ATOM     26  C   UNL A   1      37.689  31.771  30.701  1.00  0.00     0.014 A 
ATOM     27  C   UNL A   1      36.309  29.801  30.824  1.00  0.00     0.014 A 
ATOM     28  C   UNL A   1      38.821  30.963  30.651  1.00  0.00     0.010 A 
ATOM     29  C   UNL A   1      37.438  28.990  30.797  1.00  0.00     0.010 A 
ATOM     30  C   UNL A   1      38.691  29.573  30.648  1.00  0.00    -0.014 A 
BRANCH  30  31
ATOM     31  C   UNL A   1      39.901  28.768  30.499  1.00  0.00     0.031 A 
ATOM     32  C   UNL A   1      40.696  28.527  31.739  1.00  0.00     0.074 A 
ATOM     33  C   UNL A   1      40.242  28.185  29.333  1.00  0.00     0.049 A 
ATOM     34  N   UNL A   1      41.934  28.822  31.972  1.00  0.00    -0.248 NA
ATOM     35  C   UNL A   1      39.993  27.943  32.891  1.00  0.00     0.031 C 
ATOM     36  C   UNL A   1      39.446  28.071  28.107  1.00  0.00     0.029 A 
ATOM     37  N   UNL A   1      41.357  27.460  29.041  1.00  0.00    -0.354 N 
ATOM     38  C   UNL A   1      42.219  28.342  33.250  1.00  0.00     0.074 A 
ATOM     39  C   UNL A   1      40.964  27.897  33.805  1.00  0.00     0.031 C 
ATOM     40  C   UNL A   1      39.990  27.126  27.308  1.00  0.00     0.029 A 
ATOM     41  C   UNL A   1      41.249  26.695  27.888  1.00  0.00     0.049 A 
ATOM     42  H   UNL A   1      42.168  27.477  29.599  1.00  0.00     0.167 HD
ATOM     43  C   UNL A   1      43.490  28.216  33.730  1.00  0.00     0.031 A 
ATOM     44  C   UNL A   1      42.103  25.722  27.483  1.00  0.00     0.031 A 
ATOM     45  C   UNL A   1      44.437  28.966  32.955  1.00  0.00     0.049 A 
ATOM     46  C   UNL A   1      43.395  25.953  28.168  1.00  0.00     0.074 A 
ATOM     47  C   UNL A   1      44.653  30.308  32.725  1.00  0.00     0.029 A 
ATOM     48  N   UNL A   1      45.150  28.296  31.991  1.00  0.00    -0.354 N 
ATOM     49  N   UNL A   1      44.155  26.990  27.952  1.00  0.00    -0.248 NA
ATOM     50  C   UNL A   1      43.659  25.231  29.402  1.00  0.00     0.031 C 
ATOM     51  C   UNL A   1      45.080  30.385  31.370  1.00  0.00     0.029 A 
ATOM     52  C   UNL A   1      45.148  29.082  30.866  1.00  0.00     0.049 A 
ATOM     53  H   UNL A   1      45.581  27.417  32.088  1.00  0.00     0.167 HD
ATOM     54  C   UNL A   1      44.696  27.298  29.191  1.00  0.00     0.074 A 
ATOM     55  C   UNL A   1      44.440  26.123  30.018  1.00  0.00     0.031 C 
ATOM     56  C   UNL A   1      45.064  28.576  29.509  1.00  0.00     0.031 A 
BRANCH  43  57
ATOM     57  C   UNL A   1      43.918  27.208  34.766  1.00  0.00    -0.014 A 
ATOM     58  C   UNL A   1      43.996  25.827  34.496  1.00  0.00     0.010 A 
ATOM     59  C   UNL A   1      44.490  27.653  35.978  1.00  0.00     0.010 A 
ATOM     60  C   UNL A   1      44.594  24.930  35.386  1.00  0.00     0.020 A 
ATOM     61  C   UNL A   1      45.131  26.767  36.858  1.00  0.00     0.020 A 
ATOM     62  C   UNL A   1      45.175  25.407  36.555  1.00  0.00     0.054 A 
BRANCH  62  63
ATOM     63  S   UNL A   1      46.062  24.233  37.609  1.00  0.00     0.124 S 
ATOM     64  O   UNL A   1      45.758  24.739  38.945  1.00  0.00    -0.237 OA
ATOM     65  O   UNL A   1      45.432  22.962  37.260  1.00  0.00    -0.237 OA
ATOM     66  O   UNL A   1      47.452  24.373  37.188  1.00  0.00    -0.744 OA
ENDBRANCH  62  63
ENDBRANCH  43  57
BRANCH  44  67
ATOM     67  C   UNL A   1      41.726  24.395  26.935  1.00  0.00    -0.014 A 
ATOM     68  C   UNL A   1      40.828  23.575  27.651  1.00  0.00     0.010 A 
ATOM     69  C   UNL A   1      42.475  23.806  25.900  1.00  0.00     0.010 A 
ATOM     70  C   UNL A   1      40.741  22.203  27.400  1.00  0.00     0.020 A 
ATOM     71  C   UNL A   1      42.392  22.427  25.644  1.00  0.00     0.020 A 
ATOM     72  C   UNL A   1      41.552  21.630  26.424  1.00  0.00     0.054 A 
BRANCH  72  73
ATOM     73  S   UNL A   1      41.558  19.821  26.263  1.00  0.00     0.124 S 
ATOM     74  O   UNL A   1      41.939  19.400  27.612  1.00  0.00    -0.237 OA
ATOM     75  O   UNL A   1      40.172  19.534  25.891  1.00  0.00    -0.237 OA
ATOM     76  O   UNL A   1      42.544  19.565  25.226  1.00  0.00    -0.744 OA
ENDBRANCH  72  73
ENDBRANCH  44  67
BRANCH  56  77
ATOM     77  C   UNL A   1      45.106  29.622  28.412  1.00  0.00    -0.014 A 
ATOM     78  C   UNL A   1      46.351  30.200  28.103  1.00  0.00     0.010 A 
ATOM     79  C   UNL A   1      43.947  30.194  27.849  1.00  0.00     0.010 A 
ATOM     80  C   UNL A   1      46.437  31.340  27.298  1.00  0.00     0.020 A 
ATOM     81  C   UNL A   1      44.028  31.323  27.018  1.00  0.00     0.020 A 
ATOM     82  C   UNL A   1      45.273  31.907  26.775  1.00  0.00     0.054 A 
BRANCH  82  83
ATOM     83  S   UNL A   1      45.416  33.437  25.809  1.00  0.00     0.124 S 
ATOM     84  O   UNL A   1      44.759  33.074  24.554  1.00  0.00    -0.237 OA
ATOM     85  O   UNL A   1      44.697  34.409  26.632  1.00  0.00    -0.237 OA
ATOM     86  O   UNL A   1      46.856  33.660  25.705  1.00  0.00    -0.744 OA
ENDBRANCH  82  83
ENDBRANCH  56  77
ENDBRANCH  30  31
ENDBRANCH  22  25
ENDBRANCH  20  21
ENDBRANCH   1  20
TORSDOF 16
ENDMDL
