MODEL 1
REMARK VINA RESULT:     -11.4      0.000      0.000
REMARK SMILES Cc1cccc(CC(=O)N2CCCC[C@@H]2C(=O)NCCCNC(=O)c2ccc(-c3c4nc(c(-c5ccc(S(=O)(=O)[O-])cc5)c5ccc([nH]5)c(-c5ccc(S(=O)(=O)[O-])cc5)c5nc(c(-c6ccc(S(=O)(=O)[O-])cc6)c6ccc3[nH]6)C=C5)C=C4)cc2)c1
REMARK SMILES IDX 20 1 19 2 18 3 16 4 17 5 15 7 10 8 11 9 12 10 14 11 13 12
REMARK SMILES IDX 8 13 9 14 7 15 6 16 1 17 2 18 3 19 85 20 4 21 5 22 21 23
REMARK SMILES IDX 22 24 23 25 24 27 25 28 26 29 84 30 27 31 83 32 28 33 29 34
REMARK SMILES IDX 30 35 77 36 31 37 82 38 76 39 78 40 32 41 81 42 75 43 74 44
REMARK SMILES IDX 33 46 63 47 44 48 62 49 45 50 48 51 61 52 79 53 46 54 47 55
REMARK SMILES IDX 60 57 80 58 49 59 34 60 35 61 43 62 36 63 42 64 37 65 38 66
REMARK SMILES IDX 39 67 40 68 41 69 64 70 65 71 73 72 66 73 72 74 67 75 68 76
REMARK SMILES IDX 69 77 70 78 71 79 50 80 51 81 59 82 52 83 58 84 53 85 54 86
REMARK SMILES IDX 55 87 56 88 57 89
REMARK H PARENT 18 6 22 26 78 45 48 56
REMARK Flexibility Score: inf
ROOT
ATOM      1  C   UNL A   1      43.298  23.973  25.755  1.00  0.00     0.042 C 
ENDROOT
BRANCH   1   2
ATOM      2  C   UNL A   1      42.266  22.888  25.502  1.00  0.00     0.117 C 
BRANCH   2   3
ATOM      3  N   UNL A   1      41.513  22.565  26.705  1.00  0.00    -0.354 N 
ATOM      4  C   UNL A   1      40.272  22.016  26.828  1.00  0.00     0.242 C 
ATOM      5  O   UNL A   1      39.707  22.068  27.924  1.00  0.00    -0.273 OA
ATOM      6  H   UNL A   1      41.967  22.772  27.554  1.00  0.00     0.163 HD
BRANCH   4   7
ATOM      7  C   UNL A   1      39.484  21.619  25.572  1.00  0.00     0.174 C 
ATOM      8  N   UNL A   1      38.091  22.129  25.456  1.00  0.00    -0.330 N 
ATOM      9  C   UNL A   1      37.163  21.296  24.691  1.00  0.00     0.120 C 
ATOM     10  C   UNL A   1      37.144  19.849  25.140  1.00  0.00     0.022 C 
ATOM     11  C   UNL A   1      39.569  20.060  25.695  1.00  0.00     0.035 C 
ATOM     12  C   UNL A   1      38.523  19.247  24.961  1.00  0.00     0.004 C 
BRANCH   8  13
ATOM     13  C   UNL A   1      37.625  23.420  25.727  1.00  0.00     0.227 C 
ATOM     14  O   UNL A   1      38.198  24.093  26.598  1.00  0.00    -0.275 OA
BRANCH  13  15
ATOM     15  C   UNL A   1      36.313  23.964  25.180  1.00  0.00     0.135 C 
BRANCH  15  16
ATOM     16  C   UNL A   1      35.020  23.692  25.892  1.00  0.00    -0.038 A 
ATOM     17  C   UNL A   1      31.504  25.167  25.940  1.00  0.00     0.044 C 
ATOM     18  C   UNL A   1      32.667  24.268  26.228  1.00  0.00    -0.051 A 
ATOM     19  C   UNL A   1      32.593  23.320  27.250  1.00  0.00     0.003 A 
ATOM     20  C   UNL A   1      33.882  24.443  25.554  1.00  0.00     0.007 A 
ATOM     21  C   UNL A   1      33.703  22.532  27.552  1.00  0.00     0.001 A 
ATOM     22  C   UNL A   1      34.903  22.690  26.860  1.00  0.00     0.004 A 
ENDBRANCH  15  16
ENDBRANCH  13  15
ENDBRANCH   8  13
ENDBRANCH   4   7
ENDBRANCH   2   3
ENDBRANCH   1   2
BRANCH   1  23
ATOM     23  C   UNL A   1      42.671  25.313  26.063  1.00  0.00     0.118 C 
BRANCH  23  24
ATOM     24  N   UNL A   1      42.798  25.603  27.465  1.00  0.00    -0.352 N 
ATOM     25  C   UNL A   1      41.889  26.015  28.385  1.00  0.00     0.251 C 
ATOM     26  H   UNL A   1      43.708  25.482  27.822  1.00  0.00     0.163 HD
ATOM     27  O   UNL A   1      42.338  26.222  29.511  1.00  0.00    -0.269 OA
BRANCH  25  28
ATOM     28  C   UNL A   1      40.391  25.902  28.100  1.00  0.00     0.039 A 
ATOM     29  C   UNL A   1      40.082  26.815  27.086  1.00  0.00     0.014 A 
ATOM     30  C   UNL A   1      39.692  26.065  29.298  1.00  0.00     0.014 A 
ATOM     31  C   UNL A   1      39.900  28.136  27.472  1.00  0.00     0.010 A 
ATOM     32  C   UNL A   1      39.617  27.354  29.755  1.00  0.00     0.010 A 
ATOM     33  C   UNL A   1      39.853  28.382  28.839  1.00  0.00    -0.014 A 
BRANCH  33  34
ATOM     34  C   UNL A   1      40.135  29.662  29.438  1.00  0.00     0.031 A 
ATOM     35  C   UNL A   1      39.100  30.684  29.287  1.00  0.00     0.074 A 
ATOM     36  C   UNL A   1      41.236  29.764  30.213  1.00  0.00     0.049 A 
ATOM     37  N   UNL A   1      39.264  31.939  29.479  1.00  0.00    -0.248 NA
ATOM     38  C   UNL A   1      37.768  30.341  28.788  1.00  0.00     0.031 C 
ATOM     39  C   UNL A   1      41.579  30.797  31.186  1.00  0.00     0.029 A 
ATOM     40  N   UNL A   1      42.401  28.999  30.122  1.00  0.00    -0.354 N 
ATOM     41  C   UNL A   1      38.011  32.512  29.445  1.00  0.00     0.074 A 
ATOM     42  C   UNL A   1      37.149  31.516  28.867  1.00  0.00     0.031 C 
ATOM     43  C   UNL A   1      42.915  30.790  31.360  1.00  0.00     0.029 A 
ATOM     44  C   UNL A   1      43.467  29.865  30.373  1.00  0.00     0.049 A 
ATOM     45  H   UNL A   1      42.460  28.037  29.920  1.00  0.00     0.167 HD
ATOM     46  C   UNL A   1      37.824  33.695  30.089  1.00  0.00     0.031 A 
ATOM     47  C   UNL A   1      44.371  30.203  29.406  1.00  0.00     0.031 A 
ATOM     48  C   UNL A   1      39.118  34.242  30.507  1.00  0.00     0.049 A 
ATOM     49  C   UNL A   1      44.254  31.691  29.111  1.00  0.00     0.074 A 
ATOM     50  C   UNL A   1      39.802  34.202  31.710  1.00  0.00     0.029 A 
ATOM     51  N   UNL A   1      40.068  34.534  29.526  1.00  0.00    -0.354 N 
ATOM     52  N   UNL A   1      43.154  32.388  29.258  1.00  0.00    -0.248 NA
ATOM     53  C   UNL A   1      45.388  32.512  28.700  1.00  0.00     0.031 C 
ATOM     54  C   UNL A   1      41.195  34.315  31.418  1.00  0.00     0.029 A 
ATOM     55  C   UNL A   1      41.349  34.473  30.049  1.00  0.00     0.049 A 
ATOM     56  H   UNL A   1      39.855  34.754  28.590  1.00  0.00     0.167 HD
ATOM     57  C   UNL A   1      43.424  33.713  29.040  1.00  0.00     0.074 A 
ATOM     58  C   UNL A   1      44.830  33.736  28.667  1.00  0.00     0.031 C 
ATOM     59  C   UNL A   1      42.506  34.715  29.194  1.00  0.00     0.031 A 
BRANCH  46  60
ATOM     60  C   UNL A   1      36.472  34.141  30.611  1.00  0.00    -0.014 A 
ATOM     61  C   UNL A   1      35.421  34.373  29.702  1.00  0.00     0.010 A 
ATOM     62  C   UNL A   1      36.188  34.446  31.959  1.00  0.00     0.010 A 
ATOM     63  C   UNL A   1      34.192  34.926  30.107  1.00  0.00     0.020 A 
ATOM     64  C   UNL A   1      34.978  35.018  32.377  1.00  0.00     0.020 A 
ATOM     65  C   UNL A   1      33.984  35.261  31.444  1.00  0.00     0.054 A 
BRANCH  65  66
ATOM     66  S   UNL A   1      32.412  35.998  31.954  1.00  0.00     0.124 S 
ATOM     67  O   UNL A   1      31.760  34.895  32.656  1.00  0.00    -0.237 OA
ATOM     68  O   UNL A   1      32.845  37.112  32.791  1.00  0.00    -0.237 OA
ATOM     69  O   UNL A   1      31.780  36.382  30.692  1.00  0.00    -0.744 OA
ENDBRANCH  65  66
ENDBRANCH  46  60
BRANCH  47  70
ATOM     70  C   UNL A   1      44.653  29.131  28.394  1.00  0.00    -0.014 A 
ATOM     71  C   UNL A   1      44.175  29.305  27.072  1.00  0.00     0.010 A 
ATOM     72  C   UNL A   1      45.657  28.170  28.605  1.00  0.00     0.010 A 
ATOM     73  C   UNL A   1      44.771  28.644  25.983  1.00  0.00     0.020 A 
ATOM     74  C   UNL A   1      46.255  27.504  27.516  1.00  0.00     0.020 A 
ATOM     75  C   UNL A   1      45.844  27.781  26.207  1.00  0.00     0.054 A 
BRANCH  75  76
ATOM     76  S   UNL A   1      46.809  27.172  24.775  1.00  0.00     0.124 S 
ATOM     77  O   UNL A   1      46.395  28.082  23.711  1.00  0.00    -0.237 OA
ATOM     78  O   UNL A   1      48.203  27.307  25.195  1.00  0.00    -0.237 OA
ATOM     79  O   UNL A   1      46.358  25.790  24.617  1.00  0.00    -0.744 OA
ENDBRANCH  75  76
ENDBRANCH  47  70
BRANCH  59  80
ATOM     80  C   UNL A   1      42.658  36.084  28.577  1.00  0.00    -0.014 A 
ATOM     81  C   UNL A   1      42.188  36.401  27.293  1.00  0.00     0.010 A 
ATOM     82  C   UNL A   1      43.125  37.154  29.377  1.00  0.00     0.010 A 
ATOM     83  C   UNL A   1      42.244  37.710  26.802  1.00  0.00     0.020 A 
ATOM     84  C   UNL A   1      43.127  38.472  28.920  1.00  0.00     0.020 A 
ATOM     85  C   UNL A   1      42.712  38.737  27.621  1.00  0.00     0.054 A 
BRANCH  85  86
ATOM     86  S   UNL A   1      42.715  40.433  26.994  1.00  0.00     0.124 S 
ATOM     87  O   UNL A   1      41.285  40.713  26.890  1.00  0.00    -0.237 OA
ATOM     88  O   UNL A   1      43.425  41.166  28.037  1.00  0.00    -0.237 OA
ATOM     89  O   UNL A   1      43.427  40.326  25.721  1.00  0.00    -0.744 OA
ENDBRANCH  85  86
ENDBRANCH  59  80
ENDBRANCH  33  34
ENDBRANCH  25  28
ENDBRANCH  23  24
ENDBRANCH   1  23
TORSDOF 16
ENDMDL
MODEL 2
REMARK VINA RESULT:     -11.1      5.045     12.782
REMARK SMILES Cc1cccc(CC(=O)N2CCCC[C@@H]2C(=O)NCCCNC(=O)c2ccc(-c3c4nc(c(-c5ccc(S(=O)(=O)[O-])cc5)c5ccc([nH]5)c(-c5ccc(S(=O)(=O)[O-])cc5)c5nc(c(-c6ccc(S(=O)(=O)[O-])cc6)c6ccc3[nH]6)C=C5)C=C4)cc2)c1
REMARK SMILES IDX 20 1 19 2 18 3 16 4 17 5 15 7 10 8 11 9 12 10 14 11 13 12
REMARK SMILES IDX 8 13 9 14 7 15 6 16 1 17 2 18 3 19 85 20 4 21 5 22 21 23
REMARK SMILES IDX 22 24 23 25 24 27 25 28 26 29 84 30 27 31 83 32 28 33 29 34
REMARK SMILES IDX 30 35 77 36 31 37 82 38 76 39 78 40 32 41 81 42 75 43 74 44
REMARK SMILES IDX 33 46 63 47 44 48 62 49 45 50 48 51 61 52 79 53 46 54 47 55
REMARK SMILES IDX 60 57 80 58 49 59 34 60 35 61 43 62 36 63 42 64 37 65 38 66
REMARK SMILES IDX 39 67 40 68 41 69 64 70 65 71 73 72 66 73 72 74 67 75 68 76
REMARK SMILES IDX 69 77 70 78 71 79 50 80 51 81 59 82 52 83 58 84 53 85 54 86
REMARK SMILES IDX 55 87 56 88 57 89
REMARK H PARENT 18 6 22 26 78 45 48 56
REMARK Flexibility Score: inf
ROOT
ATOM      1  C   UNL A   1      36.771  30.988  32.861  1.00  0.00     0.042 C 
ENDROOT
BRANCH   1   2
ATOM      2  C   UNL A   1      35.687  32.013  33.147  1.00  0.00     0.117 C 
BRANCH   2   3
ATOM      3  N   UNL A   1      36.219  33.367  33.189  1.00  0.00    -0.354 N 
ATOM      4  C   UNL A   1      35.695  34.520  32.686  1.00  0.00     0.242 C 
ATOM      5  O   UNL A   1      36.424  35.512  32.594  1.00  0.00    -0.273 OA
ATOM      6  H   UNL A   1      37.084  33.465  33.650  1.00  0.00     0.163 HD
BRANCH   4   7
ATOM      7  C   UNL A   1      34.334  34.494  31.977  1.00  0.00     0.174 C 
ATOM      8  N   UNL A   1      34.341  34.562  30.491  1.00  0.00    -0.330 N 
ATOM      9  C   UNL A   1      33.168  35.176  29.869  1.00  0.00     0.120 C 
ATOM     10  C   UNL A   1      32.825  36.535  30.443  1.00  0.00     0.022 C 
ATOM     11  C   UNL A   1      33.666  35.738  32.654  1.00  0.00     0.035 C 
ATOM     12  C   UNL A   1      32.516  36.395  31.920  1.00  0.00     0.004 C 
BRANCH   8  13
ATOM     13  C   UNL A   1      35.173  33.869  29.604  1.00  0.00     0.227 C 
ATOM     14  O   UNL A   1      35.656  34.476  28.637  1.00  0.00    -0.275 OA
BRANCH  13  15
ATOM     15  C   UNL A   1      35.337  32.355  29.627  1.00  0.00     0.135 C 
BRANCH  15  16
ATOM     16  C   UNL A   1      34.726  31.507  28.551  1.00  0.00    -0.038 A 
ATOM     17  C   UNL A   1      31.504  31.489  26.511  1.00  0.00     0.044 C 
ATOM     18  C   UNL A   1      32.865  31.115  27.013  1.00  0.00    -0.051 A 
ATOM     19  C   UNL A   1      33.464  29.920  26.611  1.00  0.00     0.003 A 
ATOM     20  C   UNL A   1      33.505  31.902  27.979  1.00  0.00     0.007 A 
ATOM     21  C   UNL A   1      34.703  29.550  27.134  1.00  0.00     0.001 A 
ATOM     22  C   UNL A   1      35.350  30.350  28.076  1.00  0.00     0.004 A 
ENDBRANCH  15  16
ENDBRANCH  13  15
ENDBRANCH   8  13
ENDBRANCH   4   7
ENDBRANCH   2   3
ENDBRANCH   1   2
BRANCH   1  23
ATOM     23  C   UNL A   1      36.410  30.063  31.722  1.00  0.00     0.118 C 
BRANCH  23  24
ATOM     24  N   UNL A   1      37.361  28.987  31.645  1.00  0.00    -0.352 N 
ATOM     25  C   UNL A   1      38.098  28.510  30.610  1.00  0.00     0.251 C 
ATOM     26  H   UNL A   1      37.505  28.513  32.495  1.00  0.00     0.163 HD
ATOM     27  O   UNL A   1      38.794  27.530  30.869  1.00  0.00    -0.269 OA
BRANCH  25  28
ATOM     28  C   UNL A   1      38.276  29.337  29.337  1.00  0.00     0.039 A 
ATOM     29  C   UNL A   1      38.474  28.447  28.275  1.00  0.00     0.014 A 
ATOM     30  C   UNL A   1      39.294  30.270  29.545  1.00  0.00     0.014 A 
ATOM     31  C   UNL A   1      39.757  27.944  28.117  1.00  0.00     0.010 A 
ATOM     32  C   UNL A   1      40.565  29.758  29.518  1.00  0.00     0.010 A 
ATOM     33  C   UNL A   1      40.750  28.518  28.902  1.00  0.00    -0.014 A 
BRANCH  33  34
ATOM     34  C   UNL A   1      41.994  27.869  29.232  1.00  0.00     0.031 A 
ATOM     35  C   UNL A   1      42.107  26.463  28.850  1.00  0.00     0.074 A 
ATOM     36  C   UNL A   1      42.995  28.638  29.713  1.00  0.00     0.049 A 
ATOM     37  N   UNL A   1      42.981  25.640  29.296  1.00  0.00    -0.248 NA
ATOM     38  C   UNL A   1      41.124  25.841  27.961  1.00  0.00     0.031 C 
ATOM     39  C   UNL A   1      44.419  28.331  29.811  1.00  0.00     0.029 A 
ATOM     40  N   UNL A   1      42.869  29.841  30.413  1.00  0.00    -0.354 N 
ATOM     41  C   UNL A   1      42.878  24.499  28.530  1.00  0.00     0.074 A 
ATOM     42  C   UNL A   1      41.627  24.616  27.832  1.00  0.00     0.031 C 
ATOM     43  C   UNL A   1      44.960  29.124  30.757  1.00  0.00     0.029 A 
ATOM     44  C   UNL A   1      43.856  29.833  31.400  1.00  0.00     0.049 A 
ATOM     45  H   UNL A   1      42.213  30.554  30.243  1.00  0.00     0.167 HD
ATOM     46  C   UNL A   1      43.962  23.683  28.440  1.00  0.00     0.031 A 
ATOM     47  C   UNL A   1      43.552  29.761  32.730  1.00  0.00     0.031 A 
ATOM     48  C   UNL A   1      44.979  24.100  29.409  1.00  0.00     0.049 A 
ATOM     49  C   UNL A   1      44.081  28.451  33.294  1.00  0.00     0.074 A 
ATOM     50  C   UNL A   1      46.114  24.885  29.291  1.00  0.00     0.029 A 
ATOM     51  N   UNL A   1      44.654  24.085  30.767  1.00  0.00    -0.354 N 
ATOM     52  N   UNL A   1      44.235  27.354  32.594  1.00  0.00    -0.248 NA
ATOM     53  C   UNL A   1      44.544  28.307  34.670  1.00  0.00     0.031 C 
ATOM     54  C   UNL A   1      46.370  25.468  30.568  1.00  0.00     0.029 A 
ATOM     55  C   UNL A   1      45.423  24.999  31.467  1.00  0.00     0.049 A 
ATOM     56  H   UNL A   1      43.969  23.503  31.171  1.00  0.00     0.167 HD
ATOM     57  C   UNL A   1      44.855  26.407  33.363  1.00  0.00     0.074 A 
ATOM     58  C   UNL A   1      45.003  27.043  34.663  1.00  0.00     0.031 C 
ATOM     59  C   UNL A   1      45.233  25.176  32.903  1.00  0.00     0.031 A 
BRANCH  46  60
ATOM     60  C   UNL A   1      44.200  22.760  27.259  1.00  0.00    -0.014 A 
ATOM     61  C   UNL A   1      43.213  21.819  26.908  1.00  0.00     0.010 A 
ATOM     62  C   UNL A   1      45.397  22.694  26.515  1.00  0.00     0.010 A 
ATOM     63  C   UNL A   1      43.433  20.841  25.920  1.00  0.00     0.020 A 
ATOM     64  C   UNL A   1      45.642  21.713  25.544  1.00  0.00     0.020 A 
ATOM     65  C   UNL A   1      44.656  20.785  25.254  1.00  0.00     0.054 A 
BRANCH  65  66
ATOM     66  S   UNL A   1      44.943  19.508  24.003  1.00  0.00     0.124 S 
ATOM     67  O   UNL A   1      46.390  19.320  24.071  1.00  0.00    -0.237 OA
ATOM     68  O   UNL A   1      44.137  18.396  24.499  1.00  0.00    -0.237 OA
ATOM     69  O   UNL A   1      44.459  20.117  22.765  1.00  0.00    -0.744 OA
ENDBRANCH  65  66
ENDBRANCH  46  60
BRANCH  47  70
ATOM     70  C   UNL A   1      42.266  30.428  33.126  1.00  0.00    -0.014 A 
ATOM     71  C   UNL A   1      41.111  29.626  33.291  1.00  0.00     0.010 A 
ATOM     72  C   UNL A   1      42.252  31.718  33.684  1.00  0.00     0.010 A 
ATOM     73  C   UNL A   1      40.036  30.044  34.096  1.00  0.00     0.020 A 
ATOM     74  C   UNL A   1      41.176  32.141  34.490  1.00  0.00     0.020 A 
ATOM     75  C   UNL A   1      40.096  31.283  34.734  1.00  0.00     0.054 A 
BRANCH  75  76
ATOM     76  S   UNL A   1      38.853  31.685  36.017  1.00  0.00     0.124 S 
ATOM     77  O   UNL A   1      39.683  31.888  37.202  1.00  0.00    -0.237 OA
ATOM     78  O   UNL A   1      38.191  32.887  35.515  1.00  0.00    -0.237 OA
ATOM     79  O   UNL A   1      38.001  30.497  36.056  1.00  0.00    -0.744 OA
ENDBRANCH  75  76
ENDBRANCH  47  70
BRANCH  59  80
ATOM     80  C   UNL A   1      45.528  24.004  33.807  1.00  0.00    -0.014 A 
ATOM     81  C   UNL A   1      44.624  22.950  34.012  1.00  0.00     0.010 A 
ATOM     82  C   UNL A   1      46.832  23.850  34.334  1.00  0.00     0.010 A 
ATOM     83  C   UNL A   1      44.978  21.826  34.766  1.00  0.00     0.020 A 
ATOM     84  C   UNL A   1      47.215  22.704  35.034  1.00  0.00     0.020 A 
ATOM     85  C   UNL A   1      46.273  21.711  35.270  1.00  0.00     0.054 A 
BRANCH  85  86
ATOM     86  S   UNL A   1      46.734  20.221  36.184  1.00  0.00     0.124 S 
ATOM     87  O   UNL A   1      46.080  20.447  37.470  1.00  0.00    -0.237 OA
ATOM     88  O   UNL A   1      46.167  19.150  35.371  1.00  0.00    -0.237 OA
ATOM     89  O   UNL A   1      48.196  20.271  36.206  1.00  0.00    -0.744 OA
ENDBRANCH  85  86
ENDBRANCH  59  80
ENDBRANCH  33  34
ENDBRANCH  25  28
ENDBRANCH  23  24
ENDBRANCH   1  23
TORSDOF 16
ENDMDL
MODEL 3
REMARK VINA RESULT:     -11.0      5.007      9.233
REMARK SMILES Cc1cccc(CC(=O)N2CCCC[C@@H]2C(=O)NCCCNC(=O)c2ccc(-c3c4nc(c(-c5ccc(S(=O)(=O)[O-])cc5)c5ccc([nH]5)c(-c5ccc(S(=O)(=O)[O-])cc5)c5nc(c(-c6ccc(S(=O)(=O)[O-])cc6)c6ccc3[nH]6)C=C5)C=C4)cc2)c1
REMARK SMILES IDX 20 1 19 2 18 3 16 4 17 5 15 7 10 8 11 9 12 10 14 11 13 12
REMARK SMILES IDX 8 13 9 14 7 15 6 16 1 17 2 18 3 19 85 20 4 21 5 22 21 23
REMARK SMILES IDX 22 24 23 25 24 27 25 28 26 29 84 30 27 31 83 32 28 33 29 34
REMARK SMILES IDX 30 35 77 36 31 37 82 38 76 39 78 40 32 41 81 42 75 43 74 44
REMARK SMILES IDX 33 46 63 47 44 48 62 49 45 50 48 51 61 52 79 53 46 54 47 55
REMARK SMILES IDX 60 57 80 58 49 59 34 60 35 61 43 62 36 63 42 64 37 65 38 66
REMARK SMILES IDX 39 67 40 68 41 69 64 70 65 71 73 72 66 73 72 74 67 75 68 76
REMARK SMILES IDX 69 77 70 78 71 79 50 80 51 81 59 82 52 83 58 84 53 85 54 86
REMARK SMILES IDX 55 87 56 88 57 89
REMARK H PARENT 18 6 22 26 78 45 48 56
REMARK Flexibility Score: inf
ROOT
ATOM      1  C   UNL A   1      38.763  24.091  27.158  1.00  0.00     0.042 C 
ENDROOT
BRANCH   1   2
ATOM      2  C   UNL A   1      37.576  24.025  26.212  1.00  0.00     0.117 C 
BRANCH   2   3
ATOM      3  N   UNL A   1      37.525  22.759  25.494  1.00  0.00    -0.354 N 
ATOM      4  C   UNL A   1      36.479  22.173  24.847  1.00  0.00     0.242 C 
ATOM      5  O   UNL A   1      36.569  20.983  24.532  1.00  0.00    -0.273 OA
ATOM      6  H   UNL A   1      38.369  22.253  25.473  1.00  0.00     0.163 HD
BRANCH   4   7
ATOM      7  C   UNL A   1      35.121  22.887  24.786  1.00  0.00     0.174 C 
ATOM      8  N   UNL A   1      33.918  22.087  25.141  1.00  0.00    -0.330 N 
ATOM      9  C   UNL A   1      32.667  22.486  24.496  1.00  0.00     0.120 C 
ATOM     10  C   UNL A   1      32.779  22.604  22.990  1.00  0.00     0.022 C 
ATOM     11  C   UNL A   1      35.141  23.352  23.290  1.00  0.00     0.035 C 
ATOM     12  C   UNL A   1      33.808  23.659  22.641  1.00  0.00     0.004 C 
BRANCH   8  13
ATOM     13  C   UNL A   1      33.762  21.202  26.214  1.00  0.00     0.227 C 
ATOM     14  O   UNL A   1      34.411  21.399  27.252  1.00  0.00    -0.275 OA
BRANCH  13  15
ATOM     15  C   UNL A   1      33.015  19.880  26.101  1.00  0.00     0.135 C 
BRANCH  15  16
ATOM     16  C   UNL A   1      33.324  18.924  24.986  1.00  0.00    -0.038 A 
ATOM     17  C   UNL A   1      31.989  18.202  21.488  1.00  0.00     0.044 C 
ATOM     18  C   UNL A   1      32.835  18.138  22.722  1.00  0.00    -0.051 A 
ATOM     19  C   UNL A   1      33.764  17.110  22.891  1.00  0.00     0.003 A 
ATOM     20  C   UNL A   1      32.626  19.041  23.772  1.00  0.00     0.007 A 
ATOM     21  C   UNL A   1      34.500  17.023  24.072  1.00  0.00     0.001 A 
ATOM     22  C   UNL A   1      34.309  17.939  25.105  1.00  0.00     0.004 A 
ENDBRANCH  15  16
ENDBRANCH  13  15
ENDBRANCH   8  13
ENDBRANCH   4   7
ENDBRANCH   2   3
ENDBRANCH   1   2
BRANCH   1  23
ATOM     23  C   UNL A   1      39.581  25.348  26.977  1.00  0.00     0.118 C 
BRANCH  23  24
ATOM     24  N   UNL A   1      40.065  25.805  28.251  1.00  0.00    -0.352 N 
ATOM     25  C   UNL A   1      40.402  27.042  28.695  1.00  0.00     0.251 C 
ATOM     26  H   UNL A   1      40.172  25.092  28.922  1.00  0.00     0.163 HD
ATOM     27  O   UNL A   1      40.834  27.088  29.846  1.00  0.00    -0.269 OA
BRANCH  25  28
ATOM     28  C   UNL A   1      39.960  28.289  27.928  1.00  0.00     0.039 A 
ATOM     29  C   UNL A   1      40.529  28.225  26.651  1.00  0.00     0.014 A 
ATOM     30  C   UNL A   1      40.284  29.419  28.681  1.00  0.00     0.014 A 
ATOM     31  C   UNL A   1      41.850  28.634  26.537  1.00  0.00     0.010 A 
ATOM     32  C   UNL A   1      41.612  29.757  28.679  1.00  0.00     0.010 A 
ATOM     33  C   UNL A   1      42.410  29.242  27.655  1.00  0.00    -0.014 A 
BRANCH  33  34
ATOM     34  C   UNL A   1      43.827  29.311  27.912  1.00  0.00     0.031 A 
ATOM     35  C   UNL A   1      44.557  30.364  27.208  1.00  0.00     0.074 A 
ATOM     36  C   UNL A   1      44.328  28.518  28.884  1.00  0.00     0.049 A 
ATOM     37  N   UNL A   1      45.828  30.418  27.066  1.00  0.00    -0.248 NA
ATOM     38  C   UNL A   1      43.847  31.431  26.500  1.00  0.00     0.031 C 
ATOM     39  C   UNL A   1      45.612  28.614  29.571  1.00  0.00     0.029 A 
ATOM     40  N   UNL A   1      43.809  27.298  29.324  1.00  0.00    -0.354 N 
ATOM     41  C   UNL A   1      46.116  31.660  26.543  1.00  0.00     0.074 A 
ATOM     42  C   UNL A   1      44.861  32.179  26.073  1.00  0.00     0.031 C 
ATOM     43  C   UNL A   1      45.911  27.403  30.082  1.00  0.00     0.029 A 
ATOM     44  C   UNL A   1      44.903  26.470  29.583  1.00  0.00     0.049 A 
ATOM     45  H   UNL A   1      42.858  27.067  29.430  1.00  0.00     0.167 HD
ATOM     46  C   UNL A   1      47.359  32.173  26.747  1.00  0.00     0.031 A 
ATOM     47  C   UNL A   1      45.169  25.362  28.830  1.00  0.00     0.031 A 
ATOM     48  C   UNL A   1      48.235  31.143  27.311  1.00  0.00     0.049 A 
ATOM     49  C   UNL A   1      46.489  25.560  28.099  1.00  0.00     0.074 A 
ATOM     50  C   UNL A   1      48.623  30.857  28.610  1.00  0.00     0.029 A 
ATOM     51  N   UNL A   1      48.464  29.981  26.571  1.00  0.00    -0.354 N 
ATOM     52  N   UNL A   1      46.970  26.727  27.746  1.00  0.00    -0.248 NA
ATOM     53  C   UNL A   1      47.394  24.461  27.779  1.00  0.00     0.031 C 
ATOM     54  C   UNL A   1      48.935  29.466  28.671  1.00  0.00     0.029 A 
ATOM     55  C   UNL A   1      48.785  28.922  27.404  1.00  0.00     0.049 A 
ATOM     56  H   UNL A   1      48.404  29.923  25.589  1.00  0.00     0.167 HD
ATOM     57  C   UNL A   1      48.229  26.564  27.234  1.00  0.00     0.074 A 
ATOM     58  C   UNL A   1      48.438  25.124  27.251  1.00  0.00     0.031 C 
ATOM     59  C   UNL A   1      49.037  27.597  26.848  1.00  0.00     0.031 A 
BRANCH  46  60
ATOM     60  C   UNL A   1      47.642  33.663  26.747  1.00  0.00    -0.014 A 
ATOM     61  C   UNL A   1      47.152  34.460  27.800  1.00  0.00     0.010 A 
ATOM     62  C   UNL A   1      48.293  34.361  25.708  1.00  0.00     0.010 A 
ATOM     63  C   UNL A   1      47.254  35.864  27.783  1.00  0.00     0.020 A 
ATOM     64  C   UNL A   1      48.385  35.759  25.664  1.00  0.00     0.020 A 
ATOM     65  C   UNL A   1      47.858  36.506  26.704  1.00  0.00     0.054 A 
BRANCH  65  66
ATOM     66  S   UNL A   1      47.963  38.313  26.675  1.00  0.00     0.124 S 
ATOM     67  O   UNL A   1      47.072  38.698  27.766  1.00  0.00    -0.237 OA
ATOM     68  O   UNL A   1      49.385  38.549  26.907  1.00  0.00    -0.237 OA
ATOM     69  O   UNL A   1      47.488  38.669  25.339  1.00  0.00    -0.744 OA
ENDBRANCH  65  66
ENDBRANCH  46  60
BRANCH  47  70
ATOM     70  C   UNL A   1      43.962  24.660  28.280  1.00  0.00    -0.014 A 
ATOM     71  C   UNL A   1      43.873  24.463  26.880  1.00  0.00     0.010 A 
ATOM     72  C   UNL A   1      43.125  23.887  29.104  1.00  0.00     0.010 A 
ATOM     73  C   UNL A   1      43.077  23.440  26.332  1.00  0.00     0.020 A 
ATOM     74  C   UNL A   1      42.326  22.862  28.558  1.00  0.00     0.020 A 
ATOM     75  C   UNL A   1      42.344  22.610  27.181  1.00  0.00     0.054 A 
BRANCH  75  76
ATOM     76  S   UNL A   1      41.569  21.100  26.496  1.00  0.00     0.124 S 
ATOM     77  O   UNL A   1      42.578  20.633  25.549  1.00  0.00    -0.237 OA
ATOM     78  O   UNL A   1      41.368  20.237  27.659  1.00  0.00    -0.237 OA
ATOM     79  O   UNL A   1      40.332  21.591  25.889  1.00  0.00    -0.744 OA
ENDBRANCH  75  76
ENDBRANCH  47  70
BRANCH  59  80
ATOM     80  C   UNL A   1      50.219  27.428  25.925  1.00  0.00    -0.014 A 
ATOM     81  C   UNL A   1      50.092  27.326  24.531  1.00  0.00     0.010 A 
ATOM     82  C   UNL A   1      51.527  27.562  26.447  1.00  0.00     0.010 A 
ATOM     83  C   UNL A   1      51.217  27.287  23.700  1.00  0.00     0.020 A 
ATOM     84  C   UNL A   1      52.653  27.587  25.622  1.00  0.00     0.020 A 
ATOM     85  C   UNL A   1      52.491  27.420  24.253  1.00  0.00     0.054 A 
BRANCH  85  86
ATOM     86  S   UNL A   1      53.929  27.435  23.159  1.00  0.00     0.124 S 
ATOM     87  O   UNL A   1      53.785  26.160  22.461  1.00  0.00    -0.237 OA
ATOM     88  O   UNL A   1      53.708  28.626  22.344  1.00  0.00    -0.237 OA
ATOM     89  O   UNL A   1      55.061  27.521  24.082  1.00  0.00    -0.744 OA
ENDBRANCH  85  86
ENDBRANCH  59  80
ENDBRANCH  33  34
ENDBRANCH  25  28
ENDBRANCH  23  24
ENDBRANCH   1  23
TORSDOF 16
ENDMDL
