MODEL 1
REMARK VINA RESULT:     -11.6      0.000      0.000
REMARK SMILES Cc1ncccc1C(=O)Nc1ccccc1C(=O)NCCCNC(=O)c1ccc(-c2c3nc(c(-c4ccc(S(=O)(=O)[O-])cc4)c4ccc([nH]4)c(-c4ccc(S(=O)(=O)[O-])cc4)c4nc(c(-c5ccc(S(=O)(=O)[O-])cc5)c5ccc2[nH]5)C=C4)C=C3)cc1
REMARK SMILES IDX 21 1 20 2 19 3 17 4 18 5 16 7 11 8 12 9 13 10 15 11 14 12
REMARK SMILES IDX 10 13 8 14 9 15 7 17 1 18 2 19 3 20 4 21 6 22 5 23 22 24
REMARK SMILES IDX 23 25 24 26 25 28 26 29 27 30 85 31 28 32 84 33 29 34 30 35
REMARK SMILES IDX 31 36 78 37 32 38 83 39 77 40 79 41 33 42 82 43 76 44 75 45
REMARK SMILES IDX 34 47 64 48 45 49 63 50 46 51 49 52 62 53 80 54 47 55 48 56
REMARK SMILES IDX 61 58 81 59 50 60 35 61 36 62 44 63 37 64 43 65 38 66 39 67
REMARK SMILES IDX 40 68 41 69 42 70 65 71 66 72 74 73 67 74 73 75 68 76 69 77
REMARK SMILES IDX 70 78 71 79 72 80 51 81 52 82 60 83 53 84 59 85 54 86 55 87
REMARK SMILES IDX 56 88 57 89 58 90
REMARK H PARENT 19 6 10 16 23 27 79 46 49 57
REMARK Flexibility Score: inf
ROOT
ATOM      1  C   UNL A   1      33.687  27.323  25.393  1.00  0.00     0.042 C 
ENDROOT
BRANCH   1   2
ATOM      2  C   UNL A   1      34.072  25.894  25.080  1.00  0.00     0.118 C 
BRANCH   2   3
ATOM      3  N   UNL A   1      33.809  25.482  23.715  1.00  0.00    -0.352 N 
ATOM      4  C   UNL A   1      34.062  24.282  23.097  1.00  0.00     0.253 C 
ATOM      5  O   UNL A   1      33.728  24.152  21.919  1.00  0.00    -0.269 OA
ATOM      6  H   UNL A   1      33.384  26.165  23.147  1.00  0.00     0.163 HD
BRANCH   4   7
ATOM      7  C   UNL A   1      34.827  23.189  23.759  1.00  0.00     0.063 A 
ATOM      8  C   UNL A   1      34.422  22.387  24.837  1.00  0.00     0.054 A 
ATOM      9  C   UNL A   1      35.394  21.606  25.497  1.00  0.00     0.027 A 
ATOM     10  C   UNL A   1      36.693  21.487  25.007  1.00  0.00     0.002 A 
ATOM     11  C   UNL A   1      36.140  23.034  23.256  1.00  0.00     0.016 A 
ATOM     12  C   UNL A   1      37.056  22.173  23.859  1.00  0.00     0.001 A 
BRANCH   8  13
ATOM     13  N   UNL A   1      33.128  22.208  25.362  1.00  0.00    -0.321 N 
ATOM     14  C   UNL A   1      32.147  21.264  25.196  1.00  0.00     0.257 C 
ATOM     15  O   UNL A   1      31.044  21.492  25.697  1.00  0.00    -0.269 OA
ATOM     16  H   UNL A   1      32.868  22.922  25.989  1.00  0.00     0.170 HD
BRANCH  14  17
ATOM     17  C   UNL A   1      32.329  19.983  24.491  1.00  0.00     0.061 A 
ATOM     18  C   UNL A   1      31.962  20.912  22.138  1.00  0.00     0.067 C 
ATOM     19  C   UNL A   1      32.260  19.811  23.108  1.00  0.00     0.050 A 
ATOM     20  N   UNL A   1      32.498  18.603  22.522  1.00  0.00    -0.261 NA
ATOM     21  C   UNL A   1      32.850  17.568  23.316  1.00  0.00     0.111 A 
ATOM     22  C   UNL A   1      32.756  18.899  25.274  1.00  0.00     0.017 A 
ATOM     23  C   UNL A   1      33.011  17.669  24.684  1.00  0.00     0.021 A 
ENDBRANCH  14  17
ENDBRANCH   8  13
ENDBRANCH   4   7
ENDBRANCH   2   3
ENDBRANCH   1   2
BRANCH   1  24
ATOM     24  C   UNL A   1      34.096  27.813  26.774  1.00  0.00     0.118 C 
BRANCH  24  25
ATOM     25  N   UNL A   1      33.649  29.162  27.111  1.00  0.00    -0.352 N 
ATOM     26  C   UNL A   1      34.311  30.221  27.699  1.00  0.00     0.251 C 
ATOM     27  H   UNL A   1      32.711  29.349  26.876  1.00  0.00     0.163 HD
ATOM     28  O   UNL A   1      33.718  31.269  27.904  1.00  0.00    -0.269 OA
BRANCH  26  29
ATOM     29  C   UNL A   1      35.720  30.072  28.129  1.00  0.00     0.039 A 
ATOM     30  C   UNL A   1      35.995  29.601  29.417  1.00  0.00     0.014 A 
ATOM     31  C   UNL A   1      36.769  30.344  27.255  1.00  0.00     0.014 A 
ATOM     32  C   UNL A   1      37.312  29.297  29.775  1.00  0.00     0.010 A 
ATOM     33  C   UNL A   1      38.048  29.900  27.557  1.00  0.00     0.010 A 
ATOM     34  C   UNL A   1      38.342  29.386  28.826  1.00  0.00    -0.014 A 
BRANCH  34  35
ATOM     35  C   UNL A   1      39.738  28.982  29.137  1.00  0.00     0.031 A 
ATOM     36  C   UNL A   1      40.667  29.958  29.813  1.00  0.00     0.074 A 
ATOM     37  C   UNL A   1      40.197  27.778  28.737  1.00  0.00     0.049 A 
ATOM     38  N   UNL A   1      41.940  29.833  30.089  1.00  0.00    -0.248 NA
ATOM     39  C   UNL A   1      40.104  31.269  30.185  1.00  0.00     0.031 C 
ATOM     40  C   UNL A   1      39.423  26.769  28.006  1.00  0.00     0.029 A 
ATOM     41  N   UNL A   1      41.430  27.194  28.891  1.00  0.00    -0.354 N 
ATOM     42  C   UNL A   1      42.331  31.056  30.624  1.00  0.00     0.074 A 
ATOM     43  C   UNL A   1      41.185  31.932  30.565  1.00  0.00     0.031 C 
ATOM     44  C   UNL A   1      40.180  25.676  27.824  1.00  0.00     0.029 A 
ATOM     45  C   UNL A   1      41.504  25.916  28.387  1.00  0.00     0.049 A 
ATOM     46  H   UNL A   1      42.191  27.647  29.321  1.00  0.00     0.167 HD
ATOM     47  C   UNL A   1      43.526  31.411  31.155  1.00  0.00     0.031 A 
ATOM     48  C   UNL A   1      42.521  25.031  28.391  1.00  0.00     0.031 A 
ATOM     49  C   UNL A   1      44.645  30.519  31.261  1.00  0.00     0.049 A 
ATOM     50  C   UNL A   1      43.820  25.423  29.040  1.00  0.00     0.074 A 
ATOM     51  C   UNL A   1      45.878  30.748  31.848  1.00  0.00     0.029 A 
ATOM     52  N   UNL A   1      44.660  29.217  30.786  1.00  0.00    -0.354 N 
ATOM     53  N   UNL A   1      44.151  26.564  29.599  1.00  0.00    -0.248 NA
ATOM     54  C   UNL A   1      44.877  24.403  29.077  1.00  0.00     0.031 C 
ATOM     55  C   UNL A   1      46.650  29.591  31.697  1.00  0.00     0.029 A 
ATOM     56  C   UNL A   1      45.882  28.628  31.061  1.00  0.00     0.049 A 
ATOM     57  H   UNL A   1      43.912  28.776  30.322  1.00  0.00     0.167 HD
ATOM     58  C   UNL A   1      45.442  26.388  30.082  1.00  0.00     0.074 A 
ATOM     59  C   UNL A   1      45.828  25.029  29.758  1.00  0.00     0.031 C 
ATOM     60  C   UNL A   1      46.237  27.271  30.735  1.00  0.00     0.031 A 
BRANCH  47  61
ATOM     61  C   UNL A   1      43.660  32.820  31.672  1.00  0.00    -0.014 A 
ATOM     62  C   UNL A   1      43.443  33.118  33.031  1.00  0.00     0.010 A 
ATOM     63  C   UNL A   1      44.006  33.862  30.793  1.00  0.00     0.010 A 
ATOM     64  C   UNL A   1      43.508  34.437  33.488  1.00  0.00     0.020 A 
ATOM     65  C   UNL A   1      44.105  35.179  31.252  1.00  0.00     0.020 A 
ATOM     66  C   UNL A   1      43.831  35.460  32.593  1.00  0.00     0.054 A 
BRANCH  66  67
ATOM     67  S   UNL A   1      43.910  37.163  33.212  1.00  0.00     0.124 S 
ATOM     68  O   UNL A   1      43.971  37.930  31.971  1.00  0.00    -0.237 OA
ATOM     69  O   UNL A   1      42.665  37.288  33.966  1.00  0.00    -0.237 OA
ATOM     70  O   UNL A   1      45.128  37.182  34.019  1.00  0.00    -0.744 OA
ENDBRANCH  66  67
ENDBRANCH  47  61
BRANCH  48  71
ATOM     71  C   UNL A   1      42.327  23.672  27.816  1.00  0.00    -0.014 A 
ATOM     72  C   UNL A   1      42.777  23.383  26.515  1.00  0.00     0.010 A 
ATOM     73  C   UNL A   1      41.719  22.652  28.569  1.00  0.00     0.010 A 
ATOM     74  C   UNL A   1      42.610  22.105  25.973  1.00  0.00     0.020 A 
ATOM     75  C   UNL A   1      41.572  21.365  28.040  1.00  0.00     0.020 A 
ATOM     76  C   UNL A   1      42.010  21.103  26.739  1.00  0.00     0.054 A 
BRANCH  76  77
ATOM     77  S   UNL A   1      41.858  19.437  26.037  1.00  0.00     0.124 S 
ATOM     78  O   UNL A   1      40.427  19.350  25.767  1.00  0.00    -0.237 OA
ATOM     79  O   UNL A   1      42.722  19.507  24.862  1.00  0.00    -0.237 OA
ATOM     80  O   UNL A   1      42.348  18.569  27.108  1.00  0.00    -0.744 OA
ENDBRANCH  76  77
ENDBRANCH  48  71
BRANCH  60  81
ATOM     81  C   UNL A   1      47.587  26.783  31.186  1.00  0.00    -0.014 A 
ATOM     82  C   UNL A   1      47.756  26.158  32.432  1.00  0.00     0.010 A 
ATOM     83  C   UNL A   1      48.686  26.897  30.315  1.00  0.00     0.010 A 
ATOM     84  C   UNL A   1      49.012  25.682  32.814  1.00  0.00     0.020 A 
ATOM     85  C   UNL A   1      49.937  26.399  30.683  1.00  0.00     0.020 A 
ATOM     86  C   UNL A   1      50.095  25.806  31.937  1.00  0.00     0.054 A 
BRANCH  86  87
ATOM     87  S   UNL A   1      51.705  25.138  32.436  1.00  0.00     0.124 S 
ATOM     88  O   UNL A   1      51.819  25.617  33.810  1.00  0.00    -0.237 OA
ATOM     89  O   UNL A   1      51.515  23.697  32.286  1.00  0.00    -0.237 OA
ATOM     90  O   UNL A   1      52.638  25.738  31.485  1.00  0.00    -0.744 OA
ENDBRANCH  86  87
ENDBRANCH  60  81
ENDBRANCH  34  35
ENDBRANCH  26  29
ENDBRANCH  24  25
ENDBRANCH   1  24
TORSDOF 15
ENDMDL
MODEL 2
REMARK VINA RESULT:     -11.3      1.650      2.782
REMARK SMILES Cc1ncccc1C(=O)Nc1ccccc1C(=O)NCCCNC(=O)c1ccc(-c2c3nc(c(-c4ccc(S(=O)(=O)[O-])cc4)c4ccc([nH]4)c(-c4ccc(S(=O)(=O)[O-])cc4)c4nc(c(-c5ccc(S(=O)(=O)[O-])cc5)c5ccc2[nH]5)C=C4)C=C3)cc1
REMARK SMILES IDX 21 1 20 2 19 3 17 4 18 5 16 7 11 8 12 9 13 10 15 11 14 12
REMARK SMILES IDX 10 13 8 14 9 15 7 17 1 18 2 19 3 20 4 21 6 22 5 23 22 24
REMARK SMILES IDX 23 25 24 26 25 28 26 29 27 30 85 31 28 32 84 33 29 34 30 35
REMARK SMILES IDX 31 36 78 37 32 38 83 39 77 40 79 41 33 42 82 43 76 44 75 45
REMARK SMILES IDX 34 47 64 48 45 49 63 50 46 51 49 52 62 53 80 54 47 55 48 56
REMARK SMILES IDX 61 58 81 59 50 60 35 61 36 62 44 63 37 64 43 65 38 66 39 67
REMARK SMILES IDX 40 68 41 69 42 70 65 71 66 72 74 73 67 74 73 75 68 76 69 77
REMARK SMILES IDX 70 78 71 79 72 80 51 81 52 82 60 83 53 84 59 85 54 86 55 87
REMARK SMILES IDX 56 88 57 89 58 90
REMARK H PARENT 19 6 10 16 23 27 79 46 49 57
REMARK Flexibility Score: inf
ROOT
ATOM      1  C   UNL A   1      31.971  28.027  27.360  1.00  0.00     0.042 C 
ENDROOT
BRANCH   1   2
ATOM      2  C   UNL A   1      31.831  26.697  26.653  1.00  0.00     0.118 C 
BRANCH   2   3
ATOM      3  N   UNL A   1      30.608  26.542  25.891  1.00  0.00    -0.352 N 
ATOM      4  C   UNL A   1      30.414  26.548  24.532  1.00  0.00     0.253 C 
ATOM      5  O   UNL A   1      29.273  26.374  24.105  1.00  0.00    -0.269 OA
ATOM      6  H   UNL A   1      29.794  26.410  26.430  1.00  0.00     0.163 HD
BRANCH   4   7
ATOM      7  C   UNL A   1      31.504  26.876  23.572  1.00  0.00     0.063 A 
ATOM      8  C   UNL A   1      32.285  25.985  22.819  1.00  0.00     0.054 A 
ATOM      9  C   UNL A   1      33.448  26.475  22.189  1.00  0.00     0.027 A 
ATOM     10  C   UNL A   1      33.744  27.836  22.159  1.00  0.00     0.002 A 
ATOM     11  C   UNL A   1      31.802  28.257  23.506  1.00  0.00     0.016 A 
ATOM     12  C   UNL A   1      32.898  28.735  22.787  1.00  0.00     0.001 A 
BRANCH   8  13
ATOM     13  N   UNL A   1      32.054  24.622  22.556  1.00  0.00    -0.321 N 
ATOM     14  C   UNL A   1      32.409  23.450  23.176  1.00  0.00     0.257 C 
ATOM     15  O   UNL A   1      32.169  22.395  22.585  1.00  0.00    -0.269 OA
ATOM     16  H   UNL A   1      31.517  24.475  21.744  1.00  0.00     0.170 HD
BRANCH  14  17
ATOM     17  C   UNL A   1      33.026  23.364  24.511  1.00  0.00     0.061 A 
ATOM     18  C   UNL A   1      30.850  22.970  25.793  1.00  0.00     0.067 C 
ATOM     19  C   UNL A   1      32.336  23.136  25.702  1.00  0.00     0.050 A 
ATOM     20  N   UNL A   1      32.983  23.009  26.895  1.00  0.00    -0.261 NA
ATOM     21  C   UNL A   1      34.333  23.069  26.896  1.00  0.00     0.111 A 
ATOM     22  C   UNL A   1      34.429  23.360  24.547  1.00  0.00     0.017 A 
ATOM     23  C   UNL A   1      35.096  23.221  25.756  1.00  0.00     0.021 A 
ENDBRANCH  14  17
ENDBRANCH   8  13
ENDBRANCH   4   7
ENDBRANCH   2   3
ENDBRANCH   1   2
BRANCH   1  24
ATOM     24  C   UNL A   1      33.347  28.668  27.262  1.00  0.00     0.118 C 
BRANCH  24  25
ATOM     25  N   UNL A   1      33.425  30.045  27.743  1.00  0.00    -0.352 N 
ATOM     26  C   UNL A   1      34.478  30.770  28.264  1.00  0.00     0.251 C 
ATOM     27  H   UNL A   1      32.577  30.544  27.685  1.00  0.00     0.163 HD
ATOM     28  O   UNL A   1      34.301  31.923  28.624  1.00  0.00    -0.269 OA
BRANCH  26  29
ATOM     29  C   UNL A   1      35.806  30.137  28.434  1.00  0.00     0.039 A 
ATOM     30  C   UNL A   1      36.723  30.179  27.380  1.00  0.00     0.014 A 
ATOM     31  C   UNL A   1      36.170  29.551  29.644  1.00  0.00     0.014 A 
ATOM     32  C   UNL A   1      38.033  29.736  27.584  1.00  0.00     0.010 A 
ATOM     33  C   UNL A   1      37.503  29.256  29.890  1.00  0.00     0.010 A 
ATOM     34  C   UNL A   1      38.451  29.328  28.861  1.00  0.00    -0.014 A 
BRANCH  34  35
ATOM     35  C   UNL A   1      39.857  28.942  29.145  1.00  0.00     0.031 A 
ATOM     36  C   UNL A   1      40.788  29.932  29.799  1.00  0.00     0.074 A 
ATOM     37  C   UNL A   1      40.323  27.742  28.741  1.00  0.00     0.049 A 
ATOM     38  N   UNL A   1      42.067  29.824  30.049  1.00  0.00    -0.248 NA
ATOM     39  C   UNL A   1      40.216  31.238  30.177  1.00  0.00     0.031 C 
ATOM     40  C   UNL A   1      39.547  26.721  28.029  1.00  0.00     0.029 A 
ATOM     41  N   UNL A   1      41.566  27.174  28.871  1.00  0.00    -0.354 N 
ATOM     42  C   UNL A   1      42.454  31.054  30.572  1.00  0.00     0.074 A 
ATOM     43  C   UNL A   1      41.295  31.916  30.533  1.00  0.00     0.031 C 
ATOM     44  C   UNL A   1      40.314  25.637  27.835  1.00  0.00     0.029 A 
ATOM     45  C   UNL A   1      41.646  25.895  28.371  1.00  0.00     0.049 A 
ATOM     46  H   UNL A   1      42.329  27.638  29.285  1.00  0.00     0.167 HD
ATOM     47  C   UNL A   1      43.654  31.426  31.077  1.00  0.00     0.031 A 
ATOM     48  C   UNL A   1      42.673  25.023  28.358  1.00  0.00     0.031 A 
ATOM     49  C   UNL A   1      44.787  30.548  31.165  1.00  0.00     0.049 A 
ATOM     50  C   UNL A   1      43.980  25.433  28.980  1.00  0.00     0.074 A 
ATOM     51  C   UNL A   1      46.027  30.794  31.725  1.00  0.00     0.029 A 
ATOM     52  N   UNL A   1      44.808  29.244  30.694  1.00  0.00    -0.354 N 
ATOM     53  N   UNL A   1      44.308  26.580  29.527  1.00  0.00    -0.248 NA
ATOM     54  C   UNL A   1      45.050  24.427  28.999  1.00  0.00     0.031 C 
ATOM     55  C   UNL A   1      46.811  29.646  31.563  1.00  0.00     0.029 A 
ATOM     56  C   UNL A   1      46.042  28.671  30.947  1.00  0.00     0.049 A 
ATOM     57  H   UNL A   1      44.057  28.792  30.247  1.00  0.00     0.167 HD
ATOM     58  C   UNL A   1      45.611  26.422  29.985  1.00  0.00     0.074 A 
ATOM     59  C   UNL A   1      46.006  25.066  29.658  1.00  0.00     0.031 C 
ATOM     60  C   UNL A   1      46.407  27.317  30.619  1.00  0.00     0.031 A 
BRANCH  47  61
ATOM     61  C   UNL A   1      43.781  32.838  31.587  1.00  0.00    -0.014 A 
ATOM     62  C   UNL A   1      44.196  33.882  30.737  1.00  0.00     0.010 A 
ATOM     63  C   UNL A   1      43.482  33.130  32.930  1.00  0.00     0.010 A 
ATOM     64  C   UNL A   1      44.371  35.175  31.236  1.00  0.00     0.020 A 
ATOM     65  C   UNL A   1      43.623  34.430  33.424  1.00  0.00     0.020 A 
ATOM     66  C   UNL A   1      44.091  35.439  32.579  1.00  0.00     0.054 A 
BRANCH  66  67
ATOM     67  S   UNL A   1      44.325  37.128  33.199  1.00  0.00     0.124 S 
ATOM     68  O   UNL A   1      44.781  37.826  32.001  1.00  0.00    -0.237 OA
ATOM     69  O   UNL A   1      42.988  37.487  33.665  1.00  0.00    -0.237 OA
ATOM     70  O   UNL A   1      45.327  36.973  34.251  1.00  0.00    -0.744 OA
ENDBRANCH  66  67
ENDBRANCH  47  61
BRANCH  48  71
ATOM     71  C   UNL A   1      42.485  23.659  27.792  1.00  0.00    -0.014 A 
ATOM     72  C   UNL A   1      42.904  23.373  26.480  1.00  0.00     0.010 A 
ATOM     73  C   UNL A   1      41.913  22.632  28.564  1.00  0.00     0.010 A 
ATOM     74  C   UNL A   1      42.741  22.091  25.946  1.00  0.00     0.020 A 
ATOM     75  C   UNL A   1      41.771  21.342  28.042  1.00  0.00     0.020 A 
ATOM     76  C   UNL A   1      42.178  21.083  26.731  1.00  0.00     0.054 A 
BRANCH  76  77
ATOM     77  S   UNL A   1      42.032  19.412  26.038  1.00  0.00     0.124 S 
ATOM     78  O   UNL A   1      40.594  19.297  25.819  1.00  0.00    -0.237 OA
ATOM     79  O   UNL A   1      42.853  19.496  24.832  1.00  0.00    -0.237 OA
ATOM     80  O   UNL A   1      42.576  18.556  27.091  1.00  0.00    -0.744 OA
ENDBRANCH  76  77
ENDBRANCH  48  71
BRANCH  60  81
ATOM     81  C   UNL A   1      47.771  26.847  31.044  1.00  0.00    -0.014 A 
ATOM     82  C   UNL A   1      48.888  27.003  30.206  1.00  0.00     0.010 A 
ATOM     83  C   UNL A   1      47.943  26.301  32.329  1.00  0.00     0.010 A 
ATOM     84  C   UNL A   1      50.152  26.591  30.636  1.00  0.00     0.020 A 
ATOM     85  C   UNL A   1      49.208  25.913  32.772  1.00  0.00     0.020 A 
ATOM     86  C   UNL A   1      50.304  26.048  31.916  1.00  0.00     0.054 A 
BRANCH  86  87
ATOM     87  S   UNL A   1      51.962  25.565  32.469  1.00  0.00     0.124 S 
ATOM     88  O   UNL A   1      51.970  24.133  32.187  1.00  0.00    -0.237 OA
ATOM     89  O   UNL A   1      52.832  26.378  31.623  1.00  0.00    -0.237 OA
ATOM     90  O   UNL A   1      51.971  25.922  33.886  1.00  0.00    -0.744 OA
ENDBRANCH  86  87
ENDBRANCH  60  81
ENDBRANCH  34  35
ENDBRANCH  26  29
ENDBRANCH  24  25
ENDBRANCH   1  24
TORSDOF 15
ENDMDL
MODEL 3
REMARK VINA RESULT:     -11.1      3.528      9.266
REMARK SMILES Cc1ncccc1C(=O)Nc1ccccc1C(=O)NCCCNC(=O)c1ccc(-c2c3nc(c(-c4ccc(S(=O)(=O)[O-])cc4)c4ccc([nH]4)c(-c4ccc(S(=O)(=O)[O-])cc4)c4nc(c(-c5ccc(S(=O)(=O)[O-])cc5)c5ccc2[nH]5)C=C4)C=C3)cc1
REMARK SMILES IDX 21 1 20 2 19 3 17 4 18 5 16 7 11 8 12 9 13 10 15 11 14 12
REMARK SMILES IDX 10 13 8 14 9 15 7 17 1 18 2 19 3 20 4 21 6 22 5 23 22 24
REMARK SMILES IDX 23 25 24 26 25 28 26 29 27 30 85 31 28 32 84 33 29 34 30 35
REMARK SMILES IDX 31 36 78 37 32 38 83 39 77 40 79 41 33 42 82 43 76 44 75 45
REMARK SMILES IDX 34 47 64 48 45 49 63 50 46 51 49 52 62 53 80 54 47 55 48 56
REMARK SMILES IDX 61 58 81 59 50 60 35 61 36 62 44 63 37 64 43 65 38 66 39 67
REMARK SMILES IDX 40 68 41 69 42 70 65 71 66 72 74 73 67 74 73 75 68 76 69 77
REMARK SMILES IDX 70 78 71 79 72 80 51 81 52 82 60 83 53 84 59 85 54 86 55 87
REMARK SMILES IDX 56 88 57 89 58 90
REMARK H PARENT 19 6 10 16 23 27 79 46 49 57
REMARK Flexibility Score: inf
ROOT
ATOM      1  C   UNL A   1      37.915  20.911  25.036  1.00  0.00     0.042 C 
ENDROOT
BRANCH   1   2
ATOM      2  C   UNL A   1      37.202  22.156  24.556  1.00  0.00     0.118 C 
BRANCH   2   3
ATOM      3  N   UNL A   1      36.340  22.778  25.542  1.00  0.00    -0.352 N 
ATOM      4  C   UNL A   1      34.983  22.662  25.719  1.00  0.00     0.253 C 
ATOM      5  O   UNL A   1      34.462  23.276  26.649  1.00  0.00    -0.269 OA
ATOM      6  H   UNL A   1      36.797  23.371  26.182  1.00  0.00     0.163 HD
BRANCH   4   7
ATOM      7  C   UNL A   1      34.114  21.925  24.760  1.00  0.00     0.063 A 
ATOM      8  C   UNL A   1      33.577  22.395  23.550  1.00  0.00     0.054 A 
ATOM      9  C   UNL A   1      32.555  21.645  22.932  1.00  0.00     0.027 A 
ATOM     10  C   UNL A   1      32.187  20.385  23.400  1.00  0.00     0.002 A 
ATOM     11  C   UNL A   1      33.752  20.632  25.204  1.00  0.00     0.016 A 
ATOM     12  C   UNL A   1      32.815  19.859  24.517  1.00  0.00     0.001 A 
BRANCH   8  13
ATOM     13  N   UNL A   1      33.946  23.532  22.808  1.00  0.00    -0.321 N 
ATOM     14  C   UNL A   1      33.657  24.870  22.895  1.00  0.00     0.257 C 
ATOM     15  O   UNL A   1      34.029  25.597  21.971  1.00  0.00    -0.269 OA
ATOM     16  H   UNL A   1      34.546  23.320  22.056  1.00  0.00     0.170 HD
BRANCH  14  17
ATOM     17  C   UNL A   1      32.964  25.505  24.030  1.00  0.00     0.061 A 
ATOM     18  C   UNL A   1      30.630  24.644  23.440  1.00  0.00     0.067 C 
ATOM     19  C   UNL A   1      31.598  25.402  24.296  1.00  0.00     0.050 A 
ATOM     20  N   UNL A   1      31.036  25.969  25.401  1.00  0.00    -0.261 NA
ATOM     21  C   UNL A   1      31.848  26.609  26.270  1.00  0.00     0.111 A 
ATOM     22  C   UNL A   1      33.781  26.125  24.987  1.00  0.00     0.017 A 
ATOM     23  C   UNL A   1      33.218  26.696  26.121  1.00  0.00     0.021 A 
ENDBRANCH  14  17
ENDBRANCH   8  13
ENDBRANCH   4   7
ENDBRANCH   2   3
ENDBRANCH   1   2
BRANCH   1  24
ATOM     24  C   UNL A   1      39.128  21.162  25.919  1.00  0.00     0.118 C 
BRANCH  24  25
ATOM     25  N   UNL A   1      40.047  20.035  26.044  1.00  0.00    -0.352 N 
ATOM     26  C   UNL A   1      41.396  19.986  26.336  1.00  0.00     0.251 C 
ATOM     27  H   UNL A   1      39.632  19.154  25.894  1.00  0.00     0.163 HD
ATOM     28  O   UNL A   1      41.971  18.910  26.368  1.00  0.00    -0.269 OA
BRANCH  26  29
ATOM     29  C   UNL A   1      42.155  21.239  26.557  1.00  0.00     0.039 A 
ATOM     30  C   UNL A   1      42.416  22.080  25.471  1.00  0.00     0.014 A 
ATOM     31  C   UNL A   1      42.564  21.612  27.834  1.00  0.00     0.014 A 
ATOM     32  C   UNL A   1      42.981  23.340  25.692  1.00  0.00     0.010 A 
ATOM     33  C   UNL A   1      42.981  22.914  28.068  1.00  0.00     0.010 A 
ATOM     34  C   UNL A   1      43.211  23.792  27.001  1.00  0.00    -0.014 A 
BRANCH  34  35
ATOM     35  C   UNL A   1      43.720  25.159  27.285  1.00  0.00     0.031 A 
ATOM     36  C   UNL A   1      45.169  25.487  27.023  1.00  0.00     0.074 A 
ATOM     37  C   UNL A   1      42.912  26.075  27.857  1.00  0.00     0.049 A 
ATOM     38  N   UNL A   1      45.828  26.587  27.285  1.00  0.00    -0.248 NA
ATOM     39  C   UNL A   1      46.000  24.422  26.434  1.00  0.00     0.031 C 
ATOM     40  C   UNL A   1      41.510  25.860  28.232  1.00  0.00     0.029 A 
ATOM     41  N   UNL A   1      43.151  27.377  28.222  1.00  0.00    -0.354 N 
ATOM     42  C   UNL A   1      47.147  26.328  26.932  1.00  0.00     0.074 A 
ATOM     43  C   UNL A   1      47.212  24.948  26.509  1.00  0.00     0.031 C 
ATOM     44  C   UNL A   1      41.003  27.003  28.723  1.00  0.00     0.029 A 
ATOM     45  C   UNL A   1      42.049  28.020  28.735  1.00  0.00     0.049 A 
ATOM     46  H   UNL A   1      44.030  27.809  28.127  1.00  0.00     0.167 HD
ATOM     47  C   UNL A   1      48.208  27.171  26.920  1.00  0.00     0.031 A 
ATOM     48  C   UNL A   1      41.894  29.291  29.156  1.00  0.00     0.031 A 
ATOM     49  C   UNL A   1      48.127  28.556  27.288  1.00  0.00     0.049 A 
ATOM     50  C   UNL A   1      43.068  30.228  29.078  1.00  0.00     0.074 A 
ATOM     51  C   UNL A   1      49.118  29.520  27.244  1.00  0.00     0.029 A 
ATOM     52  N   UNL A   1      46.978  29.180  27.752  1.00  0.00    -0.354 N 
ATOM     53  N   UNL A   1      44.294  29.981  28.680  1.00  0.00    -0.248 NA
ATOM     54  C   UNL A   1      42.834  31.619  29.487  1.00  0.00     0.031 C 
ATOM     55  C   UNL A   1      48.575  30.721  27.713  1.00  0.00     0.029 A 
ATOM     56  C   UNL A   1      47.235  30.516  28.002  1.00  0.00     0.049 A 
ATOM     57  H   UNL A   1      46.109  28.738  27.883  1.00  0.00     0.167 HD
ATOM     58  C   UNL A   1      44.969  31.193  28.760  1.00  0.00     0.074 A 
ATOM     59  C   UNL A   1      44.012  32.173  29.235  1.00  0.00     0.031 C 
ATOM     60  C   UNL A   1      46.263  31.472  28.466  1.00  0.00     0.031 A 
BRANCH  47  61
ATOM     61  C   UNL A   1      49.533  26.607  26.476  1.00  0.00    -0.014 A 
ATOM     62  C   UNL A   1      50.382  25.946  27.384  1.00  0.00     0.010 A 
ATOM     63  C   UNL A   1      49.938  26.738  25.136  1.00  0.00     0.010 A 
ATOM     64  C   UNL A   1      51.635  25.483  26.976  1.00  0.00     0.020 A 
ATOM     65  C   UNL A   1      51.177  26.246  24.715  1.00  0.00     0.020 A 
ATOM     66  C   UNL A   1      52.028  25.643  25.645  1.00  0.00     0.054 A 
BRANCH  66  67
ATOM     67  S   UNL A   1      53.660  25.032  25.142  1.00  0.00     0.124 S 
ATOM     68  O   UNL A   1      53.484  23.586  25.249  1.00  0.00    -0.237 OA
ATOM     69  O   UNL A   1      53.791  25.549  23.782  1.00  0.00    -0.237 OA
ATOM     70  O   UNL A   1      54.568  25.625  26.121  1.00  0.00    -0.744 OA
ENDBRANCH  66  67
ENDBRANCH  47  61
BRANCH  48  71
ATOM     71  C   UNL A   1      40.563  29.762  29.628  1.00  0.00    -0.014 A 
ATOM     72  C   UNL A   1      39.530  30.002  28.704  1.00  0.00     0.010 A 
ATOM     73  C   UNL A   1      40.310  29.949  30.998  1.00  0.00     0.010 A 
ATOM     74  C   UNL A   1      38.273  30.433  29.141  1.00  0.00     0.020 A 
ATOM     75  C   UNL A   1      39.047  30.355  31.441  1.00  0.00     0.020 A 
ATOM     76  C   UNL A   1      38.039  30.605  30.507  1.00  0.00     0.054 A 
BRANCH  76  77
ATOM     77  S   UNL A   1      36.382  31.106  31.055  1.00  0.00     0.124 S 
ATOM     78  O   UNL A   1      36.013  30.012  31.948  1.00  0.00    -0.237 OA
ATOM     79  O   UNL A   1      36.637  32.392  31.699  1.00  0.00    -0.237 OA
ATOM     80  O   UNL A   1      35.620  31.184  29.810  1.00  0.00    -0.744 OA
ENDBRANCH  76  77
ENDBRANCH  48  71
BRANCH  60  81
ATOM     81  C   UNL A   1      46.711  32.901  28.606  1.00  0.00    -0.014 A 
ATOM     82  C   UNL A   1      47.281  33.372  29.800  1.00  0.00     0.010 A 
ATOM     83  C   UNL A   1      46.616  33.764  27.499  1.00  0.00     0.010 A 
ATOM     84  C   UNL A   1      47.722  34.693  29.895  1.00  0.00     0.020 A 
ATOM     85  C   UNL A   1      47.079  35.078  27.582  1.00  0.00     0.020 A 
ATOM     86  C   UNL A   1      47.618  35.538  28.785  1.00  0.00     0.054 A 
BRANCH  86  87
ATOM     87  S   UNL A   1      48.240  37.236  28.918  1.00  0.00     0.124 S 
ATOM     88  O   UNL A   1      47.022  37.983  29.215  1.00  0.00    -0.237 OA
ATOM     89  O   UNL A   1      49.202  37.141  30.014  1.00  0.00    -0.237 OA
ATOM     90  O   UNL A   1      48.826  37.493  27.604  1.00  0.00    -0.744 OA
ENDBRANCH  86  87
ENDBRANCH  60  81
ENDBRANCH  34  35
ENDBRANCH  26  29
ENDBRANCH  24  25
ENDBRANCH   1  24
TORSDOF 15
ENDMDL
