MODEL 1
REMARK VINA RESULT:     -13.0      0.000      0.000
REMARK SMILES O=C(NCCCNC(=O)[C@H]1Cc2c([nH]c3ccccc23)[C@@H](c2ccc(OC(F)(F)F)cc2)[NH2+]1)c1ccc(-c2c3nc(c(-c4ccc(S(=O)(=O)[O-])cc4)c4ccc([nH]4)c(-c4ccc(S(=O)(=O)[O-])cc4)c4nc(c(-c5ccc(S(=O)(=O)[O-])cc5)c5ccc2[nH]5)C=C4)C=C3)cc1
REMARK SMILES IDX 5 1 4 2 3 3 1 4 2 5 34 7 35 8 93 9 36 10 92 11 37 12 38 13
REMARK SMILES IDX 39 14 86 15 40 16 91 17 85 18 87 19 41 20 90 21 84 22 83 23
REMARK SMILES IDX 42 25 72 26 53 27 71 28 54 29 57 30 70 31 88 32 55 33 56 34
REMARK SMILES IDX 69 36 89 37 58 38 43 39 44 40 52 41 45 42 51 43 46 44 47 45
REMARK SMILES IDX 48 46 49 47 50 48 73 49 74 50 82 51 75 52 81 53 76 54 77 55
REMARK SMILES IDX 78 56 79 57 80 58 59 59 60 60 68 61 61 62 67 63 62 64 63 65
REMARK SMILES IDX 64 66 65 67 66 68 6 69 7 70 8 71 9 73 10 74 11 75 33 76
REMARK SMILES IDX 12 77 21 78 13 81 20 82 14 83 15 84 19 85 16 87 18 88 17 89
REMARK SMILES IDX 22 90 23 91 32 92 24 93 31 94 25 95 26 96 27 97 28 98 29 99
REMARK SMILES IDX 30 100
REMARK H PARENT 3 6 87 24 57 35 7 72 33 79 33 80 14 86
REMARK Flexibility Score: inf
ROOT
ATOM      1  C   UNL A   1      37.289  23.506  25.540  1.00  0.00     0.042 C 
ENDROOT
BRANCH   1   2
ATOM      2  C   UNL A   1      38.169  24.251  26.527  1.00  0.00     0.118 C 
BRANCH   2   3
ATOM      3  N   UNL A   1      39.582  23.972  26.281  1.00  0.00    -0.352 N 
ATOM      4  O   UNL A   1      41.753  24.502  26.018  1.00  0.00    -0.269 OA
ATOM      5  C   UNL A   1      40.685  24.731  26.574  1.00  0.00     0.251 C 
ATOM      6  H   UNL A   1      39.770  23.111  25.841  1.00  0.00     0.163 HD
BRANCH   5   7
ATOM      7  C   UNL A   1      40.570  25.808  27.574  1.00  0.00     0.039 A 
ATOM      8  C   UNL A   1      39.692  25.654  28.649  1.00  0.00     0.014 A 
ATOM      9  C   UNL A   1      41.370  26.947  27.469  1.00  0.00     0.014 A 
ATOM     10  C   UNL A   1      39.508  26.690  29.544  1.00  0.00     0.010 A 
ATOM     11  C   UNL A   1      41.277  27.939  28.446  1.00  0.00     0.010 A 
ATOM     12  C   UNL A   1      40.345  27.813  29.489  1.00  0.00    -0.014 A 
BRANCH  12  13
ATOM     13  C   UNL A   1      40.337  28.744  30.637  1.00  0.00     0.031 A 
ATOM     14  C   UNL A   1      41.254  28.552  31.804  1.00  0.00     0.074 A 
ATOM     15  C   UNL A   1      39.477  29.782  30.584  1.00  0.00     0.049 A 
ATOM     16  N   UNL A   1      41.351  29.279  32.886  1.00  0.00    -0.248 NA
ATOM     17  C   UNL A   1      42.172  27.402  31.766  1.00  0.00     0.031 C 
ATOM     18  C   UNL A   1      38.536  30.042  29.484  1.00  0.00     0.029 A 
ATOM     19  N   UNL A   1      39.254  30.814  31.452  1.00  0.00    -0.354 N 
ATOM     20  C   UNL A   1      42.316  28.664  33.672  1.00  0.00     0.074 A 
ATOM     21  C   UNL A   1      42.775  27.498  32.945  1.00  0.00     0.031 C 
ATOM     22  C   UNL A   1      37.873  31.180  29.727  1.00  0.00     0.029 A 
ATOM     23  C   UNL A   1      38.270  31.679  31.035  1.00  0.00     0.049 A 
ATOM     24  H   UNL A   1      39.750  30.928  32.295  1.00  0.00     0.167 HD
ATOM     25  C   UNL A   1      42.764  29.042  34.890  1.00  0.00     0.031 A 
ATOM     26  C   UNL A   1      37.711  32.733  31.654  1.00  0.00     0.031 A 
ATOM     27  C   UNL A   1      42.294  30.211  35.588  1.00  0.00     0.049 A 
ATOM     28  C   UNL A   1      38.203  33.095  33.023  1.00  0.00     0.074 A 
ATOM     29  C   UNL A   1      42.730  30.717  36.801  1.00  0.00     0.029 A 
ATOM     30  N   UNL A   1      41.275  31.045  35.151  1.00  0.00    -0.354 N 
ATOM     31  N   UNL A   1      39.171  32.545  33.717  1.00  0.00    -0.248 NA
ATOM     32  C   UNL A   1      37.527  34.208  33.697  1.00  0.00     0.031 C 
ATOM     33  C   UNL A   1      41.925  31.812  37.130  1.00  0.00     0.029 A 
ATOM     34  C   UNL A   1      41.033  32.029  36.092  1.00  0.00     0.049 A 
ATOM     35  H   UNL A   1      40.795  30.949  34.296  1.00  0.00     0.167 HD
ATOM     36  C   UNL A   1      39.223  33.251  34.911  1.00  0.00     0.074 A 
ATOM     37  C   UNL A   1      38.216  34.290  34.827  1.00  0.00     0.031 C 
ATOM     38  C   UNL A   1      40.021  33.050  35.987  1.00  0.00     0.031 A 
BRANCH  25  39
ATOM     39  C   UNL A   1      43.786  28.179  35.582  1.00  0.00    -0.014 A 
ATOM     40  C   UNL A   1      45.143  28.540  35.621  1.00  0.00     0.010 A 
ATOM     41  C   UNL A   1      43.355  27.052  36.305  1.00  0.00     0.010 A 
ATOM     42  C   UNL A   1      46.052  27.786  36.372  1.00  0.00     0.020 A 
ATOM     43  C   UNL A   1      44.254  26.309  37.075  1.00  0.00     0.020 A 
ATOM     44  C   UNL A   1      45.599  26.680  37.100  1.00  0.00     0.054 A 
BRANCH  44  45
ATOM     45  S   UNL A   1      46.786  25.772  38.130  1.00  0.00     0.124 S 
ATOM     46  O   UNL A   1      47.156  24.662  37.256  1.00  0.00    -0.237 OA
ATOM     47  O   UNL A   1      47.832  26.766  38.360  1.00  0.00    -0.237 OA
ATOM     48  O   UNL A   1      46.010  25.401  39.312  1.00  0.00    -0.744 OA
ENDBRANCH  44  45
ENDBRANCH  25  39
BRANCH  26  49
ATOM     49  C   UNL A   1      36.577  33.458  31.020  1.00  0.00    -0.014 A 
ATOM     50  C   UNL A   1      35.309  33.490  31.623  1.00  0.00     0.010 A 
ATOM     51  C   UNL A   1      36.766  34.117  29.790  1.00  0.00     0.010 A 
ATOM     52  C   UNL A   1      34.241  34.130  30.986  1.00  0.00     0.020 A 
ATOM     53  C   UNL A   1      35.712  34.791  29.170  1.00  0.00     0.020 A 
ATOM     54  C   UNL A   1      34.450  34.772  29.762  1.00  0.00     0.054 A 
BRANCH  54  55
ATOM     55  S   UNL A   1      33.051  35.596  28.954  1.00  0.00     0.124 S 
ATOM     56  O   UNL A   1      32.276  36.062  30.099  1.00  0.00    -0.237 OA
ATOM     57  O   UNL A   1      33.708  36.636  28.167  1.00  0.00    -0.237 OA
ATOM     58  O   UNL A   1      32.433  34.529  28.170  1.00  0.00    -0.744 OA
ENDBRANCH  54  55
ENDBRANCH  26  49
BRANCH  38  59
ATOM     59  C   UNL A   1      39.840  33.979  37.154  1.00  0.00    -0.014 A 
ATOM     60  C   UNL A   1      40.369  35.282  37.127  1.00  0.00     0.010 A 
ATOM     61  C   UNL A   1      39.084  33.564  38.265  1.00  0.00     0.010 A 
ATOM     62  C   UNL A   1      40.166  36.146  38.204  1.00  0.00     0.020 A 
ATOM     63  C   UNL A   1      38.852  34.437  39.329  1.00  0.00     0.020 A 
ATOM     64  C   UNL A   1      39.403  35.720  39.296  1.00  0.00     0.054 A 
BRANCH  64  65
ATOM     65  S   UNL A   1      39.103  36.884  40.652  1.00  0.00     0.124 S 
ATOM     66  O   UNL A   1      38.134  36.158  41.468  1.00  0.00    -0.237 OA
ATOM     67  O   UNL A   1      40.431  37.038  41.240  1.00  0.00    -0.237 OA
ATOM     68  O   UNL A   1      38.584  38.074  39.979  1.00  0.00    -0.744 OA
ENDBRANCH  64  65
ENDBRANCH  38  59
ENDBRANCH  12  13
ENDBRANCH   5   7
ENDBRANCH   2   3
ENDBRANCH   1   2
BRANCH   1  69
ATOM     69  C   UNL A   1      35.824  23.653  25.914  1.00  0.00     0.118 C 
BRANCH  69  70
ATOM     70  N   UNL A   1      34.978  23.749  24.736  1.00  0.00    -0.351 N 
ATOM     71  C   UNL A   1      33.897  24.489  24.387  1.00  0.00     0.278 C 
ATOM     72  H   UNL A   1      35.255  23.129  24.023  1.00  0.00     0.163 HD
ATOM     73  O   UNL A   1      33.413  24.234  23.272  1.00  0.00    -0.268 OA
BRANCH  71  74
ATOM     74  C   UNL A   1      33.268  25.631  25.222  1.00  0.00     0.277 C 
ATOM     75  C   UNL A   1      34.193  26.791  25.558  1.00  0.00     0.114 C 
ATOM     76  N   UNL A   1      32.077  26.109  24.467  1.00  0.00    -0.325 N 
ATOM     77  C   UNL A   1      33.458  27.894  26.193  1.00  0.00    -0.006 A 
ATOM     78  C   UNL A   1      31.248  27.133  25.141  1.00  0.00     0.262 C 
ATOM     79  H   UNL A   1      31.482  25.303  24.277  1.00  0.00     0.347 HD
ATOM     80  H   UNL A   1      32.446  26.563  23.631  1.00  0.00     0.347 HD
ATOM     81  C   UNL A   1      32.106  28.043  25.985  1.00  0.00     0.083 A 
ATOM     82  C   UNL A   1      33.957  29.033  26.854  1.00  0.00     0.003 A 
ATOM     83  N   UNL A   1      31.731  29.189  26.645  1.00  0.00    -0.353 N 
ATOM     84  C   UNL A   1      32.859  29.859  27.093  1.00  0.00     0.046 A 
ATOM     85  C   UNL A   1      35.251  29.467  27.194  1.00  0.00     0.010 A 
ATOM     86  H   UNL A   1      30.803  29.488  26.779  1.00  0.00     0.166 HD
ATOM     87  C   UNL A   1      33.010  31.131  27.660  1.00  0.00     0.026 A 
ATOM     88  C   UNL A   1      35.416  30.736  27.748  1.00  0.00     0.001 A 
ATOM     89  C   UNL A   1      34.310  31.554  27.972  1.00  0.00     0.002 A 
BRANCH  78  90
ATOM     90  C   UNL A   1      30.452  27.845  24.041  1.00  0.00     0.016 A 
ATOM     91  C   UNL A   1      29.118  27.534  23.738  1.00  0.00     0.014 A 
ATOM     92  C   UNL A   1      31.032  28.937  23.367  1.00  0.00     0.014 A 
ATOM     93  C   UNL A   1      28.417  28.241  22.759  1.00  0.00     0.047 A 
ATOM     94  C   UNL A   1      30.315  29.672  22.412  1.00  0.00     0.047 A 
ATOM     95  C   UNL A   1      29.006  29.316  22.091  1.00  0.00     0.129 A 
BRANCH  95  96
ATOM     96  O   UNL A   1      28.197  29.914  21.170  1.00  0.00    -0.406 OA
BRANCH  96  97
ATOM     97  C   UNL A   1      28.106  31.326  21.189  1.00  0.00     0.573 C 
ATOM     98  F   UNL A   1      29.328  31.896  21.221  1.00  0.00    -0.132 F 
ATOM     99  F   UNL A   1      27.417  31.790  20.124  1.00  0.00    -0.132 F 
ATOM    100  F   UNL A   1      27.440  31.700  22.306  1.00  0.00    -0.132 F 
ENDBRANCH  96  97
ENDBRANCH  95  96
ENDBRANCH  78  90
ENDBRANCH  71  74
ENDBRANCH  69  70
ENDBRANCH   1  69
TORSDOF 16
ENDMDL
MODEL 2
REMARK VINA RESULT:     -12.6      5.071      9.076
REMARK SMILES O=C(NCCCNC(=O)[C@H]1Cc2c([nH]c3ccccc23)[C@@H](c2ccc(OC(F)(F)F)cc2)[NH2+]1)c1ccc(-c2c3nc(c(-c4ccc(S(=O)(=O)[O-])cc4)c4ccc([nH]4)c(-c4ccc(S(=O)(=O)[O-])cc4)c4nc(c(-c5ccc(S(=O)(=O)[O-])cc5)c5ccc2[nH]5)C=C4)C=C3)cc1
REMARK SMILES IDX 5 1 4 2 3 3 1 4 2 5 34 7 35 8 93 9 36 10 92 11 37 12 38 13
REMARK SMILES IDX 39 14 86 15 40 16 91 17 85 18 87 19 41 20 90 21 84 22 83 23
REMARK SMILES IDX 42 25 72 26 53 27 71 28 54 29 57 30 70 31 88 32 55 33 56 34
REMARK SMILES IDX 69 36 89 37 58 38 43 39 44 40 52 41 45 42 51 43 46 44 47 45
REMARK SMILES IDX 48 46 49 47 50 48 73 49 74 50 82 51 75 52 81 53 76 54 77 55
REMARK SMILES IDX 78 56 79 57 80 58 59 59 60 60 68 61 61 62 67 63 62 64 63 65
REMARK SMILES IDX 64 66 65 67 66 68 6 69 7 70 8 71 9 73 10 74 11 75 33 76
REMARK SMILES IDX 12 77 21 78 13 81 20 82 14 83 15 84 19 85 16 87 18 88 17 89
REMARK SMILES IDX 22 90 23 91 32 92 24 93 31 94 25 95 26 96 27 97 28 98 29 99
REMARK SMILES IDX 30 100
REMARK H PARENT 3 6 87 24 57 35 7 72 33 79 33 80 14 86
REMARK Flexibility Score: inf
ROOT
ATOM      1  C   UNL A   1      35.935  21.765  25.598  1.00  0.00     0.042 C 
ENDROOT
BRANCH   1   2
ATOM      2  C   UNL A   1      37.279  22.460  25.719  1.00  0.00     0.118 C 
BRANCH   2   3
ATOM      3  N   UNL A   1      38.333  21.505  26.054  1.00  0.00    -0.352 N 
ATOM      4  O   UNL A   1      40.460  20.822  26.319  1.00  0.00    -0.269 OA
ATOM      5  C   UNL A   1      39.644  21.733  26.384  1.00  0.00     0.251 C 
ATOM      6  H   UNL A   1      38.062  20.558  26.041  1.00  0.00     0.163 HD
BRANCH   5   7
ATOM      7  C   UNL A   1      40.047  23.078  26.833  1.00  0.00     0.039 A 
ATOM      8  C   UNL A   1      40.772  23.218  28.018  1.00  0.00     0.014 A 
ATOM      9  C   UNL A   1      39.747  24.195  26.049  1.00  0.00     0.014 A 
ATOM     10  C   UNL A   1      41.079  24.478  28.495  1.00  0.00     0.010 A 
ATOM     11  C   UNL A   1      40.170  25.457  26.468  1.00  0.00     0.010 A 
ATOM     12  C   UNL A   1      40.839  25.602  27.693  1.00  0.00    -0.014 A 
BRANCH  12  13
ATOM     13  C   UNL A   1      41.461  26.883  28.089  1.00  0.00     0.031 A 
ATOM     14  C   UNL A   1      40.647  28.003  28.659  1.00  0.00     0.074 A 
ATOM     15  C   UNL A   1      42.795  26.999  27.924  1.00  0.00     0.049 A 
ATOM     16  N   UNL A   1      41.052  29.186  29.039  1.00  0.00    -0.248 NA
ATOM     17  C   UNL A   1      39.201  27.779  28.820  1.00  0.00     0.031 C 
ATOM     18  C   UNL A   1      43.669  25.958  27.363  1.00  0.00     0.029 A 
ATOM     19  N   UNL A   1      43.655  28.021  28.216  1.00  0.00    -0.354 N 
ATOM     20  C   UNL A   1      39.912  29.861  29.457  1.00  0.00     0.074 A 
ATOM     21  C   UNL A   1      38.795  28.957  29.280  1.00  0.00     0.031 C 
ATOM     22  C   UNL A   1      44.939  26.381  27.394  1.00  0.00     0.029 A 
ATOM     23  C   UNL A   1      44.962  27.750  27.885  1.00  0.00     0.049 A 
ATOM     24  H   UNL A   1      43.366  28.870  28.623  1.00  0.00     0.167 HD
ATOM     25  C   UNL A   1      39.820  31.123  29.933  1.00  0.00     0.031 A 
ATOM     26  C   UNL A   1      46.055  28.531  27.926  1.00  0.00     0.031 A 
ATOM     27  C   UNL A   1      40.950  31.999  30.105  1.00  0.00     0.049 A 
ATOM     28  C   UNL A   1      45.904  29.938  28.420  1.00  0.00     0.074 A 
ATOM     29  C   UNL A   1      40.969  33.275  30.641  1.00  0.00     0.029 A 
ATOM     30  N   UNL A   1      42.252  31.703  29.730  1.00  0.00    -0.354 N 
ATOM     31  N   UNL A   1      44.829  30.533  28.882  1.00  0.00    -0.248 NA
ATOM     32  C   UNL A   1      47.102  30.783  28.390  1.00  0.00     0.031 C 
ATOM     33  C   UNL A   1      42.269  33.777  30.521  1.00  0.00     0.029 A 
ATOM     34  C   UNL A   1      43.073  32.790  29.974  1.00  0.00     0.049 A 
ATOM     35  H   UNL A   1      42.548  30.845  29.347  1.00  0.00     0.167 HD
ATOM     36  C   UNL A   1      45.226  31.824  29.203  1.00  0.00     0.074 A 
ATOM     37  C   UNL A   1      46.644  31.909  28.919  1.00  0.00     0.031 C 
ATOM     38  C   UNL A   1      44.481  32.851  29.678  1.00  0.00     0.031 A 
BRANCH  25  39
ATOM     39  C   UNL A   1      38.457  31.665  30.274  1.00  0.00    -0.014 A 
ATOM     40  C   UNL A   1      37.785  31.277  31.446  1.00  0.00     0.010 A 
ATOM     41  C   UNL A   1      37.897  32.671  29.465  1.00  0.00     0.010 A 
ATOM     42  C   UNL A   1      36.577  31.885  31.801  1.00  0.00     0.020 A 
ATOM     43  C   UNL A   1      36.702  33.298  29.827  1.00  0.00     0.020 A 
ATOM     44  C   UNL A   1      36.048  32.898  30.993  1.00  0.00     0.054 A 
BRANCH  44  45
ATOM     45  S   UNL A   1      34.522  33.725  31.523  1.00  0.00     0.124 S 
ATOM     46  O   UNL A   1      35.035  34.971  32.088  1.00  0.00    -0.237 OA
ATOM     47  O   UNL A   1      33.782  33.862  30.270  1.00  0.00    -0.237 OA
ATOM     48  O   UNL A   1      33.940  32.797  32.490  1.00  0.00    -0.744 OA
ENDBRANCH  44  45
ENDBRANCH  25  39
BRANCH  26  49
ATOM     49  C   UNL A   1      47.356  28.023  27.413  1.00  0.00    -0.014 A 
ATOM     50  C   UNL A   1      48.306  27.457  28.279  1.00  0.00     0.010 A 
ATOM     51  C   UNL A   1      47.653  28.119  26.039  1.00  0.00     0.010 A 
ATOM     52  C   UNL A   1      49.545  27.036  27.787  1.00  0.00     0.020 A 
ATOM     53  C   UNL A   1      48.874  27.663  25.539  1.00  0.00     0.020 A 
ATOM     54  C   UNL A   1      49.821  27.146  26.421  1.00  0.00     0.054 A 
BRANCH  54  55
ATOM     55  S   UNL A   1      51.435  26.592  25.806  1.00  0.00     0.124 S 
ATOM     56  O   UNL A   1      51.302  26.814  24.370  1.00  0.00    -0.237 OA
ATOM     57  O   UNL A   1      52.361  27.483  26.501  1.00  0.00    -0.237 OA
ATOM     58  O   UNL A   1      51.497  25.193  26.222  1.00  0.00    -0.744 OA
ENDBRANCH  54  55
ENDBRANCH  26  49
BRANCH  38  59
ATOM     59  C   UNL A   1      45.193  34.152  29.924  1.00  0.00    -0.014 A 
ATOM     60  C   UNL A   1      45.253  35.141  28.926  1.00  0.00     0.010 A 
ATOM     61  C   UNL A   1      45.759  34.409  31.186  1.00  0.00     0.010 A 
ATOM     62  C   UNL A   1      45.889  36.357  29.179  1.00  0.00     0.020 A 
ATOM     63  C   UNL A   1      46.367  35.637  31.451  1.00  0.00     0.020 A 
ATOM     64  C   UNL A   1      46.437  36.599  30.442  1.00  0.00     0.054 A 
BRANCH  64  65
ATOM     65  S   UNL A   1      47.202  38.212  30.762  1.00  0.00     0.124 S 
ATOM     66  O   UNL A   1      47.585  38.639  29.419  1.00  0.00    -0.237 OA
ATOM     67  O   UNL A   1      46.112  38.966  31.375  1.00  0.00    -0.237 OA
ATOM     68  O   UNL A   1      48.314  37.897  31.656  1.00  0.00    -0.744 OA
ENDBRANCH  64  65
ENDBRANCH  38  59
ENDBRANCH  12  13
ENDBRANCH   5   7
ENDBRANCH   2   3
ENDBRANCH   1   2
BRANCH   1  69
ATOM     69  C   UNL A   1      34.801  22.760  25.775  1.00  0.00     0.118 C 
BRANCH  69  70
ATOM     70  N   UNL A   1      34.266  23.195  24.495  1.00  0.00    -0.351 N 
ATOM     71  C   UNL A   1      33.476  24.216  24.082  1.00  0.00     0.278 C 
ATOM     72  H   UNL A   1      34.544  22.610  23.754  1.00  0.00     0.163 HD
ATOM     73  O   UNL A   1      33.194  24.217  22.872  1.00  0.00    -0.268 OA
BRANCH  71  74
ATOM     74  C   UNL A   1      32.954  25.377  24.962  1.00  0.00     0.277 C 
ATOM     75  C   UNL A   1      33.974  26.450  25.314  1.00  0.00     0.114 C 
ATOM     76  N   UNL A   1      31.792  25.971  24.245  1.00  0.00    -0.325 N 
ATOM     77  C   UNL A   1      33.341  27.587  25.996  1.00  0.00    -0.006 A 
ATOM     78  C   UNL A   1      31.059  27.037  24.965  1.00  0.00     0.262 C 
ATOM     79  H   UNL A   1      31.132  25.221  24.043  1.00  0.00     0.347 HD
ATOM     80  H   UNL A   1      32.182  26.420  23.416  1.00  0.00     0.347 HD
ATOM     81  C   UNL A   1      32.002  27.849  25.819  1.00  0.00     0.083 A 
ATOM     82  C   UNL A   1      33.940  28.662  26.680  1.00  0.00     0.003 A 
ATOM     83  N   UNL A   1      31.731  29.000  26.520  1.00  0.00    -0.353 N 
ATOM     84  C   UNL A   1      32.916  29.564  26.966  1.00  0.00     0.046 A 
ATOM     85  C   UNL A   1      35.270  28.982  27.008  1.00  0.00     0.010 A 
ATOM     86  H   UNL A   1      30.832  29.368  26.681  1.00  0.00     0.166 HD
ATOM     87  C   UNL A   1      33.177  30.802  27.566  1.00  0.00     0.026 A 
ATOM     88  C   UNL A   1      35.545  30.216  27.596  1.00  0.00     0.001 A 
ATOM     89  C   UNL A   1      34.512  31.112  27.865  1.00  0.00     0.002 A 
BRANCH  78  90
ATOM     90  C   UNL A   1      30.304  27.843  23.903  1.00  0.00     0.016 A 
ATOM     91  C   UNL A   1      28.916  27.757  23.720  1.00  0.00     0.014 A 
ATOM     92  C   UNL A   1      30.999  28.800  23.140  1.00  0.00     0.014 A 
ATOM     93  C   UNL A   1      28.263  28.546  22.771  1.00  0.00     0.047 A 
ATOM     94  C   UNL A   1      30.338  29.619  22.215  1.00  0.00     0.047 A 
ATOM     95  C   UNL A   1      28.965  29.484  22.014  1.00  0.00     0.129 A 
BRANCH  95  96
ATOM     96  O   UNL A   1      28.193  30.186  21.135  1.00  0.00    -0.406 OA
BRANCH  96  97
ATOM     97  C   UNL A   1      28.159  31.595  21.264  1.00  0.00     0.573 C 
ATOM     98  F   UNL A   1      29.365  32.083  21.623  1.00  0.00    -0.132 F 
ATOM     99  F   UNL A   1      27.753  32.185  20.119  1.00  0.00    -0.132 F 
ATOM    100  F   UNL A   1      27.271  31.917  22.232  1.00  0.00    -0.132 F 
ENDBRANCH  96  97
ENDBRANCH  95  96
ENDBRANCH  78  90
ENDBRANCH  71  74
ENDBRANCH  69  70
ENDBRANCH   1  69
TORSDOF 16
ENDMDL
MODEL 3
REMARK VINA RESULT:     -12.6      5.596      8.752
REMARK SMILES O=C(NCCCNC(=O)[C@H]1Cc2c([nH]c3ccccc23)[C@@H](c2ccc(OC(F)(F)F)cc2)[NH2+]1)c1ccc(-c2c3nc(c(-c4ccc(S(=O)(=O)[O-])cc4)c4ccc([nH]4)c(-c4ccc(S(=O)(=O)[O-])cc4)c4nc(c(-c5ccc(S(=O)(=O)[O-])cc5)c5ccc2[nH]5)C=C4)C=C3)cc1
REMARK SMILES IDX 5 1 4 2 3 3 1 4 2 5 34 7 35 8 93 9 36 10 92 11 37 12 38 13
REMARK SMILES IDX 39 14 86 15 40 16 91 17 85 18 87 19 41 20 90 21 84 22 83 23
REMARK SMILES IDX 42 25 72 26 53 27 71 28 54 29 57 30 70 31 88 32 55 33 56 34
REMARK SMILES IDX 69 36 89 37 58 38 43 39 44 40 52 41 45 42 51 43 46 44 47 45
REMARK SMILES IDX 48 46 49 47 50 48 73 49 74 50 82 51 75 52 81 53 76 54 77 55
REMARK SMILES IDX 78 56 79 57 80 58 59 59 60 60 68 61 61 62 67 63 62 64 63 65
REMARK SMILES IDX 64 66 65 67 66 68 6 69 7 70 8 71 9 73 10 74 11 75 33 76
REMARK SMILES IDX 12 77 21 78 13 81 20 82 14 83 15 84 19 85 16 87 18 88 17 89
REMARK SMILES IDX 22 90 23 91 32 92 24 93 31 94 25 95 26 96 27 97 28 98 29 99
REMARK SMILES IDX 30 100
REMARK H PARENT 3 6 87 24 57 35 7 72 33 79 33 80 14 86
REMARK Flexibility Score: inf
ROOT
ATOM      1  C   UNL A   1      43.533  22.921  28.100  1.00  0.00     0.042 C 
ENDROOT
BRANCH   1   2
ATOM      2  C   UNL A   1      42.050  23.069  28.388  1.00  0.00     0.118 C 
BRANCH   2   3
ATOM      3  N   UNL A   1      41.311  23.396  27.171  1.00  0.00    -0.352 N 
ATOM      4  O   UNL A   1      39.652  24.344  25.982  1.00  0.00    -0.269 OA
ATOM      5  C   UNL A   1      40.412  24.406  26.941  1.00  0.00     0.251 C 
ATOM      6  H   UNL A   1      41.484  22.806  26.402  1.00  0.00     0.163 HD
BRANCH   5   7
ATOM      7  C   UNL A   1      40.387  25.565  27.851  1.00  0.00     0.039 A 
ATOM      8  C   UNL A   1      39.380  25.661  28.813  1.00  0.00     0.014 A 
ATOM      9  C   UNL A   1      41.394  26.530  27.779  1.00  0.00     0.014 A 
ATOM     10  C   UNL A   1      39.293  26.785  29.613  1.00  0.00     0.010 A 
ATOM     11  C   UNL A   1      41.378  27.601  28.674  1.00  0.00     0.010 A 
ATOM     12  C   UNL A   1      40.327  27.731  29.596  1.00  0.00    -0.014 A 
BRANCH  12  13
ATOM     13  C   UNL A   1      40.364  28.741  30.674  1.00  0.00     0.031 A 
ATOM     14  C   UNL A   1      41.335  28.637  31.808  1.00  0.00     0.074 A 
ATOM     15  C   UNL A   1      39.492  29.767  30.588  1.00  0.00     0.049 A 
ATOM     16  N   UNL A   1      41.475  29.440  32.830  1.00  0.00    -0.248 NA
ATOM     17  C   UNL A   1      42.261  27.493  31.808  1.00  0.00     0.031 C 
ATOM     18  C   UNL A   1      38.500  29.944  29.519  1.00  0.00     0.029 A 
ATOM     19  N   UNL A   1      39.301  30.857  31.392  1.00  0.00    -0.354 N 
ATOM     20  C   UNL A   1      42.482  28.887  33.612  1.00  0.00     0.074 A 
ATOM     21  C   UNL A   1      42.917  27.676  32.949  1.00  0.00     0.031 C 
ATOM     22  C   UNL A   1      37.839  31.092  29.712  1.00  0.00     0.029 A 
ATOM     23  C   UNL A   1      38.290  31.685  30.960  1.00  0.00     0.049 A 
ATOM     24  H   UNL A   1      39.834  31.033  32.201  1.00  0.00     0.167 HD
ATOM     25  C   UNL A   1      42.981  29.354  34.779  1.00  0.00     0.031 A 
ATOM     26  C   UNL A   1      37.751  32.776  31.530  1.00  0.00     0.031 A 
ATOM     27  C   UNL A   1      42.533  30.566  35.413  1.00  0.00     0.049 A 
ATOM     28  C   UNL A   1      38.303  33.238  32.845  1.00  0.00     0.074 A 
ATOM     29  C   UNL A   1      43.020  31.159  36.566  1.00  0.00     0.029 A 
ATOM     30  N   UNL A   1      41.488  31.361  34.966  1.00  0.00    -0.354 N 
ATOM     31  N   UNL A   1      39.307  32.744  33.530  1.00  0.00    -0.248 NA
ATOM     32  C   UNL A   1      37.648  34.391  33.470  1.00  0.00     0.031 C 
ATOM     33  C   UNL A   1      42.221  32.270  36.854  1.00  0.00     0.029 A 
ATOM     34  C   UNL A   1      41.280  32.408  35.847  1.00  0.00     0.049 A 
ATOM     35  H   UNL A   1      40.970  31.202  34.143  1.00  0.00     0.167 HD
ATOM     36  C   UNL A   1      39.406  33.532  34.668  1.00  0.00     0.074 A 
ATOM     37  C   UNL A   1      38.388  34.557  34.558  1.00  0.00     0.031 C 
ATOM     38  C   UNL A   1      40.256  33.413  35.716  1.00  0.00     0.031 A 
BRANCH  25  39
ATOM     39  C   UNL A   1      44.042  28.548  35.481  1.00  0.00    -0.014 A 
ATOM     40  C   UNL A   1      45.409  28.768  35.240  1.00  0.00     0.010 A 
ATOM     41  C   UNL A   1      43.660  27.640  36.486  1.00  0.00     0.010 A 
ATOM     42  C   UNL A   1      46.375  28.092  35.992  1.00  0.00     0.020 A 
ATOM     43  C   UNL A   1      44.621  26.979  37.256  1.00  0.00     0.020 A 
ATOM     44  C   UNL A   1      45.974  27.208  37.001  1.00  0.00     0.054 A 
BRANCH  44  45
ATOM     45  S   UNL A   1      47.250  26.410  38.016  1.00  0.00     0.124 S 
ATOM     46  O   UNL A   1      48.475  26.805  37.324  1.00  0.00    -0.237 OA
ATOM     47  O   UNL A   1      47.044  27.023  39.326  1.00  0.00    -0.237 OA
ATOM     48  O   UNL A   1      46.921  24.989  37.935  1.00  0.00    -0.744 OA
ENDBRANCH  44  45
ENDBRANCH  25  39
BRANCH  26  49
ATOM     49  C   UNL A   1      36.582  33.448  30.899  1.00  0.00    -0.014 A 
ATOM     50  C   UNL A   1      36.640  33.912  29.576  1.00  0.00     0.010 A 
ATOM     51  C   UNL A   1      35.398  33.636  31.639  1.00  0.00     0.010 A 
ATOM     52  C   UNL A   1      35.551  34.589  29.018  1.00  0.00     0.020 A 
ATOM     53  C   UNL A   1      34.295  34.277  31.073  1.00  0.00     0.020 A 
ATOM     54  C   UNL A   1      34.388  34.770  29.773  1.00  0.00     0.054 A 
BRANCH  54  55
ATOM     55  S   UNL A   1      32.989  35.651  29.028  1.00  0.00     0.124 S 
ATOM     56  O   UNL A   1      32.221  36.045  30.205  1.00  0.00    -0.237 OA
ATOM     57  O   UNL A   1      33.647  36.738  28.307  1.00  0.00    -0.237 OA
ATOM     58  O   UNL A   1      32.361  34.640  28.180  1.00  0.00    -0.744 OA
ENDBRANCH  54  55
ENDBRANCH  26  49
BRANCH  38  59
ATOM     59  C   UNL A   1      40.120  34.422  36.822  1.00  0.00    -0.014 A 
ATOM     60  C   UNL A   1      40.680  35.706  36.700  1.00  0.00     0.010 A 
ATOM     61  C   UNL A   1      39.376  34.100  37.972  1.00  0.00     0.010 A 
ATOM     62  C   UNL A   1      40.519  36.643  37.720  1.00  0.00     0.020 A 
ATOM     63  C   UNL A   1      39.186  35.047  38.980  1.00  0.00     0.020 A 
ATOM     64  C   UNL A   1      39.767  36.310  38.851  1.00  0.00     0.054 A 
BRANCH  64  65
ATOM     65  S   UNL A   1      39.522  37.569  40.133  1.00  0.00     0.124 S 
ATOM     66  O   UNL A   1      40.852  38.164  40.233  1.00  0.00    -0.237 OA
ATOM     67  O   UNL A   1      38.493  38.423  39.547  1.00  0.00    -0.237 OA
ATOM     68  O   UNL A   1      39.095  36.798  41.299  1.00  0.00    -0.744 OA
ENDBRANCH  64  65
ENDBRANCH  38  59
ENDBRANCH  12  13
ENDBRANCH   5   7
ENDBRANCH   2   3
ENDBRANCH   1   2
BRANCH   1  69
ATOM     69  C   UNL A   1      43.943  23.815  26.942  1.00  0.00     0.118 C 
BRANCH  69  70
ATOM     70  N   UNL A   1      45.371  23.732  26.683  1.00  0.00    -0.351 N 
ATOM     71  C   UNL A   1      46.458  24.457  27.049  1.00  0.00     0.278 C 
ATOM     72  H   UNL A   1      45.605  22.970  26.104  1.00  0.00     0.163 HD
ATOM     73  O   UNL A   1      47.538  24.081  26.565  1.00  0.00    -0.268 OA
BRANCH  71  74
ATOM     74  C   UNL A   1      46.465  25.649  28.036  1.00  0.00     0.277 C 
ATOM     75  C   UNL A   1      45.408  26.715  27.793  1.00  0.00     0.114 C 
ATOM     76  N   UNL A   1      46.330  25.076  29.403  1.00  0.00    -0.325 N 
ATOM     77  C   UNL A   1      45.385  27.704  28.880  1.00  0.00    -0.006 A 
ATOM     78  C   UNL A   1      46.429  26.037  30.524  1.00  0.00     0.262 C 
ATOM     79  H   UNL A   1      47.065  24.379  29.524  1.00  0.00     0.347 HD
ATOM     80  H   UNL A   1      45.384  24.698  29.449  1.00  0.00     0.347 HD
ATOM     81  C   UNL A   1      45.850  27.375  30.132  1.00  0.00     0.083 A 
ATOM     82  C   UNL A   1      44.733  28.950  28.937  1.00  0.00     0.003 A 
ATOM     83  N   UNL A   1      45.632  28.470  30.933  1.00  0.00    -0.353 N 
ATOM     84  C   UNL A   1      44.862  29.400  30.251  1.00  0.00     0.046 A 
ATOM     85  C   UNL A   1      43.978  29.694  28.011  1.00  0.00     0.010 A 
ATOM     86  H   UNL A   1      45.970  28.578  31.851  1.00  0.00     0.166 HD
ATOM     87  C   UNL A   1      44.244  30.579  30.686  1.00  0.00     0.026 A 
ATOM     88  C   UNL A   1      43.349  30.863  28.434  1.00  0.00     0.001 A 
ATOM     89  C   UNL A   1      43.478  31.294  29.753  1.00  0.00     0.002 A 
BRANCH  78  90
ATOM     90  C   UNL A   1      45.750  25.376  31.729  1.00  0.00     0.016 A 
ATOM     91  C   UNL A   1      46.072  25.691  33.057  1.00  0.00     0.014 A 
ATOM     92  C   UNL A   1      44.677  24.490  31.515  1.00  0.00     0.014 A 
ATOM     93  C   UNL A   1      45.395  25.096  34.124  1.00  0.00     0.047 A 
ATOM     94  C   UNL A   1      43.971  23.923  32.586  1.00  0.00     0.047 A 
ATOM     95  C   UNL A   1      44.339  24.213  33.899  1.00  0.00     0.129 A 
BRANCH  95  96
ATOM     96  O   UNL A   1      43.769  23.720  35.036  1.00  0.00    -0.406 OA
BRANCH  96  97
ATOM     97  C   UNL A   1      42.501  24.225  35.411  1.00  0.00     0.573 C 
ATOM     98  F   UNL A   1      41.514  23.371  35.068  1.00  0.00    -0.132 F 
ATOM     99  F   UNL A   1      42.442  24.474  36.738  1.00  0.00    -0.132 F 
ATOM    100  F   UNL A   1      42.292  25.392  34.761  1.00  0.00    -0.132 F 
ENDBRANCH  96  97
ENDBRANCH  95  96
ENDBRANCH  78  90
ENDBRANCH  71  74
ENDBRANCH  69  70
ENDBRANCH   1  69
TORSDOF 16
ENDMDL
