MODEL 1
REMARK VINA RESULT:     -11.6      0.000      0.000
REMARK SMILES O=C(NCCCNC(=O)[C@H](CO)NC(=O)[C@H](Cc1c[nH]c2ccccc12)NC(=O)c1ccc(F)cc1)c1ccc(-c2c3nc(c(-c4ccc(S(=O)(=O)[O-])cc4)c4ccc([nH]4)c(-c4ccc(S(=O)(=O)[O-])cc4)c4nc(c(-c5ccc(S(=O)(=O)[O-])cc5)c5ccc2[nH]5)C=C4)C=C3)cc1
REMARK SMILES IDX 5 1 4 2 3 3 1 4 2 5 37 7 38 8 96 9 39 10 95 11 40 12 41 13
REMARK SMILES IDX 42 14 89 15 43 16 94 17 88 18 90 19 44 20 93 21 87 22 86 23
REMARK SMILES IDX 45 25 75 26 56 27 74 28 57 29 60 30 73 31 91 32 58 33 59 34
REMARK SMILES IDX 72 36 92 37 61 38 46 39 47 40 55 41 48 42 54 43 49 44 50 45
REMARK SMILES IDX 51 46 52 47 53 48 76 49 77 50 85 51 78 52 84 53 79 54 80 55
REMARK SMILES IDX 81 56 82 57 83 58 62 59 63 60 71 61 64 62 70 63 65 64 66 65
REMARK SMILES IDX 67 66 68 67 69 68 6 69 7 70 8 71 9 73 10 74 13 75 14 76
REMARK SMILES IDX 15 78 16 79 27 80 28 81 29 83 30 84 31 85 36 86 32 87 35 88
REMARK SMILES IDX 33 89 34 90 17 91 18 92 19 93 26 94 20 95 21 96 25 97 22 99
REMARK SMILES IDX 24 100 23 101 11 102 12 103
REMARK H PARENT 3 6 90 24 60 35 7 72 13 77 27 82 20 98 12 104
REMARK Flexibility Score: inf
ROOT
ATOM      1  C   UNL A   1      36.541  22.993  24.375  1.00  0.00     0.042 C 
ENDROOT
BRANCH   1   2
ATOM      2  C   UNL A   1      37.121  22.997  25.778  1.00  0.00     0.118 C 
BRANCH   2   3
ATOM      3  N   UNL A   1      38.020  21.881  26.025  1.00  0.00    -0.352 N 
ATOM      4  O   UNL A   1      40.000  20.872  26.405  1.00  0.00    -0.269 OA
ATOM      5  C   UNL A   1      39.344  21.908  26.396  1.00  0.00     0.251 C 
ATOM      6  H   UNL A   1      37.628  20.984  25.911  1.00  0.00     0.163 HD
BRANCH   5   7
ATOM      7  C   UNL A   1      39.963  23.202  26.750  1.00  0.00     0.039 A 
ATOM      8  C   UNL A   1      40.742  23.307  27.904  1.00  0.00     0.014 A 
ATOM      9  C   UNL A   1      39.732  24.324  25.951  1.00  0.00     0.014 A 
ATOM     10  C   UNL A   1      41.126  24.557  28.359  1.00  0.00     0.010 A 
ATOM     11  C   UNL A   1      40.246  25.564  26.340  1.00  0.00     0.010 A 
ATOM     12  C   UNL A   1      40.927  25.696  27.560  1.00  0.00    -0.014 A 
BRANCH  12  13
ATOM     13  C   UNL A   1      41.557  26.972  27.986  1.00  0.00     0.031 A 
ATOM     14  C   UNL A   1      40.752  28.110  28.546  1.00  0.00     0.074 A 
ATOM     15  C   UNL A   1      42.900  27.066  27.896  1.00  0.00     0.049 A 
ATOM     16  N   UNL A   1      41.175  29.263  28.996  1.00  0.00    -0.248 NA
ATOM     17  C   UNL A   1      39.290  27.944  28.607  1.00  0.00     0.031 C 
ATOM     18  C   UNL A   1      43.785  26.024  27.357  1.00  0.00     0.029 A 
ATOM     19  N   UNL A   1      43.763  28.058  28.280  1.00  0.00    -0.354 N 
ATOM     20  C   UNL A   1      40.041  29.964  29.388  1.00  0.00     0.074 A 
ATOM     21  C   UNL A   1      38.905  29.120  29.088  1.00  0.00     0.031 C 
ATOM     22  C   UNL A   1      45.060  26.403  27.508  1.00  0.00     0.029 A 
ATOM     23  C   UNL A   1      45.086  27.749  28.059  1.00  0.00     0.049 A 
ATOM     24  H   UNL A   1      43.466  28.910  28.673  1.00  0.00     0.167 HD
ATOM     25  C   UNL A   1      39.961  31.194  29.953  1.00  0.00     0.031 A 
ATOM     26  C   UNL A   1      46.201  28.477  28.246  1.00  0.00     0.031 A 
ATOM     27  C   UNL A   1      41.102  32.030  30.234  1.00  0.00     0.049 A 
ATOM     28  C   UNL A   1      46.068  29.861  28.810  1.00  0.00     0.074 A 
ATOM     29  C   UNL A   1      41.123  33.284  30.820  1.00  0.00     0.029 A 
ATOM     30  N   UNL A   1      42.420  31.706  29.946  1.00  0.00    -0.354 N 
ATOM     31  N   UNL A   1      44.987  30.486  29.213  1.00  0.00    -0.248 NA
ATOM     32  C   UNL A   1      47.306  30.636  28.950  1.00  0.00     0.031 C 
ATOM     33  C   UNL A   1      42.441  33.748  30.817  1.00  0.00     0.029 A 
ATOM     34  C   UNL A   1      43.256  32.750  30.311  1.00  0.00     0.049 A 
ATOM     35  H   UNL A   1      42.718  30.859  29.542  1.00  0.00     0.167 HD
ATOM     36  C   UNL A   1      45.421  31.720  29.680  1.00  0.00     0.074 A 
ATOM     37  C   UNL A   1      46.863  31.734  29.545  1.00  0.00     0.031 C 
ATOM     38  C   UNL A   1      44.692  32.754  30.168  1.00  0.00     0.031 A 
BRANCH  25  39
ATOM     39  C   UNL A   1      38.593  31.730  30.298  1.00  0.00    -0.014 A 
ATOM     40  C   UNL A   1      38.017  31.501  31.560  1.00  0.00     0.010 A 
ATOM     41  C   UNL A   1      37.918  32.560  29.382  1.00  0.00     0.010 A 
ATOM     42  C   UNL A   1      36.786  32.076  31.894  1.00  0.00     0.020 A 
ATOM     43  C   UNL A   1      36.703  33.162  29.723  1.00  0.00     0.020 A 
ATOM     44  C   UNL A   1      36.142  32.911  30.975  1.00  0.00     0.054 A 
BRANCH  44  45
ATOM     45  S   UNL A   1      34.578  33.694  31.463  1.00  0.00     0.124 S 
ATOM     46  O   UNL A   1      33.987  32.676  32.329  1.00  0.00    -0.237 OA
ATOM     47  O   UNL A   1      35.029  34.909  32.137  1.00  0.00    -0.237 OA
ATOM     48  O   UNL A   1      33.885  33.907  30.195  1.00  0.00    -0.744 OA
ENDBRANCH  44  45
ENDBRANCH  25  39
BRANCH  26  49
ATOM     49  C   UNL A   1      47.529  27.933  27.846  1.00  0.00    -0.014 A 
ATOM     50  C   UNL A   1      48.322  27.212  28.756  1.00  0.00     0.010 A 
ATOM     51  C   UNL A   1      48.022  28.166  26.548  1.00  0.00     0.010 A 
ATOM     52  C   UNL A   1      49.599  26.779  28.390  1.00  0.00     0.020 A 
ATOM     53  C   UNL A   1      49.277  27.693  26.163  1.00  0.00     0.020 A 
ATOM     54  C   UNL A   1      50.068  27.023  27.096  1.00  0.00     0.054 A 
BRANCH  54  55
ATOM     55  S   UNL A   1      51.727  26.449  26.644  1.00  0.00     0.124 S 
ATOM     56  O   UNL A   1      52.557  27.092  27.659  1.00  0.00    -0.237 OA
ATOM     57  O   UNL A   1      51.598  24.999  26.758  1.00  0.00    -0.237 OA
ATOM     58  O   UNL A   1      51.904  26.950  25.283  1.00  0.00    -0.744 OA
ENDBRANCH  54  55
ENDBRANCH  26  49
BRANCH  38  59
ATOM     59  C   UNL A   1      45.453  33.970  30.629  1.00  0.00    -0.014 A 
ATOM     60  C   UNL A   1      45.875  34.111  31.964  1.00  0.00     0.010 A 
ATOM     61  C   UNL A   1      45.760  34.987  29.705  1.00  0.00     0.010 A 
ATOM     62  C   UNL A   1      46.539  35.268  32.378  1.00  0.00     0.020 A 
ATOM     63  C   UNL A   1      46.462  36.126  30.106  1.00  0.00     0.020 A 
ATOM     64  C   UNL A   1      46.829  36.269  31.445  1.00  0.00     0.054 A 
BRANCH  64  65
ATOM     65  S   UNL A   1      47.712  37.748  32.006  1.00  0.00     0.124 S 
ATOM     66  O   UNL A   1      48.115  37.369  33.358  1.00  0.00    -0.237 OA
ATOM     67  O   UNL A   1      48.797  37.857  31.035  1.00  0.00    -0.237 OA
ATOM     68  O   UNL A   1      46.706  38.805  31.930  1.00  0.00    -0.744 OA
ENDBRANCH  64  65
ENDBRANCH  38  59
ENDBRANCH  12  13
ENDBRANCH   5   7
ENDBRANCH   2   3
ENDBRANCH   1   2
BRANCH   1  69
ATOM     69  C   UNL A   1      35.055  22.660  24.346  1.00  0.00     0.117 C 
BRANCH  69  70
ATOM     70  N   UNL A   1      34.558  22.298  25.661  1.00  0.00    -0.354 N 
ATOM     71  C   UNL A   1      33.440  22.633  26.357  1.00  0.00     0.244 C 
ATOM     72  H   UNL A   1      35.154  21.684  26.150  1.00  0.00     0.163 HD
ATOM     73  O   UNL A   1      33.370  22.180  27.507  1.00  0.00    -0.273 OA
BRANCH  71  74
ATOM     74  C   UNL A   1      32.188  23.294  25.725  1.00  0.00     0.197 C 
BRANCH  74  75
ATOM     75  N   UNL A   1      31.662  22.587  24.562  1.00  0.00    -0.340 N 
ATOM     76  C   UNL A   1      31.087  23.170  23.477  1.00  0.00     0.243 C 
ATOM     77  H   UNL A   1      31.730  21.604  24.562  1.00  0.00     0.164 HD
ATOM     78  O   UNL A   1      30.440  22.465  22.706  1.00  0.00    -0.273 OA
BRANCH  76  79
ATOM     79  C   UNL A   1      31.308  24.672  23.298  1.00  0.00     0.176 C 
BRANCH  79  80
ATOM     80  N   UNL A   1      31.745  24.835  21.913  1.00  0.00    -0.340 N 
ATOM     81  C   UNL A   1      32.847  25.562  21.499  1.00  0.00     0.251 C 
ATOM     82  H   UNL A   1      31.211  24.391  21.216  1.00  0.00     0.164 HD
ATOM     83  O   UNL A   1      33.236  25.518  20.339  1.00  0.00    -0.269 OA
BRANCH  81  84
ATOM     84  C   UNL A   1      33.500  26.476  22.469  1.00  0.00     0.040 A 
ATOM     85  C   UNL A   1      33.877  26.052  23.752  1.00  0.00     0.017 A 
ATOM     86  C   UNL A   1      33.629  27.817  22.103  1.00  0.00     0.017 A 
ATOM     87  C   UNL A   1      34.242  26.996  24.711  1.00  0.00     0.040 A 
ATOM     88  C   UNL A   1      34.038  28.752  23.054  1.00  0.00     0.040 A 
ATOM     89  C   UNL A   1      34.306  28.339  24.355  1.00  0.00     0.123 A 
ATOM     90  F   UNL A   1      34.625  29.249  25.285  1.00  0.00    -0.207 F 
ENDBRANCH  81  84
ENDBRANCH  79  80
BRANCH  79  91
ATOM     91  C   UNL A   1      30.068  25.480  23.728  1.00  0.00     0.072 C 
BRANCH  91  92
ATOM     92  C   UNL A   1      30.286  26.983  23.801  1.00  0.00    -0.020 A 
ATOM     93  C   UNL A   1      30.061  28.286  22.547  1.00  0.00     0.087 A 
ATOM     94  C   UNL A   1      30.878  27.887  25.448  1.00  0.00     0.003 A 
ATOM     95  N   UNL A   1      30.322  29.951  23.387  1.00  0.00    -0.361 N 
ATOM     96  C   UNL A   1      30.907  29.676  25.129  1.00  0.00     0.046 A 
ATOM     97  C   UNL A   1      31.316  27.452  26.694  1.00  0.00     0.010 A 
ATOM     98  H   UNL A   1      30.172  30.830  22.970  1.00  0.00     0.166 HD
ATOM     99  C   UNL A   1      31.674  30.449  26.000  1.00  0.00     0.026 A 
ATOM    100  C   UNL A   1      32.057  28.384  27.438  1.00  0.00     0.001 A 
ATOM    101  C   UNL A   1      32.260  29.755  27.089  1.00  0.00     0.002 A 
ENDBRANCH  91  92
ENDBRANCH  79  91
ENDBRANCH  76  79
ENDBRANCH  74  75
BRANCH  74 102
ATOM    102  C   UNL A   1      31.078  23.322  26.951  1.00  0.00     0.191 C 
BRANCH 102 103
ATOM    103  O   UNL A   1      29.177  24.179  27.132  1.00  0.00    -0.394 OA
ATOM    104  H   UNL A   1      28.958  24.654  26.314  1.00  0.00     0.210 HD
ENDBRANCH 102 103
ENDBRANCH  74 102
ENDBRANCH  71  74
ENDBRANCH  69  70
ENDBRANCH   1  69
TORSDOF 21
ENDMDL
MODEL 2
REMARK VINA RESULT:     -11.5      5.255      8.722
REMARK SMILES O=C(NCCCNC(=O)[C@H](CO)NC(=O)[C@H](Cc1c[nH]c2ccccc12)NC(=O)c1ccc(F)cc1)c1ccc(-c2c3nc(c(-c4ccc(S(=O)(=O)[O-])cc4)c4ccc([nH]4)c(-c4ccc(S(=O)(=O)[O-])cc4)c4nc(c(-c5ccc(S(=O)(=O)[O-])cc5)c5ccc2[nH]5)C=C4)C=C3)cc1
REMARK SMILES IDX 5 1 4 2 3 3 1 4 2 5 37 7 38 8 96 9 39 10 95 11 40 12 41 13
REMARK SMILES IDX 42 14 89 15 43 16 94 17 88 18 90 19 44 20 93 21 87 22 86 23
REMARK SMILES IDX 45 25 75 26 56 27 74 28 57 29 60 30 73 31 91 32 58 33 59 34
REMARK SMILES IDX 72 36 92 37 61 38 46 39 47 40 55 41 48 42 54 43 49 44 50 45
REMARK SMILES IDX 51 46 52 47 53 48 76 49 77 50 85 51 78 52 84 53 79 54 80 55
REMARK SMILES IDX 81 56 82 57 83 58 62 59 63 60 71 61 64 62 70 63 65 64 66 65
REMARK SMILES IDX 67 66 68 67 69 68 6 69 7 70 8 71 9 73 10 74 13 75 14 76
REMARK SMILES IDX 15 78 16 79 27 80 28 81 29 83 30 84 31 85 36 86 32 87 35 88
REMARK SMILES IDX 33 89 34 90 17 91 18 92 19 93 26 94 20 95 21 96 25 97 22 99
REMARK SMILES IDX 24 100 23 101 11 102 12 103
REMARK H PARENT 3 6 90 24 60 35 7 72 13 77 27 82 20 98 12 104
REMARK Flexibility Score: inf
ROOT
ATOM      1  C   UNL A   1      31.550  32.419  27.069  1.00  0.00     0.042 C 
ENDROOT
BRANCH   1   2
ATOM      2  C   UNL A   1      32.854  33.142  27.357  1.00  0.00     0.118 C 
BRANCH   2   3
ATOM      3  N   UNL A   1      32.658  34.509  27.813  1.00  0.00    -0.352 N 
ATOM      4  O   UNL A   1      32.884  36.274  29.198  1.00  0.00    -0.269 OA
ATOM      5  C   UNL A   1      33.284  35.171  28.843  1.00  0.00     0.251 C 
ATOM      6  H   UNL A   1      31.986  35.032  27.317  1.00  0.00     0.163 HD
BRANCH   5   7
ATOM      7  C   UNL A   1      34.420  34.519  29.529  1.00  0.00     0.039 A 
ATOM      8  C   UNL A   1      34.216  33.869  30.746  1.00  0.00     0.014 A 
ATOM      9  C   UNL A   1      35.700  34.593  28.974  1.00  0.00     0.014 A 
ATOM     10  C   UNL A   1      35.308  33.465  31.497  1.00  0.00     0.010 A 
ATOM     11  C   UNL A   1      36.785  34.053  29.671  1.00  0.00     0.010 A 
ATOM     12  C   UNL A   1      36.601  33.505  30.950  1.00  0.00    -0.014 A 
BRANCH  12  13
ATOM     13  C   UNL A   1      37.703  32.852  31.701  1.00  0.00     0.031 A 
ATOM     14  C   UNL A   1      38.164  33.358  33.038  1.00  0.00     0.074 A 
ATOM     15  C   UNL A   1      38.258  31.747  31.161  1.00  0.00     0.049 A 
ATOM     16  N   UNL A   1      39.086  32.860  33.823  1.00  0.00    -0.248 NA
ATOM     17  C   UNL A   1      37.523  34.573  33.565  1.00  0.00     0.031 C 
ATOM     18  C   UNL A   1      37.895  31.170  29.860  1.00  0.00     0.029 A 
ATOM     19  N   UNL A   1      39.215  30.891  31.640  1.00  0.00    -0.354 N 
ATOM     20  C   UNL A   1      39.142  33.698  34.931  1.00  0.00     0.074 A 
ATOM     21  C   UNL A   1      38.186  34.760  34.699  1.00  0.00     0.031 C 
ATOM     22  C   UNL A   1      38.566  30.026  29.678  1.00  0.00     0.029 A 
ATOM     23  C   UNL A   1      39.478  29.836  30.796  1.00  0.00     0.049 A 
ATOM     24  H   UNL A   1      39.670  31.019  32.503  1.00  0.00     0.167 HD
ATOM     25  C   UNL A   1      39.915  33.583  36.039  1.00  0.00     0.031 A 
ATOM     26  C   UNL A   1      40.377  28.840  30.888  1.00  0.00     0.031 A 
ATOM     27  C   UNL A   1      40.874  32.527  36.249  1.00  0.00     0.049 A 
ATOM     28  C   UNL A   1      41.263  28.784  32.098  1.00  0.00     0.074 A 
ATOM     29  C   UNL A   1      41.691  32.316  37.347  1.00  0.00     0.029 A 
ATOM     30  N   UNL A   1      41.151  31.509  35.349  1.00  0.00    -0.354 N 
ATOM     31  N   UNL A   1      41.267  29.564  33.153  1.00  0.00    -0.248 NA
ATOM     32  C   UNL A   1      42.261  27.710  32.132  1.00  0.00     0.031 C 
ATOM     33  C   UNL A   1      42.514  31.218  37.078  1.00  0.00     0.029 A 
ATOM     34  C   UNL A   1      42.151  30.689  35.851  1.00  0.00     0.049 A 
ATOM     35  H   UNL A   1      40.704  31.386  34.480  1.00  0.00     0.167 HD
ATOM     36  C   UNL A   1      42.253  29.056  33.989  1.00  0.00     0.074 A 
ATOM     37  C   UNL A   1      42.792  27.882  33.334  1.00  0.00     0.031 C 
ATOM     38  C   UNL A   1      42.682  29.524  35.187  1.00  0.00     0.031 A 
BRANCH  25  39
ATOM     39  C   UNL A   1      39.776  34.633  37.114  1.00  0.00    -0.014 A 
ATOM     40  C   UNL A   1      38.929  34.437  38.219  1.00  0.00     0.010 A 
ATOM     41  C   UNL A   1      40.581  35.787  37.070  1.00  0.00     0.010 A 
ATOM     42  C   UNL A   1      38.876  35.382  39.249  1.00  0.00     0.020 A 
ATOM     43  C   UNL A   1      40.555  36.718  38.113  1.00  0.00     0.020 A 
ATOM     44  C   UNL A   1      39.697  36.512  39.193  1.00  0.00     0.054 A 
BRANCH  44  45
ATOM     45  S   UNL A   1      39.653  37.686  40.577  1.00  0.00     0.124 S 
ATOM     46  O   UNL A   1      39.030  36.888  41.631  1.00  0.00    -0.237 OA
ATOM     47  O   UNL A   1      41.066  37.996  40.775  1.00  0.00    -0.237 OA
ATOM     48  O   UNL A   1      38.839  38.790  40.073  1.00  0.00    -0.744 OA
ENDBRANCH  44  45
ENDBRANCH  25  39
BRANCH  26  49
ATOM     49  C   UNL A   1      40.519  27.852  29.783  1.00  0.00    -0.014 A 
ATOM     50  C   UNL A   1      41.539  27.976  28.825  1.00  0.00     0.010 A 
ATOM     51  C   UNL A   1      39.601  26.789  29.668  1.00  0.00     0.010 A 
ATOM     52  C   UNL A   1      41.609  27.086  27.749  1.00  0.00     0.020 A 
ATOM     53  C   UNL A   1      39.697  25.871  28.622  1.00  0.00     0.020 A 
ATOM     54  C   UNL A   1      40.686  26.041  27.655  1.00  0.00     0.054 A 
BRANCH  54  55
ATOM     55  S   UNL A   1      40.799  24.899  26.252  1.00  0.00     0.124 S 
ATOM     56  O   UNL A   1      41.719  23.885  26.758  1.00  0.00    -0.237 OA
ATOM     57  O   UNL A   1      39.413  24.470  26.085  1.00  0.00    -0.237 OA
ATOM     58  O   UNL A   1      41.322  25.734  25.172  1.00  0.00    -0.744 OA
ENDBRANCH  54  55
ENDBRANCH  26  49
BRANCH  38  59
ATOM     59  C   UNL A   1      43.762  28.735  35.883  1.00  0.00    -0.014 A 
ATOM     60  C   UNL A   1      43.453  27.648  36.721  1.00  0.00     0.010 A 
ATOM     61  C   UNL A   1      45.111  29.083  35.685  1.00  0.00     0.010 A 
ATOM     62  C   UNL A   1      44.469  26.960  37.391  1.00  0.00     0.020 A 
ATOM     63  C   UNL A   1      46.132  28.371  36.318  1.00  0.00     0.020 A 
ATOM     64  C   UNL A   1      45.802  27.327  37.185  1.00  0.00     0.054 A 
BRANCH  64  65
ATOM     65  S   UNL A   1      47.100  26.402  38.048  1.00  0.00     0.124 S 
ATOM     66  O   UNL A   1      48.024  27.465  38.437  1.00  0.00    -0.237 OA
ATOM     67  O   UNL A   1      46.367  25.774  39.144  1.00  0.00    -0.237 OA
ATOM     68  O   UNL A   1      47.605  25.480  37.033  1.00  0.00    -0.744 OA
ENDBRANCH  64  65
ENDBRANCH  38  59
ENDBRANCH  12  13
ENDBRANCH   5   7
ENDBRANCH   2   3
ENDBRANCH   1   2
BRANCH   1  69
ATOM     69  C   UNL A   1      31.740  31.159  26.237  1.00  0.00     0.117 C 
BRANCH  69  70
ATOM     70  N   UNL A   1      31.616  29.957  27.041  1.00  0.00    -0.354 N 
ATOM     71  C   UNL A   1      32.235  28.747  27.007  1.00  0.00     0.244 C 
ATOM     72  H   UNL A   1      30.946  30.033  27.759  1.00  0.00     0.163 HD
ATOM     73  O   UNL A   1      31.823  27.913  27.824  1.00  0.00    -0.273 OA
BRANCH  71  74
ATOM     74  C   UNL A   1      33.542  28.462  26.222  1.00  0.00     0.197 C 
BRANCH  74  75
ATOM     75  N   UNL A   1      33.555  29.003  24.867  1.00  0.00    -0.340 N 
ATOM     76  C   UNL A   1      33.497  28.268  23.725  1.00  0.00     0.243 C 
ATOM     77  H   UNL A   1      33.610  29.981  24.771  1.00  0.00     0.164 HD
ATOM     78  O   UNL A   1      33.795  28.811  22.663  1.00  0.00    -0.273 OA
BRANCH  76  79
ATOM     79  C   UNL A   1      33.045  26.814  23.857  1.00  0.00     0.176 C 
BRANCH  79  80
ATOM     80  N   UNL A   1      31.588  26.872  23.965  1.00  0.00    -0.340 N 
ATOM     81  C   UNL A   1      30.813  26.091  24.804  1.00  0.00     0.251 C 
ATOM     82  H   UNL A   1      31.118  27.520  23.392  1.00  0.00     0.164 HD
ATOM     83  O   UNL A   1      29.619  26.311  24.951  1.00  0.00    -0.269 OA
BRANCH  81  84
ATOM     84  C   UNL A   1      31.440  24.916  25.459  1.00  0.00     0.040 A 
ATOM     85  C   UNL A   1      30.917  23.621  25.323  1.00  0.00     0.017 A 
ATOM     86  C   UNL A   1      32.514  25.155  26.318  1.00  0.00     0.017 A 
ATOM     87  C   UNL A   1      31.374  22.601  26.155  1.00  0.00     0.040 A 
ATOM     88  C   UNL A   1      32.999  24.119  27.117  1.00  0.00     0.040 A 
ATOM     89  C   UNL A   1      32.402  22.864  27.054  1.00  0.00     0.123 A 
ATOM     90  F   UNL A   1      32.819  21.892  27.876  1.00  0.00    -0.207 F 
ENDBRANCH  81  84
ENDBRANCH  79  80
BRANCH  79  91
ATOM     91  C   UNL A   1      33.617  25.941  22.723  1.00  0.00     0.072 C 
BRANCH  91  92
ATOM     92  C   UNL A   1      33.511  24.443  22.964  1.00  0.00    -0.020 A 
ATOM     93  C   UNL A   1      32.321  23.213  22.341  1.00  0.00     0.087 A 
ATOM     94  C   UNL A   1      34.801  23.459  24.080  1.00  0.00     0.003 A 
ATOM     95  N   UNL A   1      32.912  21.508  22.880  1.00  0.00    -0.361 N 
ATOM     96  C   UNL A   1      34.372  21.694  24.013  1.00  0.00     0.046 A 
ATOM     97  C   UNL A   1      35.856  23.830  24.907  1.00  0.00     0.010 A 
ATOM     98  H   UNL A   1      32.511  20.652  22.605  1.00  0.00     0.166 HD
ATOM     99  C   UNL A   1      34.883  20.893  25.033  1.00  0.00     0.026 A 
ATOM    100  C   UNL A   1      36.245  22.877  25.862  1.00  0.00     0.001 A 
ATOM    101  C   UNL A   1      35.758  21.536  25.946  1.00  0.00     0.002 A 
ENDBRANCH  91  92
ENDBRANCH  79  91
ENDBRANCH  76  79
ENDBRANCH  74  75
BRANCH  74 102
ATOM    102  C   UNL A   1      34.731  29.150  27.145  1.00  0.00     0.191 C 
BRANCH 102 103
ATOM    103  O   UNL A   1      34.693  30.544  28.705  1.00  0.00    -0.394 OA
ATOM    104  H   UNL A   1      33.908  31.109  28.615  1.00  0.00     0.210 HD
ENDBRANCH 102 103
ENDBRANCH  74 102
ENDBRANCH  71  74
ENDBRANCH  69  70
ENDBRANCH   1  69
TORSDOF 21
ENDMDL
MODEL 3
REMARK VINA RESULT:     -11.2      0.613      7.786
REMARK SMILES O=C(NCCCNC(=O)[C@H](CO)NC(=O)[C@H](Cc1c[nH]c2ccccc12)NC(=O)c1ccc(F)cc1)c1ccc(-c2c3nc(c(-c4ccc(S(=O)(=O)[O-])cc4)c4ccc([nH]4)c(-c4ccc(S(=O)(=O)[O-])cc4)c4nc(c(-c5ccc(S(=O)(=O)[O-])cc5)c5ccc2[nH]5)C=C4)C=C3)cc1
REMARK SMILES IDX 5 1 4 2 3 3 1 4 2 5 37 7 38 8 96 9 39 10 95 11 40 12 41 13
REMARK SMILES IDX 42 14 89 15 43 16 94 17 88 18 90 19 44 20 93 21 87 22 86 23
REMARK SMILES IDX 45 25 75 26 56 27 74 28 57 29 60 30 73 31 91 32 58 33 59 34
REMARK SMILES IDX 72 36 92 37 61 38 46 39 47 40 55 41 48 42 54 43 49 44 50 45
REMARK SMILES IDX 51 46 52 47 53 48 76 49 77 50 85 51 78 52 84 53 79 54 80 55
REMARK SMILES IDX 81 56 82 57 83 58 62 59 63 60 71 61 64 62 70 63 65 64 66 65
REMARK SMILES IDX 67 66 68 67 69 68 6 69 7 70 8 71 9 73 10 74 13 75 14 76
REMARK SMILES IDX 15 78 16 79 27 80 28 81 29 83 30 84 31 85 36 86 32 87 35 88
REMARK SMILES IDX 33 89 34 90 17 91 18 92 19 93 26 94 20 95 21 96 25 97 22 99
REMARK SMILES IDX 24 100 23 101 11 102 12 103
REMARK H PARENT 3 6 90 24 60 35 7 72 13 77 27 82 20 98 12 104
REMARK Flexibility Score: inf
ROOT
ATOM      1  C   UNL A   1      36.997  22.533  24.214  1.00  0.00     0.042 C 
ENDROOT
BRANCH   1   2
ATOM      2  C   UNL A   1      37.740  22.899  25.486  1.00  0.00     0.118 C 
BRANCH   2   3
ATOM      3  N   UNL A   1      38.473  21.781  26.060  1.00  0.00    -0.352 N 
ATOM      4  O   UNL A   1      40.241  20.727  26.979  1.00  0.00    -0.269 OA
ATOM      5  C   UNL A   1      39.691  21.786  26.698  1.00  0.00     0.251 C 
ATOM      6  H   UNL A   1      38.037  20.901  25.980  1.00  0.00     0.163 HD
BRANCH   5   7
ATOM      7  C   UNL A   1      40.332  23.080  27.009  1.00  0.00     0.039 A 
ATOM      8  C   UNL A   1      41.165  23.194  28.123  1.00  0.00     0.014 A 
ATOM      9  C   UNL A   1      40.069  24.195  26.208  1.00  0.00     0.014 A 
ATOM     10  C   UNL A   1      41.576  24.446  28.545  1.00  0.00     0.010 A 
ATOM     11  C   UNL A   1      40.607  25.437  26.560  1.00  0.00     0.010 A 
ATOM     12  C   UNL A   1      41.346  25.578  27.744  1.00  0.00    -0.014 A 
BRANCH  12  13
ATOM     13  C   UNL A   1      42.001  26.855  28.126  1.00  0.00     0.031 A 
ATOM     14  C   UNL A   1      43.467  27.094  27.905  1.00  0.00     0.074 A 
ATOM     15  C   UNL A   1      41.221  27.827  28.643  1.00  0.00     0.049 A 
ATOM     16  N   UNL A   1      44.162  28.176  28.152  1.00  0.00    -0.248 NA
ATOM     17  C   UNL A   1      44.261  25.988  27.346  1.00  0.00     0.031 C 
ATOM     18  C   UNL A   1      39.782  27.702  28.910  1.00  0.00     0.029 A 
ATOM     19  N   UNL A   1      41.507  29.117  29.006  1.00  0.00    -0.354 N 
ATOM     20  C   UNL A   1      45.471  27.885  27.786  1.00  0.00     0.074 A 
ATOM     21  C   UNL A   1      45.482  26.510  27.335  1.00  0.00     0.031 C 
ATOM     22  C   UNL A   1      39.303  28.880  29.326  1.00  0.00     0.029 A 
ATOM     23  C   UNL A   1      40.409  29.816  29.453  1.00  0.00     0.049 A 
ATOM     24  H   UNL A   1      42.410  29.504  28.954  1.00  0.00     0.167 HD
ATOM     25  C   UNL A   1      46.557  28.696  27.817  1.00  0.00     0.031 A 
ATOM     26  C   UNL A   1      40.303  31.064  29.943  1.00  0.00     0.031 A 
ATOM     27  C   UNL A   1      46.533  30.061  28.283  1.00  0.00     0.049 A 
ATOM     28  C   UNL A   1      41.540  31.910  30.027  1.00  0.00     0.074 A 
ATOM     29  C   UNL A   1      47.579  30.967  28.337  1.00  0.00     0.029 A 
ATOM     30  N   UNL A   1      45.415  30.717  28.779  1.00  0.00    -0.354 N 
ATOM     31  N   UNL A   1      42.759  31.627  29.634  1.00  0.00    -0.248 NA
ATOM     32  C   UNL A   1      41.384  33.245  30.613  1.00  0.00     0.031 C 
ATOM     33  C   UNL A   1      47.111  32.142  28.934  1.00  0.00     0.029 A 
ATOM     34  C   UNL A   1      45.755  32.002  29.173  1.00  0.00     0.049 A 
ATOM     35  H   UNL A   1      44.514  30.326  28.842  1.00  0.00     0.167 HD
ATOM     36  C   UNL A   1      43.511  32.763  29.904  1.00  0.00     0.074 A 
ATOM     37  C   UNL A   1      42.601  33.745  30.454  1.00  0.00     0.031 C 
ATOM     38  C   UNL A   1      44.839  32.972  29.723  1.00  0.00     0.031 A 
BRANCH  25  39
ATOM     39  C   UNL A   1      47.877  28.134  27.351  1.00  0.00    -0.014 A 
ATOM     40  C   UNL A   1      48.778  27.542  28.254  1.00  0.00     0.010 A 
ATOM     41  C   UNL A   1      48.177  28.108  25.975  1.00  0.00     0.010 A 
ATOM     42  C   UNL A   1      49.959  26.951  27.794  1.00  0.00     0.020 A 
ATOM     43  C   UNL A   1      49.341  27.490  25.508  1.00  0.00     0.020 A 
ATOM     44  C   UNL A   1      50.228  26.921  26.422  1.00  0.00     0.054 A 
BRANCH  44  45
ATOM     45  S   UNL A   1      51.737  26.089  25.851  1.00  0.00     0.124 S 
ATOM     46  O   UNL A   1      51.633  26.234  24.401  1.00  0.00    -0.237 OA
ATOM     47  O   UNL A   1      52.792  26.873  26.488  1.00  0.00    -0.237 OA
ATOM     48  O   UNL A   1      51.591  24.723  26.350  1.00  0.00    -0.744 OA
ENDBRANCH  44  45
ENDBRANCH  25  39
BRANCH  26  49
ATOM     49  C   UNL A   1      38.992  31.566  30.440  1.00  0.00    -0.014 A 
ATOM     50  C   UNL A   1      38.130  32.297  29.605  1.00  0.00     0.010 A 
ATOM     51  C   UNL A   1      38.613  31.337  31.778  1.00  0.00     0.010 A 
ATOM     52  C   UNL A   1      36.941  32.830  30.111  1.00  0.00     0.020 A 
ATOM     53  C   UNL A   1      37.404  31.827  32.273  1.00  0.00     0.020 A 
ATOM     54  C   UNL A   1      36.587  32.592  31.442  1.00  0.00     0.054 A 
BRANCH  54  55
ATOM     55  S   UNL A   1      35.039  33.291  32.074  1.00  0.00     0.124 S 
ATOM     56  O   UNL A   1      34.059  32.759  31.132  1.00  0.00    -0.237 OA
ATOM     57  O   UNL A   1      34.979  32.746  33.427  1.00  0.00    -0.237 OA
ATOM     58  O   UNL A   1      35.259  34.734  31.998  1.00  0.00    -0.744 OA
ENDBRANCH  54  55
ENDBRANCH  26  49
BRANCH  38  59
ATOM     59  C   UNL A   1      45.373  34.333  30.087  1.00  0.00    -0.014 A 
ATOM     60  C   UNL A   1      45.394  35.387  29.156  1.00  0.00     0.010 A 
ATOM     61  C   UNL A   1      45.854  34.563  31.390  1.00  0.00     0.010 A 
ATOM     62  C   UNL A   1      45.936  36.628  29.503  1.00  0.00     0.020 A 
ATOM     63  C   UNL A   1      46.356  35.814  31.754  1.00  0.00     0.020 A 
ATOM     64  C   UNL A   1      46.414  36.833  30.802  1.00  0.00     0.054 A 
BRANCH  64  65
ATOM     65  S   UNL A   1      47.089  38.458  31.231  1.00  0.00     0.124 S 
ATOM     66  O   UNL A   1      46.513  39.312  30.194  1.00  0.00    -0.237 OA
ATOM     67  O   UNL A   1      46.572  38.671  32.580  1.00  0.00    -0.237 OA
ATOM     68  O   UNL A   1      48.535  38.268  31.146  1.00  0.00    -0.744 OA
ENDBRANCH  64  65
ENDBRANCH  38  59
ENDBRANCH  12  13
ENDBRANCH   5   7
ENDBRANCH   2   3
ENDBRANCH   1   2
BRANCH   1  69
ATOM     69  C   UNL A   1      35.497  22.776  24.311  1.00  0.00     0.117 C 
BRANCH  69  70
ATOM     70  N   UNL A   1      34.922  22.141  25.483  1.00  0.00    -0.354 N 
ATOM     71  C   UNL A   1      33.763  22.326  26.166  1.00  0.00     0.244 C 
ATOM     72  H   UNL A   1      35.490  21.430  25.862  1.00  0.00     0.163 HD
ATOM     73  O   UNL A   1      33.625  21.635  27.184  1.00  0.00    -0.273 OA
BRANCH  71  74
ATOM     74  C   UNL A   1      32.548  23.121  25.618  1.00  0.00     0.197 C 
BRANCH  74  75
ATOM     75  N   UNL A   1      31.856  22.466  24.513  1.00  0.00    -0.340 N 
ATOM     76  C   UNL A   1      31.148  23.099  23.541  1.00  0.00     0.243 C 
ATOM     77  H   UNL A   1      31.906  21.484  24.467  1.00  0.00     0.164 HD
ATOM     78  O   UNL A   1      30.388  22.433  22.840  1.00  0.00    -0.273 OA
BRANCH  76  79
ATOM     79  C   UNL A   1      31.368  24.604  23.390  1.00  0.00     0.176 C 
BRANCH  79  80
ATOM     80  N   UNL A   1      31.775  24.796  21.999  1.00  0.00    -0.340 N 
ATOM     81  C   UNL A   1      32.857  25.548  21.575  1.00  0.00     0.251 C 
ATOM     82  H   UNL A   1      31.234  24.355  21.305  1.00  0.00     0.164 HD
ATOM     83  O   UNL A   1      33.223  25.528  20.408  1.00  0.00    -0.269 OA
BRANCH  81  84
ATOM     84  C   UNL A   1      33.514  26.457  22.547  1.00  0.00     0.040 A 
ATOM     85  C   UNL A   1      33.945  26.013  23.806  1.00  0.00     0.017 A 
ATOM     86  C   UNL A   1      33.591  27.810  22.211  1.00  0.00     0.017 A 
ATOM     87  C   UNL A   1      34.313  26.944  24.776  1.00  0.00     0.040 A 
ATOM     88  C   UNL A   1      34.003  28.733  23.173  1.00  0.00     0.040 A 
ATOM     89  C   UNL A   1      34.326  28.296  24.453  1.00  0.00     0.123 A 
ATOM     90  F   UNL A   1      34.648  29.192  25.396  1.00  0.00    -0.207 F 
ENDBRANCH  81  84
ENDBRANCH  79  80
BRANCH  79  91
ATOM     91  C   UNL A   1      30.140  25.404  23.864  1.00  0.00     0.072 C 
BRANCH  91  92
ATOM     92  C   UNL A   1      30.333  26.913  23.874  1.00  0.00    -0.020 A 
ATOM     93  C   UNL A   1      30.104  28.156  22.563  1.00  0.00     0.087 A 
ATOM     94  C   UNL A   1      30.888  27.897  25.488  1.00  0.00     0.003 A 
ATOM     95  N   UNL A   1      30.327  29.861  23.333  1.00  0.00    -0.361 N 
ATOM     96  C   UNL A   1      30.892  29.670  25.092  1.00  0.00     0.046 A 
ATOM     97  C   UNL A   1      31.316  27.523  26.757  1.00  0.00     0.010 A 
ATOM     98  H   UNL A   1      30.168  30.718  22.876  1.00  0.00     0.166 HD
ATOM     99  C   UNL A   1      31.635  30.493  25.939  1.00  0.00     0.026 A 
ATOM    100  C   UNL A   1      32.032  28.498  27.470  1.00  0.00     0.001 A 
ATOM    101  C   UNL A   1      32.218  29.856  27.065  1.00  0.00     0.002 A 
ENDBRANCH  91  92
ENDBRANCH  79  91
ENDBRANCH  76  79
ENDBRANCH  74  75
BRANCH  74 102
ATOM    102  C   UNL A   1      31.548  23.290  26.926  1.00  0.00     0.191 C 
BRANCH 102 103
ATOM    103  O   UNL A   1      29.556  23.899  27.124  1.00  0.00    -0.394 OA
ATOM    104  H   UNL A   1      28.981  23.117  27.156  1.00  0.00     0.210 HD
ENDBRANCH 102 103
ENDBRANCH  74 102
ENDBRANCH  71  74
ENDBRANCH  69  70
ENDBRANCH   1  69
TORSDOF 21
ENDMDL
