MODEL 1
REMARK VINA RESULT:     -11.3      0.000      0.000
REMARK SMILES O=C(CCc1cccnc1)Nc1cccc(F)c1C(=O)NCCCNC(=O)c1ccc(-c2c3nc(c(-c4ccc(S(=O)(=O)[O-])cc4)c4ccc([nH]4)c(-c4ccc(S(=O)(=O)[O-])cc4)c4nc(c(-c5ccc(S(=O)(=O)[O-])cc5)c5ccc2[nH]5)C=C4)C=C3)cc1
REMARK SMILES IDX 22 1 21 2 19 3 20 4 18 6 12 7 13 8 14 9 16 10 15 11 17 12
REMARK SMILES IDX 11 13 1 14 2 15 3 17 4 18 5 19 6 20 10 21 7 22 9 23 8 24
REMARK SMILES IDX 23 25 24 26 25 27 26 28 27 30 28 31 29 32 87 33 30 34 86 35
REMARK SMILES IDX 31 36 32 37 33 38 80 39 34 40 85 41 79 42 81 43 35 44 84 45
REMARK SMILES IDX 78 46 77 47 36 49 66 50 47 51 65 52 48 53 51 54 64 55 82 56
REMARK SMILES IDX 49 57 50 58 63 60 83 61 52 62 37 63 38 64 46 65 39 66 45 67
REMARK SMILES IDX 40 68 41 69 42 70 43 71 44 72 67 73 68 74 76 75 69 76 75 77
REMARK SMILES IDX 70 78 71 79 72 80 73 81 74 82 53 83 54 84 62 85 55 86 61 87
REMARK SMILES IDX 56 88 57 89 58 90 59 91 60 92
REMARK H PARENT 21 5 11 16 25 29 81 48 51 59
REMARK Flexibility Score: inf
ROOT
ATOM      1  C   UNL A   1      31.665  26.452  26.691  1.00  0.00     0.118 C 
ENDROOT
BRANCH   1   2
ATOM      2  N   UNL A   1      30.354  26.142  26.136  1.00  0.00    -0.352 N 
ATOM      3  C   UNL A   1      30.227  25.867  24.793  1.00  0.00     0.256 C 
ATOM      4  O   UNL A   1      30.285  24.709  24.389  1.00  0.00    -0.269 OA
ATOM      5  H   UNL A   1      29.560  26.130  26.719  1.00  0.00     0.163 HD
BRANCH   3   6
ATOM      6  C   UNL A   1      29.803  26.944  23.867  1.00  0.00     0.099 A 
ATOM      7  C   UNL A   1      30.791  27.700  23.186  1.00  0.00     0.056 A 
ATOM      8  C   UNL A   1      30.390  28.808  22.424  1.00  0.00     0.027 A 
ATOM      9  C   UNL A   1      29.043  29.165  22.327  1.00  0.00     0.005 A 
ATOM     10  C   UNL A   1      28.461  27.311  23.749  1.00  0.00     0.138 A 
ATOM     11  C   UNL A   1      28.079  28.412  22.985  1.00  0.00     0.040 A 
ATOM     12  F   UNL A   1      27.487  26.655  24.392  1.00  0.00    -0.206 F 
BRANCH   7  13
ATOM     13  N   UNL A   1      32.153  27.290  23.209  1.00  0.00    -0.325 N 
ATOM     14  O   UNL A   1      32.225  25.826  21.417  1.00  0.00    -0.275 OA
ATOM     15  C   UNL A   1      32.742  26.332  22.412  1.00  0.00     0.224 C 
ATOM     16  H   UNL A   1      32.736  27.737  23.865  1.00  0.00     0.169 HD
BRANCH  15  17
ATOM     17  C   UNL A   1      34.103  25.837  22.885  1.00  0.00     0.105 C 
BRANCH  17  18
ATOM     18  C   UNL A   1      34.170  25.282  24.311  1.00  0.00     0.047 C 
BRANCH  18  19
ATOM     19  C   UNL A   1      35.211  24.204  24.474  1.00  0.00    -0.029 A 
ATOM     20  C   UNL A   1      35.858  23.993  25.696  1.00  0.00     0.007 A 
ATOM     21  C   UNL A   1      35.593  23.395  23.408  1.00  0.00     0.114 A 
ATOM     22  C   UNL A   1      36.882  23.055  25.784  1.00  0.00     0.020 A 
ATOM     23  N   UNL A   1      36.610  22.506  23.451  1.00  0.00    -0.264 NA
ATOM     24  C   UNL A   1      37.234  22.359  24.640  1.00  0.00     0.111 A 
ENDBRANCH  18  19
ENDBRANCH  17  18
ENDBRANCH  15  17
ENDBRANCH   7  13
ENDBRANCH   3   6
ENDBRANCH   1   2
BRANCH   1  25
ATOM     25  C   UNL A   1      31.759  27.893  27.181  1.00  0.00     0.042 C 
BRANCH  25  26
ATOM     26  C   UNL A   1      33.197  28.405  27.259  1.00  0.00     0.118 C 
BRANCH  26  27
ATOM     27  N   UNL A   1      33.254  29.858  27.396  1.00  0.00    -0.352 N 
ATOM     28  C   UNL A   1      34.223  30.673  27.930  1.00  0.00     0.251 C 
ATOM     29  H   UNL A   1      32.466  30.333  27.046  1.00  0.00     0.163 HD
ATOM     30  O   UNL A   1      33.959  31.851  28.158  1.00  0.00    -0.269 OA
BRANCH  28  31
ATOM     31  C   UNL A   1      35.573  30.151  28.243  1.00  0.00     0.039 A 
ATOM     32  C   UNL A   1      36.542  30.132  27.232  1.00  0.00     0.014 A 
ATOM     33  C   UNL A   1      35.877  29.637  29.505  1.00  0.00     0.014 A 
ATOM     34  C   UNL A   1      37.834  29.676  27.513  1.00  0.00     0.010 A 
ATOM     35  C   UNL A   1      37.181  29.244  29.802  1.00  0.00     0.010 A 
ATOM     36  C   UNL A   1      38.176  29.270  28.813  1.00  0.00    -0.014 A 
BRANCH  36  37
ATOM     37  C   UNL A   1      39.572  28.910  29.173  1.00  0.00     0.031 A 
ATOM     38  C   UNL A   1      40.490  29.930  29.792  1.00  0.00     0.074 A 
ATOM     39  C   UNL A   1      40.042  27.688  28.852  1.00  0.00     0.049 A 
ATOM     40  N   UNL A   1      41.766  29.833  30.063  1.00  0.00    -0.248 NA
ATOM     41  C   UNL A   1      39.902  31.237  30.128  1.00  0.00     0.031 C 
ATOM     42  C   UNL A   1      39.266  26.623  28.214  1.00  0.00     0.029 A 
ATOM     43  N   UNL A   1      41.293  27.142  29.003  1.00  0.00    -0.354 N 
ATOM     44  C   UNL A   1      42.141  31.068  30.577  1.00  0.00     0.074 A 
ATOM     45  C   UNL A   1      40.963  31.910  30.549  1.00  0.00     0.031 C 
ATOM     46  C   UNL A   1      40.051  25.548  28.043  1.00  0.00     0.029 A 
ATOM     47  C   UNL A   1      41.396  25.860  28.515  1.00  0.00     0.049 A 
ATOM     48  H   UNL A   1      42.044  27.621  29.420  1.00  0.00     0.167 HD
ATOM     49  C   UNL A   1      43.352  31.463  31.040  1.00  0.00     0.031 A 
ATOM     50  C   UNL A   1      42.455  25.032  28.437  1.00  0.00     0.031 A 
ATOM     51  C   UNL A   1      44.516  30.618  31.083  1.00  0.00     0.049 A 
ATOM     52  C   UNL A   1      43.790  25.497  28.946  1.00  0.00     0.074 A 
ATOM     53  C   UNL A   1      45.768  30.905  31.599  1.00  0.00     0.029 A 
ATOM     54  N   UNL A   1      44.576  29.326  30.585  1.00  0.00    -0.354 N 
ATOM     55  N   UNL A   1      44.109  26.649  29.484  1.00  0.00    -0.248 NA
ATOM     56  C   UNL A   1      44.909  24.550  28.834  1.00  0.00     0.031 C 
ATOM     57  C   UNL A   1      46.598  29.801  31.373  1.00  0.00     0.029 A 
ATOM     58  C   UNL A   1      45.850  28.811  30.756  1.00  0.00     0.049 A 
ATOM     59  H   UNL A   1      43.823  28.844  30.172  1.00  0.00     0.167 HD
ATOM     60  C   UNL A   1      45.462  26.562  29.787  1.00  0.00     0.074 A 
ATOM     61  C   UNL A   1      45.898  25.239  29.387  1.00  0.00     0.031 C 
ATOM     62  C   UNL A   1      46.272  27.497  30.342  1.00  0.00     0.031 A 
BRANCH  49  63
ATOM     63  C   UNL A   1      43.478  32.879  31.535  1.00  0.00    -0.014 A 
ATOM     64  C   UNL A   1      43.212  33.207  32.876  1.00  0.00     0.010 A 
ATOM     65  C   UNL A   1      43.904  33.891  30.655  1.00  0.00     0.010 A 
ATOM     66  C   UNL A   1      43.325  34.527  33.318  1.00  0.00     0.020 A 
ATOM     67  C   UNL A   1      44.042  35.210  31.098  1.00  0.00     0.020 A 
ATOM     68  C   UNL A   1      43.732  35.523  32.423  1.00  0.00     0.054 A 
BRANCH  68  69
ATOM     69  S   UNL A   1      43.881  37.228  33.024  1.00  0.00     0.124 S 
ATOM     70  O   UNL A   1      45.196  37.208  33.660  1.00  0.00    -0.237 OA
ATOM     71  O   UNL A   1      43.789  38.012  31.796  1.00  0.00    -0.237 OA
ATOM     72  O   UNL A   1      42.750  37.373  33.938  1.00  0.00    -0.744 OA
ENDBRANCH  68  69
ENDBRANCH  49  63
BRANCH  50  73
ATOM     73  C   UNL A   1      42.290  23.676  27.848  1.00  0.00    -0.014 A 
ATOM     74  C   UNL A   1      42.382  23.492  26.459  1.00  0.00     0.010 A 
ATOM     75  C   UNL A   1      42.070  22.561  28.676  1.00  0.00     0.010 A 
ATOM     76  C   UNL A   1      42.250  22.214  25.905  1.00  0.00     0.020 A 
ATOM     77  C   UNL A   1      41.961  21.280  28.129  1.00  0.00     0.020 A 
ATOM     78  C   UNL A   1      42.043  21.115  26.744  1.00  0.00     0.054 A 
BRANCH  78  79
ATOM     79  S   UNL A   1      41.944  19.458  26.013  1.00  0.00     0.124 S 
ATOM     80  O   UNL A   1      42.801  19.593  24.840  1.00  0.00    -0.237 OA
ATOM     81  O   UNL A   1      42.462  18.607  27.081  1.00  0.00    -0.237 OA
ATOM     82  O   UNL A   1      40.518  19.294  25.734  1.00  0.00    -0.744 OA
ENDBRANCH  78  79
ENDBRANCH  50  73
BRANCH  62  83
ATOM     83  C   UNL A   1      47.712  27.123  30.556  1.00  0.00    -0.014 A 
ATOM     84  C   UNL A   1      48.670  27.347  29.553  1.00  0.00     0.010 A 
ATOM     85  C   UNL A   1      48.122  26.599  31.796  1.00  0.00     0.010 A 
ATOM     86  C   UNL A   1      50.014  27.036  29.779  1.00  0.00     0.020 A 
ATOM     87  C   UNL A   1      49.468  26.308  32.033  1.00  0.00     0.020 A 
ATOM     88  C   UNL A   1      50.404  26.519  31.018  1.00  0.00     0.054 A 
BRANCH  88  89
ATOM     89  S   UNL A   1      52.162  26.179  31.309  1.00  0.00     0.124 S 
ATOM     90  O   UNL A   1      52.514  27.210  32.283  1.00  0.00    -0.237 OA
ATOM     91  O   UNL A   1      52.145  24.810  31.820  1.00  0.00    -0.237 OA
ATOM     92  O   UNL A   1      52.768  26.336  29.988  1.00  0.00    -0.744 OA
ENDBRANCH  88  89
ENDBRANCH  62  83
ENDBRANCH  36  37
ENDBRANCH  28  31
ENDBRANCH  26  27
ENDBRANCH  25  26
ENDBRANCH   1  25
TORSDOF 17
ENDMDL
MODEL 2
REMARK VINA RESULT:     -10.7      2.933      4.943
REMARK SMILES O=C(CCc1cccnc1)Nc1cccc(F)c1C(=O)NCCCNC(=O)c1ccc(-c2c3nc(c(-c4ccc(S(=O)(=O)[O-])cc4)c4ccc([nH]4)c(-c4ccc(S(=O)(=O)[O-])cc4)c4nc(c(-c5ccc(S(=O)(=O)[O-])cc5)c5ccc2[nH]5)C=C4)C=C3)cc1
REMARK SMILES IDX 22 1 21 2 19 3 20 4 18 6 12 7 13 8 14 9 16 10 15 11 17 12
REMARK SMILES IDX 11 13 1 14 2 15 3 17 4 18 5 19 6 20 10 21 7 22 9 23 8 24
REMARK SMILES IDX 23 25 24 26 25 27 26 28 27 30 28 31 29 32 87 33 30 34 86 35
REMARK SMILES IDX 31 36 32 37 33 38 80 39 34 40 85 41 79 42 81 43 35 44 84 45
REMARK SMILES IDX 78 46 77 47 36 49 66 50 47 51 65 52 48 53 51 54 64 55 82 56
REMARK SMILES IDX 49 57 50 58 63 60 83 61 52 62 37 63 38 64 46 65 39 66 45 67
REMARK SMILES IDX 40 68 41 69 42 70 43 71 44 72 67 73 68 74 76 75 69 76 75 77
REMARK SMILES IDX 70 78 71 79 72 80 73 81 74 82 53 83 54 84 62 85 55 86 61 87
REMARK SMILES IDX 56 88 57 89 58 90 59 91 60 92
REMARK H PARENT 21 5 11 16 25 29 81 48 51 59
REMARK Flexibility Score: inf
ROOT
ATOM      1  C   UNL A   1      33.375  28.921  25.789  1.00  0.00     0.118 C 
ENDROOT
BRANCH   1   2
ATOM      2  N   UNL A   1      34.094  27.751  25.302  1.00  0.00    -0.352 N 
ATOM      3  C   UNL A   1      33.421  26.778  24.598  1.00  0.00     0.256 C 
ATOM      4  O   UNL A   1      33.369  26.823  23.372  1.00  0.00    -0.269 OA
ATOM      5  H   UNL A   1      35.059  27.655  25.477  1.00  0.00     0.163 HD
BRANCH   3   6
ATOM      6  C   UNL A   1      32.948  25.564  25.306  1.00  0.00     0.099 A 
ATOM      7  C   UNL A   1      31.576  25.451  25.645  1.00  0.00     0.056 A 
ATOM      8  C   UNL A   1      31.161  24.370  26.439  1.00  0.00     0.027 A 
ATOM      9  C   UNL A   1      32.076  23.414  26.886  1.00  0.00     0.005 A 
ATOM     10  C   UNL A   1      33.845  24.592  25.754  1.00  0.00     0.138 A 
ATOM     11  C   UNL A   1      33.416  23.523  26.538  1.00  0.00     0.040 A 
ATOM     12  F   UNL A   1      35.155  24.661  25.492  1.00  0.00    -0.206 F 
BRANCH   7  13
ATOM     13  N   UNL A   1      30.627  26.371  25.120  1.00  0.00    -0.325 N 
ATOM     14  O   UNL A   1      29.847  25.224  23.267  1.00  0.00    -0.275 OA
ATOM     15  C   UNL A   1      29.918  26.248  23.945  1.00  0.00     0.224 C 
ATOM     16  H   UNL A   1      30.460  27.183  25.652  1.00  0.00     0.169 HD
BRANCH  15  17
ATOM     17  C   UNL A   1      29.255  27.526  23.446  1.00  0.00     0.105 C 
BRANCH  17  18
ATOM     18  C   UNL A   1      30.167  28.742  23.259  1.00  0.00     0.047 C 
BRANCH  18  19
ATOM     19  C   UNL A   1      29.424  29.969  22.795  1.00  0.00    -0.029 A 
ATOM     20  C   UNL A   1      28.997  30.947  23.698  1.00  0.00     0.007 A 
ATOM     21  C   UNL A   1      29.107  30.163  21.455  1.00  0.00     0.114 A 
ATOM     22  C   UNL A   1      28.229  32.017  23.248  1.00  0.00     0.020 A 
ATOM     23  N   UNL A   1      28.329  31.168  20.993  1.00  0.00    -0.264 NA
ATOM     24  C   UNL A   1      27.906  32.072  21.903  1.00  0.00     0.111 A 
ENDBRANCH  18  19
ENDBRANCH  17  18
ENDBRANCH  15  17
ENDBRANCH   7  13
ENDBRANCH   3   6
ENDBRANCH   1   2
BRANCH   1  25
ATOM     25  C   UNL A   1      33.636  29.186  27.267  1.00  0.00     0.042 C 
BRANCH  25  26
ATOM     26  C   UNL A   1      35.079  29.598  27.556  1.00  0.00     0.118 C 
BRANCH  26  27
ATOM     27  N   UNL A   1      35.179  30.464  28.728  1.00  0.00    -0.352 N 
ATOM     28  C   UNL A   1      36.194  30.632  29.638  1.00  0.00     0.251 C 
ATOM     29  H   UNL A   1      34.384  31.022  28.892  1.00  0.00     0.163 HD
ATOM     30  O   UNL A   1      35.970  31.239  30.682  1.00  0.00    -0.269 OA
BRANCH  28  31
ATOM     31  C   UNL A   1      37.546  30.086  29.383  1.00  0.00     0.039 A 
ATOM     32  C   UNL A   1      37.994  29.974  28.062  1.00  0.00     0.014 A 
ATOM     33  C   UNL A   1      38.356  29.639  30.430  1.00  0.00     0.014 A 
ATOM     34  C   UNL A   1      39.280  29.493  27.799  1.00  0.00     0.010 A 
ATOM     35  C   UNL A   1      39.660  29.221  30.172  1.00  0.00     0.010 A 
ATOM     36  C   UNL A   1      40.141  29.154  28.856  1.00  0.00    -0.014 A 
BRANCH  36  37
ATOM     37  C   UNL A   1      41.556  28.771  28.614  1.00  0.00     0.031 A 
ATOM     38  C   UNL A   1      42.642  29.812  28.619  1.00  0.00     0.074 A 
ATOM     39  C   UNL A   1      41.847  27.494  28.293  1.00  0.00     0.049 A 
ATOM     40  N   UNL A   1      43.908  29.683  28.314  1.00  0.00    -0.248 NA
ATOM     41  C   UNL A   1      42.251  31.180  28.993  1.00  0.00     0.031 C 
ATOM     42  C   UNL A   1      40.879  26.398  28.214  1.00  0.00     0.029 A 
ATOM     43  N   UNL A   1      43.041  26.907  27.955  1.00  0.00    -0.354 N 
ATOM     44  C   UNL A   1      44.460  30.953  28.434  1.00  0.00     0.074 A 
ATOM     45  C   UNL A   1      43.383  31.845  28.809  1.00  0.00     0.031 C 
ATOM     46  C   UNL A   1      41.518  25.270  27.868  1.00  0.00     0.029 A 
ATOM     47  C   UNL A   1      42.931  25.569  27.654  1.00  0.00     0.049 A 
ATOM     48  H   UNL A   1      43.895  27.395  27.929  1.00  0.00     0.167 HD
ATOM     49  C   UNL A   1      45.747  31.339  28.260  1.00  0.00     0.031 A 
ATOM     50  C   UNL A   1      43.855  24.683  27.236  1.00  0.00     0.031 A 
ATOM     51  C   UNL A   1      46.819  30.447  27.905  1.00  0.00     0.049 A 
ATOM     52  C   UNL A   1      45.273  25.138  27.038  1.00  0.00     0.074 A 
ATOM     53  C   UNL A   1      48.167  30.731  27.775  1.00  0.00     0.029 A 
ATOM     54  N   UNL A   1      46.665  29.100  27.617  1.00  0.00    -0.354 N 
ATOM     55  N   UNL A   1      45.785  26.331  27.216  1.00  0.00    -0.248 NA
ATOM     56  C   UNL A   1      46.236  24.127  26.580  1.00  0.00     0.031 C 
ATOM     57  C   UNL A   1      48.822  29.565  27.364  1.00  0.00     0.029 A 
ATOM     58  C   UNL A   1      47.888  28.544  27.281  1.00  0.00     0.049 A 
ATOM     59  H   UNL A   1      45.811  28.609  27.647  1.00  0.00     0.167 HD
ATOM     60  C   UNL A   1      47.134  26.213  26.904  1.00  0.00     0.074 A 
ATOM     61  C   UNL A   1      47.362  24.828  26.542  1.00  0.00     0.031 C 
ATOM     62  C   UNL A   1      48.096  27.168  26.912  1.00  0.00     0.031 A 
BRANCH  49  63
ATOM     63  C   UNL A   1      46.065  32.799  28.446  1.00  0.00    -0.014 A 
ATOM     64  C   UNL A   1      45.979  33.704  27.373  1.00  0.00     0.010 A 
ATOM     65  C   UNL A   1      46.419  33.280  29.720  1.00  0.00     0.010 A 
ATOM     66  C   UNL A   1      46.286  35.054  27.559  1.00  0.00     0.020 A 
ATOM     67  C   UNL A   1      46.704  34.635  29.917  1.00  0.00     0.020 A 
ATOM     68  C   UNL A   1      46.654  35.510  28.829  1.00  0.00     0.054 A 
BRANCH  68  69
ATOM     69  S   UNL A   1      47.038  37.269  29.047  1.00  0.00     0.124 S 
ATOM     70  O   UNL A   1      45.985  37.906  28.259  1.00  0.00    -0.237 OA
ATOM     71  O   UNL A   1      46.933  37.446  30.493  1.00  0.00    -0.237 OA
ATOM     72  O   UNL A   1      48.388  37.400  28.503  1.00  0.00    -0.744 OA
ENDBRANCH  68  69
ENDBRANCH  49  63
BRANCH  50  73
ATOM     73  C   UNL A   1      43.460  23.273  26.974  1.00  0.00    -0.014 A 
ATOM     74  C   UNL A   1      43.184  22.404  28.043  1.00  0.00     0.010 A 
ATOM     75  C   UNL A   1      43.328  22.803  25.655  1.00  0.00     0.010 A 
ATOM     76  C   UNL A   1      42.790  21.085  27.799  1.00  0.00     0.020 A 
ATOM     77  C   UNL A   1      42.912  21.492  25.407  1.00  0.00     0.020 A 
ATOM     78  C   UNL A   1      42.654  20.638  26.481  1.00  0.00     0.054 A 
BRANCH  78  79
ATOM     79  S   UNL A   1      42.075  18.944  26.184  1.00  0.00     0.124 S 
ATOM     80  O   UNL A   1      43.012  18.477  25.167  1.00  0.00    -0.237 OA
ATOM     81  O   UNL A   1      42.210  18.326  27.501  1.00  0.00    -0.237 OA
ATOM     82  O   UNL A   1      40.698  19.130  25.731  1.00  0.00    -0.744 OA
ENDBRANCH  78  79
ENDBRANCH  50  73
BRANCH  62  83
ATOM     83  C   UNL A   1      49.487  26.748  26.523  1.00  0.00    -0.014 A 
ATOM     84  C   UNL A   1      50.358  26.181  27.468  1.00  0.00     0.010 A 
ATOM     85  C   UNL A   1      49.904  26.866  25.184  1.00  0.00     0.010 A 
ATOM     86  C   UNL A   1      51.632  25.753  27.086  1.00  0.00     0.020 A 
ATOM     87  C   UNL A   1      51.170  26.419  24.794  1.00  0.00     0.020 A 
ATOM     88  C   UNL A   1      52.029  25.875  25.751  1.00  0.00     0.054 A 
BRANCH  88  89
ATOM     89  S   UNL A   1      53.666  25.259  25.266  1.00  0.00     0.124 S 
ATOM     90  O   UNL A   1      53.548  23.830  25.547  1.00  0.00    -0.237 OA
ATOM     91  O   UNL A   1      53.739  25.618  23.852  1.00  0.00    -0.237 OA
ATOM     92  O   UNL A   1      54.583  25.992  26.136  1.00  0.00    -0.744 OA
ENDBRANCH  88  89
ENDBRANCH  62  83
ENDBRANCH  36  37
ENDBRANCH  28  31
ENDBRANCH  26  27
ENDBRANCH  25  26
ENDBRANCH   1  25
TORSDOF 17
ENDMDL
MODEL 3
REMARK VINA RESULT:     -10.2      4.997      7.343
REMARK SMILES O=C(CCc1cccnc1)Nc1cccc(F)c1C(=O)NCCCNC(=O)c1ccc(-c2c3nc(c(-c4ccc(S(=O)(=O)[O-])cc4)c4ccc([nH]4)c(-c4ccc(S(=O)(=O)[O-])cc4)c4nc(c(-c5ccc(S(=O)(=O)[O-])cc5)c5ccc2[nH]5)C=C4)C=C3)cc1
REMARK SMILES IDX 22 1 21 2 19 3 20 4 18 6 12 7 13 8 14 9 16 10 15 11 17 12
REMARK SMILES IDX 11 13 1 14 2 15 3 17 4 18 5 19 6 20 10 21 7 22 9 23 8 24
REMARK SMILES IDX 23 25 24 26 25 27 26 28 27 30 28 31 29 32 87 33 30 34 86 35
REMARK SMILES IDX 31 36 32 37 33 38 80 39 34 40 85 41 79 42 81 43 35 44 84 45
REMARK SMILES IDX 78 46 77 47 36 49 66 50 47 51 65 52 48 53 51 54 64 55 82 56
REMARK SMILES IDX 49 57 50 58 63 60 83 61 52 62 37 63 38 64 46 65 39 66 45 67
REMARK SMILES IDX 40 68 41 69 42 70 43 71 44 72 67 73 68 74 76 75 69 76 75 77
REMARK SMILES IDX 70 78 71 79 72 80 73 81 74 82 53 83 54 84 62 85 55 86 61 87
REMARK SMILES IDX 56 88 57 89 58 90 59 91 60 92
REMARK H PARENT 21 5 11 16 25 29 81 48 51 59
REMARK Flexibility Score: inf
ROOT
ATOM      1  C   UNL A   1      35.057  33.852  28.459  1.00  0.00     0.118 C 
ENDROOT
BRANCH   1   2
ATOM      2  N   UNL A   1      35.502  33.783  29.845  1.00  0.00    -0.352 N 
ATOM      3  C   UNL A   1      34.573  33.793  30.862  1.00  0.00     0.256 C 
ATOM      4  O   UNL A   1      34.138  32.738  31.315  1.00  0.00    -0.269 OA
ATOM      5  H   UNL A   1      36.462  33.731  30.055  1.00  0.00     0.163 HD
BRANCH   3   6
ATOM      6  C   UNL A   1      34.266  35.067  31.554  1.00  0.00     0.099 A 
ATOM      7  C   UNL A   1      34.508  35.173  32.948  1.00  0.00     0.056 A 
ATOM      8  C   UNL A   1      34.084  36.329  33.622  1.00  0.00     0.027 A 
ATOM      9  C   UNL A   1      33.440  37.364  32.942  1.00  0.00     0.005 A 
ATOM     10  C   UNL A   1      33.630  36.117  30.890  1.00  0.00     0.138 A 
ATOM     11  C   UNL A   1      33.218  37.260  31.574  1.00  0.00     0.040 A 
ATOM     12  F   UNL A   1      33.347  36.062  29.583  1.00  0.00    -0.206 F 
BRANCH   7  13
ATOM     13  N   UNL A   1      35.242  34.163  33.629  1.00  0.00    -0.325 N 
ATOM     14  O   UNL A   1      37.363  35.090  33.684  1.00  0.00    -0.275 OA
ATOM     15  C   UNL A   1      36.601  34.139  33.858  1.00  0.00     0.224 C 
ATOM     16  H   UNL A   1      34.724  33.400  33.973  1.00  0.00     0.169 HD
BRANCH  15  17
ATOM     17  C   UNL A   1      37.167  32.790  34.281  1.00  0.00     0.105 C 
BRANCH  17  18
ATOM     18  C   UNL A   1      37.692  31.888  33.160  1.00  0.00     0.047 C 
BRANCH  18  19
ATOM     19  C   UNL A   1      39.075  32.270  32.697  1.00  0.00    -0.029 A 
ATOM     20  C   UNL A   1      40.210  31.954  33.449  1.00  0.00     0.007 A 
ATOM     21  C   UNL A   1      39.275  32.979  31.516  1.00  0.00     0.114 A 
ATOM     22  C   UNL A   1      41.460  32.408  33.039  1.00  0.00     0.020 A 
ATOM     23  N   UNL A   1      40.470  33.468  31.114  1.00  0.00    -0.264 NA
ATOM     24  C   UNL A   1      41.535  33.173  31.888  1.00  0.00     0.111 A 
ENDBRANCH  18  19
ENDBRANCH  17  18
ENDBRANCH  15  17
ENDBRANCH   7  13
ENDBRANCH   3   6
ENDBRANCH   1   2
BRANCH   1  25
ATOM     25  C   UNL A   1      34.852  32.470  27.849  1.00  0.00     0.042 C 
BRANCH  25  26
ATOM     26  C   UNL A   1      35.974  31.491  28.193  1.00  0.00     0.118 C 
BRANCH  26  27
ATOM     27  N   UNL A   1      35.715  30.775  29.440  1.00  0.00    -0.352 N 
ATOM     28  C   UNL A   1      36.473  29.855  30.122  1.00  0.00     0.251 C 
ATOM     29  H   UNL A   1      34.852  30.990  29.863  1.00  0.00     0.163 HD
ATOM     30  O   UNL A   1      35.956  29.202  31.026  1.00  0.00    -0.269 OA
BRANCH  28  31
ATOM     31  C   UNL A   1      37.896  29.630  29.778  1.00  0.00     0.039 A 
ATOM     32  C   UNL A   1      38.818  29.425  30.811  1.00  0.00     0.014 A 
ATOM     33  C   UNL A   1      38.335  29.670  28.453  1.00  0.00     0.014 A 
ATOM     34  C   UNL A   1      40.161  29.177  30.509  1.00  0.00     0.010 A 
ATOM     35  C   UNL A   1      39.660  29.358  28.149  1.00  0.00     0.010 A 
ATOM     36  C   UNL A   1      40.584  29.098  29.172  1.00  0.00    -0.014 A 
BRANCH  36  37
ATOM     37  C   UNL A   1      41.972  28.702  28.819  1.00  0.00     0.031 A 
ATOM     38  C   UNL A   1      43.073  29.727  28.778  1.00  0.00     0.074 A 
ATOM     39  C   UNL A   1      42.220  27.432  28.440  1.00  0.00     0.049 A 
ATOM     40  N   UNL A   1      44.312  29.590  28.380  1.00  0.00    -0.248 NA
ATOM     41  C   UNL A   1      42.731  31.089  29.220  1.00  0.00     0.031 C 
ATOM     42  C   UNL A   1      41.231  26.352  28.398  1.00  0.00     0.029 A 
ATOM     43  N   UNL A   1      43.377  26.839  28.001  1.00  0.00    -0.354 N 
ATOM     44  C   UNL A   1      44.891  30.848  28.499  1.00  0.00     0.074 A 
ATOM     45  C   UNL A   1      43.857  31.743  28.975  1.00  0.00     0.031 C 
ATOM     46  C   UNL A   1      41.826  25.227  27.974  1.00  0.00     0.029 A 
ATOM     47  C   UNL A   1      43.225  25.512  27.669  1.00  0.00     0.049 A 
ATOM     48  H   UNL A   1      44.235  27.316  27.930  1.00  0.00     0.167 HD
ATOM     49  C   UNL A   1      46.168  31.222  28.245  1.00  0.00     0.031 A 
ATOM     50  C   UNL A   1      44.103  24.627  27.160  1.00  0.00     0.031 A 
ATOM     51  C   UNL A   1      47.198  30.326  27.788  1.00  0.00     0.049 A 
ATOM     52  C   UNL A   1      45.510  25.068  26.876  1.00  0.00     0.074 A 
ATOM     53  C   UNL A   1      48.538  30.595  27.571  1.00  0.00     0.029 A 
ATOM     54  N   UNL A   1      47.002  28.991  27.472  1.00  0.00    -0.354 N 
ATOM     55  N   UNL A   1      46.053  26.248  27.052  1.00  0.00    -0.248 NA
ATOM     56  C   UNL A   1      46.422  24.059  26.321  1.00  0.00     0.031 C 
ATOM     57  C   UNL A   1      49.144  29.433  27.081  1.00  0.00     0.029 A 
ATOM     58  C   UNL A   1      48.190  28.428  27.034  1.00  0.00     0.049 A 
ATOM     59  H   UNL A   1      46.146  28.511  27.548  1.00  0.00     0.167 HD
ATOM     60  C   UNL A   1      47.374  26.121  26.642  1.00  0.00     0.074 A 
ATOM     61  C   UNL A   1      47.553  24.744  26.224  1.00  0.00     0.031 C 
ATOM     62  C   UNL A   1      48.350  27.062  26.610  1.00  0.00     0.031 A 
BRANCH  49  63
ATOM     63  C   UNL A   1      46.522  32.670  28.452  1.00  0.00    -0.014 A 
ATOM     64  C   UNL A   1      46.375  33.609  27.415  1.00  0.00     0.010 A 
ATOM     65  C   UNL A   1      46.973  33.107  29.711  1.00  0.00     0.010 A 
ATOM     66  C   UNL A   1      46.717  34.948  27.619  1.00  0.00     0.020 A 
ATOM     67  C   UNL A   1      47.293  34.451  29.927  1.00  0.00     0.020 A 
ATOM     68  C   UNL A   1      47.180  35.360  28.872  1.00  0.00     0.054 A 
BRANCH  68  69
ATOM     69  S   UNL A   1      47.606  37.106  29.114  1.00  0.00     0.124 S 
ATOM     70  O   UNL A   1      48.997  37.018  29.553  1.00  0.00    -0.237 OA
ATOM     71  O   UNL A   1      47.403  37.675  27.785  1.00  0.00    -0.237 OA
ATOM     72  O   UNL A   1      46.660  37.556  30.132  1.00  0.00    -0.744 OA
ENDBRANCH  68  69
ENDBRANCH  49  63
BRANCH  50  73
ATOM     73  C   UNL A   1      43.667  23.231  26.885  1.00  0.00    -0.014 A 
ATOM     74  C   UNL A   1      44.127  22.559  25.741  1.00  0.00     0.010 A 
ATOM     75  C   UNL A   1      42.816  22.560  27.781  1.00  0.00     0.010 A 
ATOM     76  C   UNL A   1      43.737  21.238  25.492  1.00  0.00     0.020 A 
ATOM     77  C   UNL A   1      42.444  21.233  27.549  1.00  0.00     0.020 A 
ATOM     78  C   UNL A   1      42.899  20.583  26.400  1.00  0.00     0.054 A 
BRANCH  78  79
ATOM     79  S   UNL A   1      42.461  18.849  26.096  1.00  0.00     0.124 S 
ATOM     80  O   UNL A   1      41.043  18.949  25.765  1.00  0.00    -0.237 OA
ATOM     81  O   UNL A   1      43.345  18.487  24.991  1.00  0.00    -0.237 OA
ATOM     82  O   UNL A   1      42.765  18.194  27.366  1.00  0.00    -0.744 OA
ENDBRANCH  78  79
ENDBRANCH  50  73
BRANCH  62  83
ATOM     83  C   UNL A   1      49.702  26.635  26.111  1.00  0.00    -0.014 A 
ATOM     84  C   UNL A   1      50.112  26.933  24.800  1.00  0.00     0.010 A 
ATOM     85  C   UNL A   1      50.596  25.984  26.981  1.00  0.00     0.010 A 
ATOM     86  C   UNL A   1      51.388  26.571  24.361  1.00  0.00     0.020 A 
ATOM     87  C   UNL A   1      51.881  25.640  26.552  1.00  0.00     0.020 A 
ATOM     88  C   UNL A   1      52.265  25.928  25.240  1.00  0.00     0.054 A 
BRANCH  88  89
ATOM     89  S   UNL A   1      53.937  25.520  24.666  1.00  0.00     0.124 S 
ATOM     90  O   UNL A   1      53.936  24.061  24.740  1.00  0.00    -0.237 OA
ATOM     91  O   UNL A   1      53.959  26.082  23.317  1.00  0.00    -0.237 OA
ATOM     92  O   UNL A   1      54.806  26.194  25.628  1.00  0.00    -0.744 OA
ENDBRANCH  88  89
ENDBRANCH  62  83
ENDBRANCH  36  37
ENDBRANCH  28  31
ENDBRANCH  26  27
ENDBRANCH  25  26
ENDBRANCH   1  25
TORSDOF 17
ENDMDL
