MODEL 1
REMARK VINA RESULT:     -10.8      0.000      0.000
REMARK SMILES CCOC(=O)c1c(NC(=O)/C=C/C(=O)NCCCNC(=O)c2ccc(-c3c4nc(c(-c5ccc(S(=O)(=O)[O-])cc5)c5ccc([nH]5)c(-c5ccc(S(=O)(=O)[O-])cc5)c5nc(c(-c6ccc(S(=O)(=O)[O-])cc6)c6ccc3[nH]6)C=C5)C=C4)cc2)sc(C)c1-c1ccc(C)c(C)c1
REMARK SMILES IDX 16 1 15 2 13 3 14 4 12 6 11 7 9 8 8 9 10 11 7 12 6 13 85 14
REMARK SMILES IDX 82 15 83 16 84 17 4 18 5 19 3 20 2 21 1 22 86 23 87 24 93 25
REMARK SMILES IDX 88 26 91 27 89 28 92 29 90 30 17 31 18 32 19 33 20 34 21 36
REMARK SMILES IDX 22 37 23 38 81 39 24 40 80 41 25 42 26 43 27 44 74 45 28 46
REMARK SMILES IDX 79 47 73 48 75 49 29 50 78 51 72 52 71 53 30 55 60 56 41 57
REMARK SMILES IDX 59 58 42 59 45 60 58 61 76 62 43 63 44 64 57 66 77 67 46 68
REMARK SMILES IDX 31 69 32 70 40 71 33 72 39 73 34 74 35 75 36 76 37 77 38 78
REMARK SMILES IDX 61 79 62 80 70 81 63 82 69 83 64 84 65 85 66 86 67 87 68 88
REMARK SMILES IDX 47 89 48 90 56 91 49 92 55 93 50 94 51 95 52 96 53 97 54 98
REMARK H PARENT 15 5 8 10 19 35 75 54 45 65
REMARK Flexibility Score: inf
ROOT
ATOM      1  C   UNL A   1      33.754  27.843  23.209  1.00  0.00     0.118 C 
ENDROOT
BRANCH   1   2
ATOM      2  N   UNL A   1      32.520  28.298  22.592  1.00  0.00    -0.352 N 
ATOM      3  C   UNL A   1      31.248  28.016  22.976  1.00  0.00     0.244 C 
ATOM      4  O   UNL A   1      30.316  28.139  22.187  1.00  0.00    -0.270 OA
ATOM      5  H   UNL A   1      32.618  28.877  21.801  1.00  0.00     0.163 HD
BRANCH   3   6
ATOM      6  C   UNL A   1      30.998  27.578  24.361  1.00  0.00     0.077 C 
ATOM      7  C   UNL A   1      31.348  26.325  24.685  1.00  0.00     0.077 C 
BRANCH   7   8
ATOM      8  C   UNL A   1      31.451  25.912  26.089  1.00  0.00     0.249 C 
ATOM      9  N   UNL A   1      31.626  24.600  26.425  1.00  0.00    -0.313 N 
ATOM     10  H   UNL A   1      31.641  24.438  27.397  1.00  0.00     0.171 HD
ATOM     11  O   UNL A   1      31.350  26.770  26.963  1.00  0.00    -0.270 OA
BRANCH   9  12
ATOM     12  C   UNL A   1      31.785  23.450  25.664  1.00  0.00     0.111 A 
ATOM     13  C   UNL A   1      32.490  22.312  26.025  1.00  0.00     0.102 A 
ATOM     14  C   UNL A   1      32.618  21.400  24.906  1.00  0.00     0.012 A 
ATOM     15  S   UNL A   1      31.064  23.254  24.146  1.00  0.00    -0.122 S 
ATOM     16  C   UNL A   1      31.975  21.870  23.775  1.00  0.00     0.012 A 
ATOM     17  C   UNL A   1      31.930  21.353  22.373  1.00  0.00     0.057 C 
BRANCH  13  18
ATOM     18  C   UNL A   1      33.034  22.133  27.365  1.00  0.00     0.341 C 
ATOM     19  O   UNL A   1      32.322  22.103  28.363  1.00  0.00    -0.246 OA
BRANCH  18  20
ATOM     20  O   UNL A   1      34.392  22.040  27.383  1.00  0.00    -0.462 OA
BRANCH  20  21
ATOM     21  C   UNL A   1      35.117  23.222  27.018  1.00  0.00     0.230 C 
ATOM     22  C   UNL A   1      36.142  22.968  25.926  1.00  0.00     0.049 C 
ENDBRANCH  20  21
ENDBRANCH  18  20
ENDBRANCH  13  18
BRANCH  14  23
ATOM     23  C   UNL A   1      33.266  20.101  24.916  1.00  0.00    -0.016 A 
ATOM     24  C   UNL A   1      34.632  20.023  24.645  1.00  0.00     0.009 A 
ATOM     25  C   UNL A   1      32.541  18.937  25.188  1.00  0.00     0.012 A 
ATOM     26  C   UNL A   1      35.269  18.786  24.644  1.00  0.00     0.004 A 
ATOM     27  C   UNL A   1      33.175  17.683  25.200  1.00  0.00    -0.048 A 
ATOM     28  C   UNL A   1      34.555  17.608  24.922  1.00  0.00    -0.048 A 
ATOM     29  C   UNL A   1      32.354  16.462  25.509  1.00  0.00     0.044 C 
ATOM     30  C   UNL A   1      35.316  16.312  24.878  1.00  0.00     0.044 C 
ENDBRANCH  14  23
ENDBRANCH   9  12
ENDBRANCH   7   8
ENDBRANCH   3   6
ENDBRANCH   1   2
BRANCH   1  31
ATOM     31  C   UNL A   1      34.355  28.933  24.088  1.00  0.00     0.042 C 
BRANCH  31  32
ATOM     32  C   UNL A   1      34.204  28.639  25.577  1.00  0.00     0.118 C 
BRANCH  32  33
ATOM     33  N   UNL A   1      33.802  29.823  26.322  1.00  0.00    -0.352 N 
ATOM     34  C   UNL A   1      34.361  30.384  27.441  1.00  0.00     0.251 C 
ATOM     35  H   UNL A   1      33.010  30.291  25.970  1.00  0.00     0.163 HD
ATOM     36  O   UNL A   1      33.717  31.198  28.098  1.00  0.00    -0.269 OA
BRANCH  34  37
ATOM     37  C   UNL A   1      35.732  30.013  27.850  1.00  0.00     0.039 A 
ATOM     38  C   UNL A   1      35.929  29.401  29.091  1.00  0.00     0.014 A 
ATOM     39  C   UNL A   1      36.825  30.311  27.033  1.00  0.00     0.014 A 
ATOM     40  C   UNL A   1      37.220  29.049  29.489  1.00  0.00     0.010 A 
ATOM     41  C   UNL A   1      38.099  29.885  27.393  1.00  0.00     0.010 A 
ATOM     42  C   UNL A   1      38.312  29.269  28.633  1.00  0.00    -0.014 A 
BRANCH  42  43
ATOM     43  C   UNL A   1      39.690  28.888  29.027  1.00  0.00     0.031 A 
ATOM     44  C   UNL A   1      40.573  29.885  29.730  1.00  0.00     0.074 A 
ATOM     45  C   UNL A   1      40.166  27.672  28.697  1.00  0.00     0.049 A 
ATOM     46  N   UNL A   1      41.823  29.765  30.098  1.00  0.00    -0.248 NA
ATOM     47  C   UNL A   1      39.985  31.201  30.030  1.00  0.00     0.031 C 
ATOM     48  C   UNL A   1      39.423  26.637  27.973  1.00  0.00     0.029 A 
ATOM     49  N   UNL A   1      41.393  27.102  28.923  1.00  0.00    -0.354 N 
ATOM     50  C   UNL A   1      42.176  30.992  30.647  1.00  0.00     0.074 A 
ATOM     51  C   UNL A   1      41.024  31.859  30.522  1.00  0.00     0.031 C 
ATOM     52  C   UNL A   1      40.199  25.550  27.840  1.00  0.00     0.029 A 
ATOM     53  C   UNL A   1      41.504  25.821  28.435  1.00  0.00     0.049 A 
ATOM     54  H   UNL A   1      42.125  27.566  29.389  1.00  0.00     0.167 HD
ATOM     55  C   UNL A   1      43.345  31.361  31.222  1.00  0.00     0.031 A 
ATOM     56  C   UNL A   1      42.540  24.962  28.465  1.00  0.00     0.031 A 
ATOM     57  C   UNL A   1      44.478  30.487  31.367  1.00  0.00     0.049 A 
ATOM     58  C   UNL A   1      43.818  25.382  29.134  1.00  0.00     0.074 A 
ATOM     59  C   UNL A   1      45.688  30.740  31.990  1.00  0.00     0.029 A 
ATOM     60  N   UNL A   1      44.539  29.187  30.889  1.00  0.00    -0.354 N 
ATOM     61  N   UNL A   1      44.113  26.528  29.702  1.00  0.00    -0.248 NA
ATOM     62  C   UNL A   1      44.900  24.390  29.180  1.00  0.00     0.031 C 
ATOM     63  C   UNL A   1      46.494  29.606  31.854  1.00  0.00     0.029 A 
ATOM     64  C   UNL A   1      45.769  28.629  31.188  1.00  0.00     0.049 A 
ATOM     65  H   UNL A   1      43.813  28.728  30.406  1.00  0.00     0.167 HD
ATOM     66  C   UNL A   1      45.404  26.386  30.194  1.00  0.00     0.074 A 
ATOM     67  C   UNL A   1      45.828  25.038  29.870  1.00  0.00     0.031 C 
ATOM     68  C   UNL A   1      46.172  27.287  30.855  1.00  0.00     0.031 A 
BRANCH  55  69
ATOM     69  C   UNL A   1      43.453  32.773  31.735  1.00  0.00    -0.014 A 
ATOM     70  C   UNL A   1      43.031  33.108  33.034  1.00  0.00     0.010 A 
ATOM     71  C   UNL A   1      44.006  33.774  30.916  1.00  0.00     0.010 A 
ATOM     72  C   UNL A   1      43.116  34.427  33.489  1.00  0.00     0.020 A 
ATOM     73  C   UNL A   1      44.119  35.090  31.377  1.00  0.00     0.020 A 
ATOM     74  C   UNL A   1      43.655  35.411  32.655  1.00  0.00     0.054 A 
BRANCH  74  75
ATOM     75  S   UNL A   1      43.769  37.112  33.275  1.00  0.00     0.124 S 
ATOM     76  O   UNL A   1      43.698  37.888  32.039  1.00  0.00    -0.237 OA
ATOM     77  O   UNL A   1      42.603  37.216  34.149  1.00  0.00    -0.237 OA
ATOM     78  O   UNL A   1      45.060  37.146  33.958  1.00  0.00    -0.744 OA
ENDBRANCH  74  75
ENDBRANCH  55  69
BRANCH  56  79
ATOM     79  C   UNL A   1      42.396  23.607  27.868  1.00  0.00    -0.014 A 
ATOM     80  C   UNL A   1      42.698  23.394  26.511  1.00  0.00     0.010 A 
ATOM     81  C   UNL A   1      41.979  22.519  28.655  1.00  0.00     0.010 A 
ATOM     82  C   UNL A   1      42.568  22.120  25.949  1.00  0.00     0.020 A 
ATOM     83  C   UNL A   1      41.872  21.240  28.102  1.00  0.00     0.020 A 
ATOM     84  C   UNL A   1      42.157  21.051  26.749  1.00  0.00     0.054 A 
BRANCH  84  85
ATOM     85  S   UNL A   1      42.049  19.397  26.012  1.00  0.00     0.124 S 
ATOM     86  O   UNL A   1      40.616  19.265  25.770  1.00  0.00    -0.237 OA
ATOM     87  O   UNL A   1      42.883  19.526  24.819  1.00  0.00    -0.237 OA
ATOM     88  O   UNL A   1      42.592  18.525  27.050  1.00  0.00    -0.744 OA
ENDBRANCH  84  85
ENDBRANCH  56  79
BRANCH  68  89
ATOM     89  C   UNL A   1      47.536  26.833  31.298  1.00  0.00    -0.014 A 
ATOM     90  C   UNL A   1      48.664  27.017  30.481  1.00  0.00     0.010 A 
ATOM     91  C   UNL A   1      47.693  26.251  32.569  1.00  0.00     0.010 A 
ATOM     92  C   UNL A   1      49.923  26.593  30.912  1.00  0.00     0.020 A 
ATOM     93  C   UNL A   1      48.954  25.849  33.014  1.00  0.00     0.020 A 
ATOM     94  C   UNL A   1      50.059  26.007  32.176  1.00  0.00     0.054 A 
BRANCH  94  95
ATOM     95  S   UNL A   1      51.708  25.493  32.729  1.00  0.00     0.124 S 
ATOM     96  O   UNL A   1      51.763  24.107  32.271  1.00  0.00    -0.237 OA
ATOM     97  O   UNL A   1      52.589  26.423  32.025  1.00  0.00    -0.237 OA
ATOM     98  O   UNL A   1      51.658  25.671  34.178  1.00  0.00    -0.744 OA
ENDBRANCH  94  95
ENDBRANCH  68  89
ENDBRANCH  42  43
ENDBRANCH  34  37
ENDBRANCH  32  33
ENDBRANCH  31  32
ENDBRANCH   1  31
TORSDOF 19
ENDMDL
MODEL 2
REMARK VINA RESULT:     -10.4      2.636      3.436
REMARK SMILES CCOC(=O)c1c(NC(=O)/C=C/C(=O)NCCCNC(=O)c2ccc(-c3c4nc(c(-c5ccc(S(=O)(=O)[O-])cc5)c5ccc([nH]5)c(-c5ccc(S(=O)(=O)[O-])cc5)c5nc(c(-c6ccc(S(=O)(=O)[O-])cc6)c6ccc3[nH]6)C=C5)C=C4)cc2)sc(C)c1-c1ccc(C)c(C)c1
REMARK SMILES IDX 16 1 15 2 13 3 14 4 12 6 11 7 9 8 8 9 10 11 7 12 6 13 85 14
REMARK SMILES IDX 82 15 83 16 84 17 4 18 5 19 3 20 2 21 1 22 86 23 87 24 93 25
REMARK SMILES IDX 88 26 91 27 89 28 92 29 90 30 17 31 18 32 19 33 20 34 21 36
REMARK SMILES IDX 22 37 23 38 81 39 24 40 80 41 25 42 26 43 27 44 74 45 28 46
REMARK SMILES IDX 79 47 73 48 75 49 29 50 78 51 72 52 71 53 30 55 60 56 41 57
REMARK SMILES IDX 59 58 42 59 45 60 58 61 76 62 43 63 44 64 57 66 77 67 46 68
REMARK SMILES IDX 31 69 32 70 40 71 33 72 39 73 34 74 35 75 36 76 37 77 38 78
REMARK SMILES IDX 61 79 62 80 70 81 63 82 69 83 64 84 65 85 66 86 67 87 68 88
REMARK SMILES IDX 47 89 48 90 56 91 49 92 55 93 50 94 51 95 52 96 53 97 54 98
REMARK H PARENT 15 5 8 10 19 35 75 54 45 65
REMARK Flexibility Score: inf
ROOT
ATOM      1  C   UNL A   1      33.467  27.999  24.125  1.00  0.00     0.118 C 
ENDROOT
BRANCH   1   2
ATOM      2  N   UNL A   1      32.679  28.975  23.392  1.00  0.00    -0.352 N 
ATOM      3  C   UNL A   1      31.341  28.954  23.159  1.00  0.00     0.244 C 
ATOM      4  O   UNL A   1      30.857  29.607  22.240  1.00  0.00    -0.270 OA
ATOM      5  H   UNL A   1      33.173  29.741  23.019  1.00  0.00     0.163 HD
BRANCH   3   6
ATOM      6  C   UNL A   1      30.473  28.149  24.038  1.00  0.00     0.077 C 
ATOM      7  C   UNL A   1      29.748  27.176  23.466  1.00  0.00     0.077 C 
BRANCH   7   8
ATOM      8  C   UNL A   1      29.127  26.124  24.279  1.00  0.00     0.249 C 
ATOM      9  N   UNL A   1      29.751  24.925  24.474  1.00  0.00    -0.313 N 
ATOM     10  H   UNL A   1      29.222  24.284  25.003  1.00  0.00     0.171 HD
ATOM     11  O   UNL A   1      28.016  26.334  24.762  1.00  0.00    -0.270 OA
BRANCH   9  12
ATOM     12  C   UNL A   1      30.985  24.435  24.071  1.00  0.00     0.111 A 
ATOM     13  C   UNL A   1      32.052  24.107  24.894  1.00  0.00     0.102 A 
ATOM     14  C   UNL A   1      33.243  23.827  24.118  1.00  0.00     0.012 A 
ATOM     15  S   UNL A   1      31.352  24.107  22.452  1.00  0.00    -0.122 S 
ATOM     16  C   UNL A   1      33.012  23.917  22.757  1.00  0.00     0.012 A 
ATOM     17  C   UNL A   1      33.938  23.835  21.586  1.00  0.00     0.057 C 
BRANCH  13  18
ATOM     18  C   UNL A   1      31.932  24.097  26.346  1.00  0.00     0.341 C 
ATOM     19  O   UNL A   1      31.820  25.127  27.002  1.00  0.00    -0.246 OA
BRANCH  18  20
ATOM     20  O   UNL A   1      31.994  22.847  26.880  1.00  0.00    -0.462 OA
BRANCH  20  21
ATOM     21  C   UNL A   1      32.975  22.639  27.905  1.00  0.00     0.230 C 
ATOM     22  C   UNL A   1      33.902  21.473  27.603  1.00  0.00     0.049 C 
ENDBRANCH  20  21
ENDBRANCH  18  20
ENDBRANCH  13  18
BRANCH  14  23
ATOM     23  C   UNL A   1      34.540  23.426  24.635  1.00  0.00    -0.016 A 
ATOM     24  C   UNL A   1      35.345  24.378  25.259  1.00  0.00     0.009 A 
ATOM     25  C   UNL A   1      34.986  22.107  24.510  1.00  0.00     0.012 A 
ATOM     26  C   UNL A   1      36.594  24.013  25.753  1.00  0.00     0.004 A 
ATOM     27  C   UNL A   1      36.241  21.723  25.015  1.00  0.00    -0.048 A 
ATOM     28  C   UNL A   1      37.054  22.690  25.642  1.00  0.00    -0.048 A 
ATOM     29  C   UNL A   1      36.672  20.290  24.867  1.00  0.00     0.044 C 
ATOM     30  C   UNL A   1      38.423  22.386  26.184  1.00  0.00     0.044 C 
ENDBRANCH  14  23
ENDBRANCH   9  12
ENDBRANCH   7   8
ENDBRANCH   3   6
ENDBRANCH   1   2
BRANCH   1  31
ATOM     31  C   UNL A   1      34.510  28.689  24.996  1.00  0.00     0.042 C 
BRANCH  31  32
ATOM     32  C   UNL A   1      34.016  28.942  26.416  1.00  0.00     0.118 C 
BRANCH  32  33
ATOM     33  N   UNL A   1      33.808  30.361  26.669  1.00  0.00    -0.352 N 
ATOM     34  C   UNL A   1      34.383  31.174  27.611  1.00  0.00     0.251 C 
ATOM     35  H   UNL A   1      33.158  30.802  26.075  1.00  0.00     0.163 HD
ATOM     36  O   UNL A   1      33.870  32.261  27.868  1.00  0.00    -0.269 OA
BRANCH  34  37
ATOM     37  C   UNL A   1      35.613  30.747  28.309  1.00  0.00     0.039 A 
ATOM     38  C   UNL A   1      35.526  29.769  29.304  1.00  0.00     0.014 A 
ATOM     39  C   UNL A   1      36.842  31.343  28.016  1.00  0.00     0.014 A 
ATOM     40  C   UNL A   1      36.682  29.360  29.972  1.00  0.00     0.010 A 
ATOM     41  C   UNL A   1      38.003  30.876  28.622  1.00  0.00     0.010 A 
ATOM     42  C   UNL A   1      37.933  29.895  29.620  1.00  0.00    -0.014 A 
BRANCH  42  43
ATOM     43  C   UNL A   1      39.176  29.463  30.304  1.00  0.00     0.031 A 
ATOM     44  C   UNL A   1      39.619  30.157  31.565  1.00  0.00     0.074 A 
ATOM     45  C   UNL A   1      39.935  28.495  29.758  1.00  0.00     0.049 A 
ATOM     46  N   UNL A   1      40.703  29.970  32.273  1.00  0.00    -0.248 NA
ATOM     47  C   UNL A   1      38.744  31.224  32.082  1.00  0.00     0.031 C 
ATOM     48  C   UNL A   1      39.637  27.783  28.513  1.00  0.00     0.029 A 
ATOM     49  N   UNL A   1      41.121  27.947  30.177  1.00  0.00    -0.354 N 
ATOM     50  C   UNL A   1      40.654  30.907  33.298  1.00  0.00     0.074 A 
ATOM     51  C   UNL A   1      39.457  31.694  33.095  1.00  0.00     0.031 C 
ATOM     52  C   UNL A   1      40.597  26.872  28.286  1.00  0.00     0.029 A 
ATOM     53  C   UNL A   1      41.597  26.960  29.345  1.00  0.00     0.049 A 
ATOM     54  H   UNL A   1      41.587  28.232  30.996  1.00  0.00     0.167 HD
ATOM     55  C   UNL A   1      41.515  31.086  34.328  1.00  0.00     0.031 A 
ATOM     56  C   UNL A   1      42.712  26.211  29.428  1.00  0.00     0.031 A 
ATOM     57  C   UNL A   1      42.690  30.283  34.540  1.00  0.00     0.049 A 
ATOM     58  C   UNL A   1      43.638  26.407  30.595  1.00  0.00     0.074 A 
ATOM     59  C   UNL A   1      43.594  30.339  35.585  1.00  0.00     0.029 A 
ATOM     60  N   UNL A   1      43.119  29.273  33.692  1.00  0.00    -0.354 N 
ATOM     61  N   UNL A   1      43.543  27.258  31.589  1.00  0.00    -0.248 NA
ATOM     62  C   UNL A   1      44.815  25.531  30.662  1.00  0.00     0.031 C 
ATOM     63  C   UNL A   1      44.593  29.388  35.349  1.00  0.00     0.029 A 
ATOM     64  C   UNL A   1      44.283  28.707  34.182  1.00  0.00     0.049 A 
ATOM     65  H   UNL A   1      42.662  28.998  32.864  1.00  0.00     0.167 HD
ATOM     66  C   UNL A   1      44.633  27.005  32.411  1.00  0.00     0.074 A 
ATOM     67  C   UNL A   1      45.366  25.910  31.806  1.00  0.00     0.031 C 
ATOM     68  C   UNL A   1      44.998  27.620  33.564  1.00  0.00     0.031 A 
BRANCH  55  69
ATOM     69  C   UNL A   1      41.214  32.194  35.301  1.00  0.00    -0.014 A 
ATOM     70  C   UNL A   1      40.429  31.964  36.446  1.00  0.00     0.010 A 
ATOM     71  C   UNL A   1      41.742  33.480  35.083  1.00  0.00     0.010 A 
ATOM     72  C   UNL A   1      40.139  33.007  37.329  1.00  0.00     0.020 A 
ATOM     73  C   UNL A   1      41.477  34.521  35.980  1.00  0.00     0.020 A 
ATOM     74  C   UNL A   1      40.661  34.281  37.087  1.00  0.00     0.054 A 
BRANCH  74  75
ATOM     75  S   UNL A   1      40.282  35.614  38.257  1.00  0.00     0.124 S 
ATOM     76  O   UNL A   1      41.374  35.489  39.219  1.00  0.00    -0.237 OA
ATOM     77  O   UNL A   1      40.323  36.806  37.413  1.00  0.00    -0.237 OA
ATOM     78  O   UNL A   1      38.959  35.262  38.767  1.00  0.00    -0.744 OA
ENDBRANCH  74  75
ENDBRANCH  55  69
BRANCH  56  79
ATOM     79  C   UNL A   1      42.994  25.185  28.389  1.00  0.00    -0.014 A 
ATOM     80  C   UNL A   1      43.742  25.520  27.246  1.00  0.00     0.010 A 
ATOM     81  C   UNL A   1      42.537  23.865  28.544  1.00  0.00     0.010 A 
ATOM     82  C   UNL A   1      44.013  24.557  26.270  1.00  0.00     0.020 A 
ATOM     83  C   UNL A   1      42.828  22.893  27.582  1.00  0.00     0.020 A 
ATOM     84  C   UNL A   1      43.555  23.248  26.445  1.00  0.00     0.054 A 
BRANCH  84  85
ATOM     85  S   UNL A   1      43.965  22.002  25.193  1.00  0.00     0.124 S 
ATOM     86  O   UNL A   1      45.382  21.766  25.451  1.00  0.00    -0.237 OA
ATOM     87  O   UNL A   1      43.067  20.901  25.536  1.00  0.00    -0.237 OA
ATOM     88  O   UNL A   1      43.660  22.673  23.931  1.00  0.00    -0.744 OA
ENDBRANCH  84  85
ENDBRANCH  56  79
BRANCH  68  89
ATOM     89  C   UNL A   1      46.226  27.102  34.260  1.00  0.00    -0.014 A 
ATOM     90  C   UNL A   1      46.145  26.052  35.192  1.00  0.00     0.010 A 
ATOM     91  C   UNL A   1      47.483  27.647  33.946  1.00  0.00     0.010 A 
ATOM     92  C   UNL A   1      47.297  25.582  35.825  1.00  0.00     0.020 A 
ATOM     93  C   UNL A   1      48.641  27.163  34.558  1.00  0.00     0.020 A 
ATOM     94  C   UNL A   1      48.538  26.144  35.506  1.00  0.00     0.054 A 
BRANCH  94  95
ATOM     95  S   UNL A   1      50.026  25.496  36.317  1.00  0.00     0.124 S 
ATOM     96  O   UNL A   1      49.723  24.071  36.414  1.00  0.00    -0.237 OA
ATOM     97  O   UNL A   1      51.086  25.850  35.376  1.00  0.00    -0.237 OA
ATOM     98  O   UNL A   1      50.067  26.214  37.589  1.00  0.00    -0.744 OA
ENDBRANCH  94  95
ENDBRANCH  68  89
ENDBRANCH  42  43
ENDBRANCH  34  37
ENDBRANCH  32  33
ENDBRANCH  31  32
ENDBRANCH   1  31
TORSDOF 19
ENDMDL
MODEL 3
REMARK VINA RESULT:     -10.2      3.392      5.007
REMARK SMILES CCOC(=O)c1c(NC(=O)/C=C/C(=O)NCCCNC(=O)c2ccc(-c3c4nc(c(-c5ccc(S(=O)(=O)[O-])cc5)c5ccc([nH]5)c(-c5ccc(S(=O)(=O)[O-])cc5)c5nc(c(-c6ccc(S(=O)(=O)[O-])cc6)c6ccc3[nH]6)C=C5)C=C4)cc2)sc(C)c1-c1ccc(C)c(C)c1
REMARK SMILES IDX 16 1 15 2 13 3 14 4 12 6 11 7 9 8 8 9 10 11 7 12 6 13 85 14
REMARK SMILES IDX 82 15 83 16 84 17 4 18 5 19 3 20 2 21 1 22 86 23 87 24 93 25
REMARK SMILES IDX 88 26 91 27 89 28 92 29 90 30 17 31 18 32 19 33 20 34 21 36
REMARK SMILES IDX 22 37 23 38 81 39 24 40 80 41 25 42 26 43 27 44 74 45 28 46
REMARK SMILES IDX 79 47 73 48 75 49 29 50 78 51 72 52 71 53 30 55 60 56 41 57
REMARK SMILES IDX 59 58 42 59 45 60 58 61 76 62 43 63 44 64 57 66 77 67 46 68
REMARK SMILES IDX 31 69 32 70 40 71 33 72 39 73 34 74 35 75 36 76 37 77 38 78
REMARK SMILES IDX 61 79 62 80 70 81 63 82 69 83 64 84 65 85 66 86 67 87 68 88
REMARK SMILES IDX 47 89 48 90 56 91 49 92 55 93 50 94 51 95 52 96 53 97 54 98
REMARK H PARENT 15 5 8 10 19 35 75 54 45 65
REMARK Flexibility Score: inf
ROOT
ATOM      1  C   UNL A   1      35.240  32.517  29.143  1.00  0.00     0.118 C 
ENDROOT
BRANCH   1   2
ATOM      2  N   UNL A   1      35.691  31.419  28.305  1.00  0.00    -0.352 N 
ATOM      3  C   UNL A   1      34.926  30.536  27.612  1.00  0.00     0.244 C 
ATOM      4  O   UNL A   1      35.387  29.457  27.254  1.00  0.00    -0.270 OA
ATOM      5  H   UNL A   1      36.666  31.301  28.233  1.00  0.00     0.163 HD
BRANCH   3   6
ATOM      6  C   UNL A   1      33.537  30.900  27.277  1.00  0.00     0.077 C 
ATOM      7  C   UNL A   1      33.077  30.532  26.072  1.00  0.00     0.077 C 
BRANCH   7   8
ATOM      8  C   UNL A   1      31.639  30.546  25.781  1.00  0.00     0.249 C 
ATOM      9  N   UNL A   1      31.076  29.604  24.968  1.00  0.00    -0.313 N 
ATOM     10  H   UNL A   1      30.112  29.738  24.813  1.00  0.00     0.171 HD
ATOM     11  O   UNL A   1      30.950  31.443  26.263  1.00  0.00    -0.270 OA
BRANCH   9  12
ATOM     12  C   UNL A   1      31.599  28.496  24.316  1.00  0.00     0.111 A 
ATOM     13  C   UNL A   1      32.074  27.337  24.912  1.00  0.00     0.102 A 
ATOM     14  C   UNL A   1      32.733  26.485  23.942  1.00  0.00     0.012 A 
ATOM     15  S   UNL A   1      31.683  28.383  22.630  1.00  0.00    -0.122 S 
ATOM     16  C   UNL A   1      32.690  27.017  22.666  1.00  0.00     0.012 A 
ATOM     17  C   UNL A   1      33.321  26.574  21.386  1.00  0.00     0.057 C 
BRANCH  13  18
ATOM     18  C   UNL A   1      31.926  27.085  26.339  1.00  0.00     0.341 C 
ATOM     19  O   UNL A   1      32.877  27.129  27.114  1.00  0.00    -0.246 OA
BRANCH  18  20
ATOM     20  O   UNL A   1      30.653  26.769  26.699  1.00  0.00    -0.462 OA
BRANCH  20  21
ATOM     21  C   UNL A   1      30.026  25.711  25.961  1.00  0.00     0.230 C 
ATOM     22  C   UNL A   1      30.337  24.336  26.527  1.00  0.00     0.049 C 
ENDBRANCH  20  21
ENDBRANCH  18  20
ENDBRANCH  13  18
BRANCH  14  23
ATOM     23  C   UNL A   1      33.327  25.183  24.195  1.00  0.00    -0.016 A 
ATOM     24  C   UNL A   1      32.670  24.039  23.744  1.00  0.00     0.009 A 
ATOM     25  C   UNL A   1      34.538  25.067  24.884  1.00  0.00     0.012 A 
ATOM     26  C   UNL A   1      33.220  22.784  23.984  1.00  0.00     0.004 A 
ATOM     27  C   UNL A   1      35.110  23.806  25.122  1.00  0.00    -0.048 A 
ATOM     28  C   UNL A   1      34.440  22.651  24.669  1.00  0.00    -0.048 A 
ATOM     29  C   UNL A   1      36.419  23.733  25.857  1.00  0.00     0.044 C 
ATOM     30  C   UNL A   1      34.952  21.257  24.903  1.00  0.00     0.044 C 
ENDBRANCH  14  23
ENDBRANCH   9  12
ENDBRANCH   7   8
ENDBRANCH   3   6
ENDBRANCH   1   2
BRANCH   1  31
ATOM     31  C   UNL A   1      36.358  33.529  29.360  1.00  0.00     0.042 C 
BRANCH  31  32
ATOM     32  C   UNL A   1      37.109  33.305  30.668  1.00  0.00     0.118 C 
BRANCH  32  33
ATOM     33  N   UNL A   1      36.540  32.204  31.433  1.00  0.00    -0.352 N 
ATOM     34  C   UNL A   1      36.890  30.877  31.447  1.00  0.00     0.251 C 
ATOM     35  H   UNL A   1      35.794  32.447  32.028  1.00  0.00     0.163 HD
ATOM     36  O   UNL A   1      36.114  30.051  31.921  1.00  0.00    -0.269 OA
BRANCH  34  37
ATOM     37  C   UNL A   1      38.193  30.448  30.899  1.00  0.00     0.039 A 
ATOM     38  C   UNL A   1      38.337  30.311  29.516  1.00  0.00     0.014 A 
ATOM     39  C   UNL A   1      39.256  30.134  31.750  1.00  0.00     0.014 A 
ATOM     40  C   UNL A   1      39.563  29.903  28.987  1.00  0.00     0.010 A 
ATOM     41  C   UNL A   1      40.499  29.809  31.219  1.00  0.00     0.010 A 
ATOM     42  C   UNL A   1      40.660  29.670  29.834  1.00  0.00    -0.014 A 
BRANCH  42  43
ATOM     43  C   UNL A   1      41.976  29.252  29.293  1.00  0.00     0.031 A 
ATOM     44  C   UNL A   1      43.099  30.251  29.196  1.00  0.00     0.074 A 
ATOM     45  C   UNL A   1      42.140  27.998  28.833  1.00  0.00     0.049 A 
ATOM     46  N   UNL A   1      44.298  30.098  28.696  1.00  0.00    -0.248 NA
ATOM     47  C   UNL A   1      42.828  31.609  29.697  1.00  0.00     0.031 C 
ATOM     48  C   UNL A   1      41.112  26.953  28.827  1.00  0.00     0.029 A 
ATOM     49  N   UNL A   1      43.234  27.388  28.273  1.00  0.00    -0.354 N 
ATOM     50  C   UNL A   1      44.913  31.340  28.799  1.00  0.00     0.074 A 
ATOM     51  C   UNL A   1      43.940  32.249  29.365  1.00  0.00     0.031 C 
ATOM     52  C   UNL A   1      41.632  25.826  28.318  1.00  0.00     0.029 A 
ATOM     53  C   UNL A   1      43.016  26.075  27.928  1.00  0.00     0.049 A 
ATOM     54  H   UNL A   1      44.093  27.847  28.132  1.00  0.00     0.167 HD
ATOM     55  C   UNL A   1      46.180  31.691  28.471  1.00  0.00     0.031 A 
ATOM     56  C   UNL A   1      43.840  25.172  27.361  1.00  0.00     0.031 A 
ATOM     57  C   UNL A   1      47.151  30.777  27.933  1.00  0.00     0.049 A 
ATOM     58  C   UNL A   1      45.249  25.576  27.032  1.00  0.00     0.074 A 
ATOM     59  C   UNL A   1      48.479  31.015  27.626  1.00  0.00     0.029 A 
ATOM     60  N   UNL A   1      46.901  29.448  27.629  1.00  0.00    -0.354 N 
ATOM     61  N   UNL A   1      45.832  26.741  27.193  1.00  0.00    -0.248 NA
ATOM     62  C   UNL A   1      46.119  24.540  26.460  1.00  0.00     0.031 C 
ATOM     63  C   UNL A   1      49.022  29.838  27.099  1.00  0.00     0.029 A 
ATOM     64  C   UNL A   1      48.044  28.855  27.123  1.00  0.00     0.049 A 
ATOM     65  H   UNL A   1      46.036  28.993  27.753  1.00  0.00     0.167 HD
ATOM     66  C   UNL A   1      47.142  26.572  26.764  1.00  0.00     0.074 A 
ATOM     67  C   UNL A   1      47.271  25.188  26.352  1.00  0.00     0.031 C 
ATOM     68  C   UNL A   1      48.150  27.477  26.716  1.00  0.00     0.031 A 
BRANCH  55  69
ATOM     69  C   UNL A   1      46.581  33.126  28.687  1.00  0.00    -0.014 A 
ATOM     70  C   UNL A   1      46.347  34.103  27.702  1.00  0.00     0.010 A 
ATOM     71  C   UNL A   1      47.177  33.511  29.903  1.00  0.00     0.010 A 
ATOM     72  C   UNL A   1      46.745  35.427  27.908  1.00  0.00     0.020 A 
ATOM     73  C   UNL A   1      47.551  34.841  30.124  1.00  0.00     0.020 A 
ATOM     74  C   UNL A   1      47.350  35.786  29.116  1.00  0.00     0.054 A 
BRANCH  74  75
ATOM     75  S   UNL A   1      47.842  37.514  29.363  1.00  0.00     0.124 S 
ATOM     76  O   UNL A   1      46.611  38.228  29.032  1.00  0.00    -0.237 OA
ATOM     77  O   UNL A   1      48.225  37.543  30.772  1.00  0.00    -0.237 OA
ATOM     78  O   UNL A   1      48.941  37.700  28.419  1.00  0.00    -0.744 OA
ENDBRANCH  74  75
ENDBRANCH  55  69
BRANCH  56  79
ATOM     79  C   UNL A   1      43.357  23.790  27.099  1.00  0.00    -0.014 A 
ATOM     80  C   UNL A   1      42.845  23.445  25.835  1.00  0.00     0.010 A 
ATOM     81  C   UNL A   1      43.425  22.807  28.101  1.00  0.00     0.010 A 
ATOM     82  C   UNL A   1      42.395  22.145  25.585  1.00  0.00     0.020 A 
ATOM     83  C   UNL A   1      42.999  21.500  27.846  1.00  0.00     0.020 A 
ATOM     84  C   UNL A   1      42.476  21.180  26.592  1.00  0.00     0.054 A 
BRANCH  84  85
ATOM     85  S   UNL A   1      41.937  19.487  26.228  1.00  0.00     0.124 S 
ATOM     86  O   UNL A   1      42.744  19.157  25.057  1.00  0.00    -0.237 OA
ATOM     87  O   UNL A   1      42.283  18.773  27.456  1.00  0.00    -0.237 OA
ATOM     88  O   UNL A   1      40.504  19.630  25.984  1.00  0.00    -0.744 OA
ENDBRANCH  84  85
ENDBRANCH  56  79
BRANCH  68  89
ATOM     89  C   UNL A   1      49.487  26.991  26.228  1.00  0.00    -0.014 A 
ATOM     90  C   UNL A   1      50.053  27.488  25.041  1.00  0.00     0.010 A 
ATOM     91  C   UNL A   1      50.204  26.052  26.991  1.00  0.00     0.010 A 
ATOM     92  C   UNL A   1      51.298  27.028  24.607  1.00  0.00     0.020 A 
ATOM     93  C   UNL A   1      51.460  25.608  26.574  1.00  0.00     0.020 A 
ATOM     94  C   UNL A   1      51.992  26.086  25.375  1.00  0.00     0.054 A 
BRANCH  94  95
ATOM     95  S   UNL A   1      53.621  25.525  24.809  1.00  0.00     0.124 S 
ATOM     96  O   UNL A   1      54.406  26.755  24.876  1.00  0.00    -0.237 OA
ATOM     97  O   UNL A   1      53.970  24.503  25.793  1.00  0.00    -0.237 OA
ATOM     98  O   UNL A   1      53.364  25.021  23.462  1.00  0.00    -0.744 OA
ENDBRANCH  94  95
ENDBRANCH  68  89
ENDBRANCH  42  43
ENDBRANCH  34  37
ENDBRANCH  32  33
ENDBRANCH  31  32
ENDBRANCH   1  31
TORSDOF 19
ENDMDL
