MODEL 1
REMARK VINA RESULT:     -12.1      0.000      0.000
REMARK SMILES O=C(NCCCNC(=O)c1ccccc1/C=N\NC(=S)NCc1ccccc1)c1ccc(-c2c3nc(c(-c4ccc(S(=O)(=O)[O-])cc4)c4ccc([nH]4)c(-c4ccc(S(=O)(=O)[O-])cc4)c4nc(c(-c5ccc(S(=O)(=O)[O-])cc5)c5ccc2[nH]5)C=C4)C=C3)cc1
REMARK SMILES IDX 7 1 8 2 9 3 6 5 5 6 4 7 3 8 1 9 2 10 29 12 30 13 88 14 31 15
REMARK SMILES IDX 87 16 32 17 33 18 34 19 81 20 35 21 86 22 80 23 82 24 36 25
REMARK SMILES IDX 85 26 79 27 78 28 37 30 67 31 48 32 66 33 49 34 52 35 65 36
REMARK SMILES IDX 83 37 50 38 51 39 64 41 84 42 53 43 38 44 39 45 47 46 40 47
REMARK SMILES IDX 46 48 41 49 42 50 43 51 44 52 45 53 68 54 69 55 77 56 70 57
REMARK SMILES IDX 76 58 71 59 72 60 73 61 74 62 75 63 54 64 55 65 63 66 56 67
REMARK SMILES IDX 62 68 57 69 58 70 59 71 60 72 61 73 10 74 11 75 15 76 12 77
REMARK SMILES IDX 14 78 13 79 16 80 17 81 18 82 19 84 20 85 21 86 22 88 23 89
REMARK SMILES IDX 24 90 28 91 25 92 27 93 26 94
REMARK H PARENT 7 4 3 11 82 29 52 40 18 83 21 87
REMARK Flexibility Score: inf
ROOT
ATOM      1  N   UNL A   1      35.907  24.000  25.154  1.00  0.00    -0.352 N 
ATOM      2  C   UNL A   1      34.638  23.459  25.125  1.00  0.00     0.251 C 
ATOM      3  O   UNL A   1      33.725  24.069  25.680  1.00  0.00    -0.269 OA
ATOM      4  H   UNL A   1      35.937  24.903  25.544  1.00  0.00     0.163 HD
ENDROOT
BRANCH   1   5
ATOM      5  C   UNL A   1      37.211  23.512  24.725  1.00  0.00     0.118 C 
BRANCH   5   6
ATOM      6  C   UNL A   1      38.077  22.870  25.797  1.00  0.00     0.042 C 
BRANCH   6   7
ATOM      7  C   UNL A   1      38.859  23.861  26.643  1.00  0.00     0.118 C 
BRANCH   7   8
ATOM      8  N   UNL A   1      40.148  24.206  26.049  1.00  0.00    -0.352 N 
ATOM      9  O   UNL A   1      41.923  25.421  25.448  1.00  0.00    -0.269 OA
ATOM     10  C   UNL A   1      41.036  25.228  26.278  1.00  0.00     0.251 C 
ATOM     11  H   UNL A   1      40.438  23.582  25.346  1.00  0.00     0.163 HD
BRANCH  10  12
ATOM     12  C   UNL A   1      40.961  26.089  27.481  1.00  0.00     0.039 A 
ATOM     13  C   UNL A   1      41.730  27.243  27.601  1.00  0.00     0.014 A 
ATOM     14  C   UNL A   1      40.017  25.792  28.476  1.00  0.00     0.014 A 
ATOM     15  C   UNL A   1      41.676  28.009  28.761  1.00  0.00     0.010 A 
ATOM     16  C   UNL A   1      39.875  26.630  29.588  1.00  0.00     0.010 A 
ATOM     17  C   UNL A   1      40.720  27.737  29.751  1.00  0.00    -0.014 A 
BRANCH  17  18
ATOM     18  C   UNL A   1      40.567  28.689  30.882  1.00  0.00     0.031 A 
ATOM     19  C   UNL A   1      41.492  28.652  32.066  1.00  0.00     0.074 A 
ATOM     20  C   UNL A   1      39.597  29.623  30.809  1.00  0.00     0.049 A 
ATOM     21  N   UNL A   1      41.521  29.444  33.107  1.00  0.00    -0.248 NA
ATOM     22  C   UNL A   1      42.509  27.590  32.091  1.00  0.00     0.031 C 
ATOM     23  C   UNL A   1      38.631  29.750  29.711  1.00  0.00     0.029 A 
ATOM     24  N   UNL A   1      39.276  30.659  31.649  1.00  0.00    -0.354 N 
ATOM     25  C   UNL A   1      42.539  28.965  33.924  1.00  0.00     0.074 A 
ATOM     26  C   UNL A   1      43.087  27.797  33.266  1.00  0.00     0.031 C 
ATOM     27  C   UNL A   1      37.880  30.843  29.907  1.00  0.00     0.029 A 
ATOM     28  C   UNL A   1      38.251  31.447  31.180  1.00  0.00     0.049 A 
ATOM     29  H   UNL A   1      39.735  30.822  32.503  1.00  0.00     0.167 HD
ATOM     30  C   UNL A   1      42.973  29.453  35.112  1.00  0.00     0.031 A 
ATOM     31  C   UNL A   1      37.659  32.530  31.717  1.00  0.00     0.031 A 
ATOM     32  C   UNL A   1      42.414  30.610  35.762  1.00  0.00     0.049 A 
ATOM     33  C   UNL A   1      38.140  33.032  33.047  1.00  0.00     0.074 A 
ATOM     34  C   UNL A   1      42.800  31.199  36.954  1.00  0.00     0.029 A 
ATOM     35  N   UNL A   1      41.343  31.349  35.281  1.00  0.00    -0.354 N 
ATOM     36  N   UNL A   1      39.121  32.579  33.788  1.00  0.00    -0.248 NA
ATOM     37  C   UNL A   1      37.432  34.186  33.612  1.00  0.00     0.031 C 
ATOM     38  C   UNL A   1      41.928  32.261  37.219  1.00  0.00     0.029 A 
ATOM     39  C   UNL A   1      41.036  32.372  36.164  1.00  0.00     0.049 A 
ATOM     40  H   UNL A   1      40.869  31.173  34.436  1.00  0.00     0.167 HD
ATOM     41  C   UNL A   1      39.159  33.401  34.907  1.00  0.00     0.074 A 
ATOM     42  C   UNL A   1      38.114  34.391  34.731  1.00  0.00     0.031 C 
ATOM     43  C   UNL A   1      39.983  33.341  35.981  1.00  0.00     0.031 A 
BRANCH  30  44
ATOM     44  C   UNL A   1      44.085  28.704  35.803  1.00  0.00    -0.014 A 
ATOM     45  C   UNL A   1      45.434  29.054  35.612  1.00  0.00     0.010 A 
ATOM     46  C   UNL A   1      43.772  27.641  36.670  1.00  0.00     0.010 A 
ATOM     47  C   UNL A   1      46.451  28.319  36.230  1.00  0.00     0.020 A 
ATOM     48  C   UNL A   1      44.785  26.921  37.313  1.00  0.00     0.020 A 
ATOM     49  C   UNL A   1      46.119  27.251  37.069  1.00  0.00     0.054 A 
BRANCH  49  50
ATOM     50  S   UNL A   1      47.457  26.305  37.847  1.00  0.00     0.124 S 
ATOM     51  O   UNL A   1      47.952  27.251  38.845  1.00  0.00    -0.237 OA
ATOM     52  O   UNL A   1      46.758  25.139  38.382  1.00  0.00    -0.237 OA
ATOM     53  O   UNL A   1      48.374  26.027  36.745  1.00  0.00    -0.744 OA
ENDBRANCH  49  50
ENDBRANCH  30  44
BRANCH  31  54
ATOM     54  C   UNL A   1      36.545  33.195  30.988  1.00  0.00    -0.014 A 
ATOM     55  C   UNL A   1      35.228  33.115  31.469  1.00  0.00     0.010 A 
ATOM     56  C   UNL A   1      36.810  33.964  29.840  1.00  0.00     0.010 A 
ATOM     57  C   UNL A   1      34.195  33.795  30.816  1.00  0.00     0.020 A 
ATOM     58  C   UNL A   1      35.786  34.669  29.202  1.00  0.00     0.020 A 
ATOM     59  C   UNL A   1      34.483  34.574  29.692  1.00  0.00     0.054 A 
BRANCH  59  60
ATOM     60  S   UNL A   1      33.142  35.514  28.912  1.00  0.00     0.124 S 
ATOM     61  O   UNL A   1      33.878  36.482  28.105  1.00  0.00    -0.237 OA
ATOM     62  O   UNL A   1      32.426  34.482  28.166  1.00  0.00    -0.237 OA
ATOM     63  O   UNL A   1      32.409  36.071  30.047  1.00  0.00    -0.744 OA
ENDBRANCH  59  60
ENDBRANCH  31  54
BRANCH  43  64
ATOM     64  C   UNL A   1      39.802  34.393  37.040  1.00  0.00    -0.014 A 
ATOM     65  C   UNL A   1      38.977  34.169  38.156  1.00  0.00     0.010 A 
ATOM     66  C   UNL A   1      40.500  35.610  36.934  1.00  0.00     0.010 A 
ATOM     67  C   UNL A   1      38.828  35.159  39.132  1.00  0.00     0.020 A 
ATOM     68  C   UNL A   1      40.375  36.590  37.921  1.00  0.00     0.020 A 
ATOM     69  C   UNL A   1      39.527  36.363  39.007  1.00  0.00     0.054 A 
BRANCH  69  70
ATOM     70  S   UNL A   1      39.350  37.615  40.306  1.00  0.00     0.124 S 
ATOM     71  O   UNL A   1      40.661  38.258  40.290  1.00  0.00    -0.237 OA
ATOM     72  O   UNL A   1      38.243  38.433  39.815  1.00  0.00    -0.237 OA
ATOM     73  O   UNL A   1      39.053  36.833  41.504  1.00  0.00    -0.744 OA
ENDBRANCH  69  70
ENDBRANCH  43  64
ENDBRANCH  17  18
ENDBRANCH  10  12
ENDBRANCH   7   8
ENDBRANCH   6   7
ENDBRANCH   5   6
ENDBRANCH   1   5
BRANCH   2  74
ATOM     74  C   UNL A   1      34.270  22.293  24.284  1.00  0.00     0.048 A 
ATOM     75  C   UNL A   1      34.632  20.702  25.081  1.00  0.00     0.014 A 
ATOM     76  C   UNL A   1      32.973  22.389  23.015  1.00  0.00     0.007 A 
ATOM     77  C   UNL A   1      33.660  19.223  24.648  1.00  0.00     0.001 A 
ATOM     78  C   UNL A   1      32.028  20.906  22.551  1.00  0.00     0.010 A 
ATOM     79  C   UNL A   1      32.402  19.321  23.351  1.00  0.00     0.001 A 
BRANCH  76  80
ATOM     80  C   UNL A   1      33.220  23.315  21.935  1.00  0.00     0.142 C 
ATOM     81  N   UNL A   1      32.831  24.535  22.048  1.00  0.00    -0.181 NA
BRANCH  81  82
ATOM     82  N   UNL A   1      32.075  24.856  23.136  1.00  0.00    -0.254 N 
ATOM     83  H   UNL A   1      31.781  24.075  23.657  1.00  0.00     0.193 HD
BRANCH  82  84
ATOM     84  C   UNL A   1      31.648  26.038  23.643  1.00  0.00     0.187 C 
ATOM     85  S   UNL A   1      30.937  27.077  22.509  1.00  0.00    -0.039 S 
BRANCH  84  86
ATOM     86  N   UNL A   1      31.727  26.530  24.953  1.00  0.00    -0.357 N 
ATOM     87  H   UNL A   1      31.380  25.777  25.483  1.00  0.00     0.163 HD
BRANCH  86  88
ATOM     88  C   UNL A   1      32.159  27.947  26.423  1.00  0.00     0.151 C 
BRANCH  88  89
ATOM     89  C   UNL A   1      33.259  29.180  26.634  1.00  0.00    -0.029 A 
ATOM     90  C   UNL A   1      32.804  30.450  27.059  1.00  0.00     0.005 A 
ATOM     91  C   UNL A   1      34.609  28.843  26.866  1.00  0.00     0.005 A 
ATOM     92  C   UNL A   1      33.662  31.334  27.714  1.00  0.00     0.000 A 
ATOM     93  C   UNL A   1      35.454  29.729  27.539  1.00  0.00     0.000 A 
ATOM     94  C   UNL A   1      34.978  30.964  27.973  1.00  0.00     0.000 A 
ENDBRANCH  88  89
ENDBRANCH  86  88
ENDBRANCH  84  86
ENDBRANCH  82  84
ENDBRANCH  81  82
ENDBRANCH  76  80
ENDBRANCH   2  74
TORSDOF 19
ENDMDL
MODEL 2
REMARK VINA RESULT:     -12.0      6.400     12.175
REMARK SMILES O=C(NCCCNC(=O)c1ccccc1/C=N\NC(=S)NCc1ccccc1)c1ccc(-c2c3nc(c(-c4ccc(S(=O)(=O)[O-])cc4)c4ccc([nH]4)c(-c4ccc(S(=O)(=O)[O-])cc4)c4nc(c(-c5ccc(S(=O)(=O)[O-])cc5)c5ccc2[nH]5)C=C4)C=C3)cc1
REMARK SMILES IDX 7 1 8 2 9 3 6 5 5 6 4 7 3 8 1 9 2 10 29 12 30 13 88 14 31 15
REMARK SMILES IDX 87 16 32 17 33 18 34 19 81 20 35 21 86 22 80 23 82 24 36 25
REMARK SMILES IDX 85 26 79 27 78 28 37 30 67 31 48 32 66 33 49 34 52 35 65 36
REMARK SMILES IDX 83 37 50 38 51 39 64 41 84 42 53 43 38 44 39 45 47 46 40 47
REMARK SMILES IDX 46 48 41 49 42 50 43 51 44 52 45 53 68 54 69 55 77 56 70 57
REMARK SMILES IDX 76 58 71 59 72 60 73 61 74 62 75 63 54 64 55 65 63 66 56 67
REMARK SMILES IDX 62 68 57 69 58 70 59 71 60 72 61 73 10 74 11 75 15 76 12 77
REMARK SMILES IDX 14 78 13 79 16 80 17 81 18 82 19 84 20 85 21 86 22 88 23 89
REMARK SMILES IDX 24 90 28 91 25 92 27 93 26 94
REMARK H PARENT 7 4 3 11 82 29 52 40 18 83 21 87
REMARK Flexibility Score: inf
ROOT
ATOM      1  N   UNL A   1      33.665  29.437  25.655  1.00  0.00    -0.352 N 
ATOM      2  C   UNL A   1      32.912  29.220  24.518  1.00  0.00     0.251 C 
ATOM      3  O   UNL A   1      33.494  29.112  23.440  1.00  0.00    -0.269 OA
ATOM      4  H   UNL A   1      34.634  29.382  25.496  1.00  0.00     0.163 HD
ENDROOT
BRANCH   1   5
ATOM      5  C   UNL A   1      33.321  29.728  27.040  1.00  0.00     0.118 C 
BRANCH   5   6
ATOM      6  C   UNL A   1      34.007  30.932  27.666  1.00  0.00     0.042 C 
BRANCH   6   7
ATOM      7  C   UNL A   1      35.429  30.668  28.130  1.00  0.00     0.118 C 
BRANCH   7   8
ATOM      8  N   UNL A   1      35.519  30.476  29.574  1.00  0.00    -0.352 N 
ATOM      9  O   UNL A   1      36.198  29.676  31.547  1.00  0.00    -0.269 OA
ATOM     10  C   UNL A   1      36.497  29.957  30.387  1.00  0.00     0.251 C 
ATOM     11  H   UNL A   1      34.720  30.777  30.063  1.00  0.00     0.163 HD
BRANCH  10  12
ATOM     12  C   UNL A   1      37.884  29.736  29.916  1.00  0.00     0.039 A 
ATOM     13  C   UNL A   1      38.892  29.320  30.783  1.00  0.00     0.014 A 
ATOM     14  C   UNL A   1      38.166  29.844  28.546  1.00  0.00     0.014 A 
ATOM     15  C   UNL A   1      40.195  29.165  30.325  1.00  0.00     0.010 A 
ATOM     16  C   UNL A   1      39.451  29.569  28.064  1.00  0.00     0.010 A 
ATOM     17  C   UNL A   1      40.485  29.246  28.955  1.00  0.00    -0.014 A 
BRANCH  17  18
ATOM     18  C   UNL A   1      41.849  28.887  28.486  1.00  0.00     0.031 A 
ATOM     19  C   UNL A   1      42.967  29.891  28.490  1.00  0.00     0.074 A 
ATOM     20  C   UNL A   1      42.078  27.619  28.090  1.00  0.00     0.049 A 
ATOM     21  N   UNL A   1      44.222  29.720  28.161  1.00  0.00    -0.248 NA
ATOM     22  C   UNL A   1      42.637  31.262  28.908  1.00  0.00     0.031 C 
ATOM     23  C   UNL A   1      41.067  26.557  28.035  1.00  0.00     0.029 A 
ATOM     24  N   UNL A   1      43.231  26.993  27.690  1.00  0.00    -0.354 N 
ATOM     25  C   UNL A   1      44.828  30.963  28.306  1.00  0.00     0.074 A 
ATOM     26  C   UNL A   1      43.795  31.884  28.732  1.00  0.00     0.031 C 
ATOM     27  C   UNL A   1      41.656  25.401  27.699  1.00  0.00     0.029 A 
ATOM     28  C   UNL A   1      43.067  25.651  27.435  1.00  0.00     0.049 A 
ATOM     29  H   UNL A   1      44.093  27.459  27.595  1.00  0.00     0.167 HD
ATOM     30  C   UNL A   1      46.125  31.303  28.102  1.00  0.00     0.031 A 
ATOM     31  C   UNL A   1      43.946  24.721  27.019  1.00  0.00     0.031 A 
ATOM     32  C   UNL A   1      47.142  30.380  27.669  1.00  0.00     0.049 A 
ATOM     33  C   UNL A   1      45.369  25.130  26.773  1.00  0.00     0.074 A 
ATOM     34  C   UNL A   1      48.489  30.620  27.458  1.00  0.00     0.029 A 
ATOM     35  N   UNL A   1      46.924  29.042  27.371  1.00  0.00    -0.354 N 
ATOM     36  N   UNL A   1      45.925  26.305  26.943  1.00  0.00    -0.248 NA
ATOM     37  C   UNL A   1      46.278  24.091  26.276  1.00  0.00     0.031 C 
ATOM     38  C   UNL A   1      49.073  29.441  26.981  1.00  0.00     0.029 A 
ATOM     39  C   UNL A   1      48.105  28.450  26.952  1.00  0.00     0.049 A 
ATOM     40  H   UNL A   1      46.057  28.581  27.445  1.00  0.00     0.167 HD
ATOM     41  C   UNL A   1      47.257  26.146  26.584  1.00  0.00     0.074 A 
ATOM     42  C   UNL A   1      47.425  24.755  26.209  1.00  0.00     0.031 C 
ATOM     43  C   UNL A   1      48.251  27.067  26.568  1.00  0.00     0.031 A 
BRANCH  30  44
ATOM     44  C   UNL A   1      46.502  32.748  28.307  1.00  0.00    -0.014 A 
ATOM     45  C   UNL A   1      46.951  33.220  29.554  1.00  0.00     0.010 A 
ATOM     46  C   UNL A   1      46.419  33.648  27.227  1.00  0.00     0.010 A 
ATOM     47  C   UNL A   1      47.255  34.573  29.732  1.00  0.00     0.020 A 
ATOM     48  C   UNL A   1      46.750  34.996  27.394  1.00  0.00     0.020 A 
ATOM     49  C   UNL A   1      47.143  35.455  28.652  1.00  0.00     0.054 A 
BRANCH  49  50
ATOM     50  S   UNL A   1      47.530  37.208  28.914  1.00  0.00     0.124 S 
ATOM     51  O   UNL A   1      48.511  37.140  29.994  1.00  0.00    -0.237 OA
ATOM     52  O   UNL A   1      48.056  37.618  27.614  1.00  0.00    -0.237 OA
ATOM     53  O   UNL A   1      46.244  37.797  29.277  1.00  0.00    -0.744 OA
ENDBRANCH  49  50
ENDBRANCH  30  44
BRANCH  31  54
ATOM     54  C   UNL A   1      43.489  23.321  26.809  1.00  0.00    -0.014 A 
ATOM     55  C   UNL A   1      43.491  22.755  25.523  1.00  0.00     0.010 A 
ATOM     56  C   UNL A   1      43.108  22.528  27.906  1.00  0.00     0.010 A 
ATOM     57  C   UNL A   1      43.122  21.418  25.340  1.00  0.00     0.020 A 
ATOM     58  C   UNL A   1      42.766  21.184  27.731  1.00  0.00     0.020 A 
ATOM     59  C   UNL A   1      42.770  20.640  26.447  1.00  0.00     0.054 A 
BRANCH  59  60
ATOM     60  S   UNL A   1      42.377  18.887  26.195  1.00  0.00     0.124 S 
ATOM     61  O   UNL A   1      40.979  18.946  25.782  1.00  0.00    -0.237 OA
ATOM     62  O   UNL A   1      43.328  18.497  25.156  1.00  0.00    -0.237 OA
ATOM     63  O   UNL A   1      42.621  18.290  27.506  1.00  0.00    -0.744 OA
ENDBRANCH  59  60
ENDBRANCH  31  54
BRANCH  43  64
ATOM     64  C   UNL A   1      49.616  26.592  26.152  1.00  0.00    -0.014 A 
ATOM     65  C   UNL A   1      50.126  26.873  24.872  1.00  0.00     0.010 A 
ATOM     66  C   UNL A   1      50.414  25.888  27.071  1.00  0.00     0.010 A 
ATOM     67  C   UNL A   1      51.400  26.427  24.508  1.00  0.00     0.020 A 
ATOM     68  C   UNL A   1      51.698  25.465  26.720  1.00  0.00     0.020 A 
ATOM     69  C   UNL A   1      52.177  25.725  25.434  1.00  0.00     0.054 A 
BRANCH  69  70
ATOM     70  S   UNL A   1      53.842  25.192  24.952  1.00  0.00     0.124 S 
ATOM     71  O   UNL A   1      54.001  25.834  23.650  1.00  0.00    -0.237 OA
ATOM     72  O   UNL A   1      54.675  25.732  26.025  1.00  0.00    -0.237 OA
ATOM     73  O   UNL A   1      53.744  23.735  24.922  1.00  0.00    -0.744 OA
ENDBRANCH  69  70
ENDBRANCH  43  64
ENDBRANCH  17  18
ENDBRANCH  10  12
ENDBRANCH   7   8
ENDBRANCH   6   7
ENDBRANCH   5   6
ENDBRANCH   1   5
BRANCH   2  74
ATOM     74  C   UNL A   1      31.464  28.898  24.551  1.00  0.00     0.048 A 
ATOM     75  C   UNL A   1      30.414  30.311  24.107  1.00  0.00     0.014 A 
ATOM     76  C   UNL A   1      30.846  27.206  24.311  1.00  0.00     0.007 A 
ATOM     77  C   UNL A   1      28.771  30.030  23.371  1.00  0.00     0.001 A 
ATOM     78  C   UNL A   1      29.189  26.922  23.615  1.00  0.00     0.010 A 
ATOM     79  C   UNL A   1      28.148  28.342  23.180  1.00  0.00     0.001 A 
BRANCH  76  80
ATOM     80  C   UNL A   1      31.264  26.240  25.299  1.00  0.00     0.142 C 
ATOM     81  N   UNL A   1      32.315  25.533  25.084  1.00  0.00    -0.181 NA
BRANCH  81  82
ATOM     82  N   UNL A   1      32.906  25.638  23.860  1.00  0.00    -0.254 N 
ATOM     83  H   UNL A   1      32.990  26.566  23.541  1.00  0.00     0.193 HD
BRANCH  82  84
ATOM     84  C   UNL A   1      33.400  24.721  22.994  1.00  0.00     0.187 C 
ATOM     85  S   UNL A   1      32.876  24.907  21.393  1.00  0.00    -0.039 S 
BRANCH  84  86
ATOM     86  N   UNL A   1      34.256  23.636  23.232  1.00  0.00    -0.357 N 
ATOM     87  H   UNL A   1      33.686  22.865  23.008  1.00  0.00     0.163 HD
BRANCH  86  88
ATOM     88  C   UNL A   1      36.046  22.721  23.788  1.00  0.00     0.151 C 
BRANCH  88  89
ATOM     89  C   UNL A   1      37.031  22.698  25.132  1.00  0.00    -0.029 A 
ATOM     90  C   UNL A   1      37.980  21.660  25.279  1.00  0.00     0.005 A 
ATOM     91  C   UNL A   1      37.256  23.909  25.820  1.00  0.00     0.005 A 
ATOM     92  C   UNL A   1      39.120  21.838  26.062  1.00  0.00     0.000 A 
ATOM     93  C   UNL A   1      38.410  24.083  26.588  1.00  0.00     0.000 A 
ATOM     94  C   UNL A   1      39.345  23.056  26.697  1.00  0.00     0.000 A 
ENDBRANCH  88  89
ENDBRANCH  86  88
ENDBRANCH  84  86
ENDBRANCH  82  84
ENDBRANCH  81  82
ENDBRANCH  76  80
ENDBRANCH   2  74
TORSDOF 19
ENDMDL
MODEL 3
REMARK VINA RESULT:     -11.5      3.382      3.999
REMARK SMILES O=C(NCCCNC(=O)c1ccccc1/C=N\NC(=S)NCc1ccccc1)c1ccc(-c2c3nc(c(-c4ccc(S(=O)(=O)[O-])cc4)c4ccc([nH]4)c(-c4ccc(S(=O)(=O)[O-])cc4)c4nc(c(-c5ccc(S(=O)(=O)[O-])cc5)c5ccc2[nH]5)C=C4)C=C3)cc1
REMARK SMILES IDX 7 1 8 2 9 3 6 5 5 6 4 7 3 8 1 9 2 10 29 12 30 13 88 14 31 15
REMARK SMILES IDX 87 16 32 17 33 18 34 19 81 20 35 21 86 22 80 23 82 24 36 25
REMARK SMILES IDX 85 26 79 27 78 28 37 30 67 31 48 32 66 33 49 34 52 35 65 36
REMARK SMILES IDX 83 37 50 38 51 39 64 41 84 42 53 43 38 44 39 45 47 46 40 47
REMARK SMILES IDX 46 48 41 49 42 50 43 51 44 52 45 53 68 54 69 55 77 56 70 57
REMARK SMILES IDX 76 58 71 59 72 60 73 61 74 62 75 63 54 64 55 65 63 66 56 67
REMARK SMILES IDX 62 68 57 69 58 70 59 71 60 72 61 73 10 74 11 75 15 76 12 77
REMARK SMILES IDX 14 78 13 79 16 80 17 81 18 82 19 84 20 85 21 86 22 88 23 89
REMARK SMILES IDX 24 90 28 91 25 92 27 93 26 94
REMARK H PARENT 7 4 3 11 82 29 52 40 18 83 21 87
REMARK Flexibility Score: inf
ROOT
ATOM      1  N   UNL A   1      33.449  24.193  26.026  1.00  0.00    -0.352 N 
ATOM      2  C   UNL A   1      32.708  23.031  25.957  1.00  0.00     0.251 C 
ATOM      3  O   UNL A   1      31.688  22.943  26.640  1.00  0.00    -0.269 OA
ATOM      4  H   UNL A   1      33.018  24.899  26.558  1.00  0.00     0.163 HD
ENDROOT
BRANCH   1   5
ATOM      5  C   UNL A   1      34.737  24.590  25.474  1.00  0.00     0.118 C 
BRANCH   5   6
ATOM      6  C   UNL A   1      35.954  23.842  25.995  1.00  0.00     0.042 C 
BRANCH   6   7
ATOM      7  C   UNL A   1      37.027  23.591  24.950  1.00  0.00     0.118 C 
BRANCH   7   8
ATOM      8  N   UNL A   1      38.077  22.697  25.431  1.00  0.00    -0.352 N 
ATOM      9  O   UNL A   1      40.074  22.003  26.152  1.00  0.00    -0.269 OA
ATOM     10  C   UNL A   1      39.254  22.918  26.103  1.00  0.00     0.251 C 
ATOM     11  H   UNL A   1      37.908  21.748  25.234  1.00  0.00     0.163 HD
BRANCH  10  12
ATOM     12  C   UNL A   1      39.558  24.207  26.768  1.00  0.00     0.039 A 
ATOM     13  C   UNL A   1      39.267  24.421  28.112  1.00  0.00     0.014 A 
ATOM     14  C   UNL A   1      40.250  25.198  26.054  1.00  0.00     0.014 A 
ATOM     15  C   UNL A   1      39.519  25.656  28.700  1.00  0.00     0.010 A 
ATOM     16  C   UNL A   1      40.614  26.395  26.680  1.00  0.00     0.010 A 
ATOM     17  C   UNL A   1      40.232  26.644  28.006  1.00  0.00    -0.014 A 
BRANCH  17  18
ATOM     18  C   UNL A   1      40.647  27.873  28.731  1.00  0.00     0.031 A 
ATOM     19  C   UNL A   1      42.045  28.038  29.257  1.00  0.00     0.074 A 
ATOM     20  C   UNL A   1      39.747  28.867  28.876  1.00  0.00     0.049 A 
ATOM     21  N   UNL A   1      42.575  29.068  29.865  1.00  0.00    -0.248 NA
ATOM     22  C   UNL A   1      42.964  26.903  29.086  1.00  0.00     0.031 C 
ATOM     23  C   UNL A   1      38.354  28.818  28.415  1.00  0.00     0.029 A 
ATOM     24  N   UNL A   1      39.866  30.121  29.420  1.00  0.00    -0.354 N 
ATOM     25  C   UNL A   1      43.879  28.700  30.173  1.00  0.00     0.074 A 
ATOM     26  C   UNL A   1      44.052  27.342  29.704  1.00  0.00     0.031 C 
ATOM     27  C   UNL A   1      37.775  30.007  28.627  1.00  0.00     0.029 A 
ATOM     28  C   UNL A   1      38.723  30.877  29.311  1.00  0.00     0.049 A 
ATOM     29  H   UNL A   1      40.691  30.447  29.847  1.00  0.00     0.167 HD
ATOM     30  C   UNL A   1      44.842  29.429  30.791  1.00  0.00     0.031 A 
ATOM     31  C   UNL A   1      38.454  32.128  29.727  1.00  0.00     0.031 A 
ATOM     32  C   UNL A   1      44.657  30.777  31.262  1.00  0.00     0.049 A 
ATOM     33  C   UNL A   1      39.527  32.902  30.434  1.00  0.00     0.074 A 
ATOM     34  C   UNL A   1      45.576  31.609  31.877  1.00  0.00     0.029 A 
ATOM     35  N   UNL A   1      43.468  31.489  31.179  1.00  0.00    -0.354 N 
ATOM     36  N   UNL A   1      40.762  32.544  30.691  1.00  0.00    -0.248 NA
ATOM     37  C   UNL A   1      39.171  34.244  30.909  1.00  0.00     0.031 C 
ATOM     38  C   UNL A   1      44.929  32.802  32.214  1.00  0.00     0.029 A 
ATOM     39  C   UNL A   1      43.623  32.739  31.756  1.00  0.00     0.049 A 
ATOM     40  H   UNL A   1      42.636  31.155  30.771  1.00  0.00     0.167 HD
ATOM     41  C   UNL A   1      41.338  33.622  31.350  1.00  0.00     0.074 A 
ATOM     42  C   UNL A   1      40.320  34.652  31.431  1.00  0.00     0.031 C 
ATOM     43  C   UNL A   1      42.595  33.748  31.841  1.00  0.00     0.031 A 
BRANCH  30  44
ATOM     44  C   UNL A   1      46.172  28.759  31.029  1.00  0.00    -0.014 A 
ATOM     45  C   UNL A   1      46.427  28.031  32.206  1.00  0.00     0.010 A 
ATOM     46  C   UNL A   1      47.180  28.847  30.051  1.00  0.00     0.010 A 
ATOM     47  C   UNL A   1      47.681  27.454  32.425  1.00  0.00     0.020 A 
ATOM     48  C   UNL A   1      48.427  28.247  30.253  1.00  0.00     0.020 A 
ATOM     49  C   UNL A   1      48.677  27.574  31.451  1.00  0.00     0.054 A 
BRANCH  49  50
ATOM     50  S   UNL A   1      50.300  26.828  31.766  1.00  0.00     0.124 S 
ATOM     51  O   UNL A   1      51.069  27.975  32.244  1.00  0.00    -0.237 OA
ATOM     52  O   UNL A   1      49.998  25.814  32.772  1.00  0.00    -0.237 OA
ATOM     53  O   UNL A   1      50.703  26.309  30.462  1.00  0.00    -0.744 OA
ENDBRANCH  49  50
ENDBRANCH  30  44
BRANCH  31  54
ATOM     54  C   UNL A   1      37.105  32.709  29.484  1.00  0.00    -0.014 A 
ATOM     55  C   UNL A   1      36.129  32.695  30.494  1.00  0.00     0.010 A 
ATOM     56  C   UNL A   1      36.814  33.334  28.257  1.00  0.00     0.010 A 
ATOM     57  C   UNL A   1      34.885  33.299  30.282  1.00  0.00     0.020 A 
ATOM     58  C   UNL A   1      35.583  33.964  28.052  1.00  0.00     0.020 A 
ATOM     59  C   UNL A   1      34.625  33.937  29.065  1.00  0.00     0.054 A 
BRANCH  59  60
ATOM     60  S   UNL A   1      33.037  34.786  28.845  1.00  0.00     0.124 S 
ATOM     61  O   UNL A   1      33.455  36.081  28.319  1.00  0.00    -0.237 OA
ATOM     62  O   UNL A   1      32.341  33.913  27.902  1.00  0.00    -0.237 OA
ATOM     63  O   UNL A   1      32.471  34.808  30.192  1.00  0.00    -0.744 OA
ENDBRANCH  59  60
ENDBRANCH  31  54
BRANCH  43  64
ATOM     64  C   UNL A   1      42.945  35.058  32.492  1.00  0.00    -0.014 A 
ATOM     65  C   UNL A   1      42.625  35.312  33.837  1.00  0.00     0.010 A 
ATOM     66  C   UNL A   1      43.641  36.033  31.755  1.00  0.00     0.010 A 
ATOM     67  C   UNL A   1      42.965  36.534  34.424  1.00  0.00     0.020 A 
ATOM     68  C   UNL A   1      44.008  37.244  32.346  1.00  0.00     0.020 A 
ATOM     69  C   UNL A   1      43.654  37.492  33.674  1.00  0.00     0.054 A 
BRANCH  69  70
ATOM     70  S   UNL A   1      44.121  39.054  34.468  1.00  0.00     0.124 S 
ATOM     71  O   UNL A   1      43.067  39.955  34.010  1.00  0.00    -0.237 OA
ATOM     72  O   UNL A   1      44.084  38.715  35.889  1.00  0.00    -0.237 OA
ATOM     73  O   UNL A   1      45.452  39.329  33.934  1.00  0.00    -0.744 OA
ENDBRANCH  69  70
ENDBRANCH  43  64
ENDBRANCH  17  18
ENDBRANCH  10  12
ENDBRANCH   7   8
ENDBRANCH   6   7
ENDBRANCH   5   6
ENDBRANCH   1   5
BRANCH   2  74
ATOM     74  C   UNL A   1      32.953  21.968  24.952  1.00  0.00     0.048 A 
ATOM     75  C   UNL A   1      32.988  20.302  25.675  1.00  0.00     0.014 A 
ATOM     76  C   UNL A   1      32.522  22.180  23.199  1.00  0.00     0.007 A 
ATOM     77  C   UNL A   1      32.538  18.858  24.659  1.00  0.00     0.001 A 
ATOM     78  C   UNL A   1      32.112  20.736  22.172  1.00  0.00     0.010 A 
ATOM     79  C   UNL A   1      32.155  19.077  22.904  1.00  0.00     0.001 A 
BRANCH  76  80
ATOM     80  C   UNL A   1      33.214  23.241  22.507  1.00  0.00     0.142 C 
ATOM     81  N   UNL A   1      32.730  24.431  22.533  1.00  0.00    -0.181 NA
BRANCH  81  82
ATOM     82  N   UNL A   1      31.504  24.601  23.103  1.00  0.00    -0.254 N 
ATOM     83  H   UNL A   1      30.916  23.816  23.016  1.00  0.00     0.193 HD
BRANCH  82  84
ATOM     84  C   UNL A   1      30.932  25.634  23.767  1.00  0.00     0.187 C 
ATOM     85  S   UNL A   1      29.692  25.189  24.833  1.00  0.00    -0.039 S 
BRANCH  84  86
ATOM     86  N   UNL A   1      31.200  27.008  23.685  1.00  0.00    -0.357 N 
ATOM     87  H   UNL A   1      31.131  27.179  22.718  1.00  0.00     0.163 HD
BRANCH  86  88
ATOM     88  C   UNL A   1      31.661  28.897  24.440  1.00  0.00     0.151 C 
BRANCH  88  89
ATOM     89  C   UNL A   1      32.845  29.563  25.406  1.00  0.00    -0.029 A 
ATOM     90  C   UNL A   1      32.505  30.600  26.305  1.00  0.00     0.005 A 
ATOM     91  C   UNL A   1      33.999  28.798  25.675  1.00  0.00     0.005 A 
ATOM     92  C   UNL A   1      33.276  30.843  27.441  1.00  0.00     0.000 A 
ATOM     93  C   UNL A   1      34.755  29.039  26.826  1.00  0.00     0.000 A 
ATOM     94  C   UNL A   1      34.386  30.048  27.712  1.00  0.00     0.000 A 
ENDBRANCH  88  89
ENDBRANCH  86  88
ENDBRANCH  84  86
ENDBRANCH  82  84
ENDBRANCH  81  82
ENDBRANCH  76  80
ENDBRANCH   2  74
TORSDOF 19
ENDMDL
