MODEL 1
REMARK VINA RESULT:     -11.0      0.000      0.000
REMARK SMILES C[C@@H](C(=O)NCCCNC(=O)c1ccc(-c2c3nc(c(-c4ccc(S(=O)(=O)[O-])cc4)c4ccc([nH]4)c(-c4ccc(S(=O)(=O)[O-])cc4)c4nc(c(-c5ccc(S(=O)(=O)[O-])cc5)c5ccc2[nH]5)C=C4)C=C3)cc1)c1ccc(C[C@H]2CCC[C@@H]2O)cc1
REMARK SMILES IDX 6 1 5 2 3 3 4 4 2 6 1 7 72 8 73 9 84 10 74 11 83 12 75 13
REMARK SMILES IDX 76 14 77 15 78 16 81 17 79 18 80 19 82 20 7 22 8 23 9 24
REMARK SMILES IDX 10 25 11 27 12 28 13 29 71 30 14 31 70 32 15 33 16 34 17 35
REMARK SMILES IDX 64 36 18 37 69 38 63 39 65 40 19 41 68 42 62 43 61 44 20 46
REMARK SMILES IDX 50 47 31 48 49 49 32 50 35 51 48 52 66 53 33 54 34 55 47 57
REMARK SMILES IDX 67 58 36 59 21 60 22 61 30 62 23 63 29 64 24 65 25 66 26 67
REMARK SMILES IDX 27 68 28 69 51 70 52 71 60 72 53 73 59 74 54 75 55 76 56 77
REMARK SMILES IDX 57 78 58 79 37 80 38 81 46 82 39 83 45 84 40 85 41 86 42 87
REMARK SMILES IDX 43 88 44 89
REMARK H PARENT 5 5 82 21 9 26 65 45 35 56
REMARK Flexibility Score: inf
ROOT
ATOM      1  C   UNL A   1      34.696  24.983  25.412  1.00  0.00     0.117 C 
ENDROOT
BRANCH   1   2
ATOM      2  N   UNL A   1      33.494  24.929  26.220  1.00  0.00    -0.356 N 
ATOM      3  C   UNL A   1      32.207  24.628  25.880  1.00  0.00     0.227 C 
ATOM      4  O   UNL A   1      31.363  24.729  26.772  1.00  0.00    -0.274 OA
ATOM      5  H   UNL A   1      33.628  25.146  27.171  1.00  0.00     0.163 HD
BRANCH   3   6
ATOM      6  C   UNL A   1      31.881  24.165  24.453  1.00  0.00     0.105 C 
ATOM      7  C   UNL A   1      30.429  24.464  24.067  1.00  0.00     0.023 C 
BRANCH   6   8
ATOM      8  C   UNL A   1      32.162  22.682  24.228  1.00  0.00    -0.036 A 
ATOM      9  C   UNL A   1      32.176  22.156  22.931  1.00  0.00     0.005 A 
ATOM     10  C   UNL A   1      32.349  21.809  25.310  1.00  0.00     0.005 A 
ATOM     11  C   UNL A   1      32.307  20.781  22.726  1.00  0.00     0.004 A 
ATOM     12  C   UNL A   1      32.467  20.437  25.104  1.00  0.00     0.004 A 
ATOM     13  C   UNL A   1      32.401  19.903  23.812  1.00  0.00    -0.048 A 
BRANCH  13  14
ATOM     14  C   UNL A   1      32.379  18.408  23.615  1.00  0.00     0.041 C 
BRANCH  14  15
ATOM     15  C   UNL A   1      33.102  17.586  24.698  1.00  0.00     0.022 C 
ATOM     16  C   UNL A   1      32.440  16.255  25.096  1.00  0.00     0.007 C 
ATOM     17  C   UNL A   1      34.554  17.208  24.387  1.00  0.00     0.117 C 
ATOM     18  C   UNL A   1      33.585  15.282  25.395  1.00  0.00     0.003 C 
ATOM     19  C   UNL A   1      34.846  16.130  25.419  1.00  0.00     0.032 C 
BRANCH  17  20
ATOM     20  O   UNL A   1      35.435  18.304  24.547  1.00  0.00    -0.393 OA
ATOM     21  H   UNL A   1      36.296  17.983  24.860  1.00  0.00     0.210 HD
ENDBRANCH  17  20
ENDBRANCH  14  15
ENDBRANCH  13  14
ENDBRANCH   6   8
ENDBRANCH   3   6
ENDBRANCH   1   2
BRANCH   1  22
ATOM     22  C   UNL A   1      35.615  23.790  25.670  1.00  0.00     0.042 C 
BRANCH  22  23
ATOM     23  C   UNL A   1      36.945  23.833  24.921  1.00  0.00     0.118 C 
BRANCH  23  24
ATOM     24  N   UNL A   1      37.877  22.812  25.367  1.00  0.00    -0.352 N 
ATOM     25  C   UNL A   1      39.017  22.919  26.118  1.00  0.00     0.251 C 
ATOM     26  H   UNL A   1      37.651  21.896  25.084  1.00  0.00     0.163 HD
ATOM     27  O   UNL A   1      39.745  21.928  26.231  1.00  0.00    -0.269 OA
BRANCH  25  28
ATOM     28  C   UNL A   1      39.400  24.189  26.773  1.00  0.00     0.039 A 
ATOM     29  C   UNL A   1      38.953  24.422  28.078  1.00  0.00     0.014 A 
ATOM     30  C   UNL A   1      40.143  25.171  26.111  1.00  0.00     0.014 A 
ATOM     31  C   UNL A   1      39.291  25.609  28.730  1.00  0.00     0.010 A 
ATOM     32  C   UNL A   1      40.534  26.329  26.787  1.00  0.00     0.010 A 
ATOM     33  C   UNL A   1      40.108  26.563  28.101  1.00  0.00    -0.014 A 
BRANCH  33  34
ATOM     34  C   UNL A   1      40.525  27.790  28.827  1.00  0.00     0.031 A 
ATOM     35  C   UNL A   1      41.895  27.898  29.441  1.00  0.00     0.074 A 
ATOM     36  C   UNL A   1      39.651  28.809  28.952  1.00  0.00     0.049 A 
ATOM     37  N   UNL A   1      42.434  28.909  30.075  1.00  0.00    -0.248 NA
ATOM     38  C   UNL A   1      42.765  26.715  29.349  1.00  0.00     0.031 C 
ATOM     39  C   UNL A   1      38.275  28.810  28.451  1.00  0.00     0.029 A 
ATOM     40  N   UNL A   1      39.793  30.045  29.533  1.00  0.00    -0.354 N 
ATOM     41  C   UNL A   1      43.700  28.485  30.462  1.00  0.00     0.074 A 
ATOM     42  C   UNL A   1      43.830  27.108  30.033  1.00  0.00     0.031 C 
ATOM     43  C   UNL A   1      37.711  30.000  28.713  1.00  0.00     0.029 A 
ATOM     44  C   UNL A   1      38.673  30.836  29.424  1.00  0.00     0.049 A 
ATOM     45  H   UNL A   1      40.617  30.337  29.985  1.00  0.00     0.167 HD
ATOM     46  C   UNL A   1      44.675  29.181  31.096  1.00  0.00     0.031 A 
ATOM     47  C   UNL A   1      38.446  32.097  29.840  1.00  0.00     0.031 A 
ATOM     48  C   UNL A   1      44.549  30.552  31.518  1.00  0.00     0.049 A 
ATOM     49  C   UNL A   1      39.547  32.854  30.524  1.00  0.00     0.074 A 
ATOM     50  C   UNL A   1      45.498  31.358  32.123  1.00  0.00     0.029 A 
ATOM     51  N   UNL A   1      43.402  31.320  31.383  1.00  0.00    -0.354 N 
ATOM     52  N   UNL A   1      40.762  32.456  30.818  1.00  0.00    -0.248 NA
ATOM     53  C   UNL A   1      39.252  34.238  30.918  1.00  0.00     0.031 C 
ATOM     54  C   UNL A   1      44.912  32.601  32.390  1.00  0.00     0.029 A 
ATOM     55  C   UNL A   1      43.613  32.584  31.909  1.00  0.00     0.049 A 
ATOM     56  H   UNL A   1      42.562  31.011  30.973  1.00  0.00     0.167 HD
ATOM     57  C   UNL A   1      41.381  33.545  31.420  1.00  0.00     0.074 A 
ATOM     58  C   UNL A   1      40.415  34.626  31.424  1.00  0.00     0.031 C 
ATOM     59  C   UNL A   1      42.637  33.643  31.924  1.00  0.00     0.031 A 
BRANCH  46  60
ATOM     60  C   UNL A   1      45.971  28.463  31.372  1.00  0.00    -0.014 A 
ATOM     61  C   UNL A   1      47.037  28.518  30.456  1.00  0.00     0.010 A 
ATOM     62  C   UNL A   1      46.139  27.755  32.576  1.00  0.00     0.010 A 
ATOM     63  C   UNL A   1      48.232  27.842  30.718  1.00  0.00     0.020 A 
ATOM     64  C   UNL A   1      47.342  27.098  32.853  1.00  0.00     0.020 A 
ATOM     65  C   UNL A   1      48.375  27.131  31.913  1.00  0.00     0.054 A 
BRANCH  65  66
ATOM     66  S   UNL A   1      49.942  26.276  32.236  1.00  0.00     0.124 S 
ATOM     67  O   UNL A   1      49.938  26.187  33.695  1.00  0.00    -0.237 OA
ATOM     68  O   UNL A   1      49.769  25.010  31.530  1.00  0.00    -0.237 OA
ATOM     69  O   UNL A   1      50.948  27.170  31.669  1.00  0.00    -0.744 OA
ENDBRANCH  65  66
ENDBRANCH  46  60
BRANCH  47  70
ATOM     70  C   UNL A   1      37.124  32.728  29.590  1.00  0.00    -0.014 A 
ATOM     71  C   UNL A   1      36.135  32.735  30.590  1.00  0.00     0.010 A 
ATOM     72  C   UNL A   1      36.854  33.347  28.356  1.00  0.00     0.010 A 
ATOM     73  C   UNL A   1      34.897  33.338  30.356  1.00  0.00     0.020 A 
ATOM     74  C   UNL A   1      35.626  33.973  28.127  1.00  0.00     0.020 A 
ATOM     75  C   UNL A   1      34.651  33.956  29.127  1.00  0.00     0.054 A 
BRANCH  75  76
ATOM     76  S   UNL A   1      33.062  34.792  28.866  1.00  0.00     0.124 S 
ATOM     77  O   UNL A   1      33.485  36.097  28.367  1.00  0.00    -0.237 OA
ATOM     78  O   UNL A   1      32.402  33.925  27.892  1.00  0.00    -0.237 OA
ATOM     79  O   UNL A   1      32.456  34.794  30.195  1.00  0.00    -0.744 OA
ENDBRANCH  75  76
ENDBRANCH  47  70
BRANCH  59  80
ATOM     80  C   UNL A   1      43.033  34.970  32.514  1.00  0.00    -0.014 A 
ATOM     81  C   UNL A   1      42.800  35.257  33.871  1.00  0.00     0.010 A 
ATOM     82  C   UNL A   1      43.657  35.935  31.705  1.00  0.00     0.010 A 
ATOM     83  C   UNL A   1      43.142  36.506  34.397  1.00  0.00     0.020 A 
ATOM     84  C   UNL A   1      44.022  37.176  32.232  1.00  0.00     0.020 A 
ATOM     85  C   UNL A   1      43.743  37.461  33.571  1.00  0.00     0.054 A 
BRANCH  85  86
ATOM     86  S   UNL A   1      44.186  39.074  34.274  1.00  0.00     0.124 S 
ATOM     87  O   UNL A   1      45.457  39.353  33.611  1.00  0.00    -0.237 OA
ATOM     88  O   UNL A   1      43.067  39.921  33.869  1.00  0.00    -0.237 OA
ATOM     89  O   UNL A   1      44.273  38.812  35.709  1.00  0.00    -0.744 OA
ENDBRANCH  85  86
ENDBRANCH  59  80
ENDBRANCH  33  34
ENDBRANCH  25  28
ENDBRANCH  23  24
ENDBRANCH  22  23
ENDBRANCH   1  22
TORSDOF 17
ENDMDL
MODEL 2
REMARK VINA RESULT:     -10.8      2.575      8.886
REMARK SMILES C[C@@H](C(=O)NCCCNC(=O)c1ccc(-c2c3nc(c(-c4ccc(S(=O)(=O)[O-])cc4)c4ccc([nH]4)c(-c4ccc(S(=O)(=O)[O-])cc4)c4nc(c(-c5ccc(S(=O)(=O)[O-])cc5)c5ccc2[nH]5)C=C4)C=C3)cc1)c1ccc(C[C@H]2CCC[C@@H]2O)cc1
REMARK SMILES IDX 6 1 5 2 3 3 4 4 2 6 1 7 72 8 73 9 84 10 74 11 83 12 75 13
REMARK SMILES IDX 76 14 77 15 78 16 81 17 79 18 80 19 82 20 7 22 8 23 9 24
REMARK SMILES IDX 10 25 11 27 12 28 13 29 71 30 14 31 70 32 15 33 16 34 17 35
REMARK SMILES IDX 64 36 18 37 69 38 63 39 65 40 19 41 68 42 62 43 61 44 20 46
REMARK SMILES IDX 50 47 31 48 49 49 32 50 35 51 48 52 66 53 33 54 34 55 47 57
REMARK SMILES IDX 67 58 36 59 21 60 22 61 30 62 23 63 29 64 24 65 25 66 26 67
REMARK SMILES IDX 27 68 28 69 51 70 52 71 60 72 53 73 59 74 54 75 55 76 56 77
REMARK SMILES IDX 57 78 58 79 37 80 38 81 46 82 39 83 45 84 40 85 41 86 42 87
REMARK SMILES IDX 43 88 44 89
REMARK H PARENT 5 5 82 21 9 26 65 45 35 56
REMARK Flexibility Score: inf
ROOT
ATOM      1  C   UNL A   1      31.566  27.494  26.066  1.00  0.00     0.117 C 
ENDROOT
BRANCH   1   2
ATOM      2  N   UNL A   1      31.325  26.230  26.732  1.00  0.00    -0.356 N 
ATOM      3  C   UNL A   1      31.327  24.954  26.247  1.00  0.00     0.227 C 
ATOM      4  O   UNL A   1      31.016  24.062  27.038  1.00  0.00    -0.274 OA
ATOM      5  H   UNL A   1      31.126  26.303  27.693  1.00  0.00     0.163 HD
BRANCH   3   6
ATOM      6  C   UNL A   1      31.731  24.692  24.789  1.00  0.00     0.105 C 
ATOM      7  C   UNL A   1      30.518  24.668  23.851  1.00  0.00     0.023 C 
BRANCH   6   8
ATOM      8  C   UNL A   1      32.523  23.400  24.612  1.00  0.00    -0.036 A 
ATOM      9  C   UNL A   1      31.884  22.237  24.165  1.00  0.00     0.005 A 
ATOM     10  C   UNL A   1      33.883  23.333  24.950  1.00  0.00     0.005 A 
ATOM     11  C   UNL A   1      32.573  21.023  24.121  1.00  0.00     0.004 A 
ATOM     12  C   UNL A   1      34.564  22.119  24.917  1.00  0.00     0.004 A 
ATOM     13  C   UNL A   1      33.904  20.942  24.546  1.00  0.00    -0.048 A 
BRANCH  13  14
ATOM     14  C   UNL A   1      34.611  19.614  24.659  1.00  0.00     0.041 C 
BRANCH  14  15
ATOM     15  C   UNL A   1      33.719  18.370  24.481  1.00  0.00     0.022 C 
ATOM     16  C   UNL A   1      34.226  17.309  23.489  1.00  0.00     0.007 C 
ATOM     17  C   UNL A   1      33.416  17.582  25.758  1.00  0.00     0.117 C 
ATOM     18  C   UNL A   1      33.811  15.952  24.069  1.00  0.00     0.003 C 
ATOM     19  C   UNL A   1      32.868  16.270  25.217  1.00  0.00     0.032 C 
BRANCH  17  20
ATOM     20  O   UNL A   1      32.451  18.229  26.567  1.00  0.00    -0.393 OA
ATOM     21  H   UNL A   1      32.867  18.970  27.035  1.00  0.00     0.210 HD
ENDBRANCH  17  20
ENDBRANCH  14  15
ENDBRANCH  13  14
ENDBRANCH   6   8
ENDBRANCH   3   6
ENDBRANCH   1   2
BRANCH   1  22
ATOM     22  C   UNL A   1      33.055  27.747  25.838  1.00  0.00     0.042 C 
BRANCH  22  23
ATOM     23  C   UNL A   1      33.831  28.162  27.087  1.00  0.00     0.118 C 
BRANCH  23  24
ATOM     24  N   UNL A   1      33.611  29.550  27.452  1.00  0.00    -0.352 N 
ATOM     25  C   UNL A   1      34.440  30.446  28.073  1.00  0.00     0.251 C 
ATOM     26  H   UNL A   1      32.723  29.904  27.215  1.00  0.00     0.163 HD
ATOM     27  O   UNL A   1      33.973  31.530  28.435  1.00  0.00    -0.269 OA
BRANCH  25  28
ATOM     28  C   UNL A   1      35.863  30.137  28.333  1.00  0.00     0.039 A 
ATOM     29  C   UNL A   1      36.230  29.741  29.623  1.00  0.00     0.014 A 
ATOM     30  C   UNL A   1      36.846  30.281  27.349  1.00  0.00     0.014 A 
ATOM     31  C   UNL A   1      37.563  29.443  29.910  1.00  0.00     0.010 A 
ATOM     32  C   UNL A   1      38.168  29.921  27.619  1.00  0.00     0.010 A 
ATOM     33  C   UNL A   1      38.542  29.503  28.904  1.00  0.00    -0.014 A 
BRANCH  33  34
ATOM     34  C   UNL A   1      39.945  29.113  29.197  1.00  0.00     0.031 A 
ATOM     35  C   UNL A   1      40.889  30.070  29.873  1.00  0.00     0.074 A 
ATOM     36  C   UNL A   1      40.378  27.890  28.830  1.00  0.00     0.049 A 
ATOM     37  N   UNL A   1      42.132  29.879  30.237  1.00  0.00    -0.248 NA
ATOM     38  C   UNL A   1      40.380  31.420  30.162  1.00  0.00     0.031 C 
ATOM     39  C   UNL A   1      39.580  26.888  28.119  1.00  0.00     0.029 A 
ATOM     40  N   UNL A   1      41.593  27.278  29.010  1.00  0.00    -0.354 N 
ATOM     41  C   UNL A   1      42.556  31.082  30.791  1.00  0.00     0.074 A 
ATOM     42  C   UNL A   1      41.453  32.011  30.671  1.00  0.00     0.031 C 
ATOM     43  C   UNL A   1      40.313  25.776  27.956  1.00  0.00     0.029 A 
ATOM     44  C   UNL A   1      41.640  25.993  28.524  1.00  0.00     0.049 A 
ATOM     45  H   UNL A   1      42.359  27.718  29.446  1.00  0.00     0.167 HD
ATOM     46  C   UNL A   1      43.746  31.383  31.366  1.00  0.00     0.031 A 
ATOM     47  C   UNL A   1      42.635  25.085  28.541  1.00  0.00     0.031 A 
ATOM     48  C   UNL A   1      44.843  30.458  31.490  1.00  0.00     0.049 A 
ATOM     49  C   UNL A   1      43.938  25.434  29.200  1.00  0.00     0.074 A 
ATOM     50  C   UNL A   1      46.070  30.654  32.101  1.00  0.00     0.029 A 
ATOM     51  N   UNL A   1      44.848  29.164  30.992  1.00  0.00    -0.354 N 
ATOM     52  N   UNL A   1      44.293  26.556  29.779  1.00  0.00    -0.248 NA
ATOM     53  C   UNL A   1      44.969  24.388  29.221  1.00  0.00     0.031 C 
ATOM     54  C   UNL A   1      46.832  29.491  31.936  1.00  0.00     0.029 A 
ATOM     55  C   UNL A   1      46.063  28.555  31.265  1.00  0.00     0.049 A 
ATOM     56  H   UNL A   1      44.099  28.740  30.514  1.00  0.00     0.167 HD
ATOM     57  C   UNL A   1      45.585  26.345  30.247  1.00  0.00     0.074 A 
ATOM     58  C   UNL A   1      45.937  24.982  29.905  1.00  0.00     0.031 C 
ATOM     59  C   UNL A   1      46.407  27.204  30.901  1.00  0.00     0.031 A 
BRANCH  46  60
ATOM     60  C   UNL A   1      43.922  32.777  31.907  1.00  0.00    -0.014 A 
ATOM     61  C   UNL A   1      43.715  33.056  33.270  1.00  0.00     0.010 A 
ATOM     62  C   UNL A   1      44.332  33.817  31.051  1.00  0.00     0.010 A 
ATOM     63  C   UNL A   1      43.872  34.355  33.760  1.00  0.00     0.020 A 
ATOM     64  C   UNL A   1      44.515  35.113  31.543  1.00  0.00     0.020 A 
ATOM     65  C   UNL A   1      44.266  35.377  32.892  1.00  0.00     0.054 A 
BRANCH  65  66
ATOM     66  S   UNL A   1      44.479  37.051  33.557  1.00  0.00     0.124 S 
ATOM     67  O   UNL A   1      44.106  36.867  34.958  1.00  0.00    -0.237 OA
ATOM     68  O   UNL A   1      45.894  37.317  33.314  1.00  0.00    -0.237 OA
ATOM     69  O   UNL A   1      43.552  37.858  32.767  1.00  0.00    -0.744 OA
ENDBRANCH  65  66
ENDBRANCH  46  60
BRANCH  47  70
ATOM     70  C   UNL A   1      42.418  23.744  27.935  1.00  0.00    -0.014 A 
ATOM     71  C   UNL A   1      42.749  23.507  26.590  1.00  0.00     0.010 A 
ATOM     72  C   UNL A   1      41.899  22.690  28.710  1.00  0.00     0.010 A 
ATOM     73  C   UNL A   1      42.555  22.243  26.026  1.00  0.00     0.020 A 
ATOM     74  C   UNL A   1      41.727  21.419  28.156  1.00  0.00     0.020 A 
ATOM     75  C   UNL A   1      42.047  21.207  26.814  1.00  0.00     0.054 A 
BRANCH  75  76
ATOM     76  S   UNL A   1      41.864  19.556  26.083  1.00  0.00     0.124 S 
ATOM     77  O   UNL A   1      42.715  19.651  24.902  1.00  0.00    -0.237 OA
ATOM     78  O   UNL A   1      42.352  18.681  27.147  1.00  0.00    -0.237 OA
ATOM     79  O   UNL A   1      40.430  19.458  25.818  1.00  0.00    -0.744 OA
ENDBRANCH  75  76
ENDBRANCH  47  70
BRANCH  59  80
ATOM     80  C   UNL A   1      47.764  26.684  31.293  1.00  0.00    -0.014 A 
ATOM     81  C   UNL A   1      48.897  26.948  30.503  1.00  0.00     0.010 A 
ATOM     82  C   UNL A   1      47.909  25.933  32.473  1.00  0.00     0.010 A 
ATOM     83  C   UNL A   1      50.144  26.429  30.860  1.00  0.00     0.020 A 
ATOM     84  C   UNL A   1      49.159  25.433  32.847  1.00  0.00     0.020 A 
ATOM     85  C   UNL A   1      50.265  25.667  32.027  1.00  0.00     0.054 A 
BRANCH  85  86
ATOM     86  S   UNL A   1      51.894  25.009  32.479  1.00  0.00     0.124 S 
ATOM     87  O   UNL A   1      52.691  25.341  31.301  1.00  0.00    -0.237 OA
ATOM     88  O   UNL A   1      52.221  25.759  33.690  1.00  0.00    -0.237 OA
ATOM     89  O   UNL A   1      51.645  23.585  32.684  1.00  0.00    -0.744 OA
ENDBRANCH  85  86
ENDBRANCH  59  80
ENDBRANCH  33  34
ENDBRANCH  25  28
ENDBRANCH  23  24
ENDBRANCH  22  23
ENDBRANCH   1  22
TORSDOF 17
ENDMDL
MODEL 3
REMARK VINA RESULT:     -10.7      3.903      9.267
REMARK SMILES C[C@@H](C(=O)NCCCNC(=O)c1ccc(-c2c3nc(c(-c4ccc(S(=O)(=O)[O-])cc4)c4ccc([nH]4)c(-c4ccc(S(=O)(=O)[O-])cc4)c4nc(c(-c5ccc(S(=O)(=O)[O-])cc5)c5ccc2[nH]5)C=C4)C=C3)cc1)c1ccc(C[C@H]2CCC[C@@H]2O)cc1
REMARK SMILES IDX 6 1 5 2 3 3 4 4 2 6 1 7 72 8 73 9 84 10 74 11 83 12 75 13
REMARK SMILES IDX 76 14 77 15 78 16 81 17 79 18 80 19 82 20 7 22 8 23 9 24
REMARK SMILES IDX 10 25 11 27 12 28 13 29 71 30 14 31 70 32 15 33 16 34 17 35
REMARK SMILES IDX 64 36 18 37 69 38 63 39 65 40 19 41 68 42 62 43 61 44 20 46
REMARK SMILES IDX 50 47 31 48 49 49 32 50 35 51 48 52 66 53 33 54 34 55 47 57
REMARK SMILES IDX 67 58 36 59 21 60 22 61 30 62 23 63 29 64 24 65 25 66 26 67
REMARK SMILES IDX 27 68 28 69 51 70 52 71 60 72 53 73 59 74 54 75 55 76 56 77
REMARK SMILES IDX 57 78 58 79 37 80 38 81 46 82 39 83 45 84 40 85 41 86 42 87
REMARK SMILES IDX 43 88 44 89
REMARK H PARENT 5 5 82 21 9 26 65 45 35 56
REMARK Flexibility Score: inf
ROOT
ATOM      1  C   UNL A   1      31.821  28.529  24.898  1.00  0.00     0.117 C 
ENDROOT
BRANCH   1   2
ATOM      2  N   UNL A   1      31.424  29.283  23.725  1.00  0.00    -0.356 N 
ATOM      3  C   UNL A   1      30.633  28.933  22.669  1.00  0.00     0.227 C 
ATOM      4  O   UNL A   1      30.522  29.763  21.765  1.00  0.00    -0.274 OA
ATOM      5  H   UNL A   1      31.785  30.198  23.683  1.00  0.00     0.163 HD
BRANCH   3   6
ATOM      6  C   UNL A   1      29.919  27.574  22.666  1.00  0.00     0.105 C 
ATOM      7  C   UNL A   1      28.977  27.416  23.864  1.00  0.00     0.023 C 
BRANCH   6   8
ATOM      8  C   UNL A   1      30.885  26.393  22.632  1.00  0.00    -0.036 A 
ATOM      9  C   UNL A   1      30.704  25.310  23.500  1.00  0.00     0.005 A 
ATOM     10  C   UNL A   1      32.001  26.395  21.782  1.00  0.00     0.005 A 
ATOM     11  C   UNL A   1      31.652  24.287  23.563  1.00  0.00     0.004 A 
ATOM     12  C   UNL A   1      32.951  25.379  21.855  1.00  0.00     0.004 A 
ATOM     13  C   UNL A   1      32.810  24.338  22.779  1.00  0.00    -0.048 A 
BRANCH  13  14
ATOM     14  C   UNL A   1      33.919  23.329  22.952  1.00  0.00     0.041 C 
BRANCH  14  15
ATOM     15  C   UNL A   1      35.144  23.819  23.746  1.00  0.00     0.022 C 
ATOM     16  C   UNL A   1      34.918  24.090  25.244  1.00  0.00     0.007 C 
ATOM     17  C   UNL A   1      36.371  22.902  23.708  1.00  0.00     0.117 C 
ATOM     18  C   UNL A   1      36.216  23.684  25.951  1.00  0.00     0.003 C 
ATOM     19  C   UNL A   1      37.227  23.445  24.842  1.00  0.00     0.032 C 
BRANCH  17  20
ATOM     20  O   UNL A   1      37.062  22.989  22.476  1.00  0.00    -0.393 OA
ATOM     21  H   UNL A   1      36.688  23.711  21.946  1.00  0.00     0.210 HD
ENDBRANCH  17  20
ENDBRANCH  14  15
ENDBRANCH  13  14
ENDBRANCH   6   8
ENDBRANCH   3   6
ENDBRANCH   1   2
BRANCH   1  22
ATOM     22  C   UNL A   1      33.301  28.150  24.862  1.00  0.00     0.042 C 
BRANCH  22  23
ATOM     23  C   UNL A   1      34.134  28.718  26.010  1.00  0.00     0.118 C 
BRANCH  23  24
ATOM     24  N   UNL A   1      33.696  30.039  26.424  1.00  0.00    -0.352 N 
ATOM     25  C   UNL A   1      34.195  30.878  27.385  1.00  0.00     0.251 C 
ATOM     26  H   UNL A   1      32.917  30.388  25.935  1.00  0.00     0.163 HD
ATOM     27  O   UNL A   1      33.552  31.889  27.679  1.00  0.00    -0.269 OA
BRANCH  25  28
ATOM     28  C   UNL A   1      35.467  30.588  28.086  1.00  0.00     0.039 A 
ATOM     29  C   UNL A   1      35.454  29.647  29.120  1.00  0.00     0.014 A 
ATOM     30  C   UNL A   1      36.653  31.262  27.779  1.00  0.00     0.014 A 
ATOM     31  C   UNL A   1      36.631  29.347  29.807  1.00  0.00     0.010 A 
ATOM     32  C   UNL A   1      37.843  30.914  28.423  1.00  0.00     0.010 A 
ATOM     33  C   UNL A   1      37.844  29.958  29.447  1.00  0.00    -0.014 A 
BRANCH  33  34
ATOM     34  C   UNL A   1      39.107  29.581  30.132  1.00  0.00     0.031 A 
ATOM     35  C   UNL A   1      39.544  30.280  31.391  1.00  0.00     0.074 A 
ATOM     36  C   UNL A   1      39.878  28.611  29.601  1.00  0.00     0.049 A 
ATOM     37  N   UNL A   1      40.596  30.051  32.137  1.00  0.00    -0.248 NA
ATOM     38  C   UNL A   1      38.704  31.392  31.865  1.00  0.00     0.031 C 
ATOM     39  C   UNL A   1      39.596  27.892  28.356  1.00  0.00     0.029 A 
ATOM     40  N   UNL A   1      41.054  28.057  30.044  1.00  0.00    -0.354 N 
ATOM     41  C   UNL A   1      40.548  30.989  33.161  1.00  0.00     0.074 A 
ATOM     42  C   UNL A   1      39.390  31.822  32.915  1.00  0.00     0.031 C 
ATOM     43  C   UNL A   1      40.551  26.970  28.154  1.00  0.00     0.029 A 
ATOM     44  C   UNL A   1      41.526  27.048  29.238  1.00  0.00     0.049 A 
ATOM     45  H   UNL A   1      41.515  28.354  30.861  1.00  0.00     0.167 HD
ATOM     46  C   UNL A   1      41.379  31.133  34.223  1.00  0.00     0.031 A 
ATOM     47  C   UNL A   1      42.615  26.265  29.359  1.00  0.00     0.031 A 
ATOM     48  C   UNL A   1      42.528  30.302  34.472  1.00  0.00     0.049 A 
ATOM     49  C   UNL A   1      43.510  26.431  30.553  1.00  0.00     0.074 A 
ATOM     50  C   UNL A   1      43.401  30.339  35.546  1.00  0.00     0.029 A 
ATOM     51  N   UNL A   1      42.967  29.287  33.636  1.00  0.00    -0.354 N 
ATOM     52  N   UNL A   1      43.408  27.281  31.548  1.00  0.00    -0.248 NA
ATOM     53  C   UNL A   1      44.659  25.521  30.649  1.00  0.00     0.031 C 
ATOM     54  C   UNL A   1      44.392  29.372  35.339  1.00  0.00     0.029 A 
ATOM     55  C   UNL A   1      44.109  28.702  34.160  1.00  0.00     0.049 A 
ATOM     56  H   UNL A   1      42.532  29.021  32.793  1.00  0.00     0.167 HD
ATOM     57  C   UNL A   1      44.472  26.998  32.396  1.00  0.00     0.074 A 
ATOM     58  C   UNL A   1      45.189  25.884  31.810  1.00  0.00     0.031 C 
ATOM     59  C   UNL A   1      44.824  27.607  33.556  1.00  0.00     0.031 A 
BRANCH  46  60
ATOM     60  C   UNL A   1      41.069  32.238  35.199  1.00  0.00    -0.014 A 
ATOM     61  C   UNL A   1      40.244  32.007  36.315  1.00  0.00     0.010 A 
ATOM     62  C   UNL A   1      41.636  33.513  35.020  1.00  0.00     0.010 A 
ATOM     63  C   UNL A   1      39.957  33.041  37.210  1.00  0.00     0.020 A 
ATOM     64  C   UNL A   1      41.372  34.543  35.928  1.00  0.00     0.020 A 
ATOM     65  C   UNL A   1      40.518  34.305  37.007  1.00  0.00     0.054 A 
BRANCH  65  66
ATOM     66  S   UNL A   1      40.142  35.626  38.193  1.00  0.00     0.124 S 
ATOM     67  O   UNL A   1      39.026  35.049  38.939  1.00  0.00    -0.237 OA
ATOM     68  O   UNL A   1      41.392  35.757  38.935  1.00  0.00    -0.237 OA
ATOM     69  O   UNL A   1      39.801  36.766  37.345  1.00  0.00    -0.744 OA
ENDBRANCH  65  66
ENDBRANCH  46  60
BRANCH  47  70
ATOM     70  C   UNL A   1      42.898  25.232  28.328  1.00  0.00    -0.014 A 
ATOM     71  C   UNL A   1      43.723  25.528  27.229  1.00  0.00     0.010 A 
ATOM     72  C   UNL A   1      42.360  23.938  28.453  1.00  0.00     0.010 A 
ATOM     73  C   UNL A   1      43.997  24.552  26.268  1.00  0.00     0.020 A 
ATOM     74  C   UNL A   1      42.651  22.952  27.506  1.00  0.00     0.020 A 
ATOM     75  C   UNL A   1      43.460  23.270  26.414  1.00  0.00     0.054 A 
BRANCH  75  76
ATOM     76  S   UNL A   1      43.880  21.996  25.190  1.00  0.00     0.124 S 
ATOM     77  O   UNL A   1      45.243  21.644  25.575  1.00  0.00    -0.237 OA
ATOM     78  O   UNL A   1      42.868  20.972  25.437  1.00  0.00    -0.237 OA
ATOM     79  O   UNL A   1      43.748  22.695  23.914  1.00  0.00    -0.744 OA
ENDBRANCH  75  76
ENDBRANCH  47  70
BRANCH  59  80
ATOM     80  C   UNL A   1      46.037  27.069  34.267  1.00  0.00    -0.014 A 
ATOM     81  C   UNL A   1      45.922  26.035  35.213  1.00  0.00     0.010 A 
ATOM     82  C   UNL A   1      47.308  27.595  33.974  1.00  0.00     0.010 A 
ATOM     83  C   UNL A   1      47.052  25.570  35.891  1.00  0.00     0.020 A 
ATOM     84  C   UNL A   1      48.444  27.116  34.632  1.00  0.00     0.020 A 
ATOM     85  C   UNL A   1      48.305  26.119  35.601  1.00  0.00     0.054 A 
BRANCH  85  86
ATOM     86  S   UNL A   1      49.762  25.496  36.486  1.00  0.00     0.124 S 
ATOM     87  O   UNL A   1      50.329  26.724  37.036  1.00  0.00    -0.237 OA
ATOM     88  O   UNL A   1      49.178  24.580  37.464  1.00  0.00    -0.237 OA
ATOM     89  O   UNL A   1      50.554  24.857  35.438  1.00  0.00    -0.744 OA
ENDBRANCH  85  86
ENDBRANCH  59  80
ENDBRANCH  33  34
ENDBRANCH  25  28
ENDBRANCH  23  24
ENDBRANCH  22  23
ENDBRANCH   1  22
TORSDOF 17
ENDMDL
