MODEL 1
REMARK VINA RESULT:     -11.1      0.000      0.000
REMARK SMILES C[C@H](C(=O)NCCCNC(=O)c1ccc(-c2c3nc(c(-c4ccc(S(=O)(=O)[O-])cc4)c4ccc([nH]4)c(-c4ccc(S(=O)(=O)[O-])cc4)c4nc(c(-c5ccc(S(=O)(=O)[O-])cc5)c5ccc2[nH]5)C=C4)C=C3)cc1)[C@@H](C)Nc1ccccc1Oc1ccccc1
REMARK SMILES IDX 6 1 5 2 3 3 4 4 2 6 1 7 72 8 73 9 74 10 75 12 76 13 80 14
REMARK SMILES IDX 77 15 79 16 78 17 81 18 82 19 83 20 87 21 84 22 86 23 85 24
REMARK SMILES IDX 7 25 8 26 9 27 10 28 11 30 12 31 13 32 71 33 14 34 70 35
REMARK SMILES IDX 15 36 16 37 17 38 64 39 18 40 69 41 63 42 65 43 19 44 68 45
REMARK SMILES IDX 62 46 61 47 20 49 50 50 31 51 49 52 32 53 35 54 48 55 66 56
REMARK SMILES IDX 33 57 34 58 47 60 67 61 36 62 21 63 22 64 30 65 23 66 29 67
REMARK SMILES IDX 24 68 25 69 26 70 27 71 28 72 51 73 52 74 60 75 53 76 59 77
REMARK SMILES IDX 54 78 55 79 56 80 57 81 58 82 37 83 38 84 46 85 39 86 45 87
REMARK SMILES IDX 40 88 41 89 42 90 43 91 44 92
REMARK H PARENT 5 5 74 11 9 29 65 48 35 59
REMARK Flexibility Score: inf
ROOT
ATOM      1  C   UNL A   1      32.579  26.941  25.661  1.00  0.00     0.117 C 
ENDROOT
BRANCH   1   2
ATOM      2  N   UNL A   1      31.530  26.106  26.225  1.00  0.00    -0.356 N 
ATOM      3  C   UNL A   1      31.414  24.761  26.387  1.00  0.00     0.224 C 
ATOM      4  O   UNL A   1      30.365  24.369  26.908  1.00  0.00    -0.275 OA
ATOM      5  H   UNL A   1      30.754  26.614  26.555  1.00  0.00     0.163 HD
BRANCH   3   6
ATOM      6  C   UNL A   1      32.513  23.780  25.960  1.00  0.00     0.097 C 
ATOM      7  C   UNL A   1      32.830  22.889  27.175  1.00  0.00     0.020 C 
BRANCH   6   8
ATOM      8  C   UNL A   1      32.045  22.959  24.725  1.00  0.00     0.088 C 
ATOM      9  C   UNL A   1      30.931  23.698  23.976  1.00  0.00     0.031 C 
BRANCH   8  10
ATOM     10  N   UNL A   1      33.121  22.747  23.755  1.00  0.00    -0.379 N 
ATOM     11  H   UNL A   1      32.880  22.866  22.807  1.00  0.00     0.160 HD
BRANCH  10  12
ATOM     12  C   UNL A   1      34.443  22.398  24.012  1.00  0.00     0.078 A 
ATOM     13  C   UNL A   1      35.408  23.357  23.630  1.00  0.00     0.029 A 
ATOM     14  C   UNL A   1      34.937  21.253  24.675  1.00  0.00     0.150 A 
ATOM     15  C   UNL A   1      36.775  23.200  23.884  1.00  0.00     0.002 A 
ATOM     16  C   UNL A   1      36.311  21.101  24.942  1.00  0.00     0.049 A 
ATOM     17  C   UNL A   1      37.229  22.067  24.543  1.00  0.00     0.004 A 
BRANCH  14  18
ATOM     18  O   UNL A   1      34.139  20.288  25.249  1.00  0.00    -0.455 OA
BRANCH  18  19
ATOM     19  C   UNL A   1      33.866  19.131  24.550  1.00  0.00     0.127 A 
ATOM     20  C   UNL A   1      32.702  19.192  23.772  1.00  0.00     0.047 A 
ATOM     21  C   UNL A   1      34.670  17.992  24.499  1.00  0.00     0.047 A 
ATOM     22  C   UNL A   1      32.383  18.159  22.891  1.00  0.00     0.004 A 
ATOM     23  C   UNL A   1      34.353  16.959  23.609  1.00  0.00     0.004 A 
ATOM     24  C   UNL A   1      33.221  17.051  22.796  1.00  0.00     0.000 A 
ENDBRANCH  18  19
ENDBRANCH  14  18
ENDBRANCH  10  12
ENDBRANCH   8  10
ENDBRANCH   6   8
ENDBRANCH   3   6
ENDBRANCH   1   2
BRANCH   1  25
ATOM     25  C   UNL A   1      33.032  28.024  26.644  1.00  0.00     0.042 C 
BRANCH  25  26
ATOM     26  C   UNL A   1      33.954  29.092  26.058  1.00  0.00     0.118 C 
BRANCH  26  27
ATOM     27  N   UNL A   1      33.683  30.414  26.596  1.00  0.00    -0.352 N 
ATOM     28  C   UNL A   1      34.318  31.149  27.567  1.00  0.00     0.251 C 
ATOM     29  H   UNL A   1      32.906  30.863  26.192  1.00  0.00     0.163 HD
ATOM     30  O   UNL A   1      33.752  32.165  27.972  1.00  0.00    -0.269 OA
BRANCH  28  31
ATOM     31  C   UNL A   1      35.637  30.773  28.148  1.00  0.00     0.039 A 
ATOM     32  C   UNL A   1      35.677  29.670  29.011  1.00  0.00     0.014 A 
ATOM     33  C   UNL A   1      36.803  31.523  27.966  1.00  0.00     0.014 A 
ATOM     34  C   UNL A   1      36.865  29.314  29.662  1.00  0.00     0.010 A 
ATOM     35  C   UNL A   1      38.010  31.122  28.559  1.00  0.00     0.010 A 
ATOM     36  C   UNL A   1      38.053  30.025  29.433  1.00  0.00    -0.014 A 
BRANCH  36  37
ATOM     37  C   UNL A   1      39.314  29.632  30.129  1.00  0.00     0.031 A 
ATOM     38  C   UNL A   1      39.739  30.304  31.414  1.00  0.00     0.074 A 
ATOM     39  C   UNL A   1      40.088  28.654  29.613  1.00  0.00     0.049 A 
ATOM     40  N   UNL A   1      40.773  30.046  32.177  1.00  0.00    -0.248 NA
ATOM     41  C   UNL A   1      38.909  31.418  31.893  1.00  0.00     0.031 C 
ATOM     42  C   UNL A   1      39.831  27.944  28.359  1.00  0.00     0.029 A 
ATOM     43  N   UNL A   1      41.245  28.082  30.085  1.00  0.00    -0.354 N 
ATOM     44  C   UNL A   1      40.723  30.968  33.216  1.00  0.00     0.074 A 
ATOM     45  C   UNL A   1      39.584  31.823  32.960  1.00  0.00     0.031 C 
ATOM     46  C   UNL A   1      40.774  27.005  28.183  1.00  0.00     0.029 A 
ATOM     47  C   UNL A   1      41.721  27.063  29.294  1.00  0.00     0.049 A 
ATOM     48  H   UNL A   1      41.692  28.373  30.914  1.00  0.00     0.167 HD
ATOM     49  C   UNL A   1      41.533  31.086  34.299  1.00  0.00     0.031 A 
ATOM     50  C   UNL A   1      42.791  26.256  29.440  1.00  0.00     0.031 A 
ATOM     51  C   UNL A   1      42.661  30.233  34.571  1.00  0.00     0.049 A 
ATOM     52  C   UNL A   1      43.666  26.394  30.656  1.00  0.00     0.074 A 
ATOM     53  C   UNL A   1      43.505  30.247  35.670  1.00  0.00     0.029 A 
ATOM     54  N   UNL A   1      43.106  29.216  33.743  1.00  0.00    -0.354 N 
ATOM     55  N   UNL A   1      43.559  27.232  31.658  1.00  0.00    -0.248 NA
ATOM     56  C   UNL A   1      44.798  25.462  30.766  1.00  0.00     0.031 C 
ATOM     57  C   UNL A   1      44.486  29.265  35.485  1.00  0.00     0.029 A 
ATOM     58  C   UNL A   1      44.222  28.608  34.295  1.00  0.00     0.049 A 
ATOM     59  H   UNL A   1      42.690  28.963  32.886  1.00  0.00     0.167 HD
ATOM     60  C   UNL A   1      44.598  26.917  32.527  1.00  0.00     0.074 A 
ATOM     61  C   UNL A   1      45.308  25.797  31.942  1.00  0.00     0.031 C 
ATOM     62  C   UNL A   1      44.934  27.504  33.702  1.00  0.00     0.031 A 
BRANCH  49  63
ATOM     63  C   UNL A   1      41.225  32.190  35.280  1.00  0.00    -0.014 A 
ATOM     64  C   UNL A   1      40.307  31.993  36.327  1.00  0.00     0.010 A 
ATOM     65  C   UNL A   1      41.894  33.424  35.180  1.00  0.00     0.010 A 
ATOM     66  C   UNL A   1      40.027  33.025  37.227  1.00  0.00     0.020 A 
ATOM     67  C   UNL A   1      41.638  34.449  36.096  1.00  0.00     0.020 A 
ATOM     68  C   UNL A   1      40.691  34.249  37.103  1.00  0.00     0.054 A 
BRANCH  68  69
ATOM     69  S   UNL A   1      40.319  35.567  38.293  1.00  0.00     0.124 S 
ATOM     70  O   UNL A   1      39.764  36.605  37.428  1.00  0.00    -0.237 OA
ATOM     71  O   UNL A   1      39.366  34.926  39.196  1.00  0.00    -0.237 OA
ATOM     72  O   UNL A   1      41.619  35.878  38.884  1.00  0.00    -0.744 OA
ENDBRANCH  68  69
ENDBRANCH  49  63
BRANCH  50  73
ATOM     73  C   UNL A   1      43.081  25.218  28.413  1.00  0.00    -0.014 A 
ATOM     74  C   UNL A   1      42.480  23.949  28.492  1.00  0.00     0.010 A 
ATOM     75  C   UNL A   1      43.947  25.502  27.342  1.00  0.00     0.010 A 
ATOM     76  C   UNL A   1      42.752  22.977  27.525  1.00  0.00     0.020 A 
ATOM     77  C   UNL A   1      44.200  24.540  26.360  1.00  0.00     0.020 A 
ATOM     78  C   UNL A   1      43.608  23.280  26.463  1.00  0.00     0.054 A 
BRANCH  78  79
ATOM     79  S   UNL A   1      43.896  22.027  25.181  1.00  0.00     0.124 S 
ATOM     80  O   UNL A   1      42.996  20.957  25.597  1.00  0.00    -0.237 OA
ATOM     81  O   UNL A   1      43.521  22.732  23.958  1.00  0.00    -0.237 OA
ATOM     82  O   UNL A   1      45.322  21.734  25.307  1.00  0.00    -0.744 OA
ENDBRANCH  78  79
ENDBRANCH  50  73
BRANCH  62  83
ATOM     83  C   UNL A   1      46.113  26.932  34.445  1.00  0.00    -0.014 A 
ATOM     84  C   UNL A   1      45.955  25.875  35.358  1.00  0.00     0.010 A 
ATOM     85  C   UNL A   1      47.401  27.448  34.212  1.00  0.00     0.010 A 
ATOM     86  C   UNL A   1      47.056  25.374  36.060  1.00  0.00     0.020 A 
ATOM     87  C   UNL A   1      48.508  26.933  34.893  1.00  0.00     0.020 A 
ATOM     88  C   UNL A   1      48.324  25.914  35.829  1.00  0.00     0.054 A 
BRANCH  88  89
ATOM     89  S   UNL A   1      49.741  25.243  36.742  1.00  0.00     0.124 S 
ATOM     90  O   UNL A   1      50.399  26.458  37.215  1.00  0.00    -0.237 OA
ATOM     91  O   UNL A   1      49.105  24.430  37.775  1.00  0.00    -0.237 OA
ATOM     92  O   UNL A   1      50.479  24.488  35.731  1.00  0.00    -0.744 OA
ENDBRANCH  88  89
ENDBRANCH  62  83
ENDBRANCH  36  37
ENDBRANCH  28  31
ENDBRANCH  26  27
ENDBRANCH  25  26
ENDBRANCH   1  25
TORSDOF 18
ENDMDL
MODEL 2
REMARK VINA RESULT:     -11.0      3.117      4.167
REMARK SMILES C[C@H](C(=O)NCCCNC(=O)c1ccc(-c2c3nc(c(-c4ccc(S(=O)(=O)[O-])cc4)c4ccc([nH]4)c(-c4ccc(S(=O)(=O)[O-])cc4)c4nc(c(-c5ccc(S(=O)(=O)[O-])cc5)c5ccc2[nH]5)C=C4)C=C3)cc1)[C@@H](C)Nc1ccccc1Oc1ccccc1
REMARK SMILES IDX 6 1 5 2 3 3 4 4 2 6 1 7 72 8 73 9 74 10 75 12 76 13 80 14
REMARK SMILES IDX 77 15 79 16 78 17 81 18 82 19 83 20 87 21 84 22 86 23 85 24
REMARK SMILES IDX 7 25 8 26 9 27 10 28 11 30 12 31 13 32 71 33 14 34 70 35
REMARK SMILES IDX 15 36 16 37 17 38 64 39 18 40 69 41 63 42 65 43 19 44 68 45
REMARK SMILES IDX 62 46 61 47 20 49 50 50 31 51 49 52 32 53 35 54 48 55 66 56
REMARK SMILES IDX 33 57 34 58 47 60 67 61 36 62 21 63 22 64 30 65 23 66 29 67
REMARK SMILES IDX 24 68 25 69 26 70 27 71 28 72 51 73 52 74 60 75 53 76 59 77
REMARK SMILES IDX 54 78 55 79 56 80 57 81 58 82 37 83 38 84 46 85 39 86 45 87
REMARK SMILES IDX 40 88 41 89 42 90 43 91 44 92
REMARK H PARENT 5 5 74 11 9 29 65 48 35 59
REMARK Flexibility Score: inf
ROOT
ATOM      1  C   UNL A   1      31.639  29.380  25.208  1.00  0.00     0.117 C 
ENDROOT
BRANCH   1   2
ATOM      2  N   UNL A   1      31.098  29.333  23.859  1.00  0.00    -0.356 N 
ATOM      3  C   UNL A   1      30.646  28.309  23.086  1.00  0.00     0.224 C 
ATOM      4  O   UNL A   1      30.251  28.621  21.958  1.00  0.00    -0.275 OA
ATOM      5  H   UNL A   1      31.049  30.213  23.421  1.00  0.00     0.163 HD
BRANCH   3   6
ATOM      6  C   UNL A   1      30.615  26.856  23.575  1.00  0.00     0.097 C 
ATOM      7  C   UNL A   1      29.137  26.461  23.747  1.00  0.00     0.020 C 
BRANCH   6   8
ATOM      8  C   UNL A   1      31.364  25.938  22.566  1.00  0.00     0.088 C 
ATOM      9  C   UNL A   1      32.744  26.515  22.233  1.00  0.00     0.031 C 
BRANCH   8  10
ATOM     10  N   UNL A   1      31.597  24.596  23.100  1.00  0.00    -0.379 N 
ATOM     11  H   UNL A   1      31.700  23.876  22.435  1.00  0.00     0.160 HD
BRANCH  10  12
ATOM     12  C   UNL A   1      31.694  24.214  24.434  1.00  0.00     0.078 A 
ATOM     13  C   UNL A   1      30.599  23.475  24.935  1.00  0.00     0.029 A 
ATOM     14  C   UNL A   1      32.776  24.397  25.324  1.00  0.00     0.150 A 
ATOM     15  C   UNL A   1      30.568  22.949  26.231  1.00  0.00     0.002 A 
ATOM     16  C   UNL A   1      32.750  23.856  26.624  1.00  0.00     0.049 A 
ATOM     17  C   UNL A   1      31.648  23.140  27.079  1.00  0.00     0.004 A 
BRANCH  14  18
ATOM     18  O   UNL A   1      33.982  24.958  24.969  1.00  0.00    -0.455 OA
BRANCH  18  19
ATOM     19  C   UNL A   1      35.099  24.155  24.866  1.00  0.00     0.127 A 
ATOM     20  C   UNL A   1      35.227  23.504  23.632  1.00  0.00     0.047 A 
ATOM     21  C   UNL A   1      36.103  24.017  25.825  1.00  0.00     0.047 A 
ATOM     22  C   UNL A   1      36.381  22.786  23.325  1.00  0.00     0.004 A 
ATOM     23  C   UNL A   1      37.265  23.302  25.513  1.00  0.00     0.004 A 
ATOM     24  C   UNL A   1      37.410  22.703  24.260  1.00  0.00     0.000 A 
ENDBRANCH  18  19
ENDBRANCH  14  18
ENDBRANCH  10  12
ENDBRANCH   8  10
ENDBRANCH   6   8
ENDBRANCH   3   6
ENDBRANCH   1   2
BRANCH   1  25
ATOM     25  C   UNL A   1      32.940  28.581  25.326  1.00  0.00     0.042 C 
BRANCH  25  26
ATOM     26  C   UNL A   1      33.573  28.565  26.716  1.00  0.00     0.118 C 
BRANCH  26  27
ATOM     27  N   UNL A   1      33.522  29.864  27.363  1.00  0.00    -0.352 N 
ATOM     28  C   UNL A   1      34.440  30.531  28.138  1.00  0.00     0.251 C 
ATOM     29  H   UNL A   1      32.680  30.354  27.222  1.00  0.00     0.163 HD
ATOM     30  O   UNL A   1      34.056  31.539  28.733  1.00  0.00    -0.269 OA
BRANCH  28  31
ATOM     31  C   UNL A   1      35.854  30.091  28.295  1.00  0.00     0.039 A 
ATOM     32  C   UNL A   1      36.258  29.638  29.558  1.00  0.00     0.014 A 
ATOM     33  C   UNL A   1      36.815  30.209  27.288  1.00  0.00     0.014 A 
ATOM     34  C   UNL A   1      37.593  29.292  29.801  1.00  0.00     0.010 A 
ATOM     35  C   UNL A   1      38.137  29.792  27.509  1.00  0.00     0.010 A 
ATOM     36  C   UNL A   1      38.550  29.349  28.775  1.00  0.00    -0.014 A 
BRANCH  36  37
ATOM     37  C   UNL A   1      39.969  28.972  29.045  1.00  0.00     0.031 A 
ATOM     38  C   UNL A   1      40.915  29.931  29.727  1.00  0.00     0.074 A 
ATOM     39  C   UNL A   1      40.419  27.752  28.684  1.00  0.00     0.049 A 
ATOM     40  N   UNL A   1      42.162  29.745  30.088  1.00  0.00    -0.248 NA
ATOM     41  C   UNL A   1      40.404  31.277  30.027  1.00  0.00     0.031 C 
ATOM     42  C   UNL A   1      39.637  26.735  27.980  1.00  0.00     0.029 A 
ATOM     43  N   UNL A   1      41.644  27.156  28.870  1.00  0.00    -0.354 N 
ATOM     44  C   UNL A   1      42.584  30.947  30.645  1.00  0.00     0.074 A 
ATOM     45  C   UNL A   1      41.476  31.871  30.531  1.00  0.00     0.031 C 
ATOM     46  C   UNL A   1      40.383  25.629  27.831  1.00  0.00     0.029 A 
ATOM     47  C   UNL A   1      41.707  25.865  28.401  1.00  0.00     0.049 A 
ATOM     48  H   UNL A   1      42.406  27.611  29.299  1.00  0.00     0.167 HD
ATOM     49  C   UNL A   1      43.774  31.255  31.220  1.00  0.00     0.031 A 
ATOM     50  C   UNL A   1      42.708  24.962  28.429  1.00  0.00     0.031 A 
ATOM     51  C   UNL A   1      44.879  30.339  31.351  1.00  0.00     0.049 A 
ATOM     52  C   UNL A   1      44.014  25.319  29.086  1.00  0.00     0.074 A 
ATOM     53  C   UNL A   1      46.102  30.549  31.967  1.00  0.00     0.029 A 
ATOM     54  N   UNL A   1      44.899  29.044  30.862  1.00  0.00    -0.354 N 
ATOM     55  N   UNL A   1      44.365  26.442  29.664  1.00  0.00    -0.248 NA
ATOM     56  C   UNL A   1      45.051  24.278  29.107  1.00  0.00     0.031 C 
ATOM     57  C   UNL A   1      46.878  29.394  31.812  1.00  0.00     0.029 A 
ATOM     58  C   UNL A   1      46.118  28.448  31.144  1.00  0.00     0.049 A 
ATOM     59  H   UNL A   1      44.155  28.609  30.384  1.00  0.00     0.167 HD
ATOM     60  C   UNL A   1      45.658  26.236  30.134  1.00  0.00     0.074 A 
ATOM     61  C   UNL A   1      46.016  24.875  29.792  1.00  0.00     0.031 C 
ATOM     62  C   UNL A   1      46.475  27.098  30.789  1.00  0.00     0.031 A 
BRANCH  49  63
ATOM     63  C   UNL A   1      43.946  32.654  31.756  1.00  0.00    -0.014 A 
ATOM     64  C   UNL A   1      44.451  33.685  30.943  1.00  0.00     0.010 A 
ATOM     65  C   UNL A   1      43.558  32.952  33.075  1.00  0.00     0.010 A 
ATOM     66  C   UNL A   1      44.609  34.976  31.454  1.00  0.00     0.020 A 
ATOM     67  C   UNL A   1      43.688  34.249  33.581  1.00  0.00     0.020 A 
ATOM     68  C   UNL A   1      44.232  35.250  32.771  1.00  0.00     0.054 A 
BRANCH  68  69
ATOM     69  S   UNL A   1      44.436  36.938  33.404  1.00  0.00     0.124 S 
ATOM     70  O   UNL A   1      45.594  36.792  34.281  1.00  0.00    -0.237 OA
ATOM     71  O   UNL A   1      44.664  37.712  32.187  1.00  0.00    -0.237 OA
ATOM     72  O   UNL A   1      43.170  37.209  34.083  1.00  0.00    -0.744 OA
ENDBRANCH  68  69
ENDBRANCH  49  63
BRANCH  50  73
ATOM     73  C   UNL A   1      42.504  23.612  27.837  1.00  0.00    -0.014 A 
ATOM     74  C   UNL A   1      42.822  23.368  26.490  1.00  0.00     0.010 A 
ATOM     75  C   UNL A   1      42.005  22.560  28.626  1.00  0.00     0.010 A 
ATOM     76  C   UNL A   1      42.631  22.098  25.937  1.00  0.00     0.020 A 
ATOM     77  C   UNL A   1      41.837  21.283  28.083  1.00  0.00     0.020 A 
ATOM     78  C   UNL A   1      42.143  21.062  26.738  1.00  0.00     0.054 A 
BRANCH  78  79
ATOM     79  S   UNL A   1      41.964  19.405  26.020  1.00  0.00     0.124 S 
ATOM     80  O   UNL A   1      40.532  19.343  25.751  1.00  0.00    -0.237 OA
ATOM     81  O   UNL A   1      42.828  19.475  24.844  1.00  0.00    -0.237 OA
ATOM     82  O   UNL A   1      42.443  18.522  27.081  1.00  0.00    -0.744 OA
ENDBRANCH  78  79
ENDBRANCH  50  73
BRANCH  62  83
ATOM     83  C   UNL A   1      47.832  26.587  31.195  1.00  0.00    -0.014 A 
ATOM     84  C   UNL A   1      48.945  26.723  30.347  1.00  0.00     0.010 A 
ATOM     85  C   UNL A   1      48.000  25.977  32.452  1.00  0.00     0.010 A 
ATOM     86  C   UNL A   1      50.192  26.218  30.727  1.00  0.00     0.020 A 
ATOM     87  C   UNL A   1      49.251  25.493  32.846  1.00  0.00     0.020 A 
ATOM     88  C   UNL A   1      50.334  25.598  31.972  1.00  0.00     0.054 A 
BRANCH  88  89
ATOM     89  S   UNL A   1      51.963  24.959  32.451  1.00  0.00     0.124 S 
ATOM     90  O   UNL A   1      51.763  23.515  32.349  1.00  0.00    -0.237 OA
ATOM     91  O   UNL A   1      52.848  25.543  31.447  1.00  0.00    -0.237 OA
ATOM     92  O   UNL A   1      52.149  25.467  33.809  1.00  0.00    -0.744 OA
ENDBRANCH  88  89
ENDBRANCH  62  83
ENDBRANCH  36  37
ENDBRANCH  28  31
ENDBRANCH  26  27
ENDBRANCH  25  26
ENDBRANCH   1  25
TORSDOF 18
ENDMDL
MODEL 3
REMARK VINA RESULT:     -11.0      2.662      3.319
REMARK SMILES C[C@H](C(=O)NCCCNC(=O)c1ccc(-c2c3nc(c(-c4ccc(S(=O)(=O)[O-])cc4)c4ccc([nH]4)c(-c4ccc(S(=O)(=O)[O-])cc4)c4nc(c(-c5ccc(S(=O)(=O)[O-])cc5)c5ccc2[nH]5)C=C4)C=C3)cc1)[C@@H](C)Nc1ccccc1Oc1ccccc1
REMARK SMILES IDX 6 1 5 2 3 3 4 4 2 6 1 7 72 8 73 9 74 10 75 12 76 13 80 14
REMARK SMILES IDX 77 15 79 16 78 17 81 18 82 19 83 20 87 21 84 22 86 23 85 24
REMARK SMILES IDX 7 25 8 26 9 27 10 28 11 30 12 31 13 32 71 33 14 34 70 35
REMARK SMILES IDX 15 36 16 37 17 38 64 39 18 40 69 41 63 42 65 43 19 44 68 45
REMARK SMILES IDX 62 46 61 47 20 49 50 50 31 51 49 52 32 53 35 54 48 55 66 56
REMARK SMILES IDX 33 57 34 58 47 60 67 61 36 62 21 63 22 64 30 65 23 66 29 67
REMARK SMILES IDX 24 68 25 69 26 70 27 71 28 72 51 73 52 74 60 75 53 76 59 77
REMARK SMILES IDX 54 78 55 79 56 80 57 81 58 82 37 83 38 84 46 85 39 86 45 87
REMARK SMILES IDX 40 88 41 89 42 90 43 91 44 92
REMARK H PARENT 5 5 74 11 9 29 65 48 35 59
REMARK Flexibility Score: inf
ROOT
ATOM      1  C   UNL A   1      32.314  26.493  25.587  1.00  0.00     0.117 C 
ENDROOT
BRANCH   1   2
ATOM      2  N   UNL A   1      30.960  26.432  25.059  1.00  0.00    -0.356 N 
ATOM      3  C   UNL A   1      30.393  25.695  24.066  1.00  0.00     0.224 C 
ATOM      4  O   UNL A   1      29.192  25.898  23.864  1.00  0.00    -0.275 OA
ATOM      5  H   UNL A   1      30.332  27.044  25.507  1.00  0.00     0.163 HD
BRANCH   3   6
ATOM      6  C   UNL A   1      31.183  24.667  23.247  1.00  0.00     0.097 C 
ATOM      7  C   UNL A   1      32.020  25.446  22.217  1.00  0.00     0.020 C 
BRANCH   6   8
ATOM      8  C   UNL A   1      32.060  23.794  24.190  1.00  0.00     0.088 C 
ATOM      9  C   UNL A   1      31.183  22.868  25.039  1.00  0.00     0.031 C 
BRANCH   8  10
ATOM     10  N   UNL A   1      32.980  22.927  23.453  1.00  0.00    -0.379 N 
ATOM     11  H   UNL A   1      32.636  22.543  22.614  1.00  0.00     0.160 HD
BRANCH  10  12
ATOM     12  C   UNL A   1      34.284  22.581  23.795  1.00  0.00     0.078 A 
ATOM     13  C   UNL A   1      35.277  23.514  23.422  1.00  0.00     0.029 A 
ATOM     14  C   UNL A   1      34.731  21.464  24.535  1.00  0.00     0.150 A 
ATOM     15  C   UNL A   1      36.627  23.358  23.754  1.00  0.00     0.002 A 
ATOM     16  C   UNL A   1      36.088  21.315  24.882  1.00  0.00     0.049 A 
ATOM     17  C   UNL A   1      37.034  22.255  24.487  1.00  0.00     0.004 A 
BRANCH  14  18
ATOM     18  O   UNL A   1      33.895  20.533  25.110  1.00  0.00    -0.455 OA
BRANCH  18  19
ATOM     19  C   UNL A   1      33.722  19.309  24.499  1.00  0.00     0.127 A 
ATOM     20  C   UNL A   1      32.595  19.235  23.669  1.00  0.00     0.047 A 
ATOM     21  C   UNL A   1      34.592  18.221  24.578  1.00  0.00     0.047 A 
ATOM     22  C   UNL A   1      32.379  18.117  22.865  1.00  0.00     0.004 A 
ATOM     23  C   UNL A   1      34.377  17.102  23.765  1.00  0.00     0.004 A 
ATOM     24  C   UNL A   1      33.283  17.058  22.898  1.00  0.00     0.000 A 
ENDBRANCH  18  19
ENDBRANCH  14  18
ENDBRANCH  10  12
ENDBRANCH   8  10
ENDBRANCH   6   8
ENDBRANCH   3   6
ENDBRANCH   1   2
BRANCH   1  25
ATOM     25  C   UNL A   1      32.418  27.459  26.771  1.00  0.00     0.042 C 
BRANCH  25  26
ATOM     26  C   UNL A   1      33.762  28.171  26.915  1.00  0.00     0.118 C 
BRANCH  26  27
ATOM     27  N   UNL A   1      33.612  29.575  27.258  1.00  0.00    -0.352 N 
ATOM     28  C   UNL A   1      34.429  30.435  27.950  1.00  0.00     0.251 C 
ATOM     29  H   UNL A   1      32.775  29.982  26.937  1.00  0.00     0.163 HD
ATOM     30  O   UNL A   1      33.961  31.527  28.274  1.00  0.00    -0.269 OA
BRANCH  28  31
ATOM     31  C   UNL A   1      35.832  30.106  28.326  1.00  0.00     0.039 A 
ATOM     32  C   UNL A   1      36.826  30.287  27.355  1.00  0.00     0.014 A 
ATOM     33  C   UNL A   1      36.189  29.529  29.548  1.00  0.00     0.014 A 
ATOM     34  C   UNL A   1      38.152  29.915  27.610  1.00  0.00     0.010 A 
ATOM     35  C   UNL A   1      37.530  29.226  29.831  1.00  0.00     0.010 A 
ATOM     36  C   UNL A   1      38.527  29.394  28.858  1.00  0.00    -0.014 A 
BRANCH  36  37
ATOM     37  C   UNL A   1      39.945  29.007  29.119  1.00  0.00     0.031 A 
ATOM     38  C   UNL A   1      40.899  29.956  29.806  1.00  0.00     0.074 A 
ATOM     39  C   UNL A   1      40.387  27.788  28.747  1.00  0.00     0.049 A 
ATOM     40  N   UNL A   1      42.146  29.760  30.161  1.00  0.00    -0.248 NA
ATOM     41  C   UNL A   1      40.396  31.302  30.118  1.00  0.00     0.031 C 
ATOM     42  C   UNL A   1      39.596  26.781  28.038  1.00  0.00     0.029 A 
ATOM     43  N   UNL A   1      41.609  27.183  28.923  1.00  0.00    -0.354 N 
ATOM     44  C   UNL A   1      42.577  30.955  30.725  1.00  0.00     0.074 A 
ATOM     45  C   UNL A   1      41.474  31.887  30.623  1.00  0.00     0.031 C 
ATOM     46  C   UNL A   1      40.336  25.672  27.877  1.00  0.00     0.029 A 
ATOM     47  C   UNL A   1      41.664  25.896  28.444  1.00  0.00     0.049 A 
ATOM     48  H   UNL A   1      42.375  27.631  29.353  1.00  0.00     0.167 HD
ATOM     49  C   UNL A   1      43.771  31.252  31.298  1.00  0.00     0.031 A 
ATOM     50  C   UNL A   1      42.660  24.988  28.461  1.00  0.00     0.031 A 
ATOM     51  C   UNL A   1      44.871  30.329  31.417  1.00  0.00     0.049 A 
ATOM     52  C   UNL A   1      43.970  25.332  29.115  1.00  0.00     0.074 A 
ATOM     53  C   UNL A   1      46.098  30.528  32.030  1.00  0.00     0.029 A 
ATOM     54  N   UNL A   1      44.882  29.037  30.918  1.00  0.00    -0.354 N 
ATOM     55  N   UNL A   1      44.330  26.448  29.701  1.00  0.00    -0.248 NA
ATOM     56  C   UNL A   1      45.001  24.285  29.124  1.00  0.00     0.031 C 
ATOM     57  C   UNL A   1      46.867  29.370  31.863  1.00  0.00     0.029 A 
ATOM     58  C   UNL A   1      46.099  28.433  31.190  1.00  0.00     0.049 A 
ATOM     59  H   UNL A   1      44.134  28.611  30.439  1.00  0.00     0.167 HD
ATOM     60  C   UNL A   1      45.623  26.232  30.164  1.00  0.00     0.074 A 
ATOM     61  C   UNL A   1      45.972  24.871  29.810  1.00  0.00     0.031 C 
ATOM     62  C   UNL A   1      46.447  27.084  30.823  1.00  0.00     0.031 A 
BRANCH  49  63
ATOM     63  C   UNL A   1      43.953  32.646  31.844  1.00  0.00    -0.014 A 
ATOM     64  C   UNL A   1      43.569  32.965  33.159  1.00  0.00     0.010 A 
ATOM     65  C   UNL A   1      44.553  33.638  31.047  1.00  0.00     0.010 A 
ATOM     66  C   UNL A   1      43.739  34.262  33.651  1.00  0.00     0.020 A 
ATOM     67  C   UNL A   1      44.751  34.930  31.546  1.00  0.00     0.020 A 
ATOM     68  C   UNL A   1      44.323  35.238  32.841  1.00  0.00     0.054 A 
BRANCH  68  69
ATOM     69  S   UNL A   1      44.544  36.910  33.510  1.00  0.00     0.124 S 
ATOM     70  O   UNL A   1      44.957  36.631  34.883  1.00  0.00    -0.237 OA
ATOM     71  O   UNL A   1      45.579  37.469  32.645  1.00  0.00    -0.237 OA
ATOM     72  O   UNL A   1      43.222  37.517  33.368  1.00  0.00    -0.744 OA
ENDBRANCH  68  69
ENDBRANCH  49  63
BRANCH  50  73
ATOM     73  C   UNL A   1      42.445  23.643  27.859  1.00  0.00    -0.014 A 
ATOM     74  C   UNL A   1      42.900  23.363  26.559  1.00  0.00     0.010 A 
ATOM     75  C   UNL A   1      41.799  22.632  28.593  1.00  0.00     0.010 A 
ATOM     76  C   UNL A   1      42.700  22.098  25.997  1.00  0.00     0.020 A 
ATOM     77  C   UNL A   1      41.620  21.359  28.044  1.00  0.00     0.020 A 
ATOM     78  C   UNL A   1      42.063  21.103  26.745  1.00  0.00     0.054 A 
BRANCH  78  79
ATOM     79  S   UNL A   1      41.872  19.449  26.023  1.00  0.00     0.124 S 
ATOM     80  O   UNL A   1      42.713  19.538  24.834  1.00  0.00    -0.237 OA
ATOM     81  O   UNL A   1      42.368  18.580  27.087  1.00  0.00    -0.237 OA
ATOM     82  O   UNL A   1      40.436  19.352  25.771  1.00  0.00    -0.744 OA
ENDBRANCH  78  79
ENDBRANCH  50  73
BRANCH  62  83
ATOM     83  C   UNL A   1      47.803  26.562  31.220  1.00  0.00    -0.014 A 
ATOM     84  C   UNL A   1      48.005  25.933  32.461  1.00  0.00     0.010 A 
ATOM     85  C   UNL A   1      48.886  26.685  30.331  1.00  0.00     0.010 A 
ATOM     86  C   UNL A   1      49.277  25.479  32.826  1.00  0.00     0.020 A 
ATOM     87  C   UNL A   1      50.153  26.210  30.682  1.00  0.00     0.020 A 
ATOM     88  C   UNL A   1      50.344  25.629  31.936  1.00  0.00     0.054 A 
BRANCH  88  89
ATOM     89  S   UNL A   1      51.983  25.024  32.425  1.00  0.00     0.124 S 
ATOM     90  O   UNL A   1      52.835  25.575  31.374  1.00  0.00    -0.237 OA
ATOM     91  O   UNL A   1      52.163  25.609  33.751  1.00  0.00    -0.237 OA
ATOM     92  O   UNL A   1      51.834  23.570  32.408  1.00  0.00    -0.744 OA
ENDBRANCH  88  89
ENDBRANCH  62  83
ENDBRANCH  36  37
ENDBRANCH  28  31
ENDBRANCH  26  27
ENDBRANCH  25  26
ENDBRANCH   1  25
TORSDOF 18
ENDMDL
