MODEL 1
REMARK VINA RESULT:     -12.4      0.000      0.000
REMARK SMILES O=C(NCCCNC(=O)c1cnc2c(C(F)(F)F)cccc2c1NCc1cccnc1)c1ccc(-c2c3nc(c(-c4ccc(S(=O)(=O)[O-])cc4)c4ccc([nH]4)c(-c4ccc(S(=O)(=O)[O-])cc4)c4nc(c(-c5ccc(S(=O)(=O)[O-])cc5)c5ccc2[nH]5)C=C4)C=C3)cc1
REMARK SMILES IDX 5 1 4 2 3 3 1 4 2 5 32 7 33 8 91 9 34 10 90 11 35 12 36 13
REMARK SMILES IDX 37 14 84 15 38 16 89 17 83 18 85 19 39 20 88 21 82 22 81 23
REMARK SMILES IDX 40 25 70 26 51 27 69 28 52 29 55 30 68 31 86 32 53 33 54 34
REMARK SMILES IDX 67 36 87 37 56 38 41 39 42 40 50 41 43 42 49 43 44 44 45 45
REMARK SMILES IDX 46 46 47 47 48 48 71 49 72 50 80 51 73 52 79 53 74 54 75 55
REMARK SMILES IDX 76 56 77 57 78 58 57 59 58 60 66 61 59 62 65 63 60 64 61 65
REMARK SMILES IDX 62 66 63 67 64 68 6 69 7 70 8 71 9 73 10 74 11 75 23 76
REMARK SMILES IDX 12 77 22 78 13 79 21 80 14 81 20 82 19 83 24 84 25 86 26 87
REMARK SMILES IDX 27 88 31 89 28 90 30 91 29 92 15 93 16 94 17 95 18 96
REMARK H PARENT 3 6 85 24 55 35 7 72 24 85
REMARK Flexibility Score: inf
ROOT
ATOM      1  C   UNL A   1      38.273  22.813  25.967  1.00  0.00     0.042 C 
ENDROOT
BRANCH   1   2
ATOM      2  C   UNL A   1      39.017  23.988  26.578  1.00  0.00     0.118 C 
BRANCH   2   3
ATOM      3  N   UNL A   1      40.142  24.432  25.765  1.00  0.00    -0.352 N 
ATOM      4  O   UNL A   1      41.745  25.819  25.010  1.00  0.00    -0.269 OA
ATOM      5  C   UNL A   1      40.965  25.525  25.909  1.00  0.00     0.251 C 
ATOM      6  H   UNL A   1      40.346  23.860  24.990  1.00  0.00     0.163 HD
BRANCH   5   7
ATOM      7  C   UNL A   1      40.897  26.348  27.136  1.00  0.00     0.039 A 
ATOM      8  C   UNL A   1      41.810  27.382  27.349  1.00  0.00     0.014 A 
ATOM      9  C   UNL A   1      39.883  26.109  28.070  1.00  0.00     0.014 A 
ATOM     10  C   UNL A   1      41.809  28.074  28.551  1.00  0.00     0.010 A 
ATOM     11  C   UNL A   1      39.815  26.882  29.233  1.00  0.00     0.010 A 
ATOM     12  C   UNL A   1      40.785  27.863  29.487  1.00  0.00    -0.014 A 
BRANCH  12  13
ATOM     13  C   UNL A   1      40.674  28.785  30.643  1.00  0.00     0.031 A 
ATOM     14  C   UNL A   1      41.545  28.639  31.857  1.00  0.00     0.074 A 
ATOM     15  C   UNL A   1      39.758  29.774  30.570  1.00  0.00     0.049 A 
ATOM     16  N   UNL A   1      41.554  29.367  32.945  1.00  0.00    -0.248 NA
ATOM     17  C   UNL A   1      42.525  27.542  31.862  1.00  0.00     0.031 C 
ATOM     18  C   UNL A   1      38.849  29.998  29.438  1.00  0.00     0.029 A 
ATOM     19  N   UNL A   1      39.440  30.777  31.447  1.00  0.00    -0.354 N 
ATOM     20  C   UNL A   1      42.517  28.805  33.774  1.00  0.00     0.074 A 
ATOM     21  C   UNL A   1      43.070  27.668  33.068  1.00  0.00     0.031 C 
ATOM     22  C   UNL A   1      38.106  31.087  29.676  1.00  0.00     0.029 A 
ATOM     23  C   UNL A   1      38.422  31.590  31.005  1.00  0.00     0.049 A 
ATOM     24  H   UNL A   1      39.895  30.904  32.311  1.00  0.00     0.167 HD
ATOM     25  C   UNL A   1      42.895  29.203  35.012  1.00  0.00     0.031 A 
ATOM     26  C   UNL A   1      37.778  32.602  31.615  1.00  0.00     0.031 A 
ATOM     27  C   UNL A   1      42.338  30.342  35.697  1.00  0.00     0.049 A 
ATOM     28  C   UNL A   1      38.195  32.987  33.004  1.00  0.00     0.074 A 
ATOM     29  C   UNL A   1      42.706  30.864  36.927  1.00  0.00     0.029 A 
ATOM     30  N   UNL A   1      41.290  31.120  35.231  1.00  0.00    -0.354 N 
ATOM     31  N   UNL A   1      39.166  32.495  33.735  1.00  0.00    -0.248 NA
ATOM     32  C   UNL A   1      37.427  34.055  33.654  1.00  0.00     0.031 C 
ATOM     33  C   UNL A   1      41.831  31.909  37.237  1.00  0.00     0.029 A 
ATOM     34  C   UNL A   1      40.962  32.084  36.171  1.00  0.00     0.049 A 
ATOM     35  H   UNL A   1      40.844  31.005  34.361  1.00  0.00     0.167 HD
ATOM     36  C   UNL A   1      39.129  33.200  34.930  1.00  0.00     0.074 A 
ATOM     37  C   UNL A   1      38.067  34.177  34.809  1.00  0.00     0.031 C 
ATOM     38  C   UNL A   1      39.898  33.045  36.036  1.00  0.00     0.031 A 
BRANCH  25  39
ATOM     39  C   UNL A   1      43.940  28.399  35.741  1.00  0.00    -0.014 A 
ATOM     40  C   UNL A   1      45.283  28.808  35.781  1.00  0.00     0.010 A 
ATOM     41  C   UNL A   1      43.541  27.286  36.507  1.00  0.00     0.010 A 
ATOM     42  C   UNL A   1      46.209  28.117  36.571  1.00  0.00     0.020 A 
ATOM     43  C   UNL A   1      44.458  26.607  37.314  1.00  0.00     0.020 A 
ATOM     44  C   UNL A   1      45.789  27.027  37.339  1.00  0.00     0.054 A 
BRANCH  44  45
ATOM     45  S   UNL A   1      46.996  26.203  38.414  1.00  0.00     0.124 S 
ATOM     46  O   UNL A   1      48.193  26.196  37.577  1.00  0.00    -0.237 OA
ATOM     47  O   UNL A   1      47.048  27.091  39.574  1.00  0.00    -0.237 OA
ATOM     48  O   UNL A   1      46.404  24.891  38.664  1.00  0.00    -0.744 OA
ENDBRANCH  44  45
ENDBRANCH  25  39
BRANCH  26  49
ATOM     49  C   UNL A   1      36.628  33.267  30.943  1.00  0.00    -0.014 A 
ATOM     50  C   UNL A   1      36.824  34.103  29.831  1.00  0.00     0.010 A 
ATOM     51  C   UNL A   1      35.323  33.078  31.436  1.00  0.00     0.010 A 
ATOM     52  C   UNL A   1      35.740  34.768  29.250  1.00  0.00     0.020 A 
ATOM     53  C   UNL A   1      34.233  33.710  30.835  1.00  0.00     0.020 A 
ATOM     54  C   UNL A   1      34.453  34.571  29.759  1.00  0.00     0.054 A 
BRANCH  54  55
ATOM     55  S   UNL A   1      33.062  35.445  28.990  1.00  0.00     0.124 S 
ATOM     56  O   UNL A   1      32.289  35.864  30.155  1.00  0.00    -0.237 OA
ATOM     57  O   UNL A   1      33.729  36.515  28.253  1.00  0.00    -0.237 OA
ATOM     58  O   UNL A   1      32.434  34.421  28.157  1.00  0.00    -0.744 OA
ENDBRANCH  54  55
ENDBRANCH  26  49
BRANCH  38  59
ATOM     59  C   UNL A   1      39.623  33.959  37.198  1.00  0.00    -0.014 A 
ATOM     60  C   UNL A   1      38.918  33.500  38.326  1.00  0.00     0.010 A 
ATOM     61  C   UNL A   1      40.120  35.274  37.186  1.00  0.00     0.010 A 
ATOM     62  C   UNL A   1      38.695  34.350  39.411  1.00  0.00     0.020 A 
ATOM     63  C   UNL A   1      39.928  36.116  38.284  1.00  0.00     0.020 A 
ATOM     64  C   UNL A   1      39.206  35.651  39.386  1.00  0.00     0.054 A 
BRANCH  64  65
ATOM     65  S   UNL A   1      38.955  36.712  40.834  1.00  0.00     0.124 S 
ATOM     66  O   UNL A   1      40.305  36.804  41.382  1.00  0.00    -0.237 OA
ATOM     67  O   UNL A   1      38.432  37.940  40.243  1.00  0.00    -0.237 OA
ATOM     68  O   UNL A   1      38.002  35.965  41.651  1.00  0.00    -0.744 OA
ENDBRANCH  64  65
ENDBRANCH  38  59
ENDBRANCH  12  13
ENDBRANCH   5   7
ENDBRANCH   2   3
ENDBRANCH   1   2
BRANCH   1  69
ATOM     69  C   UNL A   1      36.785  23.048  25.790  1.00  0.00     0.118 C 
BRANCH  69  70
ATOM     70  N   UNL A   1      35.954  22.162  26.599  1.00  0.00    -0.352 N 
ATOM     71  C   UNL A   1      34.582  22.080  26.666  1.00  0.00     0.254 C 
ATOM     72  H   UNL A   1      36.445  21.536  27.179  1.00  0.00     0.163 HD
ATOM     73  O   UNL A   1      34.045  21.146  27.251  1.00  0.00    -0.269 OA
BRANCH  71  74
ATOM     74  C   UNL A   1      33.775  23.068  25.939  1.00  0.00     0.081 A 
ATOM     75  C   UNL A   1      33.885  24.347  26.465  1.00  0.00     0.127 A 
ATOM     76  C   UNL A   1      32.935  22.844  24.834  1.00  0.00     0.058 A 
ATOM     77  N   UNL A   1      33.133  25.394  26.087  1.00  0.00    -0.255 NA
ATOM     78  C   UNL A   1      32.146  23.981  24.396  1.00  0.00     0.025 A 
ATOM     79  C   UNL A   1      32.261  25.218  25.095  1.00  0.00     0.085 A 
ATOM     80  C   UNL A   1      31.234  23.954  23.304  1.00  0.00     0.012 A 
ATOM     81  C   UNL A   1      31.448  26.299  24.763  1.00  0.00     0.082 A 
ATOM     82  C   UNL A   1      30.465  25.058  22.942  1.00  0.00     0.001 A 
ATOM     83  C   UNL A   1      30.558  26.223  23.682  1.00  0.00     0.015 A 
BRANCH  76  84
ATOM     84  N   UNL A   1      32.744  21.629  24.179  1.00  0.00    -0.380 N 
ATOM     85  H   UNL A   1      33.071  21.616  23.251  1.00  0.00     0.160 HD
BRANCH  84  86
ATOM     86  C   UNL A   1      32.151  20.375  24.619  1.00  0.00     0.150 C 
BRANCH  86  87
ATOM     87  C   UNL A   1      32.888  19.178  24.076  1.00  0.00    -0.011 A 
ATOM     88  C   UNL A   1      34.011  18.615  24.694  1.00  0.00     0.009 A 
ATOM     89  C   UNL A   1      32.387  18.512  22.959  1.00  0.00     0.116 A 
ATOM     90  C   UNL A   1      34.583  17.455  24.175  1.00  0.00     0.020 A 
ATOM     91  N   UNL A   1      32.921  17.386  22.435  1.00  0.00    -0.264 NA
ATOM     92  C   UNL A   1      34.008  16.882  23.054  1.00  0.00     0.111 A 
ENDBRANCH  86  87
ENDBRANCH  84  86
ENDBRANCH  76  84
BRANCH  81  93
ATOM     93  C   UNL A   1      31.498  27.546  25.609  1.00  0.00     0.418 C 
ATOM     94  F   UNL A   1      32.765  28.003  25.821  1.00  0.00    -0.166 F 
ATOM     95  F   UNL A   1      30.782  28.591  25.109  1.00  0.00    -0.166 F 
ATOM     96  F   UNL A   1      30.986  27.344  26.863  1.00  0.00    -0.166 F 
ENDBRANCH  81  93
ENDBRANCH  71  74
ENDBRANCH  69  70
ENDBRANCH   1  69
TORSDOF 17
ENDMDL
MODEL 2
REMARK VINA RESULT:     -12.4      4.587     10.116
REMARK SMILES O=C(NCCCNC(=O)c1cnc2c(C(F)(F)F)cccc2c1NCc1cccnc1)c1ccc(-c2c3nc(c(-c4ccc(S(=O)(=O)[O-])cc4)c4ccc([nH]4)c(-c4ccc(S(=O)(=O)[O-])cc4)c4nc(c(-c5ccc(S(=O)(=O)[O-])cc5)c5ccc2[nH]5)C=C4)C=C3)cc1
REMARK SMILES IDX 5 1 4 2 3 3 1 4 2 5 32 7 33 8 91 9 34 10 90 11 35 12 36 13
REMARK SMILES IDX 37 14 84 15 38 16 89 17 83 18 85 19 39 20 88 21 82 22 81 23
REMARK SMILES IDX 40 25 70 26 51 27 69 28 52 29 55 30 68 31 86 32 53 33 54 34
REMARK SMILES IDX 67 36 87 37 56 38 41 39 42 40 50 41 43 42 49 43 44 44 45 45
REMARK SMILES IDX 46 46 47 47 48 48 71 49 72 50 80 51 73 52 79 53 74 54 75 55
REMARK SMILES IDX 76 56 77 57 78 58 57 59 58 60 66 61 59 62 65 63 60 64 61 65
REMARK SMILES IDX 62 66 63 67 64 68 6 69 7 70 8 71 9 73 10 74 11 75 23 76
REMARK SMILES IDX 12 77 22 78 13 79 21 80 14 81 20 82 19 83 24 84 25 86 26 87
REMARK SMILES IDX 27 88 31 89 28 90 30 91 29 92 15 93 16 94 17 95 18 96
REMARK H PARENT 3 6 85 24 55 35 7 72 24 85
REMARK Flexibility Score: inf
ROOT
ATOM      1  C   UNL A   1      39.238  23.201  27.255  1.00  0.00     0.042 C 
ENDROOT
BRANCH   1   2
ATOM      2  C   UNL A   1      39.014  24.671  26.948  1.00  0.00     0.118 C 
BRANCH   2   3
ATOM      3  N   UNL A   1      40.072  25.248  26.127  1.00  0.00    -0.352 N 
ATOM      4  O   UNL A   1      41.513  26.807  25.384  1.00  0.00    -0.269 OA
ATOM      5  C   UNL A   1      40.785  26.412  26.288  1.00  0.00     0.251 C 
ATOM      6  H   UNL A   1      40.314  24.721  25.332  1.00  0.00     0.163 HD
BRANCH   5   7
ATOM      7  C   UNL A   1      40.663  27.190  27.541  1.00  0.00     0.039 A 
ATOM      8  C   UNL A   1      40.086  26.620  28.677  1.00  0.00     0.014 A 
ATOM      9  C   UNL A   1      41.168  28.493  27.595  1.00  0.00     0.014 A 
ATOM     10  C   UNL A   1      39.874  27.391  29.810  1.00  0.00     0.010 A 
ATOM     11  C   UNL A   1      41.055  29.234  28.775  1.00  0.00     0.010 A 
ATOM     12  C   UNL A   1      40.395  28.692  29.888  1.00  0.00    -0.014 A 
BRANCH  12  13
ATOM     13  C   UNL A   1      40.367  29.396  31.194  1.00  0.00     0.031 A 
ATOM     14  C   UNL A   1      39.268  30.353  31.550  1.00  0.00     0.074 A 
ATOM     15  C   UNL A   1      41.368  29.144  32.062  1.00  0.00     0.049 A 
ATOM     16  N   UNL A   1      39.117  31.045  32.651  1.00  0.00    -0.248 NA
ATOM     17  C   UNL A   1      38.206  30.572  30.555  1.00  0.00     0.031 C 
ATOM     18  C   UNL A   1      42.496  28.238  31.810  1.00  0.00     0.029 A 
ATOM     19  N   UNL A   1      41.603  29.611  33.329  1.00  0.00    -0.354 N 
ATOM     20  C   UNL A   1      37.962  31.799  32.474  1.00  0.00     0.074 A 
ATOM     21  C   UNL A   1      37.453  31.487  31.155  1.00  0.00     0.031 C 
ATOM     22  C   UNL A   1      43.278  28.190  32.896  1.00  0.00     0.029 A 
ATOM     23  C   UNL A   1      42.759  29.119  33.890  1.00  0.00     0.049 A 
ATOM     24  H   UNL A   1      41.003  30.239  33.793  1.00  0.00     0.167 HD
ATOM     25  C   UNL A   1      37.391  32.675  33.335  1.00  0.00     0.031 A 
ATOM     26  C   UNL A   1      43.364  29.413  35.055  1.00  0.00     0.031 A 
ATOM     27  C   UNL A   1      37.909  32.968  34.647  1.00  0.00     0.049 A 
ATOM     28  C   UNL A   1      42.725  30.420  35.964  1.00  0.00     0.074 A 
ATOM     29  C   UNL A   1      37.361  33.789  35.619  1.00  0.00     0.029 A 
ATOM     30  N   UNL A   1      39.096  32.474  35.167  1.00  0.00    -0.354 N 
ATOM     31  N   UNL A   1      41.588  31.057  35.813  1.00  0.00    -0.248 NA
ATOM     32  C   UNL A   1      43.449  30.755  37.196  1.00  0.00     0.031 C 
ATOM     33  C   UNL A   1      38.253  33.852  36.693  1.00  0.00     0.029 A 
ATOM     34  C   UNL A   1      39.325  33.015  36.421  1.00  0.00     0.049 A 
ATOM     35  H   UNL A   1      39.689  31.834  34.710  1.00  0.00     0.167 HD
ATOM     36  C   UNL A   1      41.459  31.864  36.934  1.00  0.00     0.074 A 
ATOM     37  C   UNL A   1      42.612  31.606  37.773  1.00  0.00     0.031 C 
ATOM     38  C   UNL A   1      40.480  32.750  37.240  1.00  0.00     0.031 A 
BRANCH  25  39
ATOM     39  C   UNL A   1      36.154  33.414  32.898  1.00  0.00    -0.014 A 
ATOM     40  C   UNL A   1      34.871  32.989  33.282  1.00  0.00     0.010 A 
ATOM     41  C   UNL A   1      36.291  34.630  32.199  1.00  0.00     0.010 A 
ATOM     42  C   UNL A   1      33.748  33.765  32.972  1.00  0.00     0.020 A 
ATOM     43  C   UNL A   1      35.174  35.418  31.908  1.00  0.00     0.020 A 
ATOM     44  C   UNL A   1      33.907  34.978  32.295  1.00  0.00     0.054 A 
BRANCH  44  45
ATOM     45  S   UNL A   1      32.440  35.998  31.980  1.00  0.00     0.124 S 
ATOM     46  O   UNL A   1      32.409  36.043  30.521  1.00  0.00    -0.237 OA
ATOM     47  O   UNL A   1      31.372  35.221  32.606  1.00  0.00    -0.237 OA
ATOM     48  O   UNL A   1      32.749  37.267  32.636  1.00  0.00    -0.744 OA
ENDBRANCH  44  45
ENDBRANCH  25  39
BRANCH  26  49
ATOM     49  C   UNL A   1      44.680  28.800  35.387  1.00  0.00    -0.014 A 
ATOM     50  C   UNL A   1      44.757  27.606  36.123  1.00  0.00     0.010 A 
ATOM     51  C   UNL A   1      45.871  29.431  34.979  1.00  0.00     0.010 A 
ATOM     52  C   UNL A   1      46.001  27.077  36.480  1.00  0.00     0.020 A 
ATOM     53  C   UNL A   1      47.115  28.885  35.300  1.00  0.00     0.020 A 
ATOM     54  C   UNL A   1      47.172  27.723  36.069  1.00  0.00     0.054 A 
BRANCH  54  55
ATOM     55  S   UNL A   1      48.775  27.020  36.543  1.00  0.00     0.124 S 
ATOM     56  O   UNL A   1      49.469  26.960  35.261  1.00  0.00    -0.237 OA
ATOM     57  O   UNL A   1      49.283  28.005  37.495  1.00  0.00    -0.237 OA
ATOM     58  O   UNL A   1      48.421  25.727  37.126  1.00  0.00    -0.744 OA
ENDBRANCH  54  55
ENDBRANCH  26  49
BRANCH  38  59
ATOM     59  C   UNL A   1      40.610  33.498  38.538  1.00  0.00    -0.014 A 
ATOM     60  C   UNL A   1      41.324  34.708  38.606  1.00  0.00     0.010 A 
ATOM     61  C   UNL A   1      39.965  33.015  39.690  1.00  0.00     0.010 A 
ATOM     62  C   UNL A   1      41.412  35.409  39.810  1.00  0.00     0.020 A 
ATOM     63  C   UNL A   1      40.023  33.730  40.889  1.00  0.00     0.020 A 
ATOM     64  C   UNL A   1      40.755  34.918  40.943  1.00  0.00     0.054 A 
BRANCH  64  65
ATOM     65  S   UNL A   1      40.834  35.880  42.478  1.00  0.00     0.124 S 
ATOM     66  O   UNL A   1      39.472  35.753  42.987  1.00  0.00    -0.237 OA
ATOM     67  O   UNL A   1      41.860  35.175  43.244  1.00  0.00    -0.237 OA
ATOM     68  O   UNL A   1      41.209  37.219  42.031  1.00  0.00    -0.744 OA
ENDBRANCH  64  65
ENDBRANCH  38  59
ENDBRANCH  12  13
ENDBRANCH   5   7
ENDBRANCH   2   3
ENDBRANCH   1   2
BRANCH   1  69
ATOM     69  C   UNL A   1      39.789  22.403  26.087  1.00  0.00     0.118 C 
BRANCH  69  70
ATOM     70  N   UNL A   1      40.563  21.235  26.494  1.00  0.00    -0.352 N 
ATOM     71  C   UNL A   1      41.859  21.169  26.953  1.00  0.00     0.254 C 
ATOM     72  H   UNL A   1      40.092  20.373  26.429  1.00  0.00     0.163 HD
ATOM     73  O   UNL A   1      42.292  20.129  27.437  1.00  0.00    -0.269 OA
BRANCH  71  74
ATOM     74  C   UNL A   1      42.676  22.389  26.950  1.00  0.00     0.081 A 
ATOM     75  C   UNL A   1      42.792  22.965  28.206  1.00  0.00     0.127 A 
ATOM     76  C   UNL A   1      43.301  23.000  25.848  1.00  0.00     0.058 A 
ATOM     77  N   UNL A   1      43.348  24.162  28.448  1.00  0.00    -0.255 NA
ATOM     78  C   UNL A   1      43.937  24.279  26.109  1.00  0.00     0.025 A 
ATOM     79  C   UNL A   1      43.887  24.825  27.424  1.00  0.00     0.085 A 
ATOM     80  C   UNL A   1      44.613  25.055  25.127  1.00  0.00     0.012 A 
ATOM     81  C   UNL A   1      44.402  26.093  27.687  1.00  0.00     0.082 A 
ATOM     82  C   UNL A   1      45.176  26.298  25.411  1.00  0.00     0.001 A 
ATOM     83  C   UNL A   1      45.054  26.824  26.684  1.00  0.00     0.015 A 
BRANCH  76  84
ATOM     84  N   UNL A   1      43.301  22.529  24.537  1.00  0.00    -0.380 N 
ATOM     85  H   UNL A   1      42.425  22.577  24.091  1.00  0.00     0.160 HD
BRANCH  84  86
ATOM     86  C   UNL A   1      44.362  21.979  23.707  1.00  0.00     0.150 C 
BRANCH  86  87
ATOM     87  C   UNL A   1      44.931  20.707  24.281  1.00  0.00    -0.011 A 
ATOM     88  C   UNL A   1      46.230  20.602  24.790  1.00  0.00     0.009 A 
ATOM     89  C   UNL A   1      44.109  19.591  24.422  1.00  0.00     0.116 A 
ATOM     90  C   UNL A   1      46.652  19.412  25.383  1.00  0.00     0.020 A 
ATOM     91  N   UNL A   1      44.491  18.425  24.992  1.00  0.00    -0.264 NA
ATOM     92  C   UNL A   1      45.754  18.362  25.460  1.00  0.00     0.111 A 
ENDBRANCH  86  87
ENDBRANCH  84  86
ENDBRANCH  76  84
BRANCH  81  93
ATOM     93  C   UNL A   1      44.210  26.697  29.054  1.00  0.00     0.418 C 
ATOM     94  F   UNL A   1      43.038  26.329  29.648  1.00  0.00    -0.166 F 
ATOM     95  F   UNL A   1      45.205  26.407  29.938  1.00  0.00    -0.166 F 
ATOM     96  F   UNL A   1      44.166  28.065  29.018  1.00  0.00    -0.166 F 
ENDBRANCH  81  93
ENDBRANCH  71  74
ENDBRANCH  69  70
ENDBRANCH   1  69
TORSDOF 17
ENDMDL
MODEL 3
REMARK VINA RESULT:     -12.3      5.854     10.329
REMARK SMILES O=C(NCCCNC(=O)c1cnc2c(C(F)(F)F)cccc2c1NCc1cccnc1)c1ccc(-c2c3nc(c(-c4ccc(S(=O)(=O)[O-])cc4)c4ccc([nH]4)c(-c4ccc(S(=O)(=O)[O-])cc4)c4nc(c(-c5ccc(S(=O)(=O)[O-])cc5)c5ccc2[nH]5)C=C4)C=C3)cc1
REMARK SMILES IDX 5 1 4 2 3 3 1 4 2 5 32 7 33 8 91 9 34 10 90 11 35 12 36 13
REMARK SMILES IDX 37 14 84 15 38 16 89 17 83 18 85 19 39 20 88 21 82 22 81 23
REMARK SMILES IDX 40 25 70 26 51 27 69 28 52 29 55 30 68 31 86 32 53 33 54 34
REMARK SMILES IDX 67 36 87 37 56 38 41 39 42 40 50 41 43 42 49 43 44 44 45 45
REMARK SMILES IDX 46 46 47 47 48 48 71 49 72 50 80 51 73 52 79 53 74 54 75 55
REMARK SMILES IDX 76 56 77 57 78 58 57 59 58 60 66 61 59 62 65 63 60 64 61 65
REMARK SMILES IDX 62 66 63 67 64 68 6 69 7 70 8 71 9 73 10 74 11 75 23 76
REMARK SMILES IDX 12 77 22 78 13 79 21 80 14 81 20 82 19 83 24 84 25 86 26 87
REMARK SMILES IDX 27 88 31 89 28 90 30 91 29 92 15 93 16 94 17 95 18 96
REMARK H PARENT 3 6 85 24 55 35 7 72 24 85
REMARK Flexibility Score: inf
ROOT
ATOM      1  C   UNL A   1      37.464  20.598  24.877  1.00  0.00     0.042 C 
ENDROOT
BRANCH   1   2
ATOM      2  C   UNL A   1      38.653  20.971  25.745  1.00  0.00     0.118 C 
BRANCH   2   3
ATOM      3  N   UNL A   1      39.611  19.882  25.896  1.00  0.00    -0.352 N 
ATOM      4  O   UNL A   1      41.621  18.884  26.042  1.00  0.00    -0.269 OA
ATOM      5  C   UNL A   1      40.966  19.917  26.126  1.00  0.00     0.251 C 
ATOM      6  H   UNL A   1      39.226  18.979  25.820  1.00  0.00     0.163 HD
BRANCH   5   7
ATOM      7  C   UNL A   1      41.629  21.196  26.460  1.00  0.00     0.039 A 
ATOM      8  C   UNL A   1      41.953  22.111  25.457  1.00  0.00     0.014 A 
ATOM      9  C   UNL A   1      41.896  21.505  27.798  1.00  0.00     0.014 A 
ATOM     10  C   UNL A   1      42.674  23.255  25.766  1.00  0.00     0.010 A 
ATOM     11  C   UNL A   1      42.524  22.711  28.121  1.00  0.00     0.010 A 
ATOM     12  C   UNL A   1      42.929  23.590  27.105  1.00  0.00    -0.014 A 
BRANCH  12  13
ATOM     13  C   UNL A   1      43.481  24.932  27.412  1.00  0.00     0.031 A 
ATOM     14  C   UNL A   1      42.611  26.046  27.919  1.00  0.00     0.074 A 
ATOM     15  C   UNL A   1      44.803  25.124  27.225  1.00  0.00     0.049 A 
ATOM     16  N   UNL A   1      42.954  27.272  28.223  1.00  0.00    -0.248 NA
ATOM     17  C   UNL A   1      41.180  25.761  28.105  1.00  0.00     0.031 C 
ATOM     18  C   UNL A   1      45.739  24.109  26.724  1.00  0.00     0.029 A 
ATOM     19  N   UNL A   1      45.596  26.221  27.438  1.00  0.00    -0.354 N 
ATOM     20  C   UNL A   1      41.783  27.913  28.610  1.00  0.00     0.074 A 
ATOM     21  C   UNL A   1      40.714  26.942  28.497  1.00  0.00     0.031 C 
ATOM     22  C   UNL A   1      46.977  24.620  26.702  1.00  0.00     0.029 A 
ATOM     23  C   UNL A   1      46.915  26.017  27.107  1.00  0.00     0.049 A 
ATOM     24  H   UNL A   1      45.254  27.073  27.793  1.00  0.00     0.167 HD
ATOM     25  C   UNL A   1      41.621  29.195  29.015  1.00  0.00     0.031 A 
ATOM     26  C   UNL A   1      47.957  26.868  27.085  1.00  0.00     0.031 A 
ATOM     27  C   UNL A   1      42.699  30.145  29.129  1.00  0.00     0.049 A 
ATOM     28  C   UNL A   1      47.731  28.292  27.499  1.00  0.00     0.074 A 
ATOM     29  C   UNL A   1      42.644  31.449  29.597  1.00  0.00     0.029 A 
ATOM     30  N   UNL A   1      44.013  29.912  28.755  1.00  0.00    -0.354 N 
ATOM     31  N   UNL A   1      46.632  28.854  27.943  1.00  0.00    -0.248 NA
ATOM     32  C   UNL A   1      48.880  29.200  27.404  1.00  0.00     0.031 C 
ATOM     33  C   UNL A   1      43.907  32.024  29.435  1.00  0.00     0.029 A 
ATOM     34  C   UNL A   1      44.767  31.061  28.931  1.00  0.00     0.049 A 
ATOM     35  H   UNL A   1      44.360  29.055  28.415  1.00  0.00     0.167 HD
ATOM     36  C   UNL A   1      46.961  30.180  28.185  1.00  0.00     0.074 A 
ATOM     37  C   UNL A   1      48.368  30.328  27.877  1.00  0.00     0.031 C 
ATOM     38  C   UNL A   1      46.166  31.191  28.614  1.00  0.00     0.031 A 
BRANCH  25  39
ATOM     39  C   UNL A   1      40.234  29.679  29.345  1.00  0.00    -0.014 A 
ATOM     40  C   UNL A   1      39.851  29.965  30.666  1.00  0.00     0.010 A 
ATOM     41  C   UNL A   1      39.342  29.975  28.295  1.00  0.00     0.010 A 
ATOM     42  C   UNL A   1      38.601  30.535  30.931  1.00  0.00     0.020 A 
ATOM     43  C   UNL A   1      38.102  30.566  28.555  1.00  0.00     0.020 A 
ATOM     44  C   UNL A   1      37.738  30.840  29.874  1.00  0.00     0.054 A 
BRANCH  44  45
ATOM     45  S   UNL A   1      36.159  31.653  30.246  1.00  0.00     0.124 S 
ATOM     46  O   UNL A   1      35.759  30.986  31.482  1.00  0.00    -0.237 OA
ATOM     47  O   UNL A   1      36.549  33.055  30.388  1.00  0.00    -0.237 OA
ATOM     48  O   UNL A   1      35.330  31.355  29.081  1.00  0.00    -0.744 OA
ENDBRANCH  44  45
ENDBRANCH  25  39
BRANCH  26  49
ATOM     49  C   UNL A   1      49.283  26.411  26.586  1.00  0.00    -0.014 A 
ATOM     50  C   UNL A   1      50.265  25.934  27.471  1.00  0.00     0.010 A 
ATOM     51  C   UNL A   1      49.575  26.474  25.210  1.00  0.00     0.010 A 
ATOM     52  C   UNL A   1      51.526  25.568  26.993  1.00  0.00     0.020 A 
ATOM     53  C   UNL A   1      50.820  26.072  24.724  1.00  0.00     0.020 A 
ATOM     54  C   UNL A   1      51.796  25.643  25.623  1.00  0.00     0.054 A 
BRANCH  54  55
ATOM     55  S   UNL A   1      53.440  25.163  25.025  1.00  0.00     0.124 S 
ATOM     56  O   UNL A   1      54.317  25.882  25.943  1.00  0.00    -0.237 OA
ATOM     57  O   UNL A   1      53.419  23.710  25.175  1.00  0.00    -0.237 OA
ATOM     58  O   UNL A   1      53.452  25.638  23.643  1.00  0.00    -0.744 OA
ENDBRANCH  54  55
ENDBRANCH  26  49
BRANCH  38  59
ATOM     59  C   UNL A   1      46.803  32.543  28.782  1.00  0.00    -0.014 A 
ATOM     60  C   UNL A   1      46.778  33.487  27.739  1.00  0.00     0.010 A 
ATOM     61  C   UNL A   1      47.386  32.893  30.013  1.00  0.00     0.010 A 
ATOM     62  C   UNL A   1      47.346  34.750  27.918  1.00  0.00     0.020 A 
ATOM     63  C   UNL A   1      47.926  34.166  30.206  1.00  0.00     0.020 A 
ATOM     64  C   UNL A   1      47.912  35.084  29.152  1.00  0.00     0.054 A 
BRANCH  64  65
ATOM     65  S   UNL A   1      48.587  36.751  29.377  1.00  0.00     0.124 S 
ATOM     66  O   UNL A   1      49.937  36.607  28.841  1.00  0.00    -0.237 OA
ATOM     67  O   UNL A   1      47.679  37.573  28.581  1.00  0.00    -0.237 OA
ATOM     68  O   UNL A   1      48.509  36.966  30.820  1.00  0.00    -0.744 OA
ENDBRANCH  64  65
ENDBRANCH  38  59
ENDBRANCH  12  13
ENDBRANCH   5   7
ENDBRANCH   2   3
ENDBRANCH   1   2
BRANCH   1  69
ATOM     69  C   UNL A   1      36.239  21.464  25.103  1.00  0.00     0.118 C 
BRANCH  69  70
ATOM     70  N   UNL A   1      35.661  21.320  26.436  1.00  0.00    -0.352 N 
ATOM     71  C   UNL A   1      34.486  21.836  26.931  1.00  0.00     0.254 C 
ATOM     72  H   UNL A   1      36.186  20.780  27.068  1.00  0.00     0.163 HD
ATOM     73  O   UNL A   1      34.051  21.457  28.013  1.00  0.00    -0.269 OA
BRANCH  71  74
ATOM     74  C   UNL A   1      33.710  22.765  26.100  1.00  0.00     0.081 A 
ATOM     75  C   UNL A   1      34.046  24.094  26.318  1.00  0.00     0.127 A 
ATOM     76  C   UNL A   1      32.703  22.449  25.171  1.00  0.00     0.058 A 
ATOM     77  N   UNL A   1      33.381  25.142  25.805  1.00  0.00    -0.255 NA
ATOM     78  C   UNL A   1      32.003  23.579  24.585  1.00  0.00     0.025 A 
ATOM     79  C   UNL A   1      32.364  24.900  24.979  1.00  0.00     0.085 A 
ATOM     80  C   UNL A   1      30.952  23.466  23.633  1.00  0.00     0.012 A 
ATOM     81  C   UNL A   1      31.649  26.000  24.510  1.00  0.00     0.082 A 
ATOM     82  C   UNL A   1      30.279  24.577  23.126  1.00  0.00     0.001 A 
ATOM     83  C   UNL A   1      30.614  25.840  23.578  1.00  0.00     0.015 A 
BRANCH  76  84
ATOM     84  N   UNL A   1      32.277  21.169  24.823  1.00  0.00    -0.380 N 
ATOM     85  H   UNL A   1      31.503  20.848  25.339  1.00  0.00     0.160 HD
BRANCH  84  86
ATOM     86  C   UNL A   1      32.769  20.221  23.836  1.00  0.00     0.150 C 
BRANCH  86  87
ATOM     87  C   UNL A   1      33.104  18.885  24.449  1.00  0.00    -0.011 A 
ATOM     88  C   UNL A   1      32.176  18.098  25.142  1.00  0.00     0.009 A 
ATOM     89  C   UNL A   1      34.365  18.331  24.241  1.00  0.00     0.116 A 
ATOM     90  C   UNL A   1      32.542  16.835  25.604  1.00  0.00     0.020 A 
ATOM     91  N   UNL A   1      34.747  17.110  24.678  1.00  0.00    -0.264 NA
ATOM     92  C   UNL A   1      33.827  16.388  25.350  1.00  0.00     0.111 A 
ENDBRANCH  86  87
ENDBRANCH  84  86
ENDBRANCH  76  84
BRANCH  81  93
ATOM     93  C   UNL A   1      31.967  27.370  25.053  1.00  0.00     0.418 C 
ATOM     94  F   UNL A   1      33.185  27.838  24.657  1.00  0.00    -0.166 F 
ATOM     95  F   UNL A   1      31.054  28.327  24.726  1.00  0.00    -0.166 F 
ATOM     96  F   UNL A   1      32.014  27.390  26.421  1.00  0.00    -0.166 F 
ENDBRANCH  81  93
ENDBRANCH  71  74
ENDBRANCH  69  70
ENDBRANCH   1  69
TORSDOF 17
ENDMDL
