MODEL 1
REMARK VINA RESULT:     -10.8      0.000      0.000
REMARK SMILES CC[C@H]1CC[C@](Cc2cccc(OC)n2)(C(=O)NCCCNC(=O)c2ccc(-c3c4nc(c(-c5ccc(S(=O)(=O)[O-])cc5)c5ccc([nH]5)c(-c5ccc(S(=O)(=O)[O-])cc5)c5nc(c(-c6ccc(S(=O)(=O)[O-])cc6)c6ccc3[nH]6)C=C5)C=C4)cc2)C1
REMARK SMILES IDX 20 1 19 2 18 3 16 4 17 5 6 7 3 8 4 9 85 10 5 11 2 12 1 13
REMARK SMILES IDX 7 14 8 15 9 16 15 17 10 18 12 19 11 20 13 21 14 22 21 23
REMARK SMILES IDX 22 24 23 25 24 27 25 28 26 29 84 30 27 31 83 32 28 33 29 34
REMARK SMILES IDX 30 35 77 36 31 37 82 38 76 39 78 40 32 41 81 42 75 43 74 44
REMARK SMILES IDX 33 46 63 47 44 48 62 49 45 50 48 51 61 52 79 53 46 54 47 55
REMARK SMILES IDX 60 57 80 58 49 59 34 60 35 61 43 62 36 63 42 64 37 65 38 66
REMARK SMILES IDX 39 67 40 68 41 69 64 70 65 71 73 72 66 73 72 74 67 75 68 76
REMARK SMILES IDX 69 77 70 78 71 79 50 80 51 81 59 82 52 83 58 84 53 85 54 86
REMARK SMILES IDX 55 87 56 88 57 89
REMARK H PARENT 18 6 22 26 78 45 48 56
REMARK Flexibility Score: inf
ROOT
ATOM      1  C   UNL A   1      34.056  28.373  24.724  1.00  0.00     0.042 C 
ENDROOT
BRANCH   1   2
ATOM      2  C   UNL A   1      32.723  27.818  24.229  1.00  0.00     0.117 C 
BRANCH   2   3
ATOM      3  N   UNL A   1      32.864  27.261  22.901  1.00  0.00    -0.356 N 
ATOM      4  C   UNL A   1      33.214  26.029  22.454  1.00  0.00     0.226 C 
ATOM      5  O   UNL A   1      33.397  25.968  21.231  1.00  0.00    -0.274 OA
ATOM      6  H   UNL A   1      32.669  27.903  22.180  1.00  0.00     0.163 HD
BRANCH   4   7
ATOM      7  C   UNL A   1      33.205  24.741  23.323  1.00  0.00     0.055 C 
ATOM      8  C   UNL A   1      32.220  22.503  22.774  1.00  0.00    -0.010 C 
ATOM      9  C   UNL A   1      31.285  23.214  23.755  1.00  0.00     0.005 C 
ATOM     10  C   UNL A   1      33.232  23.560  22.327  1.00  0.00     0.021 C 
ATOM     11  C   UNL A   1      31.966  24.508  24.207  1.00  0.00     0.017 C 
BRANCH   8  12
ATOM     12  C   UNL A   1      32.790  21.210  23.373  1.00  0.00     0.000 C 
ATOM     13  C   UNL A   1      32.106  20.732  24.648  1.00  0.00     0.004 C 
ENDBRANCH   8  12
BRANCH   7  14
ATOM     14  C   UNL A   1      34.518  24.841  24.182  1.00  0.00     0.073 C 
BRANCH  14  15
ATOM     15  C   UNL A   1      35.138  23.560  24.685  1.00  0.00     0.045 A 
ATOM     16  C   UNL A   1      36.164  22.936  23.992  1.00  0.00     0.024 A 
ATOM     17  N   UNL A   1      34.626  23.043  25.826  1.00  0.00    -0.219 NA
ATOM     18  C   UNL A   1      36.592  21.686  24.427  1.00  0.00     0.007 A 
ATOM     19  C   UNL A   1      35.066  21.846  26.259  1.00  0.00     0.213 A 
ATOM     20  C   UNL A   1      36.020  21.120  25.564  1.00  0.00     0.068 A 
BRANCH  19  21
ATOM     21  O   UNL A   1      34.457  21.456  27.415  1.00  0.00    -0.481 OA
ATOM     22  C   UNL A   1      33.423  22.285  27.918  1.00  0.00     0.280 C 
ENDBRANCH  19  21
ENDBRANCH  14  15
ENDBRANCH   7  14
ENDBRANCH   4   7
ENDBRANCH   2   3
ENDBRANCH   1   2
BRANCH   1  23
ATOM     23  C   UNL A   1      34.140  28.420  26.245  1.00  0.00     0.118 C 
BRANCH  23  24
ATOM     24  N   UNL A   1      33.838  29.750  26.755  1.00  0.00    -0.352 N 
ATOM     25  C   UNL A   1      34.498  30.489  27.704  1.00  0.00     0.251 C 
ATOM     26  H   UNL A   1      33.045  30.181  26.361  1.00  0.00     0.163 HD
ATOM     27  O   UNL A   1      33.953  31.473  28.193  1.00  0.00    -0.269 OA
BRANCH  25  28
ATOM     28  C   UNL A   1      35.857  30.097  28.132  1.00  0.00     0.039 A 
ATOM     29  C   UNL A   1      36.044  29.614  29.431  1.00  0.00     0.014 A 
ATOM     30  C   UNL A   1      36.946  30.232  27.268  1.00  0.00     0.014 A 
ATOM     31  C   UNL A   1      37.319  29.223  29.845  1.00  0.00     0.010 A 
ATOM     32  C   UNL A   1      38.200  29.772  27.656  1.00  0.00     0.010 A 
ATOM     33  C   UNL A   1      38.402  29.273  28.951  1.00  0.00    -0.014 A 
BRANCH  33  34
ATOM     34  C   UNL A   1      39.756  28.820  29.352  1.00  0.00     0.031 A 
ATOM     35  C   UNL A   1      40.675  29.756  30.091  1.00  0.00     0.074 A 
ATOM     36  C   UNL A   1      40.181  27.593  28.992  1.00  0.00     0.049 A 
ATOM     37  N   UNL A   1      41.916  29.572  30.460  1.00  0.00    -0.248 NA
ATOM     38  C   UNL A   1      40.136  31.082  30.437  1.00  0.00     0.031 C 
ATOM     39  C   UNL A   1      39.395  26.610  28.244  1.00  0.00     0.029 A 
ATOM     40  N   UNL A   1      41.385  26.967  29.200  1.00  0.00    -0.354 N 
ATOM     41  C   UNL A   1      42.312  30.762  31.061  1.00  0.00     0.074 A 
ATOM     42  C   UNL A   1      41.196  31.677  30.966  1.00  0.00     0.031 C 
ATOM     43  C   UNL A   1      40.127  25.498  28.075  1.00  0.00     0.029 A 
ATOM     44  C   UNL A   1      41.447  25.703  28.663  1.00  0.00     0.049 A 
ATOM     45  H   UNL A   1      42.132  27.384  29.687  1.00  0.00     0.167 HD
ATOM     46  C   UNL A   1      43.492  31.060  31.655  1.00  0.00     0.031 A 
ATOM     47  C   UNL A   1      42.457  24.812  28.638  1.00  0.00     0.031 A 
ATOM     48  C   UNL A   1      44.594  30.141  31.755  1.00  0.00     0.049 A 
ATOM     49  C   UNL A   1      43.762  25.168  29.296  1.00  0.00     0.074 A 
ATOM     50  C   UNL A   1      45.813  30.325  32.385  1.00  0.00     0.029 A 
ATOM     51  N   UNL A   1      44.614  28.866  31.210  1.00  0.00    -0.354 N 
ATOM     52  N   UNL A   1      44.096  26.276  29.915  1.00  0.00    -0.248 NA
ATOM     53  C   UNL A   1      44.822  24.153  29.259  1.00  0.00     0.031 C 
ATOM     54  C   UNL A   1      46.589  29.180  32.176  1.00  0.00     0.029 A 
ATOM     55  C   UNL A   1      45.831  28.260  31.468  1.00  0.00     0.049 A 
ATOM     56  H   UNL A   1      43.872  28.453  30.714  1.00  0.00     0.167 HD
ATOM     57  C   UNL A   1      45.396  26.079  30.366  1.00  0.00     0.074 A 
ATOM     58  C   UNL A   1      45.782  24.743  29.961  1.00  0.00     0.031 C 
ATOM     59  C   UNL A   1      46.197  26.927  31.057  1.00  0.00     0.031 A 
BRANCH  46  60
ATOM     60  C   UNL A   1      43.651  32.442  32.236  1.00  0.00    -0.014 A 
ATOM     61  C   UNL A   1      44.104  33.514  31.447  1.00  0.00     0.010 A 
ATOM     62  C   UNL A   1      43.314  32.679  33.582  1.00  0.00     0.010 A 
ATOM     63  C   UNL A   1      44.261  34.787  32.002  1.00  0.00     0.020 A 
ATOM     64  C   UNL A   1      43.439  33.957  34.133  1.00  0.00     0.020 A 
ATOM     65  C   UNL A   1      43.931  35.000  33.344  1.00  0.00     0.054 A 
BRANCH  65  66
ATOM     66  S   UNL A   1      44.127  36.666  34.034  1.00  0.00     0.124 S 
ATOM     67  O   UNL A   1      42.783  37.216  33.875  1.00  0.00    -0.237 OA
ATOM     68  O   UNL A   1      44.536  36.398  35.410  1.00  0.00    -0.237 OA
ATOM     69  O   UNL A   1      45.152  37.273  33.189  1.00  0.00    -0.744 OA
ENDBRANCH  65  66
ENDBRANCH  46  60
BRANCH  47  70
ATOM     70  C   UNL A   1      42.263  23.490  27.982  1.00  0.00    -0.014 A 
ATOM     71  C   UNL A   1      42.910  23.195  26.769  1.00  0.00     0.010 A 
ATOM     72  C   UNL A   1      41.447  22.511  28.577  1.00  0.00     0.010 A 
ATOM     73  C   UNL A   1      42.732  21.952  26.155  1.00  0.00     0.020 A 
ATOM     74  C   UNL A   1      41.288  21.256  27.980  1.00  0.00     0.020 A 
ATOM     75  C   UNL A   1      41.924  20.988  26.767  1.00  0.00     0.054 A 
BRANCH  75  76
ATOM     76  S   UNL A   1      41.753  19.363  25.978  1.00  0.00     0.124 S 
ATOM     77  O   UNL A   1      42.642  19.489  24.828  1.00  0.00    -0.237 OA
ATOM     78  O   UNL A   1      42.201  18.453  27.029  1.00  0.00    -0.237 OA
ATOM     79  O   UNL A   1      40.328  19.284  25.663  1.00  0.00    -0.744 OA
ENDBRANCH  75  76
ENDBRANCH  47  70
BRANCH  59  80
ATOM     80  C   UNL A   1      47.561  26.427  31.452  1.00  0.00    -0.014 A 
ATOM     81  C   UNL A   1      47.782  25.820  32.701  1.00  0.00     0.010 A 
ATOM     82  C   UNL A   1      48.621  26.511  30.532  1.00  0.00     0.010 A 
ATOM     83  C   UNL A   1      49.049  25.329  33.031  1.00  0.00     0.020 A 
ATOM     84  C   UNL A   1      49.881  25.997  30.848  1.00  0.00     0.020 A 
ATOM     85  C   UNL A   1      50.089  25.419  32.101  1.00  0.00     0.054 A 
BRANCH  85  86
ATOM     86  S   UNL A   1      51.709  24.726  32.534  1.00  0.00     0.124 S 
ATOM     87  O   UNL A   1      52.610  25.513  31.698  1.00  0.00    -0.237 OA
ATOM     88  O   UNL A   1      51.794  24.985  33.969  1.00  0.00    -0.237 OA
ATOM     89  O   UNL A   1      51.592  23.316  32.168  1.00  0.00    -0.744 OA
ENDBRANCH  85  86
ENDBRANCH  59  80
ENDBRANCH  33  34
ENDBRANCH  25  28
ENDBRANCH  23  24
ENDBRANCH   1  23
TORSDOF 17
ENDMDL
MODEL 2
REMARK VINA RESULT:     -10.6      4.220     10.162
REMARK SMILES CC[C@H]1CC[C@](Cc2cccc(OC)n2)(C(=O)NCCCNC(=O)c2ccc(-c3c4nc(c(-c5ccc(S(=O)(=O)[O-])cc5)c5ccc([nH]5)c(-c5ccc(S(=O)(=O)[O-])cc5)c5nc(c(-c6ccc(S(=O)(=O)[O-])cc6)c6ccc3[nH]6)C=C5)C=C4)cc2)C1
REMARK SMILES IDX 20 1 19 2 18 3 16 4 17 5 6 7 3 8 4 9 85 10 5 11 2 12 1 13
REMARK SMILES IDX 7 14 8 15 9 16 15 17 10 18 12 19 11 20 13 21 14 22 21 23
REMARK SMILES IDX 22 24 23 25 24 27 25 28 26 29 84 30 27 31 83 32 28 33 29 34
REMARK SMILES IDX 30 35 77 36 31 37 82 38 76 39 78 40 32 41 81 42 75 43 74 44
REMARK SMILES IDX 33 46 63 47 44 48 62 49 45 50 48 51 61 52 79 53 46 54 47 55
REMARK SMILES IDX 60 57 80 58 49 59 34 60 35 61 43 62 36 63 42 64 37 65 38 66
REMARK SMILES IDX 39 67 40 68 41 69 64 70 65 71 73 72 66 73 72 74 67 75 68 76
REMARK SMILES IDX 69 77 70 78 71 79 50 80 51 81 59 82 52 83 58 84 53 85 54 86
REMARK SMILES IDX 55 87 56 88 57 89
REMARK H PARENT 18 6 22 26 78 45 48 56
REMARK Flexibility Score: inf
ROOT
ATOM      1  C   UNL A   1      38.288  23.939  26.453  1.00  0.00     0.042 C 
ENDROOT
BRANCH   1   2
ATOM      2  C   UNL A   1      37.694  22.707  25.775  1.00  0.00     0.117 C 
BRANCH   2   3
ATOM      3  N   UNL A   1      37.464  22.960  24.370  1.00  0.00    -0.356 N 
ATOM      4  C   UNL A   1      36.362  22.856  23.586  1.00  0.00     0.226 C 
ATOM      5  O   UNL A   1      36.586  22.996  22.376  1.00  0.00    -0.274 OA
ATOM      6  H   UNL A   1      38.265  23.268  23.887  1.00  0.00     0.163 HD
BRANCH   4   7
ATOM      7  C   UNL A   1      34.905  22.771  24.121  1.00  0.00     0.055 C 
ATOM      8  C   UNL A   1      34.046  23.376  26.396  1.00  0.00    -0.010 C 
ATOM      9  C   UNL A   1      34.140  21.851  26.306  1.00  0.00     0.005 C 
ATOM     10  C   UNL A   1      34.768  23.909  25.157  1.00  0.00     0.021 C 
ATOM     11  C   UNL A   1      34.514  21.483  24.868  1.00  0.00     0.017 C 
BRANCH   8  12
ATOM     12  C   UNL A   1      32.599  23.841  26.607  1.00  0.00     0.000 C 
ATOM     13  C   UNL A   1      32.354  25.324  26.358  1.00  0.00     0.004 C 
ENDBRANCH   8  12
BRANCH   7  14
ATOM     14  C   UNL A   1      34.009  22.996  22.849  1.00  0.00     0.073 C 
BRANCH  14  15
ATOM     15  C   UNL A   1      32.782  23.864  22.987  1.00  0.00     0.045 A 
ATOM     16  C   UNL A   1      31.557  23.328  23.352  1.00  0.00     0.024 A 
ATOM     17  N   UNL A   1      32.934  25.180  22.711  1.00  0.00    -0.219 NA
ATOM     18  C   UNL A   1      30.437  24.151  23.319  1.00  0.00     0.007 A 
ATOM     19  C   UNL A   1      31.849  25.980  22.710  1.00  0.00     0.213 A 
ATOM     20  C   UNL A   1      30.579  25.492  22.971  1.00  0.00     0.068 A 
BRANCH  19  21
ATOM     21  O   UNL A   1      32.159  27.274  22.413  1.00  0.00    -0.481 OA
ATOM     22  C   UNL A   1      33.523  27.651  22.484  1.00  0.00     0.280 C 
ENDBRANCH  19  21
ENDBRANCH  14  15
ENDBRANCH   7  14
ENDBRANCH   4   7
ENDBRANCH   2   3
ENDBRANCH   1   2
BRANCH   1  23
ATOM     23  C   UNL A   1      39.692  23.690  26.991  1.00  0.00     0.118 C 
BRANCH  23  24
ATOM     24  N   UNL A   1      40.710  24.204  26.085  1.00  0.00    -0.352 N 
ATOM     25  C   UNL A   1      41.268  25.456  26.023  1.00  0.00     0.251 C 
ATOM     26  H   UNL A   1      41.047  23.559  25.422  1.00  0.00     0.163 HD
ATOM     27  O   UNL A   1      41.915  25.782  25.033  1.00  0.00    -0.269 OA
BRANCH  25  28
ATOM     28  C   UNL A   1      41.085  26.403  27.143  1.00  0.00     0.039 A 
ATOM     29  C   UNL A   1      40.238  26.050  28.197  1.00  0.00     0.014 A 
ATOM     30  C   UNL A   1      41.722  27.646  27.138  1.00  0.00     0.014 A 
ATOM     31  C   UNL A   1      40.069  26.926  29.270  1.00  0.00     0.010 A 
ATOM     32  C   UNL A   1      41.612  28.486  28.242  1.00  0.00     0.010 A 
ATOM     33  C   UNL A   1      40.775  28.140  29.314  1.00  0.00    -0.014 A 
BRANCH  33  34
ATOM     34  C   UNL A   1      40.648  29.067  30.464  1.00  0.00     0.031 A 
ATOM     35  C   UNL A   1      41.535  28.900  31.668  1.00  0.00     0.074 A 
ATOM     36  C   UNL A   1      39.689  30.014  30.452  1.00  0.00     0.049 A 
ATOM     37  N   UNL A   1      41.525  29.560  32.797  1.00  0.00    -0.248 NA
ATOM     38  C   UNL A   1      42.550  27.834  31.604  1.00  0.00     0.031 C 
ATOM     39  C   UNL A   1      38.745  30.250  29.357  1.00  0.00     0.029 A 
ATOM     40  N   UNL A   1      39.344  30.950  31.395  1.00  0.00    -0.354 N 
ATOM     41  C   UNL A   1      42.514  28.977  33.584  1.00  0.00     0.074 A 
ATOM     42  C   UNL A   1      43.071  27.882  32.821  1.00  0.00     0.031 C 
ATOM     43  C   UNL A   1      37.945  31.278  29.681  1.00  0.00     0.029 A 
ATOM     44  C   UNL A   1      38.287  31.745  31.020  1.00  0.00     0.049 A 
ATOM     45  H   UNL A   1      39.810  31.042  32.258  1.00  0.00     0.167 HD
ATOM     46  C   UNL A   1      42.932  29.334  34.821  1.00  0.00     0.031 A 
ATOM     47  C   UNL A   1      37.658  32.734  31.684  1.00  0.00     0.031 A 
ATOM     48  C   UNL A   1      42.379  30.432  35.569  1.00  0.00     0.049 A 
ATOM     49  C   UNL A   1      38.133  33.106  33.062  1.00  0.00     0.074 A 
ATOM     50  C   UNL A   1      42.768  30.911  36.808  1.00  0.00     0.029 A 
ATOM     51  N   UNL A   1      41.318  31.221  35.150  1.00  0.00    -0.354 N 
ATOM     52  N   UNL A   1      39.111  32.585  33.764  1.00  0.00    -0.248 NA
ATOM     53  C   UNL A   1      37.427  34.205  33.733  1.00  0.00     0.031 C 
ATOM     54  C   UNL A   1      41.909  31.956  37.161  1.00  0.00     0.029 A 
ATOM     55  C   UNL A   1      41.023  32.168  36.115  1.00  0.00     0.049 A 
ATOM     56  H   UNL A   1      40.846  31.122  34.293  1.00  0.00     0.167 HD
ATOM     57  C   UNL A   1      39.155  33.311  34.948  1.00  0.00     0.074 A 
ATOM     58  C   UNL A   1      38.115  34.316  34.861  1.00  0.00     0.031 C 
ATOM     59  C   UNL A   1      39.984  33.163  36.011  1.00  0.00     0.031 A 
BRANCH  46  60
ATOM     60  C   UNL A   1      44.037  28.521  35.446  1.00  0.00    -0.014 A 
ATOM     61  C   UNL A   1      43.752  27.391  36.234  1.00  0.00     0.010 A 
ATOM     62  C   UNL A   1      45.380  28.873  35.216  1.00  0.00     0.010 A 
ATOM     63  C   UNL A   1      44.786  26.655  36.818  1.00  0.00     0.020 A 
ATOM     64  C   UNL A   1      46.418  28.121  35.773  1.00  0.00     0.020 A 
ATOM     65  C   UNL A   1      46.114  27.027  36.587  1.00  0.00     0.054 A 
BRANCH  65  66
ATOM     66  S   UNL A   1      47.436  26.043  37.343  1.00  0.00     0.124 S 
ATOM     67  O   UNL A   1      46.708  24.863  37.801  1.00  0.00    -0.237 OA
ATOM     68  O   UNL A   1      48.350  25.821  36.226  1.00  0.00    -0.237 OA
ATOM     69  O   UNL A   1      47.950  26.907  38.403  1.00  0.00    -0.744 OA
ENDBRANCH  65  66
ENDBRANCH  46  60
BRANCH  47  70
ATOM     70  C   UNL A   1      36.522  33.451  31.043  1.00  0.00    -0.014 A 
ATOM     71  C   UNL A   1      35.312  33.633  31.737  1.00  0.00     0.010 A 
ATOM     72  C   UNL A   1      36.650  33.973  29.743  1.00  0.00     0.010 A 
ATOM     73  C   UNL A   1      34.247  34.311  31.137  1.00  0.00     0.020 A 
ATOM     74  C   UNL A   1      35.596  34.676  29.151  1.00  0.00     0.020 A 
ATOM     75  C   UNL A   1      34.397  34.831  29.848  1.00  0.00     0.054 A 
BRANCH  75  76
ATOM     76  S   UNL A   1      33.019  35.754  29.112  1.00  0.00     0.124 S 
ATOM     77  O   UNL A   1      33.714  36.830  28.413  1.00  0.00    -0.237 OA
ATOM     78  O   UNL A   1      32.385  34.751  28.260  1.00  0.00    -0.237 OA
ATOM     79  O   UNL A   1      32.227  36.167  30.269  1.00  0.00    -0.744 OA
ENDBRANCH  75  76
ENDBRANCH  47  70
BRANCH  59  80
ATOM     80  C   UNL A   1      39.828  34.129  37.154  1.00  0.00    -0.014 A 
ATOM     81  C   UNL A   1      40.395  35.414  37.107  1.00  0.00     0.010 A 
ATOM     82  C   UNL A   1      39.048  33.763  38.266  1.00  0.00     0.010 A 
ATOM     83  C   UNL A   1      40.205  36.308  38.165  1.00  0.00     0.020 A 
ATOM     84  C   UNL A   1      38.833  34.663  39.312  1.00  0.00     0.020 A 
ATOM     85  C   UNL A   1      39.423  35.927  39.259  1.00  0.00     0.054 A 
BRANCH  85  86
ATOM     86  S   UNL A   1      39.148  37.124  40.594  1.00  0.00     0.124 S 
ATOM     87  O   UNL A   1      40.501  37.604  40.856  1.00  0.00    -0.237 OA
ATOM     88  O   UNL A   1      38.245  38.092  39.975  1.00  0.00    -0.237 OA
ATOM     89  O   UNL A   1      38.553  36.323  41.662  1.00  0.00    -0.744 OA
ENDBRANCH  85  86
ENDBRANCH  59  80
ENDBRANCH  33  34
ENDBRANCH  25  28
ENDBRANCH  23  24
ENDBRANCH   1  23
TORSDOF 17
ENDMDL
MODEL 3
REMARK VINA RESULT:     -10.3      3.621      8.095
REMARK SMILES CC[C@H]1CC[C@](Cc2cccc(OC)n2)(C(=O)NCCCNC(=O)c2ccc(-c3c4nc(c(-c5ccc(S(=O)(=O)[O-])cc5)c5ccc([nH]5)c(-c5ccc(S(=O)(=O)[O-])cc5)c5nc(c(-c6ccc(S(=O)(=O)[O-])cc6)c6ccc3[nH]6)C=C5)C=C4)cc2)C1
REMARK SMILES IDX 20 1 19 2 18 3 16 4 17 5 6 7 3 8 4 9 85 10 5 11 2 12 1 13
REMARK SMILES IDX 7 14 8 15 9 16 15 17 10 18 12 19 11 20 13 21 14 22 21 23
REMARK SMILES IDX 22 24 23 25 24 27 25 28 26 29 84 30 27 31 83 32 28 33 29 34
REMARK SMILES IDX 30 35 77 36 31 37 82 38 76 39 78 40 32 41 81 42 75 43 74 44
REMARK SMILES IDX 33 46 63 47 44 48 62 49 45 50 48 51 61 52 79 53 46 54 47 55
REMARK SMILES IDX 60 57 80 58 49 59 34 60 35 61 43 62 36 63 42 64 37 65 38 66
REMARK SMILES IDX 39 67 40 68 41 69 64 70 65 71 73 72 66 73 72 74 67 75 68 76
REMARK SMILES IDX 69 77 70 78 71 79 50 80 51 81 59 82 52 83 58 84 53 85 54 86
REMARK SMILES IDX 55 87 56 88 57 89
REMARK H PARENT 18 6 22 26 78 45 48 56
REMARK Flexibility Score: inf
ROOT
ATOM      1  C   UNL A   1      38.076  20.125  24.984  1.00  0.00     0.042 C 
ENDROOT
BRANCH   1   2
ATOM      2  C   UNL A   1      36.845  21.024  25.080  1.00  0.00     0.117 C 
BRANCH   2   3
ATOM      3  N   UNL A   1      35.637  20.229  25.125  1.00  0.00    -0.356 N 
ATOM      4  C   UNL A   1      34.321  20.558  25.137  1.00  0.00     0.226 C 
ATOM      5  O   UNL A   1      33.563  19.603  25.354  1.00  0.00    -0.274 OA
ATOM      6  H   UNL A   1      35.803  19.260  25.151  1.00  0.00     0.163 HD
BRANCH   4   7
ATOM      7  C   UNL A   1      33.756  21.946  24.727  1.00  0.00     0.055 C 
ATOM      8  C   UNL A   1      31.920  22.457  23.098  1.00  0.00    -0.010 C 
ATOM      9  C   UNL A   1      33.260  22.764  22.426  1.00  0.00     0.005 C 
ATOM     10  C   UNL A   1      32.266  21.711  24.389  1.00  0.00     0.021 C 
ATOM     11  C   UNL A   1      34.365  22.601  23.474  1.00  0.00     0.017 C 
BRANCH   8  12
ATOM     12  C   UNL A   1      31.055  23.717  23.238  1.00  0.00     0.000 C 
ATOM     13  C   UNL A   1      31.698  25.001  22.730  1.00  0.00     0.004 C 
ENDBRANCH   8  12
BRANCH   7  14
ATOM     14  C   UNL A   1      33.956  22.842  26.003  1.00  0.00     0.073 C 
BRANCH  14  15
ATOM     15  C   UNL A   1      33.547  24.292  25.926  1.00  0.00     0.045 A 
ATOM     16  C   UNL A   1      34.427  25.266  25.480  1.00  0.00     0.024 A 
ATOM     17  N   UNL A   1      32.293  24.593  26.338  1.00  0.00    -0.219 NA
ATOM     18  C   UNL A   1      34.041  26.599  25.571  1.00  0.00     0.007 A 
ATOM     19  C   UNL A   1      31.915  25.885  26.395  1.00  0.00     0.213 A 
ATOM     20  C   UNL A   1      32.775  26.917  26.057  1.00  0.00     0.068 A 
BRANCH  19  21
ATOM     21  O   UNL A   1      30.630  26.031  26.830  1.00  0.00    -0.481 OA
ATOM     22  C   UNL A   1      29.596  25.610  25.957  1.00  0.00     0.280 C 
ENDBRANCH  19  21
ENDBRANCH  14  15
ENDBRANCH   7  14
ENDBRANCH   4   7
ENDBRANCH   2   3
ENDBRANCH   1   2
BRANCH   1  23
ATOM     23  C   UNL A   1      39.153  20.501  25.994  1.00  0.00     0.118 C 
BRANCH  23  24
ATOM     24  N   UNL A   1      40.220  19.509  26.030  1.00  0.00    -0.352 N 
ATOM     25  C   UNL A   1      41.578  19.693  26.087  1.00  0.00     0.251 C 
ATOM     26  H   UNL A   1      39.922  18.571  26.013  1.00  0.00     0.163 HD
ATOM     27  O   UNL A   1      42.328  18.753  25.846  1.00  0.00    -0.269 OA
BRANCH  25  28
ATOM     28  C   UNL A   1      42.130  21.020  26.434  1.00  0.00     0.039 A 
ATOM     29  C   UNL A   1      42.393  21.315  27.774  1.00  0.00     0.014 A 
ATOM     30  C   UNL A   1      42.359  21.979  25.444  1.00  0.00     0.014 A 
ATOM     31  C   UNL A   1      42.930  22.558  28.115  1.00  0.00     0.010 A 
ATOM     32  C   UNL A   1      42.964  23.187  25.776  1.00  0.00     0.010 A 
ATOM     33  C   UNL A   1      43.245  23.493  27.116  1.00  0.00    -0.014 A 
BRANCH  33  34
ATOM     34  C   UNL A   1      43.859  24.802  27.448  1.00  0.00     0.031 A 
ATOM     35  C   UNL A   1      43.002  25.926  27.966  1.00  0.00     0.074 A 
ATOM     36  C   UNL A   1      45.173  24.998  27.219  1.00  0.00     0.049 A 
ATOM     37  N   UNL A   1      43.339  27.159  28.241  1.00  0.00    -0.248 NA
ATOM     38  C   UNL A   1      41.575  25.631  28.178  1.00  0.00     0.031 C 
ATOM     39  C   UNL A   1      46.099  23.996  26.686  1.00  0.00     0.029 A 
ATOM     40  N   UNL A   1      45.956  26.111  27.398  1.00  0.00    -0.354 N 
ATOM     41  C   UNL A   1      42.165  27.791  28.637  1.00  0.00     0.074 A 
ATOM     42  C   UNL A   1      41.100  26.819  28.522  1.00  0.00     0.031 C 
ATOM     43  C   UNL A   1      47.326  24.532  26.602  1.00  0.00     0.029 A 
ATOM     44  C   UNL A   1      47.268  25.925  27.034  1.00  0.00     0.049 A 
ATOM     45  H   UNL A   1      45.609  26.962  27.753  1.00  0.00     0.167 HD
ATOM     46  C   UNL A   1      41.992  29.061  29.074  1.00  0.00     0.031 A 
ATOM     47  C   UNL A   1      48.307  26.783  27.037  1.00  0.00     0.031 A 
ATOM     48  C   UNL A   1      43.058  30.020  29.195  1.00  0.00     0.049 A 
ATOM     49  C   UNL A   1      48.089  28.192  27.517  1.00  0.00     0.074 A 
ATOM     50  C   UNL A   1      43.000  31.315  29.680  1.00  0.00     0.029 A 
ATOM     51  N   UNL A   1      44.376  29.790  28.828  1.00  0.00    -0.354 N 
ATOM     52  N   UNL A   1      46.984  28.753  27.947  1.00  0.00    -0.248 NA
ATOM     53  C   UNL A   1      49.259  29.079  27.521  1.00  0.00     0.031 C 
ATOM     54  C   UNL A   1      44.271  31.885  29.557  1.00  0.00     0.029 A 
ATOM     55  C   UNL A   1      45.135  30.925  29.052  1.00  0.00     0.049 A 
ATOM     56  H   UNL A   1      44.720  28.944  28.462  1.00  0.00     0.167 HD
ATOM     57  C   UNL A   1      47.333  30.052  28.300  1.00  0.00     0.074 A 
ATOM     58  C   UNL A   1      48.752  30.188  28.045  1.00  0.00     0.031 C 
ATOM     59  C   UNL A   1      46.549  31.042  28.794  1.00  0.00     0.031 A 
BRANCH  46  60
ATOM     60  C   UNL A   1      40.595  29.488  29.446  1.00  0.00    -0.014 A 
ATOM     61  C   UNL A   1      40.174  29.507  30.788  1.00  0.00     0.010 A 
ATOM     62  C   UNL A   1      39.701  29.905  28.443  1.00  0.00     0.010 A 
ATOM     63  C   UNL A   1      38.872  29.891  31.117  1.00  0.00     0.020 A 
ATOM     64  C   UNL A   1      38.406  30.320  28.771  1.00  0.00     0.020 A 
ATOM     65  C   UNL A   1      37.994  30.292  30.105  1.00  0.00     0.054 A 
BRANCH  65  66
ATOM     66  S   UNL A   1      36.315  30.803  30.563  1.00  0.00     0.124 S 
ATOM     67  O   UNL A   1      36.006  29.879  31.651  1.00  0.00    -0.237 OA
ATOM     68  O   UNL A   1      36.500  32.197  30.957  1.00  0.00    -0.237 OA
ATOM     69  O   UNL A   1      35.544  30.602  29.338  1.00  0.00    -0.744 OA
ENDBRANCH  65  66
ENDBRANCH  46  60
BRANCH  47  70
ATOM     70  C   UNL A   1      49.649  26.323  26.586  1.00  0.00    -0.014 A 
ATOM     71  C   UNL A   1      50.026  26.442  25.236  1.00  0.00     0.010 A 
ATOM     72  C   UNL A   1      50.565  25.783  27.507  1.00  0.00     0.010 A 
ATOM     73  C   UNL A   1      51.288  26.016  24.814  1.00  0.00     0.020 A 
ATOM     74  C   UNL A   1      51.839  25.381  27.092  1.00  0.00     0.020 A 
ATOM     75  C   UNL A   1      52.188  25.490  25.745  1.00  0.00     0.054 A 
BRANCH  75  76
ATOM     76  S   UNL A   1      53.840  24.994  25.182  1.00  0.00     0.124 S 
ATOM     77  O   UNL A   1      54.651  25.234  26.371  1.00  0.00    -0.237 OA
ATOM     78  O   UNL A   1      53.644  23.592  24.821  1.00  0.00    -0.237 OA
ATOM     79  O   UNL A   1      54.100  25.888  24.055  1.00  0.00    -0.744 OA
ENDBRANCH  75  76
ENDBRANCH  47  70
BRANCH  59  80
ATOM     80  C   UNL A   1      47.211  32.352  29.126  1.00  0.00    -0.014 A 
ATOM     81  C   UNL A   1      47.186  33.431  28.226  1.00  0.00     0.010 A 
ATOM     82  C   UNL A   1      47.813  32.522  30.385  1.00  0.00     0.010 A 
ATOM     83  C   UNL A   1      47.775  34.651  28.571  1.00  0.00     0.020 A 
ATOM     84  C   UNL A   1      48.378  33.748  30.745  1.00  0.00     0.020 A 
ATOM     85  C   UNL A   1      48.365  34.802  29.830  1.00  0.00     0.054 A 
BRANCH  85  86
ATOM     86  S   UNL A   1      49.076  36.411  30.273  1.00  0.00     0.124 S 
ATOM     87  O   UNL A   1      50.501  36.187  30.051  1.00  0.00    -0.237 OA
ATOM     88  O   UNL A   1      48.426  37.318  29.331  1.00  0.00    -0.237 OA
ATOM     89  O   UNL A   1      48.684  36.589  31.670  1.00  0.00    -0.744 OA
ENDBRANCH  85  86
ENDBRANCH  59  80
ENDBRANCH  33  34
ENDBRANCH  25  28
ENDBRANCH  23  24
ENDBRANCH   1  23
TORSDOF 17
ENDMDL
