MODEL 1
REMARK VINA RESULT:     -11.8      0.000      0.000
REMARK SMILES Cc1ccccc1C[C@H](CCSc1ccccc1)C(=O)NCCCNC(=O)c1ccc(-c2c3nc(c(-c4ccc(S(=O)(=O)[O-])cc4)c4ccc([nH]4)c(-c4ccc(S(=O)(=O)[O-])cc4)c4nc(c(-c5ccc(S(=O)(=O)[O-])cc5)c5ccc2[nH]5)C=C4)C=C3)cc1
REMARK SMILES IDX 22 1 21 2 19 3 20 4 9 6 8 7 7 8 1 9 2 10 3 11 4 12 6 13 5 14
REMARK SMILES IDX 10 15 11 16 12 17 13 18 14 19 18 20 15 21 17 22 16 23 23 24
REMARK SMILES IDX 24 25 25 26 26 27 27 29 28 30 29 31 87 32 30 33 86 34 31 35
REMARK SMILES IDX 32 36 33 37 80 38 34 39 85 40 79 41 81 42 35 43 84 44 78 45
REMARK SMILES IDX 77 46 36 48 66 49 47 50 65 51 48 52 51 53 64 54 82 55 49 56
REMARK SMILES IDX 50 57 63 59 83 60 52 61 37 62 38 63 46 64 39 65 45 66 40 67
REMARK SMILES IDX 41 68 42 69 43 70 44 71 67 72 68 73 76 74 69 75 75 76 70 77
REMARK SMILES IDX 71 78 72 79 73 80 74 81 53 82 54 83 62 84 55 85 61 86 56 87
REMARK SMILES IDX 57 88 58 89 59 90 60 91
REMARK H PARENT 21 5 25 28 81 47 51 58
REMARK Flexibility Score: inf
ROOT
ATOM      1  C   UNL A   1      33.566  27.761  24.620  1.00  0.00     0.117 C 
ENDROOT
BRANCH   1   2
ATOM      2  N   UNL A   1      33.749  27.513  23.195  1.00  0.00    -0.356 N 
ATOM      3  C   UNL A   1      33.442  26.430  22.429  1.00  0.00     0.223 C 
ATOM      4  O   UNL A   1      33.643  26.510  21.214  1.00  0.00    -0.275 OA
ATOM      5  H   UNL A   1      34.168  28.256  22.702  1.00  0.00     0.163 HD
BRANCH   3   6
ATOM      6  C   UNL A   1      32.949  25.119  23.034  1.00  0.00     0.083 C 
BRANCH   6   7
ATOM      7  C   UNL A   1      33.479  23.818  22.385  1.00  0.00     0.049 C 
BRANCH   7   8
ATOM      8  C   UNL A   1      34.345  22.904  23.240  1.00  0.00    -0.044 A 
ATOM      9  C   UNL A   1      32.465  21.190  23.638  1.00  0.00     0.044 C 
ATOM     10  C   UNL A   1      33.863  21.713  23.827  1.00  0.00    -0.048 A 
ATOM     11  C   UNL A   1      34.751  20.884  24.544  1.00  0.00     0.004 A 
ATOM     12  C   UNL A   1      36.098  21.208  24.681  1.00  0.00     0.000 A 
ATOM     13  C   UNL A   1      35.719  23.186  23.367  1.00  0.00     0.004 A 
ATOM     14  C   UNL A   1      36.584  22.358  24.085  1.00  0.00     0.000 A 
ENDBRANCH   7   8
ENDBRANCH   6   7
BRANCH   6  15
ATOM     15  C   UNL A   1      31.407  25.227  23.138  1.00  0.00     0.025 C 
BRANCH  15  16
ATOM     16  C   UNL A   1      30.683  24.273  24.090  1.00  0.00     0.076 C 
BRANCH  16  17
ATOM     17  S   UNL A   1      30.617  24.850  25.823  1.00  0.00    -0.126 SA
BRANCH  17  18
ATOM     18  C   UNL A   1      32.030  24.020  26.514  1.00  0.00     0.007 A 
ATOM     19  C   UNL A   1      31.854  22.839  27.239  1.00  0.00     0.015 A 
ATOM     20  C   UNL A   1      33.324  24.496  26.286  1.00  0.00     0.015 A 
ATOM     21  C   UNL A   1      32.951  22.172  27.783  1.00  0.00     0.001 A 
ATOM     22  C   UNL A   1      34.427  23.811  26.803  1.00  0.00     0.001 A 
ATOM     23  C   UNL A   1      34.239  22.654  27.560  1.00  0.00     0.000 A 
ENDBRANCH  17  18
ENDBRANCH  16  17
ENDBRANCH  15  16
ENDBRANCH   6  15
ENDBRANCH   3   6
ENDBRANCH   1   2
BRANCH   1  24
ATOM     24  C   UNL A   1      33.177  29.196  24.939  1.00  0.00     0.042 C 
BRANCH  24  25
ATOM     25  C   UNL A   1      33.465  29.572  26.368  1.00  0.00     0.118 C 
BRANCH  25  26
ATOM     26  N   UNL A   1      34.326  30.736  26.568  1.00  0.00    -0.352 N 
ATOM     27  C   UNL A   1      34.654  31.066  27.881  1.00  0.00     0.251 C 
ATOM     28  H   UNL A   1      34.659  31.264  25.808  1.00  0.00     0.163 HD
ATOM     29  O   UNL A   1      33.992  31.730  28.628  1.00  0.00    -0.269 OA
BRANCH  27  30
ATOM     30  C   UNL A   1      35.798  30.242  28.371  1.00  0.00     0.039 A 
ATOM     31  C   UNL A   1      35.842  29.675  29.641  1.00  0.00     0.014 A 
ATOM     32  C   UNL A   1      36.923  30.270  27.551  1.00  0.00     0.014 A 
ATOM     33  C   UNL A   1      37.073  29.217  30.121  1.00  0.00     0.010 A 
ATOM     34  C   UNL A   1      38.147  29.990  28.091  1.00  0.00     0.010 A 
ATOM     35  C   UNL A   1      38.229  29.443  29.372  1.00  0.00    -0.014 A 
BRANCH  35  36
ATOM     36  C   UNL A   1      39.592  29.100  29.744  1.00  0.00     0.031 A 
ATOM     37  C   UNL A   1      40.202  27.883  29.151  1.00  0.00     0.074 A 
ATOM     38  C   UNL A   1      40.359  30.001  30.396  1.00  0.00     0.049 A 
ATOM     39  N   UNL A   1      41.284  27.328  29.578  1.00  0.00    -0.248 NA
ATOM     40  C   UNL A   1      39.615  27.173  28.013  1.00  0.00     0.031 C 
ATOM     41  C   UNL A   1      41.817  30.015  30.480  1.00  0.00     0.029 A 
ATOM     42  N   UNL A   1      39.966  30.989  31.298  1.00  0.00    -0.354 N 
ATOM     43  C   UNL A   1      41.693  26.425  28.622  1.00  0.00     0.074 A 
ATOM     44  C   UNL A   1      40.589  26.315  27.701  1.00  0.00     0.031 C 
ATOM     45  C   UNL A   1      42.174  30.700  31.578  1.00  0.00     0.029 A 
ATOM     46  C   UNL A   1      40.950  31.003  32.301  1.00  0.00     0.049 A 
ATOM     47  H   UNL A   1      39.166  31.559  31.243  1.00  0.00     0.167 HD
ATOM     48  C   UNL A   1      42.975  25.967  28.637  1.00  0.00     0.031 A 
ATOM     49  C   UNL A   1      40.705  30.666  33.604  1.00  0.00     0.031 A 
ATOM     50  C   UNL A   1      43.712  26.492  29.780  1.00  0.00     0.049 A 
ATOM     51  C   UNL A   1      41.548  29.498  34.079  1.00  0.00     0.074 A 
ATOM     52  C   UNL A   1      44.624  27.524  29.929  1.00  0.00     0.029 A 
ATOM     53  N   UNL A   1      43.305  26.136  31.057  1.00  0.00    -0.354 N 
ATOM     54  N   UNL A   1      42.211  28.702  33.286  1.00  0.00    -0.248 NA
ATOM     55  C   UNL A   1      41.689  29.113  35.480  1.00  0.00     0.031 C 
ATOM     56  C   UNL A   1      44.715  27.829  31.314  1.00  0.00     0.029 A 
ATOM     57  C   UNL A   1      43.877  26.966  31.999  1.00  0.00     0.049 A 
ATOM     58  H   UNL A   1      42.692  25.393  31.263  1.00  0.00     0.167 HD
ATOM     59  C   UNL A   1      42.847  27.729  34.014  1.00  0.00     0.074 A 
ATOM     60  C   UNL A   1      42.496  28.038  35.389  1.00  0.00     0.031 C 
ATOM     61  C   UNL A   1      43.594  26.753  33.413  1.00  0.00     0.031 A 
BRANCH  48  62
ATOM     62  C   UNL A   1      43.631  25.243  27.486  1.00  0.00    -0.014 A 
ATOM     63  C   UNL A   1      43.242  23.919  27.191  1.00  0.00     0.010 A 
ATOM     64  C   UNL A   1      44.643  25.788  26.674  1.00  0.00     0.010 A 
ATOM     65  C   UNL A   1      43.878  23.157  26.201  1.00  0.00     0.020 A 
ATOM     66  C   UNL A   1      45.314  25.026  25.702  1.00  0.00     0.020 A 
ATOM     67  C   UNL A   1      44.929  23.709  25.477  1.00  0.00     0.054 A 
BRANCH  67  68
ATOM     68  S   UNL A   1      45.775  22.690  24.239  1.00  0.00     0.124 S 
ATOM     69  O   UNL A   1      46.425  21.671  25.061  1.00  0.00    -0.237 OA
ATOM     70  O   UNL A   1      44.670  22.219  23.411  1.00  0.00    -0.237 OA
ATOM     71  O   UNL A   1      46.688  23.625  23.585  1.00  0.00    -0.744 OA
ENDBRANCH  67  68
ENDBRANCH  48  62
BRANCH  49  72
ATOM     72  C   UNL A   1      39.313  30.977  34.048  1.00  0.00    -0.014 A 
ATOM     73  C   UNL A   1      39.083  32.283  34.536  1.00  0.00     0.010 A 
ATOM     74  C   UNL A   1      38.231  30.250  33.520  1.00  0.00     0.010 A 
ATOM     75  C   UNL A   1      37.874  32.934  34.274  1.00  0.00     0.020 A 
ATOM     76  C   UNL A   1      37.009  30.897  33.277  1.00  0.00     0.020 A 
ATOM     77  C   UNL A   1      36.881  32.261  33.562  1.00  0.00     0.054 A 
BRANCH  77  78
ATOM     78  S   UNL A   1      35.533  33.237  32.822  1.00  0.00     0.124 S 
ATOM     79  O   UNL A   1      34.754  33.641  33.988  1.00  0.00    -0.237 OA
ATOM     80  O   UNL A   1      36.267  34.310  32.148  1.00  0.00    -0.237 OA
ATOM     81  O   UNL A   1      34.880  32.286  31.928  1.00  0.00    -0.744 OA
ENDBRANCH  77  78
ENDBRANCH  49  72
BRANCH  61  82
ATOM     82  C   UNL A   1      44.188  25.514  34.056  1.00  0.00    -0.014 A 
ATOM     83  C   UNL A   1      43.447  24.457  34.601  1.00  0.00     0.010 A 
ATOM     84  C   UNL A   1      45.598  25.335  34.006  1.00  0.00     0.010 A 
ATOM     85  C   UNL A   1      44.077  23.305  35.103  1.00  0.00     0.020 A 
ATOM     86  C   UNL A   1      46.231  24.174  34.456  1.00  0.00     0.020 A 
ATOM     87  C   UNL A   1      45.463  23.170  35.026  1.00  0.00     0.054 A 
BRANCH  87  88
ATOM     88  S   UNL A   1      46.252  21.648  35.605  1.00  0.00     0.124 S 
ATOM     89  O   UNL A   1      47.276  21.433  34.586  1.00  0.00    -0.237 OA
ATOM     90  O   UNL A   1      46.752  22.021  36.925  1.00  0.00    -0.237 OA
ATOM     91  O   UNL A   1      45.161  20.677  35.612  1.00  0.00    -0.744 OA
ENDBRANCH  87  88
ENDBRANCH  61  82
ENDBRANCH  35  36
ENDBRANCH  27  30
ENDBRANCH  25  26
ENDBRANCH  24  25
ENDBRANCH   1  24
TORSDOF 19
ENDMDL
MODEL 2
REMARK VINA RESULT:     -11.4      1.553      2.503
REMARK SMILES Cc1ccccc1C[C@H](CCSc1ccccc1)C(=O)NCCCNC(=O)c1ccc(-c2c3nc(c(-c4ccc(S(=O)(=O)[O-])cc4)c4ccc([nH]4)c(-c4ccc(S(=O)(=O)[O-])cc4)c4nc(c(-c5ccc(S(=O)(=O)[O-])cc5)c5ccc2[nH]5)C=C4)C=C3)cc1
REMARK SMILES IDX 22 1 21 2 19 3 20 4 9 6 8 7 7 8 1 9 2 10 3 11 4 12 6 13 5 14
REMARK SMILES IDX 10 15 11 16 12 17 13 18 14 19 18 20 15 21 17 22 16 23 23 24
REMARK SMILES IDX 24 25 25 26 26 27 27 29 28 30 29 31 87 32 30 33 86 34 31 35
REMARK SMILES IDX 32 36 33 37 80 38 34 39 85 40 79 41 81 42 35 43 84 44 78 45
REMARK SMILES IDX 77 46 36 48 66 49 47 50 65 51 48 52 51 53 64 54 82 55 49 56
REMARK SMILES IDX 50 57 63 59 83 60 52 61 37 62 38 63 46 64 39 65 45 66 40 67
REMARK SMILES IDX 41 68 42 69 43 70 44 71 67 72 68 73 76 74 69 75 75 76 70 77
REMARK SMILES IDX 71 78 72 79 73 80 74 81 53 82 54 83 62 84 55 85 61 86 56 87
REMARK SMILES IDX 57 88 58 89 59 90 60 91
REMARK H PARENT 21 5 25 28 81 47 51 58
REMARK Flexibility Score: inf
ROOT
ATOM      1  C   UNL A   1      33.705  26.780  25.398  1.00  0.00     0.117 C 
ENDROOT
BRANCH   1   2
ATOM      2  N   UNL A   1      33.925  26.195  24.080  1.00  0.00    -0.356 N 
ATOM      3  C   UNL A   1      34.126  24.903  23.699  1.00  0.00     0.223 C 
ATOM      4  O   UNL A   1      34.218  24.668  22.491  1.00  0.00    -0.275 OA
ATOM      5  H   UNL A   1      33.928  26.844  23.340  1.00  0.00     0.163 HD
BRANCH   3   6
ATOM      6  C   UNL A   1      34.326  23.777  24.710  1.00  0.00     0.083 C 
BRANCH   6   7
ATOM      7  C   UNL A   1      35.392  22.714  24.354  1.00  0.00     0.049 C 
BRANCH   7   8
ATOM      8  C   UNL A   1      36.696  22.730  25.138  1.00  0.00    -0.044 A 
ATOM      9  C   UNL A   1      37.272  20.281  24.586  1.00  0.00     0.044 C 
ATOM     10  C   UNL A   1      37.539  21.601  25.256  1.00  0.00    -0.048 A 
ATOM     11  C   UNL A   1      38.766  21.721  25.939  1.00  0.00     0.004 A 
ATOM     12  C   UNL A   1      39.174  22.930  26.496  1.00  0.00     0.000 A 
ATOM     13  C   UNL A   1      37.152  23.946  25.682  1.00  0.00     0.004 A 
ATOM     14  C   UNL A   1      38.368  24.046  26.361  1.00  0.00     0.000 A 
ENDBRANCH   7   8
ENDBRANCH   6   7
BRANCH   6  15
ATOM     15  C   UNL A   1      32.919  23.221  25.042  1.00  0.00     0.025 C 
BRANCH  15  16
ATOM     16  C   UNL A   1      32.569  21.815  24.552  1.00  0.00     0.076 C 
BRANCH  16  17
ATOM     17  S   UNL A   1      33.008  20.482  25.723  1.00  0.00    -0.126 SA
BRANCH  17  18
ATOM     18  C   UNL A   1      33.267  19.119  24.610  1.00  0.00     0.007 A 
ATOM     19  C   UNL A   1      32.446  18.974  23.489  1.00  0.00     0.015 A 
ATOM     20  C   UNL A   1      34.325  18.227  24.803  1.00  0.00     0.015 A 
ATOM     21  C   UNL A   1      32.639  17.914  22.603  1.00  0.00     0.001 A 
ATOM     22  C   UNL A   1      34.540  17.184  23.898  1.00  0.00     0.001 A 
ATOM     23  C   UNL A   1      33.691  17.023  22.804  1.00  0.00     0.000 A 
ENDBRANCH  17  18
ENDBRANCH  16  17
ENDBRANCH  15  16
ENDBRANCH   6  15
ENDBRANCH   3   6
ENDBRANCH   1   2
BRANCH   1  24
ATOM     24  C   UNL A   1      32.858  28.042  25.363  1.00  0.00     0.042 C 
BRANCH  24  25
ATOM     25  C   UNL A   1      33.083  28.926  26.562  1.00  0.00     0.118 C 
BRANCH  25  26
ATOM     26  N   UNL A   1      33.958  30.078  26.358  1.00  0.00    -0.352 N 
ATOM     27  C   UNL A   1      34.406  30.746  27.495  1.00  0.00     0.251 C 
ATOM     28  H   UNL A   1      34.221  30.370  25.455  1.00  0.00     0.163 HD
ATOM     29  O   UNL A   1      33.815  31.606  28.087  1.00  0.00    -0.269 OA
BRANCH  27  30
ATOM     30  C   UNL A   1      35.590  30.059  28.090  1.00  0.00     0.039 A 
ATOM     31  C   UNL A   1      35.715  29.794  29.450  1.00  0.00     0.014 A 
ATOM     32  C   UNL A   1      36.666  29.907  27.220  1.00  0.00     0.014 A 
ATOM     33  C   UNL A   1      36.979  29.461  29.948  1.00  0.00     0.010 A 
ATOM     34  C   UNL A   1      37.924  29.763  27.737  1.00  0.00     0.010 A 
ATOM     35  C   UNL A   1      38.087  29.518  29.100  1.00  0.00    -0.014 A 
BRANCH  35  36
ATOM     36  C   UNL A   1      39.474  29.274  29.460  1.00  0.00     0.031 A 
ATOM     37  C   UNL A   1      40.086  27.975  29.079  1.00  0.00     0.074 A 
ATOM     38  C   UNL A   1      40.249  30.296  29.887  1.00  0.00     0.049 A 
ATOM     39  N   UNL A   1      41.201  27.530  29.548  1.00  0.00    -0.248 NA
ATOM     40  C   UNL A   1      39.463  27.051  28.130  1.00  0.00     0.031 C 
ATOM     41  C   UNL A   1      41.709  30.348  29.891  1.00  0.00     0.029 A 
ATOM     42  N   UNL A   1      39.875  31.432  30.603  1.00  0.00    -0.354 N 
ATOM     43  C   UNL A   1      41.586  26.467  28.762  1.00  0.00     0.074 A 
ATOM     44  C   UNL A   1      40.442  26.164  27.938  1.00  0.00     0.031 C 
ATOM     45  C   UNL A   1      42.101  31.237  30.818  1.00  0.00     0.029 A 
ATOM     46  C   UNL A   1      40.906  31.654  31.532  1.00  0.00     0.049 A 
ATOM     47  H   UNL A   1      39.059  31.968  30.482  1.00  0.00     0.167 HD
ATOM     48  C   UNL A   1      42.878  26.040  28.797  1.00  0.00     0.031 A 
ATOM     49  C   UNL A   1      40.732  31.569  32.886  1.00  0.00     0.031 A 
ATOM     50  C   UNL A   1      43.656  26.787  29.779  1.00  0.00     0.049 A 
ATOM     51  C   UNL A   1      41.626  30.528  33.531  1.00  0.00     0.074 A 
ATOM     52  C   UNL A   1      44.548  27.841  29.681  1.00  0.00     0.029 A 
ATOM     53  N   UNL A   1      43.320  26.676  31.120  1.00  0.00    -0.354 N 
ATOM     54  N   UNL A   1      42.270  29.605  32.871  1.00  0.00    -0.248 NA
ATOM     55  C   UNL A   1      41.844  30.421  34.971  1.00  0.00     0.031 C 
ATOM     56  C   UNL A   1      44.697  28.409  30.974  1.00  0.00     0.029 A 
ATOM     57  C   UNL A   1      43.916  27.680  31.855  1.00  0.00     0.049 A 
ATOM     58  H   UNL A   1      42.737  25.977  31.496  1.00  0.00     0.167 HD
ATOM     59  C   UNL A   1      42.965  28.799  33.738  1.00  0.00     0.074 A 
ATOM     60  C   UNL A   1      42.673  29.362  35.045  1.00  0.00     0.031 C 
ATOM     61  C   UNL A   1      43.707  27.739  33.296  1.00  0.00     0.031 A 
BRANCH  48  62
ATOM     62  C   UNL A   1      43.496  25.118  27.773  1.00  0.00    -0.014 A 
ATOM     63  C   UNL A   1      44.859  24.773  27.888  1.00  0.00     0.010 A 
ATOM     64  C   UNL A   1      42.809  24.578  26.669  1.00  0.00     0.010 A 
ATOM     65  C   UNL A   1      45.518  24.003  26.919  1.00  0.00     0.020 A 
ATOM     66  C   UNL A   1      43.464  23.835  25.673  1.00  0.00     0.020 A 
ATOM     67  C   UNL A   1      44.820  23.557  25.802  1.00  0.00     0.054 A 
BRANCH  67  68
ATOM     68  S   UNL A   1      45.703  22.609  24.534  1.00  0.00     0.124 S 
ATOM     69  O   UNL A   1      46.572  23.619  23.934  1.00  0.00    -0.237 OA
ATOM     70  O   UNL A   1      46.380  21.585  25.322  1.00  0.00    -0.237 OA
ATOM     71  O   UNL A   1      44.637  22.120  23.662  1.00  0.00    -0.744 OA
ENDBRANCH  67  68
ENDBRANCH  48  62
BRANCH  49  72
ATOM     72  C   UNL A   1      39.356  31.938  33.335  1.00  0.00    -0.014 A 
ATOM     73  C   UNL A   1      39.040  33.315  33.335  1.00  0.00     0.010 A 
ATOM     74  C   UNL A   1      38.311  31.002  33.229  1.00  0.00     0.010 A 
ATOM     75  C   UNL A   1      37.757  33.747  32.987  1.00  0.00     0.020 A 
ATOM     76  C   UNL A   1      37.017  31.438  32.901  1.00  0.00     0.020 A 
ATOM     77  C   UNL A   1      36.781  32.799  32.682  1.00  0.00     0.054 A 
BRANCH  77  78
ATOM     78  S   UNL A   1      35.291  33.346  31.787  1.00  0.00     0.124 S 
ATOM     79  O   UNL A   1      35.189  34.752  32.166  1.00  0.00    -0.237 OA
ATOM     80  O   UNL A   1      35.660  33.090  30.394  1.00  0.00    -0.237 OA
ATOM     81  O   UNL A   1      34.244  32.477  32.314  1.00  0.00    -0.744 OA
ENDBRANCH  77  78
ENDBRANCH  49  72
BRANCH  61  82
ATOM     82  C   UNL A   1      44.362  26.655  34.133  1.00  0.00    -0.014 A 
ATOM     83  C   UNL A   1      43.685  25.794  35.007  1.00  0.00     0.010 A 
ATOM     84  C   UNL A   1      45.747  26.396  33.940  1.00  0.00     0.010 A 
ATOM     85  C   UNL A   1      44.358  24.761  35.682  1.00  0.00     0.020 A 
ATOM     86  C   UNL A   1      46.415  25.342  34.566  1.00  0.00     0.020 A 
ATOM     87  C   UNL A   1      45.717  24.541  35.456  1.00  0.00     0.054 A 
BRANCH  87  88
ATOM     88  S   UNL A   1      46.551  23.157  36.272  1.00  0.00     0.124 S 
ATOM     89  O   UNL A   1      45.547  22.101  36.175  1.00  0.00    -0.237 OA
ATOM     90  O   UNL A   1      47.743  22.964  35.450  1.00  0.00    -0.237 OA
ATOM     91  O   UNL A   1      46.808  23.657  37.620  1.00  0.00    -0.744 OA
ENDBRANCH  87  88
ENDBRANCH  61  82
ENDBRANCH  35  36
ENDBRANCH  27  30
ENDBRANCH  25  26
ENDBRANCH  24  25
ENDBRANCH   1  24
TORSDOF 19
ENDMDL
MODEL 3
REMARK VINA RESULT:     -11.4      3.579      9.850
REMARK SMILES Cc1ccccc1C[C@H](CCSc1ccccc1)C(=O)NCCCNC(=O)c1ccc(-c2c3nc(c(-c4ccc(S(=O)(=O)[O-])cc4)c4ccc([nH]4)c(-c4ccc(S(=O)(=O)[O-])cc4)c4nc(c(-c5ccc(S(=O)(=O)[O-])cc5)c5ccc2[nH]5)C=C4)C=C3)cc1
REMARK SMILES IDX 22 1 21 2 19 3 20 4 9 6 8 7 7 8 1 9 2 10 3 11 4 12 6 13 5 14
REMARK SMILES IDX 10 15 11 16 12 17 13 18 14 19 18 20 15 21 17 22 16 23 23 24
REMARK SMILES IDX 24 25 25 26 26 27 27 29 28 30 29 31 87 32 30 33 86 34 31 35
REMARK SMILES IDX 32 36 33 37 80 38 34 39 85 40 79 41 81 42 35 43 84 44 78 45
REMARK SMILES IDX 77 46 36 48 66 49 47 50 65 51 48 52 51 53 64 54 82 55 49 56
REMARK SMILES IDX 50 57 63 59 83 60 52 61 37 62 38 63 46 64 39 65 45 66 40 67
REMARK SMILES IDX 41 68 42 69 43 70 44 71 67 72 68 73 76 74 69 75 75 76 70 77
REMARK SMILES IDX 71 78 72 79 73 80 74 81 53 82 54 83 62 84 55 85 61 86 56 87
REMARK SMILES IDX 57 88 58 89 59 90 60 91
REMARK H PARENT 21 5 25 28 81 47 51 58
REMARK Flexibility Score: inf
ROOT
ATOM      1  C   UNL A   1      35.271  24.120  24.841  1.00  0.00     0.117 C 
ENDROOT
BRANCH   1   2
ATOM      2  N   UNL A   1      34.843  24.068  23.448  1.00  0.00    -0.356 N 
ATOM      3  C   UNL A   1      33.639  24.338  22.873  1.00  0.00     0.223 C 
ATOM      4  O   UNL A   1      33.564  24.281  21.642  1.00  0.00    -0.275 OA
ATOM      5  H   UNL A   1      35.544  23.790  22.815  1.00  0.00     0.163 HD
BRANCH   3   6
ATOM      6  C   UNL A   1      32.386  24.616  23.699  1.00  0.00     0.083 C 
BRANCH   6   7
ATOM      7  C   UNL A   1      31.437  23.417  23.935  1.00  0.00     0.049 C 
BRANCH   7   8
ATOM      8  C   UNL A   1      32.068  22.072  24.269  1.00  0.00    -0.044 A 
ATOM      9  C   UNL A   1      32.291  22.593  26.781  1.00  0.00     0.044 C 
ATOM     10  C   UNL A   1      32.475  21.714  25.574  1.00  0.00    -0.048 A 
ATOM     11  C   UNL A   1      32.982  20.420  25.811  1.00  0.00     0.004 A 
ATOM     12  C   UNL A   1      33.085  19.480  24.790  1.00  0.00     0.000 A 
ATOM     13  C   UNL A   1      32.152  21.088  23.265  1.00  0.00     0.004 A 
ATOM     14  C   UNL A   1      32.662  19.813  23.515  1.00  0.00     0.000 A 
ENDBRANCH   7   8
ENDBRANCH   6   7
BRANCH   6  15
ATOM     15  C   UNL A   1      31.722  25.877  23.091  1.00  0.00     0.025 C 
BRANCH  15  16
ATOM     16  C   UNL A   1      31.002  26.837  24.041  1.00  0.00     0.076 C 
BRANCH  16  17
ATOM     17  S   UNL A   1      31.317  28.605  23.700  1.00  0.00    -0.126 SA
BRANCH  17  18
ATOM     18  C   UNL A   1      32.385  29.031  25.056  1.00  0.00     0.007 A 
ATOM     19  C   UNL A   1      32.041  30.087  25.904  1.00  0.00     0.015 A 
ATOM     20  C   UNL A   1      33.533  28.282  25.328  1.00  0.00     0.015 A 
ATOM     21  C   UNL A   1      32.865  30.431  26.976  1.00  0.00     0.001 A 
ATOM     22  C   UNL A   1      34.342  28.605  26.421  1.00  0.00     0.001 A 
ATOM     23  C   UNL A   1      34.012  29.686  27.239  1.00  0.00     0.000 A 
ENDBRANCH  17  18
ENDBRANCH  16  17
ENDBRANCH  15  16
ENDBRANCH   6  15
ENDBRANCH   3   6
ENDBRANCH   1   2
BRANCH   1  24
ATOM     24  C   UNL A   1      35.841  22.804  25.346  1.00  0.00     0.042 C 
BRANCH  24  25
ATOM     25  C   UNL A   1      37.341  22.739  25.234  1.00  0.00     0.118 C 
BRANCH  25  26
ATOM     26  N   UNL A   1      38.071  22.493  26.476  1.00  0.00    -0.352 N 
ATOM     27  C   UNL A   1      39.400  22.907  26.526  1.00  0.00     0.251 C 
ATOM     28  H   UNL A   1      37.641  22.054  27.245  1.00  0.00     0.163 HD
ATOM     29  O   UNL A   1      40.347  22.285  26.130  1.00  0.00    -0.269 OA
BRANCH  27  30
ATOM     30  C   UNL A   1      39.499  24.359  26.855  1.00  0.00     0.039 A 
ATOM     31  C   UNL A   1      40.279  25.255  26.130  1.00  0.00     0.014 A 
ATOM     32  C   UNL A   1      38.936  24.713  28.078  1.00  0.00     0.014 A 
ATOM     33  C   UNL A   1      40.570  26.496  26.704  1.00  0.00     0.010 A 
ATOM     34  C   UNL A   1      39.372  25.845  28.708  1.00  0.00     0.010 A 
ATOM     35  C   UNL A   1      40.175  26.754  28.018  1.00  0.00    -0.014 A 
BRANCH  35  36
ATOM     36  C   UNL A   1      40.449  27.954  28.792  1.00  0.00     0.031 A 
ATOM     37  C   UNL A   1      39.492  29.087  28.705  1.00  0.00     0.074 A 
ATOM     38  C   UNL A   1      41.395  27.931  29.757  1.00  0.00     0.049 A 
ATOM     39  N   UNL A   1      39.737  30.281  29.125  1.00  0.00    -0.248 NA
ATOM     40  C   UNL A   1      38.162  28.959  28.108  1.00  0.00     0.031 C 
ATOM     41  C   UNL A   1      41.525  28.854  30.881  1.00  0.00     0.029 A 
ATOM     42  N   UNL A   1      42.569  27.181  29.807  1.00  0.00    -0.354 N 
ATOM     43  C   UNL A   1      38.542  30.964  29.149  1.00  0.00     0.074 A 
ATOM     44  C   UNL A   1      37.605  30.125  28.445  1.00  0.00     0.031 C 
ATOM     45  C   UNL A   1      42.803  28.846  31.294  1.00  0.00     0.029 A 
ATOM     46  C   UNL A   1      43.547  28.037  30.342  1.00  0.00     0.049 A 
ATOM     47  H   UNL A   1      42.689  26.245  29.526  1.00  0.00     0.167 HD
ATOM     48  C   UNL A   1      38.439  32.108  29.879  1.00  0.00     0.031 A 
ATOM     49  C   UNL A   1      44.645  28.459  29.645  1.00  0.00     0.031 A 
ATOM     50  C   UNL A   1      39.716  32.468  30.485  1.00  0.00     0.049 A 
ATOM     51  C   UNL A   1      44.716  29.968  29.512  1.00  0.00     0.074 A 
ATOM     52  C   UNL A   1      40.240  32.314  31.758  1.00  0.00     0.029 A 
ATOM     53  N   UNL A   1      40.778  32.795  29.656  1.00  0.00    -0.354 N 
ATOM     54  N   UNL A   1      43.718  30.772  29.757  1.00  0.00    -0.248 NA
ATOM     55  C   UNL A   1      45.902  30.691  29.064  1.00  0.00     0.031 C 
ATOM     56  C   UNL A   1      41.647  32.491  31.674  1.00  0.00     0.029 A 
ATOM     57  C   UNL A   1      41.966  32.776  30.358  1.00  0.00     0.049 A 
ATOM     58  H   UNL A   1      40.696  33.012  28.699  1.00  0.00     0.167 HD
ATOM     59  C   UNL A   1      44.086  32.072  29.515  1.00  0.00     0.074 A 
ATOM     60  C   UNL A   1      45.472  31.967  29.093  1.00  0.00     0.031 C 
ATOM     61  C   UNL A   1      43.211  33.110  29.677  1.00  0.00     0.031 A 
BRANCH  48  62
ATOM     62  C   UNL A   1      37.130  32.767  30.246  1.00  0.00    -0.014 A 
ATOM     63  C   UNL A   1      36.446  33.531  29.277  1.00  0.00     0.010 A 
ATOM     64  C   UNL A   1      36.531  32.696  31.518  1.00  0.00     0.010 A 
ATOM     65  C   UNL A   1      35.279  34.247  29.579  1.00  0.00     0.020 A 
ATOM     66  C   UNL A   1      35.382  33.436  31.845  1.00  0.00     0.020 A 
ATOM     67  C   UNL A   1      34.766  34.214  30.872  1.00  0.00     0.054 A 
BRANCH  67  68
ATOM     68  S   UNL A   1      33.288  35.191  31.256  1.00  0.00     0.124 S 
ATOM     69  O   UNL A   1      32.441  34.952  30.090  1.00  0.00    -0.237 OA
ATOM     70  O   UNL A   1      32.829  34.587  32.502  1.00  0.00    -0.237 OA
ATOM     71  O   UNL A   1      33.796  36.556  31.376  1.00  0.00    -0.744 OA
ENDBRANCH  67  68
ENDBRANCH  48  62
BRANCH  49  72
ATOM     72  C   UNL A   1      45.125  27.469  28.634  1.00  0.00    -0.014 A 
ATOM     73  C   UNL A   1      45.642  26.254  29.136  1.00  0.00     0.010 A 
ATOM     74  C   UNL A   1      44.607  27.497  27.327  1.00  0.00     0.010 A 
ATOM     75  C   UNL A   1      45.419  25.054  28.455  1.00  0.00     0.020 A 
ATOM     76  C   UNL A   1      44.402  26.293  26.633  1.00  0.00     0.020 A 
ATOM     77  C   UNL A   1      44.717  25.078  27.251  1.00  0.00     0.054 A 
BRANCH  77  78
ATOM     78  S   UNL A   1      44.024  23.515  26.621  1.00  0.00     0.124 S 
ATOM     79  O   UNL A   1      43.070  23.145  27.661  1.00  0.00    -0.237 OA
ATOM     80  O   UNL A   1      43.440  23.932  25.345  1.00  0.00    -0.237 OA
ATOM     81  O   UNL A   1      45.194  22.650  26.506  1.00  0.00    -0.744 OA
ENDBRANCH  77  78
ENDBRANCH  49  72
BRANCH  61  82
ATOM     82  C   UNL A   1      43.406  34.558  29.267  1.00  0.00    -0.014 A 
ATOM     83  C   UNL A   1      43.218  35.060  27.973  1.00  0.00     0.010 A 
ATOM     84  C   UNL A   1      43.683  35.515  30.282  1.00  0.00     0.010 A 
ATOM     85  C   UNL A   1      43.339  36.433  27.698  1.00  0.00     0.020 A 
ATOM     86  C   UNL A   1      43.757  36.887  30.029  1.00  0.00     0.020 A 
ATOM     87  C   UNL A   1      43.607  37.337  28.726  1.00  0.00     0.054 A 
BRANCH  87  88
ATOM     88  S   UNL A   1      43.681  39.110  28.368  1.00  0.00     0.124 S 
ATOM     89  O   UNL A   1      45.109  39.309  28.135  1.00  0.00    -0.237 OA
ATOM     90  O   UNL A   1      42.831  39.240  27.188  1.00  0.00    -0.237 OA
ATOM     91  O   UNL A   1      43.151  39.728  29.580  1.00  0.00    -0.744 OA
ENDBRANCH  87  88
ENDBRANCH  61  82
ENDBRANCH  35  36
ENDBRANCH  27  30
ENDBRANCH  25  26
ENDBRANCH  24  25
ENDBRANCH   1  24
TORSDOF 19
ENDMDL
