MODEL 1
REMARK VINA RESULT:     -12.2      0.000      0.000
REMARK SMILES O=C(NCCCNC(=O)c1cn(-c2cc(Cl)ncn2)cn1)c1ccc(-c2c3nc(c(-c4ccc(S(=O)(=O)[O-])cc4)c4ccc([nH]4)c(-c4ccc(S(=O)(=O)[O-])cc4)c4nc(c(-c5ccc(S(=O)(=O)[O-])cc5)c5ccc2[nH]5)C=C4)C=C3)cc1
REMARK SMILES IDX 4 1 3 2 1 3 2 4 22 6 23 7 81 8 24 9 80 10 25 11 26 12 27 13
REMARK SMILES IDX 74 14 28 15 79 16 73 17 75 18 29 19 78 20 72 21 71 22 30 24
REMARK SMILES IDX 60 25 41 26 59 27 42 28 45 29 58 30 76 31 43 32 44 33 57 35
REMARK SMILES IDX 77 36 46 37 31 38 32 39 40 40 33 41 39 42 34 43 35 44 36 45
REMARK SMILES IDX 37 46 38 47 61 48 62 49 70 50 63 51 69 52 64 53 65 54 66 55
REMARK SMILES IDX 67 56 68 57 47 58 48 59 56 60 49 61 55 62 50 63 51 64 52 65
REMARK SMILES IDX 53 66 54 67 5 68 6 69 7 70 8 71 9 73 10 74 11 75 21 76 12 77
REMARK SMILES IDX 20 78 13 79 14 80 19 81 15 82 18 83 16 84 17 85
REMARK H PARENT 3 5 75 23 45 34 7 72
REMARK Flexibility Score: inf
ROOT
ATOM      1  C   UNL A   1      41.898  20.433  26.162  1.00  0.00     0.118 C 
ENDROOT
BRANCH   1   2
ATOM      2  N   UNL A   1      40.481  20.702  26.006  1.00  0.00    -0.352 N 
ATOM      3  O   UNL A   1      38.474  21.593  25.914  1.00  0.00    -0.269 OA
ATOM      4  C   UNL A   1      39.649  21.759  26.257  1.00  0.00     0.251 C 
ATOM      5  H   UNL A   1      39.998  19.934  25.625  1.00  0.00     0.163 HD
BRANCH   4   6
ATOM      6  C   UNL A   1      40.029  23.048  26.908  1.00  0.00     0.039 A 
ATOM      7  C   UNL A   1      41.116  23.253  27.757  1.00  0.00     0.014 A 
ATOM      8  C   UNL A   1      39.195  24.151  26.627  1.00  0.00     0.014 A 
ATOM      9  C   UNL A   1      41.349  24.511  28.326  1.00  0.00     0.010 A 
ATOM     10  C   UNL A   1      39.429  25.410  27.186  1.00  0.00     0.010 A 
ATOM     11  C   UNL A   1      40.502  25.592  28.053  1.00  0.00    -0.014 A 
BRANCH  11  12
ATOM     12  C   UNL A   1      40.828  26.896  28.643  1.00  0.00     0.031 A 
ATOM     13  C   UNL A   1      42.027  27.610  28.106  1.00  0.00     0.074 A 
ATOM     14  C   UNL A   1      40.047  27.575  29.507  1.00  0.00     0.049 A 
ATOM     15  N   UNL A   1      43.096  27.982  28.736  1.00  0.00    -0.248 NA
ATOM     16  C   UNL A   1      42.025  27.948  26.676  1.00  0.00     0.031 C 
ATOM     17  C   UNL A   1      38.664  27.290  29.895  1.00  0.00     0.029 A 
ATOM     18  N   UNL A   1      40.317  28.753  30.149  1.00  0.00    -0.354 N 
ATOM     19  C   UNL A   1      43.843  28.734  27.827  1.00  0.00     0.074 A 
ATOM     20  C   UNL A   1      43.174  28.614  26.554  1.00  0.00     0.031 C 
ATOM     21  C   UNL A   1      38.151  28.371  30.526  1.00  0.00     0.029 A 
ATOM     22  C   UNL A   1      39.205  29.355  30.714  1.00  0.00     0.049 A 
ATOM     23  H   UNL A   1      41.221  29.139  30.202  1.00  0.00     0.167 HD
ATOM     24  C   UNL A   1      44.889  29.528  28.191  1.00  0.00     0.031 A 
ATOM     25  C   UNL A   1      39.134  30.595  31.254  1.00  0.00     0.031 A 
ATOM     26  C   UNL A   1      45.346  29.276  29.527  1.00  0.00     0.049 A 
ATOM     27  C   UNL A   1      40.505  31.040  31.593  1.00  0.00     0.074 A 
ATOM     28  C   UNL A   1      45.890  28.197  30.194  1.00  0.00     0.029 A 
ATOM     29  N   UNL A   1      45.008  30.186  30.498  1.00  0.00    -0.354 N 
ATOM     30  N   UNL A   1      41.238  30.516  32.534  1.00  0.00    -0.248 NA
ATOM     31  C   UNL A   1      41.211  31.920  30.674  1.00  0.00     0.031 C 
ATOM     32  C   UNL A   1      45.439  28.320  31.539  1.00  0.00     0.029 A 
ATOM     33  C   UNL A   1      44.649  29.470  31.613  1.00  0.00     0.049 A 
ATOM     34  H   UNL A   1      45.019  31.167  30.411  1.00  0.00     0.167 HD
ATOM     35  C   UNL A   1      42.545  30.680  32.106  1.00  0.00     0.074 A 
ATOM     36  C   UNL A   1      42.470  31.669  31.039  1.00  0.00     0.031 C 
ATOM     37  C   UNL A   1      43.526  29.800  32.467  1.00  0.00     0.031 A 
BRANCH  24  38
ATOM     38  C   UNL A   1      45.337  30.748  27.425  1.00  0.00    -0.014 A 
ATOM     39  C   UNL A   1      46.711  30.942  27.167  1.00  0.00     0.010 A 
ATOM     40  C   UNL A   1      44.477  31.836  27.173  1.00  0.00     0.010 A 
ATOM     41  C   UNL A   1      47.202  32.177  26.718  1.00  0.00     0.020 A 
ATOM     42  C   UNL A   1      44.952  33.058  26.684  1.00  0.00     0.020 A 
ATOM     43  C   UNL A   1      46.318  33.231  26.492  1.00  0.00     0.054 A 
BRANCH  43  44
ATOM     44  S   UNL A   1      46.973  34.850  26.008  1.00  0.00     0.124 S 
ATOM     45  O   UNL A   1      48.063  34.476  25.112  1.00  0.00    -0.237 OA
ATOM     46  O   UNL A   1      45.819  35.480  25.373  1.00  0.00    -0.237 OA
ATOM     47  O   UNL A   1      47.380  35.447  27.278  1.00  0.00    -0.744 OA
ENDBRANCH  43  44
ENDBRANCH  24  38
BRANCH  25  48
ATOM     48  C   UNL A   1      37.975  31.517  31.276  1.00  0.00    -0.014 A 
ATOM     49  C   UNL A   1      36.674  31.041  31.520  1.00  0.00     0.010 A 
ATOM     50  C   UNL A   1      38.189  32.910  31.325  1.00  0.00     0.010 A 
ATOM     51  C   UNL A   1      35.636  31.925  31.857  1.00  0.00     0.020 A 
ATOM     52  C   UNL A   1      37.157  33.796  31.649  1.00  0.00     0.020 A 
ATOM     53  C   UNL A   1      35.890  33.297  31.937  1.00  0.00     0.054 A 
BRANCH  53  54
ATOM     54  S   UNL A   1      34.591  34.410  32.548  1.00  0.00     0.124 S 
ATOM     55  O   UNL A   1      35.300  35.191  33.556  1.00  0.00    -0.237 OA
ATOM     56  O   UNL A   1      34.204  35.137  31.341  1.00  0.00    -0.237 OA
ATOM     57  O   UNL A   1      33.575  33.498  33.069  1.00  0.00    -0.744 OA
ENDBRANCH  53  54
ENDBRANCH  25  48
BRANCH  37  58
ATOM     58  C   UNL A   1      43.275  28.876  33.637  1.00  0.00    -0.014 A 
ATOM     59  C   UNL A   1      43.344  29.298  34.978  1.00  0.00     0.010 A 
ATOM     60  C   UNL A   1      42.794  27.581  33.367  1.00  0.00     0.010 A 
ATOM     61  C   UNL A   1      42.962  28.444  36.021  1.00  0.00     0.020 A 
ATOM     62  C   UNL A   1      42.392  26.730  34.403  1.00  0.00     0.020 A 
ATOM     63  C   UNL A   1      42.482  27.165  35.726  1.00  0.00     0.054 A 
BRANCH  63  64
ATOM     64  S   UNL A   1      41.898  26.105  37.079  1.00  0.00     0.124 S 
ATOM     65  O   UNL A   1      42.926  26.294  38.098  1.00  0.00    -0.237 OA
ATOM     66  O   UNL A   1      40.588  26.671  37.396  1.00  0.00    -0.237 OA
ATOM     67  O   UNL A   1      41.855  24.772  36.481  1.00  0.00    -0.744 OA
ENDBRANCH  63  64
ENDBRANCH  37  58
ENDBRANCH  11  12
ENDBRANCH   4   6
ENDBRANCH   1   2
BRANCH   1  68
ATOM     68  C   UNL A   1      42.284  18.972  25.936  1.00  0.00     0.042 C 
BRANCH  68  69
ATOM     69  C   UNL A   1      43.778  18.678  26.079  1.00  0.00     0.118 C 
BRANCH  69  70
ATOM     70  N   UNL A   1      44.441  18.396  24.813  1.00  0.00    -0.351 N 
ATOM     71  C   UNL A   1      45.118  19.253  23.968  1.00  0.00     0.271 C 
ATOM     72  H   UNL A   1      44.399  17.458  24.516  1.00  0.00     0.163 HD
ATOM     73  O   UNL A   1      45.614  18.828  22.944  1.00  0.00    -0.267 OA
BRANCH  71  74
ATOM     74  C   UNL A   1      45.214  20.655  24.381  1.00  0.00     0.146 A 
ATOM     75  C   UNL A   1      46.030  21.168  25.375  1.00  0.00     0.128 A 
ATOM     76  N   UNL A   1      44.414  21.648  23.861  1.00  0.00    -0.231 NA
ATOM     77  N   UNL A   1      45.594  22.457  25.577  1.00  0.00    -0.290 N 
ATOM     78  C   UNL A   1      44.652  22.705  24.607  1.00  0.00     0.206 A 
BRANCH  77  79
ATOM     79  C   UNL A   1      45.944  23.344  26.628  1.00  0.00     0.142 A 
ATOM     80  C   UNL A   1      45.055  23.598  27.647  1.00  0.00     0.088 A 
ATOM     81  N   UNL A   1      47.148  23.953  26.539  1.00  0.00    -0.219 NA
ATOM     82  C   UNL A   1      45.481  24.530  28.562  1.00  0.00     0.134 A 
ATOM     83  C   UNL A   1      47.417  24.892  27.456  1.00  0.00     0.226 A 
ATOM     84  Cl  UNL A   1      44.517  24.906  29.932  1.00  0.00    -0.062 Cl
ATOM     85  N   UNL A   1      46.639  25.202  28.497  1.00  0.00    -0.224 NA
ENDBRANCH  77  79
ENDBRANCH  71  74
ENDBRANCH  69  70
ENDBRANCH  68  69
ENDBRANCH   1  68
TORSDOF 14
ENDMDL
MODEL 2
REMARK VINA RESULT:     -12.0      3.624     12.250
REMARK SMILES O=C(NCCCNC(=O)c1cn(-c2cc(Cl)ncn2)cn1)c1ccc(-c2c3nc(c(-c4ccc(S(=O)(=O)[O-])cc4)c4ccc([nH]4)c(-c4ccc(S(=O)(=O)[O-])cc4)c4nc(c(-c5ccc(S(=O)(=O)[O-])cc5)c5ccc2[nH]5)C=C4)C=C3)cc1
REMARK SMILES IDX 4 1 3 2 1 3 2 4 22 6 23 7 81 8 24 9 80 10 25 11 26 12 27 13
REMARK SMILES IDX 74 14 28 15 79 16 73 17 75 18 29 19 78 20 72 21 71 22 30 24
REMARK SMILES IDX 60 25 41 26 59 27 42 28 45 29 58 30 76 31 43 32 44 33 57 35
REMARK SMILES IDX 77 36 46 37 31 38 32 39 40 40 33 41 39 42 34 43 35 44 36 45
REMARK SMILES IDX 37 46 38 47 61 48 62 49 70 50 63 51 69 52 64 53 65 54 66 55
REMARK SMILES IDX 67 56 68 57 47 58 48 59 56 60 49 61 55 62 50 63 51 64 52 65
REMARK SMILES IDX 53 66 54 67 5 68 6 69 7 70 8 71 9 73 10 74 11 75 21 76 12 77
REMARK SMILES IDX 20 78 13 79 14 80 19 81 15 82 18 83 16 84 17 85
REMARK H PARENT 3 5 75 23 45 34 7 72
REMARK Flexibility Score: inf
ROOT
ATOM      1  C   UNL A   1      34.947  34.470  28.260  1.00  0.00     0.118 C 
ENDROOT
BRANCH   1   2
ATOM      2  N   UNL A   1      34.295  33.189  28.060  1.00  0.00    -0.352 N 
ATOM      3  O   UNL A   1      33.765  31.061  27.930  1.00  0.00    -0.269 OA
ATOM      4  C   UNL A   1      34.674  31.876  28.119  1.00  0.00     0.251 C 
ATOM      5  H   UNL A   1      33.346  33.290  27.824  1.00  0.00     0.163 HD
BRANCH   4   6
ATOM      6  C   UNL A   1      36.054  31.363  28.367  1.00  0.00     0.039 A 
ATOM      7  C   UNL A   1      37.071  32.032  29.048  1.00  0.00     0.014 A 
ATOM      8  C   UNL A   1      36.338  30.081  27.852  1.00  0.00     0.014 A 
ATOM      9  C   UNL A   1      38.336  31.450  29.190  1.00  0.00     0.010 A 
ATOM     10  C   UNL A   1      37.597  29.493  28.000  1.00  0.00     0.010 A 
ATOM     11  C   UNL A   1      38.610  30.185  28.659  1.00  0.00    -0.014 A 
BRANCH  11  12
ATOM     12  C   UNL A   1      39.941  29.609  28.883  1.00  0.00     0.031 A 
ATOM     13  C   UNL A   1      40.333  29.323  30.297  1.00  0.00     0.074 A 
ATOM     14  C   UNL A   1      40.770  29.167  27.915  1.00  0.00     0.049 A 
ATOM     15  N   UNL A   1      41.331  29.799  30.972  1.00  0.00    -0.248 NA
ATOM     16  C   UNL A   1      39.496  28.378  31.050  1.00  0.00     0.031 C 
ATOM     17  C   UNL A   1      40.481  28.976  26.493  1.00  0.00     0.029 A 
ATOM     18  N   UNL A   1      42.046  28.690  28.045  1.00  0.00    -0.354 N 
ATOM     19  C   UNL A   1      41.346  29.111  32.186  1.00  0.00     0.074 A 
ATOM     20  C   UNL A   1      40.149  28.306  32.211  1.00  0.00     0.031 C 
ATOM     21  C   UNL A   1      41.464  28.229  25.940  1.00  0.00     0.029 A 
ATOM     22  C   UNL A   1      42.513  28.021  26.925  1.00  0.00     0.049 A 
ATOM     23  H   UNL A   1      42.582  28.809  28.861  1.00  0.00     0.167 HD
ATOM     24  C   UNL A   1      42.403  29.128  33.046  1.00  0.00     0.031 A 
ATOM     25  C   UNL A   1      43.655  27.301  26.823  1.00  0.00     0.031 A 
ATOM     26  C   UNL A   1      43.355  30.158  32.744  1.00  0.00     0.049 A 
ATOM     27  C   UNL A   1      44.571  27.712  27.911  1.00  0.00     0.074 A 
ATOM     28  C   UNL A   1      43.331  31.537  32.694  1.00  0.00     0.029 A 
ATOM     29  N   UNL A   1      44.532  29.780  32.144  1.00  0.00    -0.354 N 
ATOM     30  N   UNL A   1      45.145  28.879  27.988  1.00  0.00    -0.248 NA
ATOM     31  C   UNL A   1      44.646  26.903  29.117  1.00  0.00     0.031 C 
ATOM     32  C   UNL A   1      44.262  31.892  31.676  1.00  0.00     0.029 A 
ATOM     33  C   UNL A   1      44.800  30.707  31.168  1.00  0.00     0.049 A 
ATOM     34  H   UNL A   1      45.078  28.993  32.371  1.00  0.00     0.167 HD
ATOM     35  C   UNL A   1      45.308  29.112  29.343  1.00  0.00     0.074 A 
ATOM     36  C   UNL A   1      45.118  27.812  29.973  1.00  0.00     0.031 C 
ATOM     37  C   UNL A   1      45.309  30.380  29.851  1.00  0.00     0.031 A 
BRANCH  24  38
ATOM     38  C   UNL A   1      42.726  28.021  34.019  1.00  0.00    -0.014 A 
ATOM     39  C   UNL A   1      42.692  28.281  35.405  1.00  0.00     0.010 A 
ATOM     40  C   UNL A   1      43.309  26.806  33.608  1.00  0.00     0.010 A 
ATOM     41  C   UNL A   1      43.250  27.386  36.330  1.00  0.00     0.020 A 
ATOM     42  C   UNL A   1      43.830  25.886  34.525  1.00  0.00     0.020 A 
ATOM     43  C   UNL A   1      43.828  26.198  35.880  1.00  0.00     0.054 A 
BRANCH  43  44
ATOM     44  S   UNL A   1      44.634  25.097  37.071  1.00  0.00     0.124 S 
ATOM     45  O   UNL A   1      44.013  25.509  38.327  1.00  0.00    -0.237 OA
ATOM     46  O   UNL A   1      44.257  23.773  36.583  1.00  0.00    -0.237 OA
ATOM     47  O   UNL A   1      46.051  25.425  36.935  1.00  0.00    -0.744 OA
ENDBRANCH  43  44
ENDBRANCH  24  38
BRANCH  25  48
ATOM     48  C   UNL A   1      43.910  26.106  25.985  1.00  0.00    -0.014 A 
ATOM     49  C   UNL A   1      45.201  25.820  25.504  1.00  0.00     0.010 A 
ATOM     50  C   UNL A   1      42.929  25.098  25.884  1.00  0.00     0.010 A 
ATOM     51  C   UNL A   1      45.513  24.550  24.992  1.00  0.00     0.020 A 
ATOM     52  C   UNL A   1      43.230  23.835  25.364  1.00  0.00     0.020 A 
ATOM     53  C   UNL A   1      44.528  23.559  24.943  1.00  0.00     0.054 A 
BRANCH  53  54
ATOM     54  S   UNL A   1      44.984  21.872  24.449  1.00  0.00     0.124 S 
ATOM     55  O   UNL A   1      44.464  21.796  23.088  1.00  0.00    -0.237 OA
ATOM     56  O   UNL A   1      46.440  21.888  24.570  1.00  0.00    -0.237 OA
ATOM     57  O   UNL A   1      44.295  21.031  25.426  1.00  0.00    -0.744 OA
ENDBRANCH  53  54
ENDBRANCH  25  48
BRANCH  37  58
ATOM     58  C   UNL A   1      45.520  31.539  28.903  1.00  0.00    -0.014 A 
ATOM     59  C   UNL A   1      46.795  32.009  28.536  1.00  0.00     0.010 A 
ATOM     60  C   UNL A   1      44.397  32.065  28.238  1.00  0.00     0.010 A 
ATOM     61  C   UNL A   1      46.943  32.988  27.546  1.00  0.00     0.020 A 
ATOM     62  C   UNL A   1      44.538  33.029  27.233  1.00  0.00     0.020 A 
ATOM     63  C   UNL A   1      45.812  33.488  26.895  1.00  0.00     0.054 A 
BRANCH  63  64
ATOM     64  S   UNL A   1      46.024  34.684  25.546  1.00  0.00     0.124 S 
ATOM     65  O   UNL A   1      45.678  35.950  26.185  1.00  0.00    -0.237 OA
ATOM     66  O   UNL A   1      47.433  34.527  25.187  1.00  0.00    -0.237 OA
ATOM     67  O   UNL A   1      45.083  34.226  24.525  1.00  0.00    -0.744 OA
ENDBRANCH  63  64
ENDBRANCH  37  58
ENDBRANCH  11  12
ENDBRANCH   4   6
ENDBRANCH   1   2
BRANCH   1  68
ATOM     68  C   UNL A   1      33.982  35.631  28.499  1.00  0.00     0.042 C 
BRANCH  68  69
ATOM     69  C   UNL A   1      32.900  35.356  29.544  1.00  0.00     0.118 C 
BRANCH  69  70
ATOM     70  N   UNL A   1      32.692  36.460  30.472  1.00  0.00    -0.351 N 
ATOM     71  C   UNL A   1      33.037  36.561  31.805  1.00  0.00     0.271 C 
ATOM     72  H   UNL A   1      32.240  37.248  30.093  1.00  0.00     0.163 HD
ATOM     73  O   UNL A   1      32.781  37.576  32.421  1.00  0.00    -0.267 OA
BRANCH  71  74
ATOM     74  C   UNL A   1      33.725  35.415  32.402  1.00  0.00     0.146 A 
ATOM     75  C   UNL A   1      35.094  35.210  32.455  1.00  0.00     0.128 A 
ATOM     76  N   UNL A   1      33.060  34.329  32.929  1.00  0.00    -0.231 NA
ATOM     77  N   UNL A   1      35.253  33.906  32.864  1.00  0.00    -0.290 N 
ATOM     78  C   UNL A   1      33.998  33.442  33.178  1.00  0.00     0.206 A 
BRANCH  77  79
ATOM     79  C   UNL A   1      36.441  33.130  32.871  1.00  0.00     0.142 A 
ATOM     80  C   UNL A   1      37.666  33.735  32.706  1.00  0.00     0.088 A 
ATOM     81  N   UNL A   1      36.296  31.791  32.987  1.00  0.00    -0.219 NA
ATOM     82  C   UNL A   1      38.731  32.870  32.656  1.00  0.00     0.134 A 
ATOM     83  C   UNL A   1      37.406  31.052  32.853  1.00  0.00     0.226 A 
ATOM     84  Cl  UNL A   1      40.334  33.471  32.525  1.00  0.00    -0.062 Cl
ATOM     85  N   UNL A   1      38.644  31.534  32.713  1.00  0.00    -0.224 NA
ENDBRANCH  77  79
ENDBRANCH  71  74
ENDBRANCH  69  70
ENDBRANCH  68  69
ENDBRANCH   1  68
TORSDOF 14
ENDMDL
MODEL 3
REMARK VINA RESULT:     -11.7      1.712      2.181
REMARK SMILES O=C(NCCCNC(=O)c1cn(-c2cc(Cl)ncn2)cn1)c1ccc(-c2c3nc(c(-c4ccc(S(=O)(=O)[O-])cc4)c4ccc([nH]4)c(-c4ccc(S(=O)(=O)[O-])cc4)c4nc(c(-c5ccc(S(=O)(=O)[O-])cc5)c5ccc2[nH]5)C=C4)C=C3)cc1
REMARK SMILES IDX 4 1 3 2 1 3 2 4 22 6 23 7 81 8 24 9 80 10 25 11 26 12 27 13
REMARK SMILES IDX 74 14 28 15 79 16 73 17 75 18 29 19 78 20 72 21 71 22 30 24
REMARK SMILES IDX 60 25 41 26 59 27 42 28 45 29 58 30 76 31 43 32 44 33 57 35
REMARK SMILES IDX 77 36 46 37 31 38 32 39 40 40 33 41 39 42 34 43 35 44 36 45
REMARK SMILES IDX 37 46 38 47 61 48 62 49 70 50 63 51 69 52 64 53 65 54 66 55
REMARK SMILES IDX 67 56 68 57 47 58 48 59 56 60 49 61 55 62 50 63 51 64 52 65
REMARK SMILES IDX 53 66 54 67 5 68 6 69 7 70 8 71 9 73 10 74 11 75 21 76 12 77
REMARK SMILES IDX 20 78 13 79 14 80 19 81 15 82 18 83 16 84 17 85
REMARK H PARENT 3 5 75 23 45 34 7 72
REMARK Flexibility Score: inf
ROOT
ATOM      1  C   UNL A   1      41.218  19.976  26.938  1.00  0.00     0.118 C 
ENDROOT
BRANCH   1   2
ATOM      2  N   UNL A   1      40.033  20.532  26.313  1.00  0.00    -0.352 N 
ATOM      3  O   UNL A   1      38.445  21.827  25.519  1.00  0.00    -0.269 OA
ATOM      4  C   UNL A   1      39.463  21.772  26.216  1.00  0.00     0.251 C 
ATOM      5  H   UNL A   1      39.508  19.846  25.841  1.00  0.00     0.163 HD
BRANCH   4   6
ATOM      6  C   UNL A   1      39.946  23.020  26.878  1.00  0.00     0.039 A 
ATOM      7  C   UNL A   1      41.090  23.146  27.666  1.00  0.00     0.014 A 
ATOM      8  C   UNL A   1      39.154  24.170  26.678  1.00  0.00     0.014 A 
ATOM      9  C   UNL A   1      41.419  24.373  28.253  1.00  0.00     0.010 A 
ATOM     10  C   UNL A   1      39.484  25.399  27.256  1.00  0.00     0.010 A 
ATOM     11  C   UNL A   1      40.614  25.501  28.062  1.00  0.00    -0.014 A 
BRANCH  11  12
ATOM     12  C   UNL A   1      41.040  26.769  28.666  1.00  0.00     0.031 A 
ATOM     13  C   UNL A   1      42.296  27.389  28.144  1.00  0.00     0.074 A 
ATOM     14  C   UNL A   1      40.310  27.502  29.533  1.00  0.00     0.049 A 
ATOM     15  N   UNL A   1      43.387  27.668  28.784  1.00  0.00    -0.248 NA
ATOM     16  C   UNL A   1      42.331  27.740  26.717  1.00  0.00     0.031 C 
ATOM     17  C   UNL A   1      38.906  27.325  29.909  1.00  0.00     0.029 A 
ATOM     18  N   UNL A   1      40.670  28.648  30.188  1.00  0.00    -0.354 N 
ATOM     19  C   UNL A   1      44.199  28.365  27.888  1.00  0.00     0.074 A 
ATOM     20  C   UNL A   1      43.532  28.312  26.609  1.00  0.00     0.031 C 
ATOM     21  C   UNL A   1      38.477  28.438  30.547  1.00  0.00     0.029 A 
ATOM     22  C   UNL A   1      39.606  29.332  30.752  1.00  0.00     0.049 A 
ATOM     23  H   UNL A   1      41.601  28.959  30.250  1.00  0.00     0.167 HD
ATOM     24  C   UNL A   1      45.303  29.069  28.266  1.00  0.00     0.031 A 
ATOM     25  C   UNL A   1      39.632  30.568  31.304  1.00  0.00     0.031 A 
ATOM     26  C   UNL A   1      45.729  28.768  29.603  1.00  0.00     0.049 A 
ATOM     27  C   UNL A   1      41.031  30.899  31.655  1.00  0.00     0.074 A 
ATOM     28  C   UNL A   1      46.180  27.643  30.262  1.00  0.00     0.029 A 
ATOM     29  N   UNL A   1      45.458  29.694  30.580  1.00  0.00    -0.354 N 
ATOM     30  N   UNL A   1      41.713  30.308  32.595  1.00  0.00    -0.248 NA
ATOM     31  C   UNL A   1      41.812  31.727  30.750  1.00  0.00     0.031 C 
ATOM     32  C   UNL A   1      45.730  27.790  31.606  1.00  0.00     0.029 A 
ATOM     33  C   UNL A   1      45.035  28.999  31.686  1.00  0.00     0.049 A 
ATOM     34  H   UNL A   1      45.549  30.671  30.503  1.00  0.00     0.167 HD
ATOM     35  C   UNL A   1      43.032  30.370  32.178  1.00  0.00     0.074 A 
ATOM     36  C   UNL A   1      43.044  31.372  31.120  1.00  0.00     0.031 C 
ATOM     37  C   UNL A   1      43.936  29.411  32.536  1.00  0.00     0.031 A 
BRANCH  24  38
ATOM     38  C   UNL A   1      45.853  30.257  27.515  1.00  0.00    -0.014 A 
ATOM     39  C   UNL A   1      47.250  30.398  27.364  1.00  0.00     0.010 A 
ATOM     40  C   UNL A   1      45.056  31.368  27.176  1.00  0.00     0.010 A 
ATOM     41  C   UNL A   1      47.819  31.604  26.931  1.00  0.00     0.020 A 
ATOM     42  C   UNL A   1      45.611  32.561  26.702  1.00  0.00     0.020 A 
ATOM     43  C   UNL A   1      46.993  32.684  26.616  1.00  0.00     0.054 A 
BRANCH  43  44
ATOM     44  S   UNL A   1      47.742  34.268  26.155  1.00  0.00     0.124 S 
ATOM     45  O   UNL A   1      47.546  35.055  27.368  1.00  0.00    -0.237 OA
ATOM     46  O   UNL A   1      49.122  33.891  25.860  1.00  0.00    -0.237 OA
ATOM     47  O   UNL A   1      46.957  34.692  24.997  1.00  0.00    -0.744 OA
ENDBRANCH  43  44
ENDBRANCH  24  38
BRANCH  25  48
ATOM     48  C   UNL A   1      38.551  31.581  31.327  1.00  0.00    -0.014 A 
ATOM     49  C   UNL A   1      37.873  31.946  30.150  1.00  0.00     0.010 A 
ATOM     50  C   UNL A   1      38.003  31.992  32.559  1.00  0.00     0.010 A 
ATOM     51  C   UNL A   1      36.658  32.648  30.207  1.00  0.00     0.020 A 
ATOM     52  C   UNL A   1      36.799  32.701  32.623  1.00  0.00     0.020 A 
ATOM     53  C   UNL A   1      36.120  33.005  31.446  1.00  0.00     0.054 A 
BRANCH  53  54
ATOM     54  S   UNL A   1      34.465  33.752  31.518  1.00  0.00     0.124 S 
ATOM     55  O   UNL A   1      34.045  33.710  30.121  1.00  0.00    -0.237 OA
ATOM     56  O   UNL A   1      33.751  32.854  32.422  1.00  0.00    -0.237 OA
ATOM     57  O   UNL A   1      34.716  35.090  32.052  1.00  0.00    -0.744 OA
ENDBRANCH  53  54
ENDBRANCH  25  48
BRANCH  37  58
ATOM     58  C   UNL A   1      43.603  28.499  33.695  1.00  0.00    -0.014 A 
ATOM     59  C   UNL A   1      42.913  27.281  33.540  1.00  0.00     0.010 A 
ATOM     60  C   UNL A   1      44.146  28.803  34.957  1.00  0.00     0.010 A 
ATOM     61  C   UNL A   1      42.755  26.402  34.619  1.00  0.00     0.020 A 
ATOM     62  C   UNL A   1      44.009  27.921  36.034  1.00  0.00     0.020 A 
ATOM     63  C   UNL A   1      43.311  26.725  35.860  1.00  0.00     0.054 A 
BRANCH  63  64
ATOM     64  S   UNL A   1      43.183  25.533  37.223  1.00  0.00     0.124 S 
ATOM     65  O   UNL A   1      44.412  24.759  37.085  1.00  0.00    -0.237 OA
ATOM     66  O   UNL A   1      43.112  26.393  38.404  1.00  0.00    -0.237 OA
ATOM     67  O   UNL A   1      41.952  24.801  36.930  1.00  0.00    -0.744 OA
ENDBRANCH  63  64
ENDBRANCH  37  58
ENDBRANCH  11  12
ENDBRANCH   4   6
ENDBRANCH   1   2
BRANCH   1  68
ATOM     68  C   UNL A   1      42.319  19.587  25.952  1.00  0.00     0.042 C 
BRANCH  68  69
ATOM     69  C   UNL A   1      43.413  20.640  25.769  1.00  0.00     0.118 C 
BRANCH  69  70
ATOM     70  N   UNL A   1      44.686  20.087  25.327  1.00  0.00    -0.351 N 
ATOM     71  C   UNL A   1      45.887  20.728  25.096  1.00  0.00     0.271 C 
ATOM     72  H   UNL A   1      44.691  19.114  25.170  1.00  0.00     0.163 HD
ATOM     73  O   UNL A   1      46.853  20.089  24.730  1.00  0.00    -0.267 OA
BRANCH  71  74
ATOM     74  C   UNL A   1      45.925  22.172  25.331  1.00  0.00     0.146 A 
ATOM     75  C   UNL A   1      46.194  23.154  24.393  1.00  0.00     0.128 A 
ATOM     76  N   UNL A   1      45.770  22.736  26.579  1.00  0.00    -0.231 NA
ATOM     77  N   UNL A   1      46.373  24.312  25.114  1.00  0.00    -0.290 N 
ATOM     78  C   UNL A   1      46.061  24.008  26.418  1.00  0.00     0.206 A 
BRANCH  77  79
ATOM     79  C   UNL A   1      46.881  25.556  24.660  1.00  0.00     0.142 A 
ATOM     80  C   UNL A   1      48.168  25.648  24.182  1.00  0.00     0.088 A 
ATOM     81  N   UNL A   1      46.065  26.628  24.776  1.00  0.00    -0.219 NA
ATOM     82  C   UNL A   1      48.565  26.919  23.844  1.00  0.00     0.134 A 
ATOM     83  C   UNL A   1      46.595  27.823  24.477  1.00  0.00     0.226 A 
ATOM     84  Cl  UNL A   1      50.118  27.192  23.165  1.00  0.00    -0.062 Cl
ATOM     85  N   UNL A   1      47.820  28.024  23.986  1.00  0.00    -0.224 NA
ENDBRANCH  77  79
ENDBRANCH  71  74
ENDBRANCH  69  70
ENDBRANCH  68  69
ENDBRANCH   1  68
TORSDOF 14
ENDMDL
