MODEL 1
REMARK VINA RESULT:     -11.4      0.000      0.000
REMARK SMILES CC(C)C[C@@H]([NH2+][C@H]1CCOC2(CCOCC2)C1)C(=O)NCCCNC(=O)c1ccc(-c2c3nc(c(-c4ccc(S(=O)(=O)[O-])cc4)c4ccc([nH]4)c(-c4ccc(S(=O)(=O)[O-])cc4)c4nc(c(-c5ccc(S(=O)(=O)[O-])cc5)c5ccc2[nH]5)C=C4)C=C3)cc1
REMARK SMILES IDX 22 1 21 2 20 3 18 4 19 5 5 7 4 8 2 9 1 10 3 11 6 12 7 15
REMARK SMILES IDX 8 16 17 17 9 18 11 19 10 20 12 21 16 22 13 23 15 24 14 25
REMARK SMILES IDX 23 26 24 27 25 28 26 30 27 31 28 32 86 33 29 34 85 35 30 36
REMARK SMILES IDX 31 37 32 38 79 39 33 40 84 41 78 42 80 43 34 44 83 45 77 46
REMARK SMILES IDX 76 47 35 49 65 50 46 51 64 52 47 53 50 54 63 55 81 56 48 57
REMARK SMILES IDX 49 58 62 60 82 61 51 62 36 63 37 64 45 65 38 66 44 67 39 68
REMARK SMILES IDX 40 69 41 70 42 71 43 72 66 73 67 74 75 75 68 76 74 77 69 78
REMARK SMILES IDX 70 79 71 80 72 81 73 82 52 83 53 84 61 85 54 86 60 87 55 88
REMARK SMILES IDX 56 89 57 90 58 91 59 92
REMARK H PARENT 20 6 6 13 6 14 24 29 80 48 50 59
REMARK Flexibility Score: inf
ROOT
ATOM      1  C   UNL A   1      33.967  28.389  25.796  1.00  0.00     0.042 C 
ENDROOT
BRANCH   1   2
ATOM      2  C   UNL A   1      33.194  29.328  24.875  1.00  0.00     0.118 C 
BRANCH   2   3
ATOM      3  N   UNL A   1      33.670  29.223  23.509  1.00  0.00    -0.351 N 
ATOM      4  C   UNL A   1      33.589  28.188  22.631  1.00  0.00     0.278 C 
ATOM      5  O   UNL A   1      34.237  28.292  21.583  1.00  0.00    -0.268 OA
ATOM      6  H   UNL A   1      34.122  30.026  23.165  1.00  0.00     0.163 HD
BRANCH   4   7
ATOM      7  C   UNL A   1      32.721  26.938  22.896  1.00  0.00     0.273 C 
BRANCH   7   8
ATOM      8  C   UNL A   1      31.308  27.134  22.309  1.00  0.00     0.078 C 
BRANCH   8   9
ATOM      9  C   UNL A   1      30.125  27.037  23.296  1.00  0.00    -0.011 C 
ATOM     10  C   UNL A   1      30.567  26.938  24.754  1.00  0.00     0.007 C 
ATOM     11  C   UNL A   1      29.207  28.251  23.114  1.00  0.00     0.007 C 
ENDBRANCH   8   9
ENDBRANCH   7   8
BRANCH   7  12
ATOM     12  N   UNL A   1      33.369  25.684  22.439  1.00  0.00    -0.333 N 
ATOM     13  H   UNL A   1      34.134  25.940  21.816  1.00  0.00     0.347 HD
ATOM     14  H   UNL A   1      32.626  25.140  21.999  1.00  0.00     0.347 HD
BRANCH  12  15
ATOM     15  C   UNL A   1      33.923  24.807  23.492  1.00  0.00     0.188 C 
ATOM     16  C   UNL A   1      33.534  25.146  24.936  1.00  0.00     0.093 C 
ATOM     17  C   UNL A   1      33.477  23.360  23.196  1.00  0.00     0.100 C 
ATOM     18  C   UNL A   1      34.121  24.122  25.888  1.00  0.00     0.167 C 
ATOM     19  C   UNL A   1      33.960  22.346  24.256  1.00  0.00     0.078 C 
ATOM     20  O   UNL A   1      33.646  22.819  25.577  1.00  0.00    -0.374 OA
ATOM     21  C   UNL A   1      35.459  22.027  24.112  1.00  0.00     0.064 C 
ATOM     22  C   UNL A   1      33.176  21.028  24.100  1.00  0.00     0.064 C 
ATOM     23  C   UNL A   1      35.870  20.916  25.073  1.00  0.00     0.163 C 
ATOM     24  C   UNL A   1      33.703  19.972  25.066  1.00  0.00     0.163 C 
ATOM     25  O   UNL A   1      35.094  19.740  24.843  1.00  0.00    -0.381 OA
ENDBRANCH  12  15
ENDBRANCH   7  12
ENDBRANCH   4   7
ENDBRANCH   2   3
ENDBRANCH   1   2
BRANCH   1  26
ATOM     26  C   UNL A   1      33.636  28.564  27.273  1.00  0.00     0.118 C 
BRANCH  26  27
ATOM     27  N   UNL A   1      33.558  29.963  27.669  1.00  0.00    -0.352 N 
ATOM     28  C   UNL A   1      34.511  30.728  28.300  1.00  0.00     0.251 C 
ATOM     29  H   UNL A   1      32.713  30.421  27.458  1.00  0.00     0.163 HD
ATOM     30  O   UNL A   1      34.231  31.849  28.713  1.00  0.00    -0.269 OA
BRANCH  28  31
ATOM     31  C   UNL A   1      35.865  30.173  28.499  1.00  0.00     0.039 A 
ATOM     32  C   UNL A   1      36.780  30.212  27.443  1.00  0.00     0.014 A 
ATOM     33  C   UNL A   1      36.237  29.650  29.741  1.00  0.00     0.014 A 
ATOM     34  C   UNL A   1      38.095  29.790  27.655  1.00  0.00     0.010 A 
ATOM     35  C   UNL A   1      37.562  29.291  29.966  1.00  0.00     0.010 A 
ATOM     36  C   UNL A   1      38.505  29.361  28.928  1.00  0.00    -0.014 A 
BRANCH  36  37
ATOM     37  C   UNL A   1      39.910  28.977  29.211  1.00  0.00     0.031 A 
ATOM     38  C   UNL A   1      40.865  29.999  29.762  1.00  0.00     0.074 A 
ATOM     39  C   UNL A   1      40.351  27.746  28.880  1.00  0.00     0.049 A 
ATOM     40  N   UNL A   1      42.160  29.915  29.929  1.00  0.00    -0.248 NA
ATOM     41  C   UNL A   1      40.292  31.299  30.148  1.00  0.00     0.031 C 
ATOM     42  C   UNL A   1      39.531  26.673  28.314  1.00  0.00     0.029 A 
ATOM     43  N   UNL A   1      41.607  27.198  28.954  1.00  0.00    -0.354 N 
ATOM     44  C   UNL A   1      42.559  31.156  30.408  1.00  0.00     0.074 A 
ATOM     45  C   UNL A   1      41.376  31.987  30.472  1.00  0.00     0.031 C 
ATOM     46  C   UNL A   1      40.302  25.595  28.101  1.00  0.00     0.029 A 
ATOM     47  C   UNL A   1      41.677  25.912  28.472  1.00  0.00     0.049 A 
ATOM     48  H   UNL A   1      42.386  27.681  29.317  1.00  0.00     0.167 HD
ATOM     49  C   UNL A   1      43.798  31.566  30.770  1.00  0.00     0.031 A 
ATOM     50  C   UNL A   1      42.733  25.087  28.328  1.00  0.00     0.031 A 
ATOM     51  C   UNL A   1      44.968  30.729  30.725  1.00  0.00     0.049 A 
ATOM     52  C   UNL A   1      44.099  25.560  28.742  1.00  0.00     0.074 A 
ATOM     53  C   UNL A   1      46.259  31.036  31.116  1.00  0.00     0.029 A 
ATOM     54  N   UNL A   1      44.986  29.421  30.268  1.00  0.00    -0.354 N 
ATOM     55  N   UNL A   1      44.452  26.727  29.228  1.00  0.00    -0.248 NA
ATOM     56  C   UNL A   1      45.208  24.606  28.597  1.00  0.00     0.031 C 
ATOM     57  C   UNL A   1      47.067  29.923  30.861  1.00  0.00     0.029 A 
ATOM     58  C   UNL A   1      46.269  28.909  30.358  1.00  0.00     0.049 A 
ATOM     59  H   UNL A   1      44.204  28.930  29.929  1.00  0.00     0.167 HD
ATOM     60  C   UNL A   1      45.816  26.634  29.478  1.00  0.00     0.074 A 
ATOM     61  C   UNL A   1      46.224  25.299  29.092  1.00  0.00     0.031 C 
ATOM     62  C   UNL A   1      46.653  27.570  29.987  1.00  0.00     0.031 A 
BRANCH  49  63
ATOM     63  C   UNL A   1      43.950  32.987  31.240  1.00  0.00    -0.014 A 
ATOM     64  C   UNL A   1      44.281  34.018  30.341  1.00  0.00     0.010 A 
ATOM     65  C   UNL A   1      43.727  33.303  32.593  1.00  0.00     0.010 A 
ATOM     66  C   UNL A   1      44.435  35.330  30.796  1.00  0.00     0.020 A 
ATOM     67  C   UNL A   1      43.854  34.620  33.046  1.00  0.00     0.020 A 
ATOM     68  C   UNL A   1      44.226  35.622  32.147  1.00  0.00     0.054 A 
BRANCH  68  69
ATOM     69  S   UNL A   1      44.420  37.335  32.708  1.00  0.00     0.124 S 
ATOM     70  O   UNL A   1      43.974  38.086  31.537  1.00  0.00    -0.237 OA
ATOM     71  O   UNL A   1      43.533  37.396  33.867  1.00  0.00    -0.237 OA
ATOM     72  O   UNL A   1      45.845  37.441  33.011  1.00  0.00    -0.744 OA
ENDBRANCH  68  69
ENDBRANCH  49  63
BRANCH  50  73
ATOM     73  C   UNL A   1      42.534  23.720  27.774  1.00  0.00    -0.014 A 
ATOM     74  C   UNL A   1      42.887  23.434  26.444  1.00  0.00     0.010 A 
ATOM     75  C   UNL A   1      42.012  22.691  28.580  1.00  0.00     0.010 A 
ATOM     76  C   UNL A   1      42.709  22.148  25.924  1.00  0.00     0.020 A 
ATOM     77  C   UNL A   1      41.855  21.399  28.071  1.00  0.00     0.020 A 
ATOM     78  C   UNL A   1      42.194  21.139  26.742  1.00  0.00     0.054 A 
BRANCH  78  79
ATOM     79  S   UNL A   1      42.025  19.463  26.066  1.00  0.00     0.124 S 
ATOM     80  O   UNL A   1      42.578  18.645  27.139  1.00  0.00    -0.237 OA
ATOM     81  O   UNL A   1      40.583  19.348  25.860  1.00  0.00    -0.237 OA
ATOM     82  O   UNL A   1      42.818  19.510  24.839  1.00  0.00    -0.744 OA
ENDBRANCH  78  79
ENDBRANCH  50  73
BRANCH  62  83
ATOM     83  C   UNL A   1      48.087  27.177  30.214  1.00  0.00    -0.014 A 
ATOM     84  C   UNL A   1      49.073  27.422  29.244  1.00  0.00     0.010 A 
ATOM     85  C   UNL A   1      48.462  26.636  31.458  1.00  0.00     0.010 A 
ATOM     86  C   UNL A   1      50.412  27.120  29.511  1.00  0.00     0.020 A 
ATOM     87  C   UNL A   1      49.801  26.354  31.736  1.00  0.00     0.020 A 
ATOM     88  C   UNL A   1      50.768  26.593  30.756  1.00  0.00     0.054 A 
BRANCH  88  89
ATOM     89  S   UNL A   1      52.521  26.281  31.108  1.00  0.00     0.124 S 
ATOM     90  O   UNL A   1      52.883  27.452  31.900  1.00  0.00    -0.237 OA
ATOM     91  O   UNL A   1      52.481  25.016  31.838  1.00  0.00    -0.237 OA
ATOM     92  O   UNL A   1      53.132  26.210  29.784  1.00  0.00    -0.744 OA
ENDBRANCH  88  89
ENDBRANCH  62  83
ENDBRANCH  36  37
ENDBRANCH  28  31
ENDBRANCH  26  27
ENDBRANCH   1  26
TORSDOF 17
ENDMDL
MODEL 2
REMARK VINA RESULT:     -11.1      1.662      4.119
REMARK SMILES CC(C)C[C@@H]([NH2+][C@H]1CCOC2(CCOCC2)C1)C(=O)NCCCNC(=O)c1ccc(-c2c3nc(c(-c4ccc(S(=O)(=O)[O-])cc4)c4ccc([nH]4)c(-c4ccc(S(=O)(=O)[O-])cc4)c4nc(c(-c5ccc(S(=O)(=O)[O-])cc5)c5ccc2[nH]5)C=C4)C=C3)cc1
REMARK SMILES IDX 22 1 21 2 20 3 18 4 19 5 5 7 4 8 2 9 1 10 3 11 6 12 7 15
REMARK SMILES IDX 8 16 17 17 9 18 11 19 10 20 12 21 16 22 13 23 15 24 14 25
REMARK SMILES IDX 23 26 24 27 25 28 26 30 27 31 28 32 86 33 29 34 85 35 30 36
REMARK SMILES IDX 31 37 32 38 79 39 33 40 84 41 78 42 80 43 34 44 83 45 77 46
REMARK SMILES IDX 76 47 35 49 65 50 46 51 64 52 47 53 50 54 63 55 81 56 48 57
REMARK SMILES IDX 49 58 62 60 82 61 51 62 36 63 37 64 45 65 38 66 44 67 39 68
REMARK SMILES IDX 40 69 41 70 42 71 43 72 66 73 67 74 75 75 68 76 74 77 69 78
REMARK SMILES IDX 70 79 71 80 72 81 73 82 52 83 53 84 61 85 54 86 60 87 55 88
REMARK SMILES IDX 56 89 57 90 58 91 59 92
REMARK H PARENT 20 6 6 13 6 14 24 29 80 48 50 59
REMARK Flexibility Score: inf
ROOT
ATOM      1  C   UNL A   1      33.210  27.254  26.001  1.00  0.00     0.042 C 
ENDROOT
BRANCH   1   2
ATOM      2  C   UNL A   1      31.827  27.634  26.521  1.00  0.00     0.118 C 
BRANCH   2   3
ATOM      3  N   UNL A   1      31.058  26.452  26.859  1.00  0.00    -0.351 N 
ATOM      4  C   UNL A   1      30.371  25.594  26.058  1.00  0.00     0.278 C 
ATOM      5  O   UNL A   1      29.648  24.763  26.618  1.00  0.00    -0.268 OA
ATOM      6  H   UNL A   1      31.029  26.238  27.819  1.00  0.00     0.163 HD
BRANCH   4   7
ATOM      7  C   UNL A   1      30.488  25.623  24.518  1.00  0.00     0.273 C 
BRANCH   7   8
ATOM      8  C   UNL A   1      30.548  24.187  23.958  1.00  0.00     0.078 C 
BRANCH   8   9
ATOM      9  C   UNL A   1      31.691  23.872  22.970  1.00  0.00    -0.011 C 
ATOM     10  C   UNL A   1      32.922  24.753  23.176  1.00  0.00     0.007 C 
ATOM     11  C   UNL A   1      32.084  22.396  23.095  1.00  0.00     0.007 C 
ENDBRANCH   8   9
ENDBRANCH   7   8
BRANCH   7  12
ATOM     12  N   UNL A   1      29.432  26.448  23.880  1.00  0.00    -0.333 N 
ATOM     13  H   UNL A   1      28.647  26.501  24.527  1.00  0.00     0.347 HD
ATOM     14  H   UNL A   1      29.224  25.984  22.996  1.00  0.00     0.347 HD
BRANCH  12  15
ATOM     15  C   UNL A   1      29.807  27.831  23.516  1.00  0.00     0.188 C 
ATOM     16  C   UNL A   1      31.055  27.990  22.640  1.00  0.00     0.093 C 
ATOM     17  C   UNL A   1      28.613  28.475  22.782  1.00  0.00     0.100 C 
ATOM     18  C   UNL A   1      31.268  29.452  22.297  1.00  0.00     0.167 C 
ATOM     19  C   UNL A   1      28.896  29.917  22.308  1.00  0.00     0.078 C 
ATOM     20  O   UNL A   1      30.145  29.972  21.598  1.00  0.00    -0.374 OA
ATOM     21  C   UNL A   1      28.863  30.926  23.470  1.00  0.00     0.064 C 
ATOM     22  C   UNL A   1      27.827  30.340  21.280  1.00  0.00     0.064 C 
ATOM     23  C   UNL A   1      28.998  32.353  22.952  1.00  0.00     0.163 C 
ATOM     24  C   UNL A   1      28.021  31.797  20.872  1.00  0.00     0.163 C 
ATOM     25  O   UNL A   1      27.960  32.648  22.016  1.00  0.00    -0.381 OA
ENDBRANCH  12  15
ENDBRANCH   7  12
ENDBRANCH   4   7
ENDBRANCH   2   3
ENDBRANCH   1   2
BRANCH   1  26
ATOM     26  C   UNL A   1      34.331  28.146  26.520  1.00  0.00     0.118 C 
BRANCH  26  27
ATOM     27  N   UNL A   1      33.858  29.460  26.933  1.00  0.00    -0.352 N 
ATOM     28  C   UNL A   1      34.484  30.379  27.740  1.00  0.00     0.251 C 
ATOM     29  H   UNL A   1      32.975  29.724  26.588  1.00  0.00     0.163 HD
ATOM     30  O   UNL A   1      33.881  31.376  28.127  1.00  0.00    -0.269 OA
BRANCH  28  31
ATOM     31  C   UNL A   1      35.880  30.139  28.160  1.00  0.00     0.039 A 
ATOM     32  C   UNL A   1      36.135  29.710  29.465  1.00  0.00     0.014 A 
ATOM     33  C   UNL A   1      36.928  30.302  27.250  1.00  0.00     0.014 A 
ATOM     34  C   UNL A   1      37.439  29.375  29.838  1.00  0.00     0.010 A 
ATOM     35  C   UNL A   1      38.214  29.907  27.604  1.00  0.00     0.010 A 
ATOM     36  C   UNL A   1      38.482  29.437  28.900  1.00  0.00    -0.014 A 
BRANCH  36  37
ATOM     37  C   UNL A   1      39.866  29.018  29.236  1.00  0.00     0.031 A 
ATOM     38  C   UNL A   1      40.818  30.014  29.839  1.00  0.00     0.074 A 
ATOM     39  C   UNL A   1      40.293  27.782  28.909  1.00  0.00     0.049 A 
ATOM     40  N   UNL A   1      42.103  29.899  30.058  1.00  0.00    -0.248 NA
ATOM     41  C   UNL A   1      40.258  31.321  30.216  1.00  0.00     0.031 C 
ATOM     42  C   UNL A   1      39.475  26.734  28.296  1.00  0.00     0.029 A 
ATOM     43  N   UNL A   1      41.534  27.206  29.028  1.00  0.00    -0.354 N 
ATOM     44  C   UNL A   1      42.509  31.126  30.568  1.00  0.00     0.074 A 
ATOM     45  C   UNL A   1      41.342  31.981  30.593  1.00  0.00     0.031 C 
ATOM     46  C   UNL A   1      40.231  25.642  28.103  1.00  0.00     0.029 A 
ATOM     47  C   UNL A   1      41.597  25.925  28.534  1.00  0.00     0.049 A 
ATOM     48  H   UNL A   1      42.306  27.667  29.429  1.00  0.00     0.167 HD
ATOM     49  C   UNL A   1      43.740  31.504  30.986  1.00  0.00     0.031 A 
ATOM     50  C   UNL A   1      42.640  25.078  28.423  1.00  0.00     0.031 A 
ATOM     51  C   UNL A   1      44.892  30.643  30.979  1.00  0.00     0.049 A 
ATOM     52  C   UNL A   1      43.997  25.517  28.899  1.00  0.00     0.074 A 
ATOM     53  C   UNL A   1      46.172  30.918  31.427  1.00  0.00     0.029 A 
ATOM     54  N   UNL A   1      44.902  29.340  30.507  1.00  0.00    -0.354 N 
ATOM     55  N   UNL A   1      44.354  26.670  29.413  1.00  0.00    -0.248 NA
ATOM     56  C   UNL A   1      45.090  24.540  28.788  1.00  0.00     0.031 C 
ATOM     57  C   UNL A   1      46.966  29.790  31.192  1.00  0.00     0.029 A 
ATOM     58  C   UNL A   1      46.168  28.799  30.644  1.00  0.00     0.049 A 
ATOM     59  H   UNL A   1      44.124  28.870  30.130  1.00  0.00     0.167 HD
ATOM     60  C   UNL A   1      45.704  26.545  29.718  1.00  0.00     0.074 A 
ATOM     61  C   UNL A   1      46.100  25.205  29.334  1.00  0.00     0.031 C 
ATOM     62  C   UNL A   1      46.540  27.457  30.273  1.00  0.00     0.031 A 
BRANCH  49  63
ATOM     63  C   UNL A   1      43.902  32.917  31.479  1.00  0.00    -0.014 A 
ATOM     64  C   UNL A   1      43.722  33.236  32.838  1.00  0.00     0.010 A 
ATOM     65  C   UNL A   1      44.268  33.934  30.579  1.00  0.00     0.010 A 
ATOM     66  C   UNL A   1      43.859  34.555  33.278  1.00  0.00     0.020 A 
ATOM     67  C   UNL A   1      44.432  35.250  31.021  1.00  0.00     0.020 A 
ATOM     68  C   UNL A   1      44.208  35.555  32.365  1.00  0.00     0.054 A 
BRANCH  68  69
ATOM     69  S   UNL A   1      44.391  37.257  32.965  1.00  0.00     0.124 S 
ATOM     70  O   UNL A   1      44.631  37.987  31.723  1.00  0.00    -0.237 OA
ATOM     71  O   UNL A   1      43.104  37.513  33.605  1.00  0.00    -0.237 OA
ATOM     72  O   UNL A   1      45.532  37.182  33.875  1.00  0.00    -0.744 OA
ENDBRANCH  68  69
ENDBRANCH  49  63
BRANCH  50  73
ATOM     73  C   UNL A   1      42.435  23.722  27.845  1.00  0.00    -0.014 A 
ATOM     74  C   UNL A   1      42.622  23.501  26.470  1.00  0.00     0.010 A 
ATOM     75  C   UNL A   1      42.074  22.641  28.670  1.00  0.00     0.010 A 
ATOM     76  C   UNL A   1      42.438  22.225  25.926  1.00  0.00     0.020 A 
ATOM     77  C   UNL A   1      41.914  21.360  28.134  1.00  0.00     0.020 A 
ATOM     78  C   UNL A   1      42.085  21.163  26.763  1.00  0.00     0.054 A 
BRANCH  78  79
ATOM     79  S   UNL A   1      41.908  19.505  26.046  1.00  0.00     0.124 S 
ATOM     80  O   UNL A   1      42.380  18.653  27.132  1.00  0.00    -0.237 OA
ATOM     81  O   UNL A   1      40.477  19.433  25.761  1.00  0.00    -0.237 OA
ATOM     82  O   UNL A   1      42.767  19.551  24.865  1.00  0.00    -0.744 OA
ENDBRANCH  78  79
ENDBRANCH  50  73
BRANCH  62  83
ATOM     83  C   UNL A   1      47.954  27.030  30.554  1.00  0.00    -0.014 A 
ATOM     84  C   UNL A   1      48.992  27.304  29.648  1.00  0.00     0.010 A 
ATOM     85  C   UNL A   1      48.256  26.426  31.789  1.00  0.00     0.010 A 
ATOM     86  C   UNL A   1      50.311  26.968  29.969  1.00  0.00     0.020 A 
ATOM     87  C   UNL A   1      49.575  26.110  32.121  1.00  0.00     0.020 A 
ATOM     88  C   UNL A   1      50.594  26.377  31.204  1.00  0.00     0.054 A 
BRANCH  88  89
ATOM     89  S   UNL A   1      52.322  26.021  31.630  1.00  0.00     0.124 S 
ATOM     90  O   UNL A   1      52.979  26.112  30.330  1.00  0.00    -0.237 OA
ATOM     91  O   UNL A   1      52.646  27.088  32.575  1.00  0.00    -0.237 OA
ATOM     92  O   UNL A   1      52.267  24.681  32.209  1.00  0.00    -0.744 OA
ENDBRANCH  88  89
ENDBRANCH  62  83
ENDBRANCH  36  37
ENDBRANCH  28  31
ENDBRANCH  26  27
ENDBRANCH   1  26
TORSDOF 17
ENDMDL
MODEL 3
REMARK VINA RESULT:     -11.0      2.865      9.368
REMARK SMILES CC(C)C[C@@H]([NH2+][C@H]1CCOC2(CCOCC2)C1)C(=O)NCCCNC(=O)c1ccc(-c2c3nc(c(-c4ccc(S(=O)(=O)[O-])cc4)c4ccc([nH]4)c(-c4ccc(S(=O)(=O)[O-])cc4)c4nc(c(-c5ccc(S(=O)(=O)[O-])cc5)c5ccc2[nH]5)C=C4)C=C3)cc1
REMARK SMILES IDX 22 1 21 2 20 3 18 4 19 5 5 7 4 8 2 9 1 10 3 11 6 12 7 15
REMARK SMILES IDX 8 16 17 17 9 18 11 19 10 20 12 21 16 22 13 23 15 24 14 25
REMARK SMILES IDX 23 26 24 27 25 28 26 30 27 31 28 32 86 33 29 34 85 35 30 36
REMARK SMILES IDX 31 37 32 38 79 39 33 40 84 41 78 42 80 43 34 44 83 45 77 46
REMARK SMILES IDX 76 47 35 49 65 50 46 51 64 52 47 53 50 54 63 55 81 56 48 57
REMARK SMILES IDX 49 58 62 60 82 61 51 62 36 63 37 64 45 65 38 66 44 67 39 68
REMARK SMILES IDX 40 69 41 70 42 71 43 72 66 73 67 74 75 75 68 76 74 77 69 78
REMARK SMILES IDX 70 79 71 80 72 81 73 82 52 83 53 84 61 85 54 86 60 87 55 88
REMARK SMILES IDX 56 89 57 90 58 91 59 92
REMARK H PARENT 20 6 6 13 6 14 24 29 80 48 50 59
REMARK Flexibility Score: inf
ROOT
ATOM      1  C   UNL A   1      35.883  23.562  26.042  1.00  0.00     0.042 C 
ENDROOT
BRANCH   1   2
ATOM      2  C   UNL A   1      35.486  22.110  26.290  1.00  0.00     0.118 C 
BRANCH   2   3
ATOM      3  N   UNL A   1      34.527  22.014  27.375  1.00  0.00    -0.351 N 
ATOM      4  C   UNL A   1      33.201  22.315  27.402  1.00  0.00     0.278 C 
ATOM      5  O   UNL A   1      32.649  22.312  28.508  1.00  0.00    -0.268 OA
ATOM      6  H   UNL A   1      34.895  21.678  28.224  1.00  0.00     0.163 HD
BRANCH   4   7
ATOM      7  C   UNL A   1      32.395  22.630  26.122  1.00  0.00     0.273 C 
BRANCH   7   8
ATOM      8  C   UNL A   1      31.859  21.327  25.494  1.00  0.00     0.078 C 
BRANCH   8   9
ATOM      9  C   UNL A   1      32.445  20.923  24.125  1.00  0.00    -0.011 C 
ATOM     10  C   UNL A   1      33.140  22.077  23.405  1.00  0.00     0.007 C 
ATOM     11  C   UNL A   1      33.429  19.762  24.312  1.00  0.00     0.007 C 
ENDBRANCH   8   9
ENDBRANCH   7   8
BRANCH   7  12
ATOM     12  N   UNL A   1      31.333  23.642  26.351  1.00  0.00    -0.333 N 
ATOM     13  H   UNL A   1      31.470  24.029  27.284  1.00  0.00     0.347 HD
ATOM     14  H   UNL A   1      30.452  23.143  26.222  1.00  0.00     0.347 HD
BRANCH  12  15
ATOM     15  C   UNL A   1      31.284  24.771  25.399  1.00  0.00     0.188 C 
ATOM     16  C   UNL A   1      30.093  25.728  25.538  1.00  0.00     0.093 C 
ATOM     17  C   UNL A   1      32.584  25.588  25.555  1.00  0.00     0.100 C 
ATOM     18  C   UNL A   1      30.220  26.866  24.544  1.00  0.00     0.167 C 
ATOM     19  C   UNL A   1      32.636  26.830  24.639  1.00  0.00     0.078 C 
ATOM     20  O   UNL A   1      31.422  27.592  24.763  1.00  0.00    -0.374 OA
ATOM     21  C   UNL A   1      32.920  26.457  23.172  1.00  0.00     0.064 C 
ATOM     22  C   UNL A   1      33.757  27.774  25.115  1.00  0.00     0.064 C 
ATOM     23  C   UNL A   1      33.112  27.708  22.323  1.00  0.00     0.163 C 
ATOM     24  C   UNL A   1      33.901  28.959  24.167  1.00  0.00     0.163 C 
ATOM     25  O   UNL A   1      34.175  28.508  22.841  1.00  0.00    -0.381 OA
ENDBRANCH  12  15
ENDBRANCH   7  12
ENDBRANCH   4   7
ENDBRANCH   2   3
ENDBRANCH   1   2
BRANCH   1  26
ATOM     26  C   UNL A   1      37.105  23.722  25.145  1.00  0.00     0.118 C 
BRANCH  26  27
ATOM     27  N   UNL A   1      38.151  22.755  25.444  1.00  0.00    -0.352 N 
ATOM     28  C   UNL A   1      39.332  22.955  26.119  1.00  0.00     0.251 C 
ATOM     29  H   UNL A   1      37.993  21.839  25.120  1.00  0.00     0.163 HD
ATOM     30  O   UNL A   1      40.186  22.073  26.147  1.00  0.00    -0.269 OA
BRANCH  28  31
ATOM     31  C   UNL A   1      39.571  24.251  26.786  1.00  0.00     0.039 A 
ATOM     32  C   UNL A   1      39.076  24.455  28.077  1.00  0.00     0.014 A 
ATOM     33  C   UNL A   1      40.316  25.246  26.147  1.00  0.00     0.014 A 
ATOM     34  C   UNL A   1      39.390  25.635  28.756  1.00  0.00     0.010 A 
ATOM     35  C   UNL A   1      40.681  26.390  26.849  1.00  0.00     0.010 A 
ATOM     36  C   UNL A   1      40.225  26.594  28.162  1.00  0.00    -0.014 A 
BRANCH  36  37
ATOM     37  C   UNL A   1      40.642  27.824  28.879  1.00  0.00     0.031 A 
ATOM     38  C   UNL A   1      41.967  27.858  29.590  1.00  0.00     0.074 A 
ATOM     39  C   UNL A   1      39.793  28.867  28.977  1.00  0.00     0.049 A 
ATOM     40  N   UNL A   1      42.446  28.767  30.400  1.00  0.00    -0.248 NA
ATOM     41  C   UNL A   1      42.856  26.703  29.388  1.00  0.00     0.031 C 
ATOM     42  C   UNL A   1      38.469  28.947  28.356  1.00  0.00     0.029 A 
ATOM     43  N   UNL A   1      39.911  30.054  29.656  1.00  0.00    -0.354 N 
ATOM     44  C   UNL A   1      43.675  28.280  30.826  1.00  0.00     0.074 A 
ATOM     45  C   UNL A   1      43.853  26.981  30.214  1.00  0.00     0.031 C 
ATOM     46  C   UNL A   1      37.903  30.122  28.674  1.00  0.00     0.029 A 
ATOM     47  C   UNL A   1      38.801  30.860  29.557  1.00  0.00     0.049 A 
ATOM     48  H   UNL A   1      40.715  30.305  30.168  1.00  0.00     0.167 HD
ATOM     49  C   UNL A   1      44.580  28.865  31.647  1.00  0.00     0.031 A 
ATOM     50  C   UNL A   1      38.528  32.050  30.127  1.00  0.00     0.031 A 
ATOM     51  C   UNL A   1      44.409  30.166  32.237  1.00  0.00     0.049 A 
ATOM     52  C   UNL A   1      39.550  32.684  31.030  1.00  0.00     0.074 A 
ATOM     53  C   UNL A   1      45.289  30.866  33.043  1.00  0.00     0.029 A 
ATOM     54  N   UNL A   1      43.287  30.964  32.078  1.00  0.00    -0.354 N 
ATOM     55  N   UNL A   1      40.724  32.225  31.394  1.00  0.00    -0.248 NA
ATOM     56  C   UNL A   1      39.215  34.000  31.596  1.00  0.00     0.031 C 
ATOM     57  C   UNL A   1      44.682  32.075  33.402  1.00  0.00     0.029 A 
ATOM     58  C   UNL A   1      43.447  32.147  32.778  1.00  0.00     0.049 A 
ATOM     59  H   UNL A   1      42.494  30.725  31.546  1.00  0.00     0.167 HD
ATOM     60  C   UNL A   1      41.281  33.209  32.201  1.00  0.00     0.074 A 
ATOM     61  C   UNL A   1      40.318  34.289  32.272  1.00  0.00     0.031 C 
ATOM     62  C   UNL A   1      42.486  33.219  32.823  1.00  0.00     0.031 A 
BRANCH  49  63
ATOM     63  C   UNL A   1      45.833  28.094  31.960  1.00  0.00    -0.014 A 
ATOM     64  C   UNL A   1      47.006  28.276  31.204  1.00  0.00     0.010 A 
ATOM     65  C   UNL A   1      45.850  27.198  33.044  1.00  0.00     0.010 A 
ATOM     66  C   UNL A   1      48.157  27.540  31.496  1.00  0.00     0.020 A 
ATOM     67  C   UNL A   1      47.009  26.480  33.356  1.00  0.00     0.020 A 
ATOM     68  C   UNL A   1      48.149  26.642  32.567  1.00  0.00     0.054 A 
BRANCH  68  69
ATOM     69  S   UNL A   1      49.661  25.709  32.932  1.00  0.00     0.124 S 
ATOM     70  O   UNL A   1      49.871  24.979  31.685  1.00  0.00    -0.237 OA
ATOM     71  O   UNL A   1      50.631  26.764  33.213  1.00  0.00    -0.237 OA
ATOM     72  O   UNL A   1      49.290  24.886  34.081  1.00  0.00    -0.744 OA
ENDBRANCH  68  69
ENDBRANCH  49  63
BRANCH  50  73
ATOM     73  C   UNL A   1      37.232  32.726  29.848  1.00  0.00    -0.014 A 
ATOM     74  C   UNL A   1      36.145  32.567  30.725  1.00  0.00     0.010 A 
ATOM     75  C   UNL A   1      37.084  33.549  28.717  1.00  0.00     0.010 A 
ATOM     76  C   UNL A   1      34.929  33.207  30.469  1.00  0.00     0.020 A 
ATOM     77  C   UNL A   1      35.877  34.210  28.471  1.00  0.00     0.020 A 
ATOM     78  C   UNL A   1      34.803  34.025  29.343  1.00  0.00     0.054 A 
BRANCH  78  79
ATOM     79  S   UNL A   1      33.234  34.892  29.060  1.00  0.00     0.124 S 
ATOM     80  O   UNL A   1      33.689  36.202  28.607  1.00  0.00    -0.237 OA
ATOM     81  O   UNL A   1      32.589  34.060  28.047  1.00  0.00    -0.237 OA
ATOM     82  O   UNL A   1      32.592  34.870  30.373  1.00  0.00    -0.744 OA
ENDBRANCH  78  79
ENDBRANCH  50  73
BRANCH  62  83
ATOM     83  C   UNL A   1      42.866  34.455  33.592  1.00  0.00    -0.014 A 
ATOM     84  C   UNL A   1      42.650  34.546  34.977  1.00  0.00     0.010 A 
ATOM     85  C   UNL A   1      43.531  35.500  32.926  1.00  0.00     0.010 A 
ATOM     86  C   UNL A   1      43.085  35.672  35.683  1.00  0.00     0.020 A 
ATOM     87  C   UNL A   1      43.986  36.616  33.631  1.00  0.00     0.020 A 
ATOM     88  C   UNL A   1      43.754  36.698  35.006  1.00  0.00     0.054 A 
BRANCH  88  89
ATOM     89  S   UNL A   1      44.377  38.113  35.955  1.00  0.00     0.124 S 
ATOM     90  O   UNL A   1      43.636  37.988  37.207  1.00  0.00    -0.237 OA
ATOM     91  O   UNL A   1      45.809  37.836  36.042  1.00  0.00    -0.237 OA
ATOM     92  O   UNL A   1      44.021  39.265  35.132  1.00  0.00    -0.744 OA
ENDBRANCH  88  89
ENDBRANCH  62  83
ENDBRANCH  36  37
ENDBRANCH  28  31
ENDBRANCH  26  27
ENDBRANCH   1  26
TORSDOF 17
ENDMDL
