MODEL 1
REMARK VINA RESULT:     -14.8      0.000      0.000
REMARK SMILES Cc1ccc(-c2csc(NC(=O)[C@H]3[C@@H](C(=O)NCCCNC(=O)c4ccc(-c5c6nc(c(-c7ccc(S(=O)(=O)[O-])cc7)c7ccc([nH]7)c(-c7ccc(S(=O)(=O)[O-])cc7)c7nc(c(-c8ccc(S(=O)(=O)[O-])cc8)c8ccc5[nH]8)C=C7)C=C6)cc4)[C@H]4C=C[C@@H]3C4)c2C(=O)NC2CC2)cc1
REMARK SMILES IDX 18 1 17 2 15 3 16 4 14 6 13 7 87 8 84 9 86 10 88 11 85 12
REMARK SMILES IDX 11 13 10 14 12 16 9 17 6 18 7 19 89 20 8 21 5 22 1 23 2 24
REMARK SMILES IDX 3 25 97 26 4 27 96 28 90 29 91 30 92 31 93 33 94 34 95 35
REMARK SMILES IDX 19 36 20 37 21 38 22 39 23 41 24 42 25 43 83 44 26 45 82 46
REMARK SMILES IDX 27 47 28 48 29 49 76 50 30 51 81 52 75 53 77 54 31 55 80 56
REMARK SMILES IDX 74 57 73 58 32 60 62 61 43 62 61 63 44 64 47 65 60 66 78 67
REMARK SMILES IDX 45 68 46 69 59 71 79 72 48 73 33 74 34 75 42 76 35 77 41 78
REMARK SMILES IDX 36 79 37 80 38 81 39 82 40 83 63 84 64 85 72 86 65 87 71 88
REMARK SMILES IDX 66 89 67 90 68 91 69 92 70 93 49 94 50 95 58 96 51 97 57 98
REMARK SMILES IDX 52 99 53 100 54 101 55 102 56 103
REMARK H PARENT 17 5 10 15 92 32 21 40 77 59 47 70
REMARK Flexibility Score: inf
ROOT
ATOM      1  C   UNL A   1      31.890  30.324  26.347  1.00  0.00     0.117 C 
ENDROOT
BRANCH   1   2
ATOM      2  N   UNL A   1      32.368  30.076  24.993  1.00  0.00    -0.356 N 
ATOM      3  C   UNL A   1      32.154  28.999  24.172  1.00  0.00     0.224 C 
ATOM      4  O   UNL A   1      32.636  29.020  23.040  1.00  0.00    -0.275 OA
ATOM      5  H   UNL A   1      32.928  30.789  24.610  1.00  0.00     0.163 HD
BRANCH   3   6
ATOM      6  C   UNL A   1      31.213  27.897  24.657  1.00  0.00     0.098 C 
ATOM      7  C   UNL A   1      31.794  26.489  25.095  1.00  0.00     0.099 C 
ATOM      8  C   UNL A   1      31.134  25.545  24.053  1.00  0.00     0.025 C 
ATOM      9  C   UNL A   1      30.250  27.516  23.490  1.00  0.00     0.025 C 
ATOM     10  C   UNL A   1      31.615  25.859  22.662  1.00  0.00    -0.027 C 
ATOM     11  C   UNL A   1      29.729  26.164  23.966  1.00  0.00     0.017 C 
ATOM     12  C   UNL A   1      31.058  27.025  22.308  1.00  0.00    -0.027 C 
BRANCH   7  13
ATOM     13  C   UNL A   1      33.306  26.437  25.327  1.00  0.00     0.229 C 
ATOM     14  N   UNL A   1      34.034  25.300  25.108  1.00  0.00    -0.317 N 
ATOM     15  H   UNL A   1      34.941  25.446  24.751  1.00  0.00     0.170 HD
ATOM     16  O   UNL A   1      33.899  27.414  25.796  1.00  0.00    -0.274 OA
BRANCH  14  17
ATOM     17  C   UNL A   1      33.690  23.975  25.315  1.00  0.00     0.108 A 
ATOM     18  C   UNL A   1      33.448  21.665  25.117  1.00  0.00     0.007 A 
ATOM     19  C   UNL A   1      32.648  21.959  26.208  1.00  0.00     0.076 A 
ATOM     20  C   UNL A   1      34.139  22.849  24.625  1.00  0.00     0.082 A 
ATOM     21  S   UNL A   1      32.760  23.583  26.685  1.00  0.00    -0.125 S 
BRANCH  18  22
ATOM     22  C   UNL A   1      33.482  20.282  24.650  1.00  0.00    -0.017 A 
ATOM     23  C   UNL A   1      33.995  16.380  22.900  1.00  0.00     0.044 C 
ATOM     24  C   UNL A   1      33.753  17.684  23.600  1.00  0.00    -0.051 A 
ATOM     25  C   UNL A   1      34.740  18.207  24.440  1.00  0.00     0.004 A 
ATOM     26  C   UNL A   1      32.604  18.445  23.340  1.00  0.00     0.004 A 
ATOM     27  C   UNL A   1      34.592  19.484  24.978  1.00  0.00     0.009 A 
ATOM     28  C   UNL A   1      32.466  19.740  23.861  1.00  0.00     0.009 A 
ENDBRANCH  18  22
BRANCH  20  29
ATOM     29  C   UNL A   1      34.965  23.010  23.429  1.00  0.00     0.255 C 
ATOM     30  O   UNL A   1      34.421  23.148  22.329  1.00  0.00    -0.269 OA
ATOM     31  N   UNL A   1      36.337  23.092  23.414  1.00  0.00    -0.349 N 
ATOM     32  H   UNL A   1      36.672  23.194  22.494  1.00  0.00     0.164 HD
BRANCH  31  33
ATOM     33  C   UNL A   1      37.410  23.074  24.348  1.00  0.00     0.082 C 
ATOM     34  C   UNL A   1      37.405  22.982  25.833  1.00  0.00     0.027 C 
ATOM     35  C   UNL A   1      37.698  21.756  25.021  1.00  0.00     0.027 C 
ENDBRANCH  31  33
ENDBRANCH  20  29
ENDBRANCH  14  17
ENDBRANCH   7  13
ENDBRANCH   3   6
ENDBRANCH   1   2
BRANCH   1  36
ATOM     36  C   UNL A   1      32.898  29.865  27.398  1.00  0.00     0.042 C 
BRANCH  36  37
ATOM     37  C   UNL A   1      34.337  30.018  26.915  1.00  0.00     0.118 C 
BRANCH  37  38
ATOM     38  N   UNL A   1      35.003  31.205  27.439  1.00  0.00    -0.352 N 
ATOM     39  C   UNL A   1      36.177  31.263  28.168  1.00  0.00     0.251 C 
ATOM     40  H   UNL A   1      34.565  32.067  27.251  1.00  0.00     0.163 HD
ATOM     41  O   UNL A   1      36.527  32.268  28.765  1.00  0.00    -0.269 OA
BRANCH  39  42
ATOM     42  C   UNL A   1      37.066  30.086  28.092  1.00  0.00     0.039 A 
ATOM     43  C   UNL A   1      37.123  29.257  29.220  1.00  0.00     0.014 A 
ATOM     44  C   UNL A   1      38.005  29.979  27.071  1.00  0.00     0.014 A 
ATOM     45  C   UNL A   1      38.228  28.430  29.406  1.00  0.00     0.010 A 
ATOM     46  C   UNL A   1      39.141  29.226  27.300  1.00  0.00     0.010 A 
ATOM     47  C   UNL A   1      39.275  28.488  28.487  1.00  0.00    -0.014 A 
BRANCH  47  48
ATOM     48  C   UNL A   1      40.589  27.898  28.725  1.00  0.00     0.031 A 
ATOM     49  C   UNL A   1      40.852  26.481  28.372  1.00  0.00     0.074 A 
ATOM     50  C   UNL A   1      41.606  28.667  29.178  1.00  0.00     0.049 A 
ATOM     51  N   UNL A   1      41.796  25.759  28.881  1.00  0.00    -0.248 NA
ATOM     52  C   UNL A   1      40.006  25.744  27.440  1.00  0.00     0.031 C 
ATOM     53  C   UNL A   1      43.028  28.339  29.135  1.00  0.00     0.029 A 
ATOM     54  N   UNL A   1      41.548  29.818  29.966  1.00  0.00    -0.354 N 
ATOM     55  C   UNL A   1      41.875  24.600  28.138  1.00  0.00     0.074 A 
ATOM     56  C   UNL A   1      40.685  24.600  27.319  1.00  0.00     0.031 C 
ATOM     57  C   UNL A   1      43.661  29.055  30.076  1.00  0.00     0.029 A 
ATOM     58  C   UNL A   1      42.642  29.752  30.843  1.00  0.00     0.049 A 
ATOM     59  H   UNL A   1      40.875  30.535  29.916  1.00  0.00     0.167 HD
ATOM     60  C   UNL A   1      43.005  23.837  28.177  1.00  0.00     0.031 A 
ATOM     61  C   UNL A   1      42.547  29.752  32.205  1.00  0.00     0.031 A 
ATOM     62  C   UNL A   1      43.978  24.347  29.141  1.00  0.00     0.049 A 
ATOM     63  C   UNL A   1      43.198  28.546  32.843  1.00  0.00     0.074 A 
ATOM     64  C   UNL A   1      45.120  25.119  29.001  1.00  0.00     0.029 A 
ATOM     65  N   UNL A   1      43.687  24.312  30.500  1.00  0.00    -0.354 N 
ATOM     66  N   UNL A   1      43.525  27.469  32.187  1.00  0.00    -0.248 NA
ATOM     67  C   UNL A   1      43.476  28.431  34.274  1.00  0.00     0.031 C 
ATOM     68  C   UNL A   1      45.470  25.617  30.281  1.00  0.00     0.029 A 
ATOM     69  C   UNL A   1      44.557  25.127  31.198  1.00  0.00     0.049 A 
ATOM     70  H   UNL A   1      42.964  23.782  30.907  1.00  0.00     0.167 HD
ATOM     71  C   UNL A   1      44.026  26.536  33.054  1.00  0.00     0.074 A 
ATOM     72  C   UNL A   1      43.986  27.189  34.350  1.00  0.00     0.031 C 
ATOM     73  C   UNL A   1      44.420  25.299  32.637  1.00  0.00     0.031 A 
BRANCH  60  74
ATOM     74  C   UNL A   1      43.354  22.814  27.111  1.00  0.00    -0.014 A 
ATOM     75  C   UNL A   1      42.542  21.670  26.951  1.00  0.00     0.010 A 
ATOM     76  C   UNL A   1      44.492  22.877  26.286  1.00  0.00     0.010 A 
ATOM     77  C   UNL A   1      42.905  20.605  26.113  1.00  0.00     0.020 A 
ATOM     78  C   UNL A   1      44.892  21.805  25.473  1.00  0.00     0.020 A 
ATOM     79  C   UNL A   1      44.101  20.663  25.404  1.00  0.00     0.054 A 
BRANCH  79  80
ATOM     80  S   UNL A   1      44.611  19.239  24.406  1.00  0.00     0.124 S 
ATOM     81  O   UNL A   1      43.708  18.188  24.869  1.00  0.00    -0.237 OA
ATOM     82  O   UNL A   1      44.384  19.711  23.044  1.00  0.00    -0.237 OA
ATOM     83  O   UNL A   1      46.015  19.047  24.769  1.00  0.00    -0.744 OA
ENDBRANCH  79  80
ENDBRANCH  60  74
BRANCH  61  84
ATOM     84  C   UNL A   1      41.350  30.450  32.744  1.00  0.00    -0.014 A 
ATOM     85  C   UNL A   1      40.195  29.672  32.969  1.00  0.00     0.010 A 
ATOM     86  C   UNL A   1      41.490  31.679  33.411  1.00  0.00     0.010 A 
ATOM     87  C   UNL A   1      39.292  30.023  33.973  1.00  0.00     0.020 A 
ATOM     88  C   UNL A   1      40.582  32.034  34.418  1.00  0.00     0.020 A 
ATOM     89  C   UNL A   1      39.532  31.167  34.736  1.00  0.00     0.054 A 
BRANCH  89  90
ATOM     90  S   UNL A   1      38.577  31.379  36.269  1.00  0.00     0.124 S 
ATOM     91  O   UNL A   1      39.517  32.091  37.129  1.00  0.00    -0.237 OA
ATOM     92  O   UNL A   1      37.433  32.163  35.804  1.00  0.00    -0.237 OA
ATOM     93  O   UNL A   1      38.273  30.008  36.667  1.00  0.00    -0.744 OA
ENDBRANCH  89  90
ENDBRANCH  61  84
BRANCH  73  94
ATOM     94  C   UNL A   1      44.801  24.162  33.546  1.00  0.00    -0.014 A 
ATOM     95  C   UNL A   1      44.031  22.997  33.695  1.00  0.00     0.010 A 
ATOM     96  C   UNL A   1      46.058  24.196  34.192  1.00  0.00     0.010 A 
ATOM     97  C   UNL A   1      44.463  21.943  34.512  1.00  0.00     0.020 A 
ATOM     98  C   UNL A   1      46.515  23.135  34.978  1.00  0.00     0.020 A 
ATOM     99  C   UNL A   1      45.699  22.021  35.156  1.00  0.00     0.054 A 
BRANCH  99 100
ATOM    100  S   UNL A   1      46.274  20.636  36.170  1.00  0.00     0.124 S 
ATOM    101  O   UNL A   1      45.371  19.565  35.755  1.00  0.00    -0.237 OA
ATOM    102  O   UNL A   1      47.665  20.475  35.754  1.00  0.00    -0.237 OA
ATOM    103  O   UNL A   1      46.092  21.115  37.537  1.00  0.00    -0.744 OA
ENDBRANCH  99 100
ENDBRANCH  73  94
ENDBRANCH  47  48
ENDBRANCH  39  42
ENDBRANCH  37  38
ENDBRANCH  36  37
ENDBRANCH   1  36
TORSDOF 18
ENDMDL
MODEL 2
REMARK VINA RESULT:     -13.5      1.454      2.051
REMARK SMILES Cc1ccc(-c2csc(NC(=O)[C@H]3[C@@H](C(=O)NCCCNC(=O)c4ccc(-c5c6nc(c(-c7ccc(S(=O)(=O)[O-])cc7)c7ccc([nH]7)c(-c7ccc(S(=O)(=O)[O-])cc7)c7nc(c(-c8ccc(S(=O)(=O)[O-])cc8)c8ccc5[nH]8)C=C7)C=C6)cc4)[C@H]4C=C[C@@H]3C4)c2C(=O)NC2CC2)cc1
REMARK SMILES IDX 18 1 17 2 15 3 16 4 14 6 13 7 87 8 84 9 86 10 88 11 85 12
REMARK SMILES IDX 11 13 10 14 12 16 9 17 6 18 7 19 89 20 8 21 5 22 1 23 2 24
REMARK SMILES IDX 3 25 97 26 4 27 96 28 90 29 91 30 92 31 93 33 94 34 95 35
REMARK SMILES IDX 19 36 20 37 21 38 22 39 23 41 24 42 25 43 83 44 26 45 82 46
REMARK SMILES IDX 27 47 28 48 29 49 76 50 30 51 81 52 75 53 77 54 31 55 80 56
REMARK SMILES IDX 74 57 73 58 32 60 62 61 43 62 61 63 44 64 47 65 60 66 78 67
REMARK SMILES IDX 45 68 46 69 59 71 79 72 48 73 33 74 34 75 42 76 35 77 41 78
REMARK SMILES IDX 36 79 37 80 38 81 39 82 40 83 63 84 64 85 72 86 65 87 71 88
REMARK SMILES IDX 66 89 67 90 68 91 69 92 70 93 49 94 50 95 58 96 51 97 57 98
REMARK SMILES IDX 52 99 53 100 54 101 55 102 56 103
REMARK H PARENT 17 5 10 15 92 32 21 40 77 59 47 70
REMARK Flexibility Score: inf
ROOT
ATOM      1  C   UNL A   1      32.933  29.826  26.195  1.00  0.00     0.117 C 
ENDROOT
BRANCH   1   2
ATOM      2  N   UNL A   1      32.967  29.856  24.738  1.00  0.00    -0.356 N 
ATOM      3  C   UNL A   1      32.402  28.998  23.831  1.00  0.00     0.224 C 
ATOM      4  O   UNL A   1      32.536  29.241  22.632  1.00  0.00    -0.275 OA
ATOM      5  H   UNL A   1      33.473  30.605  24.347  1.00  0.00     0.163 HD
BRANCH   3   6
ATOM      6  C   UNL A   1      31.518  27.868  24.359  1.00  0.00     0.098 C 
ATOM      7  C   UNL A   1      32.024  26.368  24.301  1.00  0.00     0.099 C 
ATOM      8  C   UNL A   1      30.974  25.724  23.355  1.00  0.00     0.025 C 
ATOM      9  C   UNL A   1      30.213  27.817  23.505  1.00  0.00     0.025 C 
ATOM     10  C   UNL A   1      31.056  26.319  21.976  1.00  0.00    -0.027 C 
ATOM     11  C   UNL A   1      29.694  26.423  23.843  1.00  0.00     0.017 C 
ATOM     12  C   UNL A   1      30.567  27.564  22.056  1.00  0.00    -0.027 C 
BRANCH   7  13
ATOM     13  C   UNL A   1      33.518  26.181  24.028  1.00  0.00     0.229 C 
ATOM     14  N   UNL A   1      33.990  25.172  23.233  1.00  0.00    -0.317 N 
ATOM     15  H   UNL A   1      34.775  25.404  22.685  1.00  0.00     0.170 HD
ATOM     16  O   UNL A   1      34.350  26.902  24.589  1.00  0.00    -0.274 OA
BRANCH  14  17
ATOM     17  C   UNL A   1      33.530  23.876  23.083  1.00  0.00     0.108 A 
ATOM     18  C   UNL A   1      32.944  21.648  23.449  1.00  0.00     0.007 A 
ATOM     19  C   UNL A   1      32.684  21.810  22.099  1.00  0.00     0.076 A 
ATOM     20  C   UNL A   1      33.373  22.897  24.066  1.00  0.00     0.082 A 
ATOM     21  S   UNL A   1      32.875  23.414  21.582  1.00  0.00    -0.125 S 
BRANCH  18  22
ATOM     22  C   UNL A   1      32.755  20.320  24.024  1.00  0.00    -0.017 A 
ATOM     23  C   UNL A   1      32.774  16.404  25.818  1.00  0.00     0.044 C 
ATOM     24  C   UNL A   1      32.645  17.767  25.205  1.00  0.00    -0.051 A 
ATOM     25  C   UNL A   1      32.829  18.900  26.001  1.00  0.00     0.004 A 
ATOM     26  C   UNL A   1      32.455  17.926  23.824  1.00  0.00     0.004 A 
ATOM     27  C   UNL A   1      32.860  20.164  25.417  1.00  0.00     0.009 A 
ATOM     28  C   UNL A   1      32.511  19.197  23.233  1.00  0.00     0.009 A 
ENDBRANCH  18  22
BRANCH  20  29
ATOM     29  C   UNL A   1      33.869  23.139  25.419  1.00  0.00     0.255 C 
ATOM     30  O   UNL A   1      35.080  23.064  25.646  1.00  0.00    -0.269 OA
ATOM     31  N   UNL A   1      33.099  23.522  26.492  1.00  0.00    -0.349 N 
ATOM     32  H   UNL A   1      33.650  23.620  27.302  1.00  0.00     0.164 HD
BRANCH  31  33
ATOM     33  C   UNL A   1      31.735  23.816  26.766  1.00  0.00     0.082 C 
ATOM     34  C   UNL A   1      30.486  23.332  26.117  1.00  0.00     0.027 C 
ATOM     35  C   UNL A   1      30.923  22.723  27.416  1.00  0.00     0.027 C 
ENDBRANCH  31  33
ENDBRANCH  20  29
ENDBRANCH  14  17
ENDBRANCH   7  13
ENDBRANCH   3   6
ENDBRANCH   1   2
BRANCH   1  36
ATOM     36  C   UNL A   1      34.244  29.314  26.784  1.00  0.00     0.042 C 
BRANCH  36  37
ATOM     37  C   UNL A   1      34.414  29.726  28.243  1.00  0.00     0.118 C 
BRANCH  37  38
ATOM     38  N   UNL A   1      35.141  30.979  28.414  1.00  0.00    -0.352 N 
ATOM     39  C   UNL A   1      36.450  31.146  28.831  1.00  0.00     0.251 C 
ATOM     40  H   UNL A   1      34.642  31.802  28.207  1.00  0.00     0.163 HD
ATOM     41  O   UNL A   1      36.893  32.230  29.172  1.00  0.00    -0.269 OA
BRANCH  39  42
ATOM     42  C   UNL A   1      37.338  29.970  28.725  1.00  0.00     0.039 A 
ATOM     43  C   UNL A   1      37.446  29.152  29.856  1.00  0.00     0.014 A 
ATOM     44  C   UNL A   1      38.231  29.858  27.664  1.00  0.00     0.014 A 
ATOM     45  C   UNL A   1      38.560  28.329  30.000  1.00  0.00     0.010 A 
ATOM     46  C   UNL A   1      39.378  29.109  27.849  1.00  0.00     0.010 A 
ATOM     47  C   UNL A   1      39.566  28.381  29.035  1.00  0.00    -0.014 A 
BRANCH  47  48
ATOM     48  C   UNL A   1      40.891  27.796  29.220  1.00  0.00     0.031 A 
ATOM     49  C   UNL A   1      41.169  26.410  28.772  1.00  0.00     0.074 A 
ATOM     50  C   UNL A   1      41.902  28.549  29.712  1.00  0.00     0.049 A 
ATOM     51  N   UNL A   1      42.129  25.669  29.222  1.00  0.00    -0.248 NA
ATOM     52  C   UNL A   1      40.323  25.723  27.802  1.00  0.00     0.031 C 
ATOM     53  C   UNL A   1      43.328  28.245  29.632  1.00  0.00     0.029 A 
ATOM     54  N   UNL A   1      41.837  29.645  30.574  1.00  0.00    -0.354 N 
ATOM     55  C   UNL A   1      42.216  24.563  28.404  1.00  0.00     0.074 A 
ATOM     56  C   UNL A   1      41.017  24.600  27.600  1.00  0.00     0.031 C 
ATOM     57  C   UNL A   1      43.962  28.907  30.611  1.00  0.00     0.029 A 
ATOM     58  C   UNL A   1      42.942  29.537  31.434  1.00  0.00     0.049 A 
ATOM     59  H   UNL A   1      41.153  30.353  30.578  1.00  0.00     0.167 HD
ATOM     60  C   UNL A   1      43.357  23.816  28.380  1.00  0.00     0.031 A 
ATOM     61  C   UNL A   1      42.863  29.447  32.793  1.00  0.00     0.031 A 
ATOM     62  C   UNL A   1      44.333  24.276  29.365  1.00  0.00     0.049 A 
ATOM     63  C   UNL A   1      43.538  28.212  33.344  1.00  0.00     0.074 A 
ATOM     64  C   UNL A   1      45.463  25.072  29.264  1.00  0.00     0.029 A 
ATOM     65  N   UNL A   1      44.059  24.147  30.722  1.00  0.00    -0.354 N 
ATOM     66  N   UNL A   1      43.872  27.184  32.615  1.00  0.00    -0.248 NA
ATOM     67  C   UNL A   1      43.834  28.007  34.761  1.00  0.00     0.031 C 
ATOM     68  C   UNL A   1      45.820  25.490  30.571  1.00  0.00     0.029 A 
ATOM     69  C   UNL A   1      44.926  24.928  31.463  1.00  0.00     0.049 A 
ATOM     70  H   UNL A   1      43.348  23.581  31.101  1.00  0.00     0.167 HD
ATOM     71  C   UNL A   1      44.396  26.204  33.413  1.00  0.00     0.074 A 
ATOM     72  C   UNL A   1      44.362  26.770  34.749  1.00  0.00     0.031 C 
ATOM     73  C   UNL A   1      44.802  25.003  32.912  1.00  0.00     0.031 A 
BRANCH  60  74
ATOM     74  C   UNL A   1      43.708  22.870  27.246  1.00  0.00    -0.014 A 
ATOM     75  C   UNL A   1      42.866  21.771  26.971  1.00  0.00     0.010 A 
ATOM     76  C   UNL A   1      44.873  22.961  26.463  1.00  0.00     0.010 A 
ATOM     77  C   UNL A   1      43.222  20.764  26.060  1.00  0.00     0.020 A 
ATOM     78  C   UNL A   1      45.265  21.944  25.578  1.00  0.00     0.020 A 
ATOM     79  C   UNL A   1      44.441  20.839  25.393  1.00  0.00     0.054 A 
BRANCH  79  80
ATOM     80  S   UNL A   1      44.939  19.483  24.299  1.00  0.00     0.124 S 
ATOM     81  O   UNL A   1      44.213  18.344  24.856  1.00  0.00    -0.237 OA
ATOM     82  O   UNL A   1      44.479  19.947  22.994  1.00  0.00    -0.237 OA
ATOM     83  O   UNL A   1      46.391  19.424  24.459  1.00  0.00    -0.744 OA
ENDBRANCH  79  80
ENDBRANCH  60  74
BRANCH  61  84
ATOM     84  C   UNL A   1      41.662  30.090  33.389  1.00  0.00    -0.014 A 
ATOM     85  C   UNL A   1      41.643  31.499  33.443  1.00  0.00     0.010 A 
ATOM     86  C   UNL A   1      40.449  29.384  33.467  1.00  0.00     0.010 A 
ATOM     87  C   UNL A   1      40.433  32.192  33.390  1.00  0.00     0.020 A 
ATOM     88  C   UNL A   1      39.232  30.079  33.417  1.00  0.00     0.020 A 
ATOM     89  C   UNL A   1      39.240  31.473  33.308  1.00  0.00     0.054 A 
BRANCH  89  90
ATOM     90  S   UNL A   1      37.734  32.381  32.846  1.00  0.00     0.124 S 
ATOM     91  O   UNL A   1      38.229  33.325  31.848  1.00  0.00    -0.237 OA
ATOM     92  O   UNL A   1      36.883  31.309  32.328  1.00  0.00    -0.237 OA
ATOM     93  O   UNL A   1      37.295  32.970  34.107  1.00  0.00    -0.744 OA
ENDBRANCH  89  90
ENDBRANCH  61  84
BRANCH  73  94
ATOM     94  C   UNL A   1      45.210  23.815  33.740  1.00  0.00    -0.014 A 
ATOM     95  C   UNL A   1      44.385  22.698  33.953  1.00  0.00     0.010 A 
ATOM     96  C   UNL A   1      46.534  23.745  34.230  1.00  0.00     0.010 A 
ATOM     97  C   UNL A   1      44.837  21.592  34.686  1.00  0.00     0.020 A 
ATOM     98  C   UNL A   1      47.007  22.631  34.929  1.00  0.00     0.020 A 
ATOM     99  C   UNL A   1      46.143  21.569  35.177  1.00  0.00     0.054 A 
BRANCH  99 100
ATOM    100  S   UNL A   1      46.738  20.116  36.079  1.00  0.00     0.124 S 
ATOM    101  O   UNL A   1      46.373  20.447  37.455  1.00  0.00    -0.237 OA
ATOM    102  O   UNL A   1      45.982  19.020  35.479  1.00  0.00    -0.237 OA
ATOM    103  O   UNL A   1      48.171  20.102  35.797  1.00  0.00    -0.744 OA
ENDBRANCH  99 100
ENDBRANCH  73  94
ENDBRANCH  47  48
ENDBRANCH  39  42
ENDBRANCH  37  38
ENDBRANCH  36  37
ENDBRANCH   1  36
TORSDOF 18
ENDMDL
MODEL 3
REMARK VINA RESULT:     -12.8      1.828      2.558
REMARK SMILES Cc1ccc(-c2csc(NC(=O)[C@H]3[C@@H](C(=O)NCCCNC(=O)c4ccc(-c5c6nc(c(-c7ccc(S(=O)(=O)[O-])cc7)c7ccc([nH]7)c(-c7ccc(S(=O)(=O)[O-])cc7)c7nc(c(-c8ccc(S(=O)(=O)[O-])cc8)c8ccc5[nH]8)C=C7)C=C6)cc4)[C@H]4C=C[C@@H]3C4)c2C(=O)NC2CC2)cc1
REMARK SMILES IDX 18 1 17 2 15 3 16 4 14 6 13 7 87 8 84 9 86 10 88 11 85 12
REMARK SMILES IDX 11 13 10 14 12 16 9 17 6 18 7 19 89 20 8 21 5 22 1 23 2 24
REMARK SMILES IDX 3 25 97 26 4 27 96 28 90 29 91 30 92 31 93 33 94 34 95 35
REMARK SMILES IDX 19 36 20 37 21 38 22 39 23 41 24 42 25 43 83 44 26 45 82 46
REMARK SMILES IDX 27 47 28 48 29 49 76 50 30 51 81 52 75 53 77 54 31 55 80 56
REMARK SMILES IDX 74 57 73 58 32 60 62 61 43 62 61 63 44 64 47 65 60 66 78 67
REMARK SMILES IDX 45 68 46 69 59 71 79 72 48 73 33 74 34 75 42 76 35 77 41 78
REMARK SMILES IDX 36 79 37 80 38 81 39 82 40 83 63 84 64 85 72 86 65 87 71 88
REMARK SMILES IDX 66 89 67 90 68 91 69 92 70 93 49 94 50 95 58 96 51 97 57 98
REMARK SMILES IDX 52 99 53 100 54 101 55 102 56 103
REMARK H PARENT 17 5 10 15 92 32 21 40 77 59 47 70
REMARK Flexibility Score: inf
ROOT
ATOM      1  C   UNL A   1      31.928  30.205  25.634  1.00  0.00     0.117 C 
ENDROOT
BRANCH   1   2
ATOM      2  N   UNL A   1      31.871  29.517  24.350  1.00  0.00    -0.356 N 
ATOM      3  C   UNL A   1      31.535  28.219  24.066  1.00  0.00     0.224 C 
ATOM      4  O   UNL A   1      31.524  27.860  22.889  1.00  0.00    -0.275 OA
ATOM      5  H   UNL A   1      32.111  30.068  23.569  1.00  0.00     0.163 HD
BRANCH   3   6
ATOM      6  C   UNL A   1      31.055  27.330  25.213  1.00  0.00     0.098 C 
ATOM      7  C   UNL A   1      32.002  26.202  25.796  1.00  0.00     0.099 C 
ATOM      8  C   UNL A   1      31.192  24.917  25.470  1.00  0.00     0.025 C 
ATOM      9  C   UNL A   1      29.819  26.512  24.724  1.00  0.00     0.025 C 
ATOM     10  C   UNL A   1      31.065  24.725  23.983  1.00  0.00    -0.027 C 
ATOM     11  C   UNL A   1      29.764  25.404  25.772  1.00  0.00     0.017 C 
ATOM     12  C   UNL A   1      30.214  25.660  23.538  1.00  0.00    -0.027 C 
BRANCH   7  13
ATOM     13  C   UNL A   1      33.477  26.300  25.398  1.00  0.00     0.229 C 
ATOM     14  N   UNL A   1      34.202  25.201  25.026  1.00  0.00    -0.317 N 
ATOM     15  H   UNL A   1      34.867  25.360  24.317  1.00  0.00     0.170 HD
ATOM     16  O   UNL A   1      34.073  27.379  25.475  1.00  0.00    -0.274 OA
BRANCH  14  17
ATOM     17  C   UNL A   1      34.142  23.902  25.497  1.00  0.00     0.108 A 
ATOM     18  C   UNL A   1      34.053  21.577  25.657  1.00  0.00     0.007 A 
ATOM     19  C   UNL A   1      33.912  21.975  26.976  1.00  0.00     0.076 A 
ATOM     20  C   UNL A   1      34.272  22.715  24.774  1.00  0.00     0.082 A 
ATOM     21  S   UNL A   1      34.101  23.649  27.179  1.00  0.00    -0.125 S 
BRANCH  18  22
ATOM     22  C   UNL A   1      33.971  20.149  25.366  1.00  0.00    -0.017 A 
ATOM     23  C   UNL A   1      33.689  16.094  23.941  1.00  0.00     0.044 C 
ATOM     24  C   UNL A   1      33.823  17.460  24.546  1.00  0.00    -0.051 A 
ATOM     25  C   UNL A   1      34.994  18.192  24.339  1.00  0.00     0.004 A 
ATOM     26  C   UNL A   1      32.750  18.063  25.219  1.00  0.00     0.004 A 
ATOM     27  C   UNL A   1      35.074  19.515  24.767  1.00  0.00     0.009 A 
ATOM     28  C   UNL A   1      32.820  19.403  25.627  1.00  0.00     0.009 A 
ENDBRANCH  18  22
BRANCH  20  29
ATOM     29  C   UNL A   1      34.337  22.756  23.314  1.00  0.00     0.255 C 
ATOM     30  O   UNL A   1      35.326  23.248  22.763  1.00  0.00    -0.269 OA
ATOM     31  N   UNL A   1      33.400  22.221  22.461  1.00  0.00    -0.349 N 
ATOM     32  H   UNL A   1      33.653  22.375  21.522  1.00  0.00     0.164 HD
BRANCH  31  33
ATOM     33  C   UNL A   1      32.171  21.510  22.547  1.00  0.00     0.082 C 
ATOM     34  C   UNL A   1      31.347  20.862  21.491  1.00  0.00     0.027 C 
ATOM     35  C   UNL A   1      32.239  20.016  22.350  1.00  0.00     0.027 C 
ENDBRANCH  31  33
ENDBRANCH  20  29
ENDBRANCH  14  17
ENDBRANCH   7  13
ENDBRANCH   3   6
ENDBRANCH   1   2
BRANCH   1  36
ATOM     36  C   UNL A   1      33.329  30.167  26.237  1.00  0.00     0.042 C 
BRANCH  36  37
ATOM     37  C   UNL A   1      33.300  30.295  27.758  1.00  0.00     0.118 C 
BRANCH  37  38
ATOM     38  N   UNL A   1      33.777  31.584  28.242  1.00  0.00    -0.352 N 
ATOM     39  C   UNL A   1      34.913  31.838  28.990  1.00  0.00     0.251 C 
ATOM     40  H   UNL A   1      33.226  32.367  28.010  1.00  0.00     0.163 HD
ATOM     41  O   UNL A   1      35.102  32.906  29.550  1.00  0.00    -0.269 OA
BRANCH  39  42
ATOM     42  C   UNL A   1      35.963  30.798  28.980  1.00  0.00     0.039 A 
ATOM     43  C   UNL A   1      36.191  30.114  30.180  1.00  0.00     0.014 A 
ATOM     44  C   UNL A   1      36.861  30.716  27.921  1.00  0.00     0.014 A 
ATOM     45  C   UNL A   1      37.413  29.478  30.383  1.00  0.00     0.010 A 
ATOM     46  C   UNL A   1      38.104  30.161  28.156  1.00  0.00     0.010 A 
ATOM     47  C   UNL A   1      38.399  29.584  29.402  1.00  0.00    -0.014 A 
BRANCH  47  48
ATOM     48  C   UNL A   1      39.795  29.217  29.619  1.00  0.00     0.031 A 
ATOM     49  C   UNL A   1      40.319  27.924  29.114  1.00  0.00     0.074 A 
ATOM     50  C   UNL A   1      40.645  30.096  30.197  1.00  0.00     0.049 A 
ATOM     51  N   UNL A   1      41.372  27.327  29.571  1.00  0.00    -0.248 NA
ATOM     52  C   UNL A   1      39.638  27.165  28.070  1.00  0.00     0.031 C 
ATOM     53  C   UNL A   1      42.104  30.038  30.170  1.00  0.00     0.029 A 
ATOM     54  N   UNL A   1      40.364  31.113  31.111  1.00  0.00    -0.354 N 
ATOM     55  C   UNL A   1      41.674  26.301  28.701  1.00  0.00     0.074 A 
ATOM     56  C   UNL A   1      40.518  26.186  27.844  1.00  0.00     0.031 C 
ATOM     57  C   UNL A   1      42.580  30.736  31.211  1.00  0.00     0.029 A 
ATOM     58  C   UNL A   1      41.438  31.139  32.016  1.00  0.00     0.049 A 
ATOM     59  H   UNL A   1      39.572  31.697  31.119  1.00  0.00     0.167 HD
ATOM     60  C   UNL A   1      42.925  25.756  28.694  1.00  0.00     0.031 A 
ATOM     61  C   UNL A   1      41.322  30.957  33.363  1.00  0.00     0.031 A 
ATOM     62  C   UNL A   1      43.771  26.312  29.747  1.00  0.00     0.049 A 
ATOM     63  C   UNL A   1      42.173  29.820  33.881  1.00  0.00     0.074 A 
ATOM     64  C   UNL A   1      44.754  27.288  29.741  1.00  0.00     0.029 A 
ATOM     65  N   UNL A   1      43.470  26.060  31.081  1.00  0.00    -0.354 N 
ATOM     66  N   UNL A   1      42.704  28.907  33.117  1.00  0.00    -0.248 NA
ATOM     67  C   UNL A   1      42.445  29.584  35.298  1.00  0.00     0.031 C 
ATOM     68  C   UNL A   1      44.986  27.683  31.084  1.00  0.00     0.029 A 
ATOM     69  C   UNL A   1      44.165  26.928  31.902  1.00  0.00     0.049 A 
ATOM     70  H   UNL A   1      42.851  25.363  31.395  1.00  0.00     0.167 HD
ATOM     71  C   UNL A   1      43.353  27.981  33.888  1.00  0.00     0.074 A 
ATOM     72  C   UNL A   1      43.174  28.454  35.248  1.00  0.00     0.031 C 
ATOM     73  C   UNL A   1      43.974  26.896  33.345  1.00  0.00     0.031 A 
BRANCH  60  74
ATOM     74  C   UNL A   1      43.473  24.949  27.530  1.00  0.00    -0.014 A 
ATOM     75  C   UNL A   1      43.564  23.545  27.638  1.00  0.00     0.010 A 
ATOM     76  C   UNL A   1      43.975  25.507  26.340  1.00  0.00     0.010 A 
ATOM     77  C   UNL A   1      44.221  22.761  26.677  1.00  0.00     0.020 A 
ATOM     78  C   UNL A   1      44.671  24.744  25.389  1.00  0.00     0.020 A 
ATOM     79  C   UNL A   1      44.805  23.373  25.571  1.00  0.00     0.054 A 
BRANCH  79  80
ATOM     80  S   UNL A   1      45.741  22.365  24.391  1.00  0.00     0.124 S 
ATOM     81  O   UNL A   1      46.639  23.343  23.782  1.00  0.00    -0.237 OA
ATOM     82  O   UNL A   1      46.377  21.377  25.256  1.00  0.00    -0.237 OA
ATOM     83  O   UNL A   1      44.713  21.835  23.497  1.00  0.00    -0.744 OA
ENDBRANCH  79  80
ENDBRANCH  60  74
BRANCH  61  84
ATOM     84  C   UNL A   1      40.009  31.356  33.934  1.00  0.00    -0.014 A 
ATOM     85  C   UNL A   1      39.797  32.730  34.170  1.00  0.00     0.010 A 
ATOM     86  C   UNL A   1      38.898  30.501  33.815  1.00  0.00     0.010 A 
ATOM     87  C   UNL A   1      38.511  33.268  34.105  1.00  0.00     0.020 A 
ATOM     88  C   UNL A   1      37.606  31.040  33.752  1.00  0.00     0.020 A 
ATOM     89  C   UNL A   1      37.433  32.426  33.828  1.00  0.00     0.054 A 
BRANCH  89  90
ATOM     90  S   UNL A   1      35.854  33.197  33.361  1.00  0.00     0.124 S 
ATOM     91  O   UNL A   1      36.285  34.350  32.579  1.00  0.00    -0.237 OA
ATOM     92  O   UNL A   1      35.211  32.126  32.599  1.00  0.00    -0.237 OA
ATOM     93  O   UNL A   1      35.237  33.503  34.648  1.00  0.00    -0.744 OA
ENDBRANCH  89  90
ENDBRANCH  61  84
BRANCH  73  94
ATOM     94  C   UNL A   1      44.543  25.745  34.129  1.00  0.00    -0.014 A 
ATOM     95  C   UNL A   1      45.918  25.472  34.218  1.00  0.00     0.010 A 
ATOM     96  C   UNL A   1      43.674  24.966  34.928  1.00  0.00     0.010 A 
ATOM     97  C   UNL A   1      46.398  24.420  35.011  1.00  0.00     0.020 A 
ATOM     98  C   UNL A   1      44.147  23.940  35.750  1.00  0.00     0.020 A 
ATOM     99  C   UNL A   1      45.509  23.655  35.766  1.00  0.00     0.054 A 
BRANCH  99 100
ATOM    100  S   UNL A   1      46.139  22.330  36.828  1.00  0.00     0.124 S 
ATOM    101  O   UNL A   1      47.584  22.471  36.658  1.00  0.00    -0.237 OA
ATOM    102  O   UNL A   1      45.627  22.690  38.147  1.00  0.00    -0.237 OA
ATOM    103  O   UNL A   1      45.555  21.123  36.249  1.00  0.00    -0.744 OA
ENDBRANCH  99 100
ENDBRANCH  73  94
ENDBRANCH  47  48
ENDBRANCH  39  42
ENDBRANCH  37  38
ENDBRANCH  36  37
ENDBRANCH   1  36
TORSDOF 18
ENDMDL
