MODEL 1
REMARK VINA RESULT:     -11.4      0.000      0.000
REMARK SMILES O=C(NCCCNC(=O)[C@@]1([C@@H]2CCC[C@@H]2O)CCCc2ccccc21)c1ccc(-c2c3nc(c(-c4ccc(S(=O)(=O)[O-])cc4)c4ccc([nH]4)c(-c4ccc(S(=O)(=O)[O-])cc4)c4nc(c(-c5ccc(S(=O)(=O)[O-])cc5)c5ccc2[nH]5)C=C4)C=C3)cc1
REMARK SMILES IDX 4 1 3 2 1 3 2 4 26 6 27 7 85 8 28 9 84 10 29 11 30 12 31 13
REMARK SMILES IDX 78 14 32 15 83 16 77 17 79 18 33 19 82 20 76 21 75 22 34 24
REMARK SMILES IDX 64 25 45 26 63 27 46 28 49 29 62 30 80 31 47 32 48 33 61 35
REMARK SMILES IDX 81 36 50 37 35 38 36 39 44 40 37 41 43 42 38 43 39 44 40 45
REMARK SMILES IDX 41 46 42 47 65 48 66 49 74 50 67 51 73 52 68 53 69 54 70 55
REMARK SMILES IDX 71 56 72 57 51 58 52 59 60 60 53 61 59 62 54 63 55 64 56 65
REMARK SMILES IDX 57 66 58 67 5 68 6 69 7 70 8 71 9 73 10 74 17 75 25 76 18 77
REMARK SMILES IDX 20 78 24 79 19 80 21 81 23 82 22 83 11 84 12 85 15 86 13 87
REMARK SMILES IDX 14 88 16 89
REMARK H PARENT 3 5 79 23 49 34 7 72 16 90
REMARK Flexibility Score: inf
ROOT
ATOM      1  C   UNL A   1      33.890  28.482  27.139  1.00  0.00     0.118 C 
ENDROOT
BRANCH   1   2
ATOM      2  N   UNL A   1      33.762  29.900  27.447  1.00  0.00    -0.352 N 
ATOM      3  O   UNL A   1      34.222  31.743  28.663  1.00  0.00    -0.269 OA
ATOM      4  C   UNL A   1      34.603  30.665  28.206  1.00  0.00     0.251 C 
ATOM      5  H   UNL A   1      32.980  30.360  27.064  1.00  0.00     0.163 HD
BRANCH   4   6
ATOM      6  C   UNL A   1      35.968  30.172  28.455  1.00  0.00     0.039 A 
ATOM      7  C   UNL A   1      36.920  30.243  27.431  1.00  0.00     0.014 A 
ATOM      8  C   UNL A   1      36.300  29.653  29.705  1.00  0.00     0.014 A 
ATOM      9  C   UNL A   1      38.180  29.703  27.624  1.00  0.00     0.010 A 
ATOM     10  C   UNL A   1      37.601  29.209  29.932  1.00  0.00     0.010 A 
ATOM     11  C   UNL A   1      38.547  29.240  28.894  1.00  0.00    -0.014 A 
BRANCH  11  12
ATOM     12  C   UNL A   1      39.973  28.957  29.160  1.00  0.00     0.031 A 
ATOM     13  C   UNL A   1      40.892  30.013  29.690  1.00  0.00     0.074 A 
ATOM     14  C   UNL A   1      40.420  27.715  28.883  1.00  0.00     0.049 A 
ATOM     15  N   UNL A   1      42.175  29.932  29.920  1.00  0.00    -0.248 NA
ATOM     16  C   UNL A   1      40.306  31.329  29.994  1.00  0.00     0.031 C 
ATOM     17  C   UNL A   1      39.596  26.620  28.352  1.00  0.00     0.029 A 
ATOM     18  N   UNL A   1      41.665  27.158  29.003  1.00  0.00    -0.354 N 
ATOM     19  C   UNL A   1      42.562  31.191  30.364  1.00  0.00     0.074 A 
ATOM     20  C   UNL A   1      41.377  32.021  30.368  1.00  0.00     0.031 C 
ATOM     21  C   UNL A   1      40.350  25.522  28.219  1.00  0.00     0.029 A 
ATOM     22  C   UNL A   1      41.723  25.853  28.571  1.00  0.00     0.049 A 
ATOM     23  H   UNL A   1      42.442  27.642  29.363  1.00  0.00     0.167 HD
ATOM     24  C   UNL A   1      43.799  31.604  30.723  1.00  0.00     0.031 A 
ATOM     25  C   UNL A   1      42.772  25.026  28.424  1.00  0.00     0.031 A 
ATOM     26  C   UNL A   1      44.961  30.752  30.714  1.00  0.00     0.049 A 
ATOM     27  C   UNL A   1      44.135  25.534  28.791  1.00  0.00     0.074 A 
ATOM     28  C   UNL A   1      46.247  31.055  31.126  1.00  0.00     0.029 A 
ATOM     29  N   UNL A   1      44.985  29.444  30.254  1.00  0.00    -0.354 N 
ATOM     30  N   UNL A   1      44.469  26.702  29.288  1.00  0.00    -0.248 NA
ATOM     31  C   UNL A   1      45.263  24.621  28.572  1.00  0.00     0.031 C 
ATOM     32  C   UNL A   1      47.065  29.958  30.844  1.00  0.00     0.029 A 
ATOM     33  C   UNL A   1      46.276  28.945  30.321  1.00  0.00     0.049 A 
ATOM     34  H   UNL A   1      44.203  28.944  29.928  1.00  0.00     0.167 HD
ATOM     35  C   UNL A   1      45.846  26.660  29.449  1.00  0.00     0.074 A 
ATOM     36  C   UNL A   1      46.278  25.343  29.029  1.00  0.00     0.031 C 
ATOM     37  C   UNL A   1      46.681  27.629  29.895  1.00  0.00     0.031 A 
BRANCH  24  38
ATOM     38  C   UNL A   1      43.987  33.044  31.120  1.00  0.00    -0.014 A 
ATOM     39  C   UNL A   1      44.371  34.021  30.185  1.00  0.00     0.010 A 
ATOM     40  C   UNL A   1      43.666  33.441  32.432  1.00  0.00     0.010 A 
ATOM     41  C   UNL A   1      44.439  35.367  30.559  1.00  0.00     0.020 A 
ATOM     42  C   UNL A   1      43.710  34.787  32.802  1.00  0.00     0.020 A 
ATOM     43  C   UNL A   1      44.101  35.742  31.863  1.00  0.00     0.054 A 
BRANCH  43  44
ATOM     44  S   UNL A   1      44.131  37.503  32.297  1.00  0.00     0.124 S 
ATOM     45  O   UNL A   1      43.692  38.128  31.052  1.00  0.00    -0.237 OA
ATOM     46  O   UNL A   1      43.181  37.575  33.404  1.00  0.00    -0.237 OA
ATOM     47  O   UNL A   1      45.525  37.750  32.659  1.00  0.00    -0.744 OA
ENDBRANCH  43  44
ENDBRANCH  24  38
BRANCH  25  48
ATOM     48  C   UNL A   1      42.578  23.671  27.842  1.00  0.00    -0.014 A 
ATOM     49  C   UNL A   1      42.222  22.580  28.652  1.00  0.00     0.010 A 
ATOM     50  C   UNL A   1      42.755  23.466  26.459  1.00  0.00     0.010 A 
ATOM     51  C   UNL A   1      42.082  21.305  28.097  1.00  0.00     0.020 A 
ATOM     52  C   UNL A   1      42.580  22.202  25.895  1.00  0.00     0.020 A 
ATOM     53  C   UNL A   1      42.266  21.124  26.723  1.00  0.00     0.054 A 
BRANCH  53  54
ATOM     54  S   UNL A   1      42.072  19.462  26.025  1.00  0.00     0.124 S 
ATOM     55  O   UNL A   1      42.588  18.622  27.100  1.00  0.00    -0.237 OA
ATOM     56  O   UNL A   1      40.632  19.383  25.794  1.00  0.00    -0.237 OA
ATOM     57  O   UNL A   1      42.888  19.502  24.814  1.00  0.00    -0.744 OA
ENDBRANCH  53  54
ENDBRANCH  25  48
BRANCH  37  58
ATOM     58  C   UNL A   1      48.146  27.296  29.964  1.00  0.00    -0.014 A 
ATOM     59  C   UNL A   1      49.006  27.604  28.895  1.00  0.00     0.010 A 
ATOM     60  C   UNL A   1      48.679  26.734  31.137  1.00  0.00     0.010 A 
ATOM     61  C   UNL A   1      50.373  27.342  28.994  1.00  0.00     0.020 A 
ATOM     62  C   UNL A   1      50.050  26.500  31.252  1.00  0.00     0.020 A 
ATOM     63  C   UNL A   1      50.888  26.799  30.176  1.00  0.00     0.054 A 
BRANCH  63  64
ATOM     64  S   UNL A   1      52.677  26.540  30.306  1.00  0.00     0.124 S 
ATOM     65  O   UNL A   1      52.758  25.457  31.281  1.00  0.00    -0.237 OA
ATOM     66  O   UNL A   1      53.047  26.184  28.938  1.00  0.00    -0.237 OA
ATOM     67  O   UNL A   1      53.183  27.832  30.767  1.00  0.00    -0.744 OA
ENDBRANCH  63  64
ENDBRANCH  37  58
ENDBRANCH  11  12
ENDBRANCH   4   6
ENDBRANCH   1   2
BRANCH   1  68
ATOM     68  C   UNL A   1      34.246  28.286  25.679  1.00  0.00     0.042 C 
BRANCH  68  69
ATOM     69  C   UNL A   1      33.001  28.030  24.847  1.00  0.00     0.117 C 
BRANCH  69  70
ATOM     70  N   UNL A   1      33.395  27.512  23.559  1.00  0.00    -0.355 N 
ATOM     71  C   UNL A   1      33.624  26.242  23.144  1.00  0.00     0.231 C 
ATOM     72  H   UNL A   1      33.520  28.197  22.863  1.00  0.00     0.163 HD
ATOM     73  O   UNL A   1      34.042  26.156  21.978  1.00  0.00    -0.274 OA
BRANCH  71  74
ATOM     74  C   UNL A   1      33.215  24.958  23.986  1.00  0.00     0.080 C 
ATOM     75  C   UNL A   1      33.955  24.857  25.351  1.00  0.00     0.022 C 
ATOM     76  C   UNL A   1      31.675  25.143  24.217  1.00  0.00    -0.029 A 
ATOM     77  C   UNL A   1      33.202  24.052  26.407  1.00  0.00     0.006 C 
ATOM     78  C   UNL A   1      31.105  25.123  25.511  1.00  0.00    -0.044 A 
ATOM     79  C   UNL A   1      30.868  25.615  23.155  1.00  0.00     0.005 A 
ATOM     80  C   UNL A   1      31.870  24.697  26.736  1.00  0.00     0.036 C 
ATOM     81  C   UNL A   1      29.816  25.650  25.721  1.00  0.00     0.004 A 
ATOM     82  C   UNL A   1      29.607  26.169  23.387  1.00  0.00     0.000 A 
ATOM     83  C   UNL A   1      29.086  26.201  24.674  1.00  0.00     0.000 A 
BRANCH  74  84
ATOM     84  C   UNL A   1      33.587  23.721  23.054  1.00  0.00     0.038 C 
ATOM     85  C   UNL A   1      32.637  22.515  23.009  1.00  0.00     0.008 C 
ATOM     86  C   UNL A   1      34.946  23.000  23.324  1.00  0.00     0.119 C 
ATOM     87  C   UNL A   1      33.182  21.464  23.979  1.00  0.00     0.003 C 
ATOM     88  C   UNL A   1      34.650  21.787  24.196  1.00  0.00     0.032 C 
BRANCH  86  89
ATOM     89  O   UNL A   1      35.957  23.766  23.946  1.00  0.00    -0.393 OA
ATOM     90  H   UNL A   1      36.043  24.618  23.489  1.00  0.00     0.210 HD
ENDBRANCH  86  89
ENDBRANCH  74  84
ENDBRANCH  71  74
ENDBRANCH  69  70
ENDBRANCH  68  69
ENDBRANCH   1  68
TORSDOF 15
ENDMDL
MODEL 2
REMARK VINA RESULT:     -11.3      2.401      3.731
REMARK SMILES O=C(NCCCNC(=O)[C@@]1([C@@H]2CCC[C@@H]2O)CCCc2ccccc21)c1ccc(-c2c3nc(c(-c4ccc(S(=O)(=O)[O-])cc4)c4ccc([nH]4)c(-c4ccc(S(=O)(=O)[O-])cc4)c4nc(c(-c5ccc(S(=O)(=O)[O-])cc5)c5ccc2[nH]5)C=C4)C=C3)cc1
REMARK SMILES IDX 4 1 3 2 1 3 2 4 26 6 27 7 85 8 28 9 84 10 29 11 30 12 31 13
REMARK SMILES IDX 78 14 32 15 83 16 77 17 79 18 33 19 82 20 76 21 75 22 34 24
REMARK SMILES IDX 64 25 45 26 63 27 46 28 49 29 62 30 80 31 47 32 48 33 61 35
REMARK SMILES IDX 81 36 50 37 35 38 36 39 44 40 37 41 43 42 38 43 39 44 40 45
REMARK SMILES IDX 41 46 42 47 65 48 66 49 74 50 67 51 73 52 68 53 69 54 70 55
REMARK SMILES IDX 71 56 72 57 51 58 52 59 60 60 53 61 59 62 54 63 55 64 56 65
REMARK SMILES IDX 57 66 58 67 5 68 6 69 7 70 8 71 9 73 10 74 17 75 25 76 18 77
REMARK SMILES IDX 20 78 24 79 19 80 21 81 23 82 22 83 11 84 12 85 15 86 13 87
REMARK SMILES IDX 14 88 16 89
REMARK H PARENT 3 5 79 23 49 34 7 72 16 90
REMARK Flexibility Score: inf
ROOT
ATOM      1  C   UNL A   1      35.258  29.304  27.413  1.00  0.00     0.118 C 
ENDROOT
BRANCH   1   2
ATOM      2  N   UNL A   1      35.223  30.254  28.516  1.00  0.00    -0.352 N 
ATOM      3  O   UNL A   1      35.869  31.009  30.540  1.00  0.00    -0.269 OA
ATOM      4  C   UNL A   1      36.160  30.424  29.496  1.00  0.00     0.251 C 
ATOM      5  H   UNL A   1      34.434  30.841  28.560  1.00  0.00     0.163 HD
BRANCH   4   6
ATOM      6  C   UNL A   1      37.517  29.899  29.271  1.00  0.00     0.039 A 
ATOM      7  C   UNL A   1      38.074  29.967  27.988  1.00  0.00     0.014 A 
ATOM      8  C   UNL A   1      38.234  29.351  30.334  1.00  0.00     0.014 A 
ATOM      9  C   UNL A   1      39.312  29.397  27.744  1.00  0.00     0.010 A 
ATOM     10  C   UNL A   1      39.524  28.875  30.109  1.00  0.00     0.010 A 
ATOM     11  C   UNL A   1      40.070  28.904  28.814  1.00  0.00    -0.014 A 
BRANCH  11  12
ATOM     12  C   UNL A   1      41.495  28.586  28.587  1.00  0.00     0.031 A 
ATOM     13  C   UNL A   1      42.547  29.651  28.627  1.00  0.00     0.074 A 
ATOM     14  C   UNL A   1      41.807  27.303  28.316  1.00  0.00     0.049 A 
ATOM     15  N   UNL A   1      43.827  29.536  28.393  1.00  0.00    -0.248 NA
ATOM     16  C   UNL A   1      42.115  31.017  28.964  1.00  0.00     0.031 C 
ATOM     17  C   UNL A   1      40.843  26.196  28.244  1.00  0.00     0.029 A 
ATOM     18  N   UNL A   1      43.010  26.706  28.049  1.00  0.00    -0.354 N 
ATOM     19  C   UNL A   1      44.353  30.816  28.520  1.00  0.00     0.074 A 
ATOM     20  C   UNL A   1      43.251  31.695  28.849  1.00  0.00     0.031 C 
ATOM     21  C   UNL A   1      41.495  25.057  27.981  1.00  0.00     0.029 A 
ATOM     22  C   UNL A   1      42.904  25.361  27.780  1.00  0.00     0.049 A 
ATOM     23  H   UNL A   1      43.866  27.190  28.049  1.00  0.00     0.167 HD
ATOM     24  C   UNL A   1      45.638  31.208  28.364  1.00  0.00     0.031 A 
ATOM     25  C   UNL A   1      43.827  24.475  27.367  1.00  0.00     0.031 A 
ATOM     26  C   UNL A   1      46.716  30.308  28.041  1.00  0.00     0.049 A 
ATOM     27  C   UNL A   1      45.233  24.957  27.162  1.00  0.00     0.074 A 
ATOM     28  C   UNL A   1      48.066  30.595  27.930  1.00  0.00     0.029 A 
ATOM     29  N   UNL A   1      46.568  28.959  27.759  1.00  0.00    -0.354 N 
ATOM     30  N   UNL A   1      45.728  26.155  27.367  1.00  0.00    -0.248 NA
ATOM     31  C   UNL A   1      46.204  23.975  26.664  1.00  0.00     0.031 C 
ATOM     32  C   UNL A   1      48.722  29.437  27.506  1.00  0.00     0.029 A 
ATOM     33  C   UNL A   1      47.794  28.411  27.420  1.00  0.00     0.049 A 
ATOM     34  H   UNL A   1      45.718  28.463  27.794  1.00  0.00     0.167 HD
ATOM     35  C   UNL A   1      47.071  26.067  27.031  1.00  0.00     0.074 A 
ATOM     36  C   UNL A   1      47.317  24.694  26.642  1.00  0.00     0.031 C 
ATOM     37  C   UNL A   1      48.014  27.040  27.034  1.00  0.00     0.031 A 
BRANCH  24  38
ATOM     38  C   UNL A   1      45.962  32.672  28.497  1.00  0.00    -0.014 A 
ATOM     39  C   UNL A   1      46.388  33.224  29.718  1.00  0.00     0.010 A 
ATOM     40  C   UNL A   1      45.944  33.485  27.348  1.00  0.00     0.010 A 
ATOM     41  C   UNL A   1      46.780  34.565  29.787  1.00  0.00     0.020 A 
ATOM     42  C   UNL A   1      46.357  34.818  27.409  1.00  0.00     0.020 A 
ATOM     43  C   UNL A   1      46.768  35.351  28.631  1.00  0.00     0.054 A 
BRANCH  43  44
ATOM     44  S   UNL A   1      47.349  37.066  28.740  1.00  0.00     0.124 S 
ATOM     45  O   UNL A   1      46.888  37.457  30.070  1.00  0.00    -0.237 OA
ATOM     46  O   UNL A   1      48.795  36.923  28.595  1.00  0.00    -0.237 OA
ATOM     47  O   UNL A   1      46.677  37.734  27.627  1.00  0.00    -0.744 OA
ENDBRANCH  43  44
ENDBRANCH  24  38
BRANCH  25  48
ATOM     48  C   UNL A   1      43.432  23.076  27.054  1.00  0.00    -0.014 A 
ATOM     49  C   UNL A   1      42.826  22.262  28.025  1.00  0.00     0.010 A 
ATOM     50  C   UNL A   1      43.666  22.548  25.769  1.00  0.00     0.010 A 
ATOM     51  C   UNL A   1      42.496  20.936  27.729  1.00  0.00     0.020 A 
ATOM     52  C   UNL A   1      43.304  21.236  25.458  1.00  0.00     0.020 A 
ATOM     53  C   UNL A   1      42.741  20.431  26.449  1.00  0.00     0.054 A 
BRANCH  53  54
ATOM     54  S   UNL A   1      42.297  18.711  26.085  1.00  0.00     0.124 S 
ATOM     55  O   UNL A   1      42.536  18.062  27.370  1.00  0.00    -0.237 OA
ATOM     56  O   UNL A   1      40.898  18.824  25.683  1.00  0.00    -0.237 OA
ATOM     57  O   UNL A   1      43.218  18.339  25.014  1.00  0.00    -0.744 OA
ENDBRANCH  53  54
ENDBRANCH  25  48
BRANCH  37  58
ATOM     58  C   UNL A   1      49.405  26.649  26.615  1.00  0.00    -0.014 A 
ATOM     59  C   UNL A   1      50.310  26.103  27.542  1.00  0.00     0.010 A 
ATOM     60  C   UNL A   1      49.784  26.763  25.266  1.00  0.00     0.010 A 
ATOM     61  C   UNL A   1      51.577  25.691  27.129  1.00  0.00     0.020 A 
ATOM     62  C   UNL A   1      51.040  26.322  24.843  1.00  0.00     0.020 A 
ATOM     63  C   UNL A   1      51.931  25.796  25.779  1.00  0.00     0.054 A 
BRANCH  63  64
ATOM     64  S   UNL A   1      53.555  25.183  25.258  1.00  0.00     0.124 S 
ATOM     65  O   UNL A   1      54.437  25.761  26.267  1.00  0.00    -0.237 OA
ATOM     66  O   UNL A   1      53.385  23.733  25.327  1.00  0.00    -0.237 OA
ATOM     67  O   UNL A   1      53.714  25.723  23.909  1.00  0.00    -0.744 OA
ENDBRANCH  63  64
ENDBRANCH  37  58
ENDBRANCH  11  12
ENDBRANCH   4   6
ENDBRANCH   1   2
BRANCH   1  68
ATOM     68  C   UNL A   1      33.952  28.541  27.326  1.00  0.00     0.042 C 
BRANCH  68  69
ATOM     69  C   UNL A   1      33.083  29.079  26.202  1.00  0.00     0.117 C 
BRANCH  69  70
ATOM     70  N   UNL A   1      33.871  29.157  24.997  1.00  0.00    -0.355 N 
ATOM     71  C   UNL A   1      33.872  28.383  23.884  1.00  0.00     0.231 C 
ATOM     72  H   UNL A   1      34.518  29.899  24.978  1.00  0.00     0.163 HD
ATOM     73  O   UNL A   1      34.752  28.679  23.059  1.00  0.00    -0.274 OA
BRANCH  71  74
ATOM     74  C   UNL A   1      32.739  27.318  23.556  1.00  0.00     0.080 C 
ATOM     75  C   UNL A   1      32.345  27.285  22.051  1.00  0.00     0.022 C 
ATOM     76  C   UNL A   1      33.383  25.952  23.977  1.00  0.00    -0.029 A 
ATOM     77  C   UNL A   1      31.762  25.950  21.592  1.00  0.00     0.006 C 
ATOM     78  C   UNL A   1      33.476  24.862  23.082  1.00  0.00    -0.044 A 
ATOM     79  C   UNL A   1      34.134  25.882  25.174  1.00  0.00     0.005 A 
ATOM     80  C   UNL A   1      32.773  24.832  21.752  1.00  0.00     0.036 C 
ATOM     81  C   UNL A   1      34.367  23.804  23.351  1.00  0.00     0.004 A 
ATOM     82  C   UNL A   1      35.042  24.845  25.406  1.00  0.00     0.000 A 
ATOM     83  C   UNL A   1      35.170  23.813  24.487  1.00  0.00     0.000 A 
BRANCH  74  84
ATOM     84  C   UNL A   1      31.495  27.754  24.451  1.00  0.00     0.038 C 
ATOM     85  C   UNL A   1      30.531  26.671  24.956  1.00  0.00     0.008 C 
ATOM     86  C   UNL A   1      30.482  28.767  23.831  1.00  0.00     0.119 C 
ATOM     87  C   UNL A   1      29.341  26.629  23.994  1.00  0.00     0.003 C 
ATOM     88  C   UNL A   1      29.324  27.959  23.261  1.00  0.00     0.032 C 
BRANCH  86  89
ATOM     89  O   UNL A   1      30.978  29.620  22.820  1.00  0.00    -0.393 OA
ATOM     90  H   UNL A   1      31.575  30.275  23.214  1.00  0.00     0.210 HD
ENDBRANCH  86  89
ENDBRANCH  74  84
ENDBRANCH  71  74
ENDBRANCH  69  70
ENDBRANCH  68  69
ENDBRANCH   1  68
TORSDOF 15
ENDMDL
MODEL 3
REMARK VINA RESULT:     -11.2      1.220      8.397
REMARK SMILES O=C(NCCCNC(=O)[C@@]1([C@@H]2CCC[C@@H]2O)CCCc2ccccc21)c1ccc(-c2c3nc(c(-c4ccc(S(=O)(=O)[O-])cc4)c4ccc([nH]4)c(-c4ccc(S(=O)(=O)[O-])cc4)c4nc(c(-c5ccc(S(=O)(=O)[O-])cc5)c5ccc2[nH]5)C=C4)C=C3)cc1
REMARK SMILES IDX 4 1 3 2 1 3 2 4 26 6 27 7 85 8 28 9 84 10 29 11 30 12 31 13
REMARK SMILES IDX 78 14 32 15 83 16 77 17 79 18 33 19 82 20 76 21 75 22 34 24
REMARK SMILES IDX 64 25 45 26 63 27 46 28 49 29 62 30 80 31 47 32 48 33 61 35
REMARK SMILES IDX 81 36 50 37 35 38 36 39 44 40 37 41 43 42 38 43 39 44 40 45
REMARK SMILES IDX 41 46 42 47 65 48 66 49 74 50 67 51 73 52 68 53 69 54 70 55
REMARK SMILES IDX 71 56 72 57 51 58 52 59 60 60 53 61 59 62 54 63 55 64 56 65
REMARK SMILES IDX 57 66 58 67 5 68 6 69 7 70 8 71 9 73 10 74 17 75 25 76 18 77
REMARK SMILES IDX 20 78 24 79 19 80 21 81 23 82 22 83 11 84 12 85 15 86 13 87
REMARK SMILES IDX 14 88 16 89
REMARK H PARENT 3 5 79 23 49 34 7 72 16 90
REMARK Flexibility Score: inf
ROOT
ATOM      1  C   UNL A   1      33.945  28.786  26.585  1.00  0.00     0.118 C 
ENDROOT
BRANCH   1   2
ATOM      2  N   UNL A   1      33.804  30.140  27.103  1.00  0.00    -0.352 N 
ATOM      3  O   UNL A   1      34.194  31.763  28.620  1.00  0.00    -0.269 OA
ATOM      4  C   UNL A   1      34.599  30.764  28.024  1.00  0.00     0.251 C 
ATOM      5  H   UNL A   1      33.051  30.666  26.749  1.00  0.00     0.163 HD
BRANCH   4   6
ATOM      6  C   UNL A   1      35.943  30.219  28.278  1.00  0.00     0.039 A 
ATOM      7  C   UNL A   1      36.920  30.311  27.279  1.00  0.00     0.014 A 
ATOM      8  C   UNL A   1      36.231  29.630  29.508  1.00  0.00     0.014 A 
ATOM      9  C   UNL A   1      38.158  29.723  27.472  1.00  0.00     0.010 A 
ATOM     10  C   UNL A   1      37.512  29.136  29.741  1.00  0.00     0.010 A 
ATOM     11  C   UNL A   1      38.483  29.188  28.726  1.00  0.00    -0.014 A 
BRANCH  11  12
ATOM     12  C   UNL A   1      39.893  28.849  29.008  1.00  0.00     0.031 A 
ATOM     13  C   UNL A   1      40.478  27.535  28.592  1.00  0.00     0.074 A 
ATOM     14  C   UNL A   1      40.626  29.761  29.679  1.00  0.00     0.049 A 
ATOM     15  N   UNL A   1      41.678  27.073  28.818  1.00  0.00    -0.248 NA
ATOM     16  C   UNL A   1      39.610  26.618  27.836  1.00  0.00     0.031 C 
ATOM     17  C   UNL A   1      40.135  31.068  30.136  1.00  0.00     0.029 A 
ATOM     18  N   UNL A   1      41.930  29.737  30.097  1.00  0.00    -0.354 N 
ATOM     19  C   UNL A   1      41.706  25.800  28.263  1.00  0.00     0.074 A 
ATOM     20  C   UNL A   1      40.399  25.559  27.692  1.00  0.00     0.031 C 
ATOM     21  C   UNL A   1      41.129  31.728  30.743  1.00  0.00     0.029 A 
ATOM     22  C   UNL A   1      42.299  30.863  30.797  1.00  0.00     0.049 A 
ATOM     23  H   UNL A   1      42.543  28.990  29.915  1.00  0.00     0.167 HD
ATOM     24  C   UNL A   1      42.733  24.919  28.248  1.00  0.00     0.031 A 
ATOM     25  C   UNL A   1      43.435  31.151  31.455  1.00  0.00     0.031 A 
ATOM     26  C   UNL A   1      44.027  25.189  28.822  1.00  0.00     0.049 A 
ATOM     27  C   UNL A   1      44.536  30.132  31.453  1.00  0.00     0.074 A 
ATOM     28  C   UNL A   1      45.157  24.390  28.798  1.00  0.00     0.029 A 
ATOM     29  N   UNL A   1      44.358  26.330  29.537  1.00  0.00    -0.354 N 
ATOM     30  N   UNL A   1      44.573  28.966  30.852  1.00  0.00    -0.248 NA
ATOM     31  C   UNL A   1      45.743  30.459  32.222  1.00  0.00     0.031 C 
ATOM     32  C   UNL A   1      46.146  25.013  29.563  1.00  0.00     0.029 A 
ATOM     33  C   UNL A   1      45.657  26.232  30.006  1.00  0.00     0.049 A 
ATOM     34  H   UNL A   1      43.759  27.096  29.689  1.00  0.00     0.167 HD
ATOM     35  C   UNL A   1      45.812  28.424  31.163  1.00  0.00     0.074 A 
ATOM     36  C   UNL A   1      46.505  29.401  31.977  1.00  0.00     0.031 C 
ATOM     37  C   UNL A   1      46.325  27.219  30.816  1.00  0.00     0.031 A 
BRANCH  24  38
ATOM     38  C   UNL A   1      42.507  23.564  27.632  1.00  0.00    -0.014 A 
ATOM     39  C   UNL A   1      42.888  23.285  26.308  1.00  0.00     0.010 A 
ATOM     40  C   UNL A   1      42.004  22.522  28.433  1.00  0.00     0.010 A 
ATOM     41  C   UNL A   1      42.761  21.990  25.795  1.00  0.00     0.020 A 
ATOM     42  C   UNL A   1      41.896  21.223  27.932  1.00  0.00     0.020 A 
ATOM     43  C   UNL A   1      42.271  20.966  26.613  1.00  0.00     0.054 A 
BRANCH  43  44
ATOM     44  S   UNL A   1      42.183  19.284  25.941  1.00  0.00     0.124 S 
ATOM     45  O   UNL A   1      40.751  19.132  25.693  1.00  0.00    -0.237 OA
ATOM     46  O   UNL A   1      43.020  19.373  24.747  1.00  0.00    -0.237 OA
ATOM     47  O   UNL A   1      42.721  18.450  27.014  1.00  0.00    -0.744 OA
ENDBRANCH  43  44
ENDBRANCH  24  38
BRANCH  25  48
ATOM     48  C   UNL A   1      43.552  32.420  32.221  1.00  0.00    -0.014 A 
ATOM     49  C   UNL A   1      43.172  32.488  33.571  1.00  0.00     0.010 A 
ATOM     50  C   UNL A   1      44.048  33.580  31.591  1.00  0.00     0.010 A 
ATOM     51  C   UNL A   1      43.251  33.698  34.267  1.00  0.00     0.020 A 
ATOM     52  C   UNL A   1      44.163  34.781  32.293  1.00  0.00     0.020 A 
ATOM     53  C   UNL A   1      43.742  34.837  33.622  1.00  0.00     0.054 A 
BRANCH  53  54
ATOM     54  S   UNL A   1      43.842  36.392  34.547  1.00  0.00     0.124 S 
ATOM     55  O   UNL A   1      43.708  35.932  35.925  1.00  0.00    -0.237 OA
ATOM     56  O   UNL A   1      45.159  36.899  34.173  1.00  0.00    -0.237 OA
ATOM     57  O   UNL A   1      42.715  37.169  34.034  1.00  0.00    -0.744 OA
ENDBRANCH  53  54
ENDBRANCH  25  48
BRANCH  37  58
ATOM     58  C   UNL A   1      47.711  26.897  31.305  1.00  0.00    -0.014 A 
ATOM     59  C   UNL A   1      47.905  26.145  32.477  1.00  0.00     0.010 A 
ATOM     60  C   UNL A   1      48.827  27.289  30.544  1.00  0.00     0.010 A 
ATOM     61  C   UNL A   1      49.194  25.804  32.888  1.00  0.00     0.020 A 
ATOM     62  C   UNL A   1      50.116  26.922  30.935  1.00  0.00     0.020 A 
ATOM     63  C   UNL A   1      50.291  26.188  32.110  1.00  0.00     0.054 A 
BRANCH  63  64
ATOM     64  S   UNL A   1      51.948  25.666  32.627  1.00  0.00     0.124 S 
ATOM     65  O   UNL A   1      52.619  25.469  31.345  1.00  0.00    -0.237 OA
ATOM     66  O   UNL A   1      52.412  26.809  33.411  1.00  0.00    -0.237 OA
ATOM     67  O   UNL A   1      51.704  24.447  33.396  1.00  0.00    -0.744 OA
ENDBRANCH  63  64
ENDBRANCH  37  58
ENDBRANCH  11  12
ENDBRANCH   4   6
ENDBRANCH   1   2
BRANCH   1  68
ATOM     68  C   UNL A   1      32.590  28.210  26.228  1.00  0.00     0.042 C 
BRANCH  68  69
ATOM     69  C   UNL A   1      32.524  26.730  26.564  1.00  0.00     0.117 C 
BRANCH  69  70
ATOM     70  N   UNL A   1      33.763  26.104  26.172  1.00  0.00    -0.355 N 
ATOM     71  C   UNL A   1      34.015  25.108  25.287  1.00  0.00     0.231 C 
ATOM     72  H   UNL A   1      34.562  26.460  26.622  1.00  0.00     0.163 HD
ATOM     73  O   UNL A   1      35.202  24.745  25.255  1.00  0.00    -0.274 OA
BRANCH  71  74
ATOM     74  C   UNL A   1      32.946  24.577  24.238  1.00  0.00     0.080 C 
ATOM     75  C   UNL A   1      31.649  24.035  24.904  1.00  0.00     0.022 C 
ATOM     76  C   UNL A   1      32.620  25.842  23.370  1.00  0.00    -0.029 A 
ATOM     77  C   UNL A   1      30.418  24.091  24.003  1.00  0.00     0.006 C 
ATOM     78  C   UNL A   1      31.297  26.309  23.196  1.00  0.00    -0.044 A 
ATOM     79  C   UNL A   1      33.674  26.700  22.977  1.00  0.00     0.005 A 
ATOM     80  C   UNL A   1      30.088  25.521  23.622  1.00  0.00     0.036 C 
ATOM     81  C   UNL A   1      31.068  27.621  22.738  1.00  0.00     0.004 A 
ATOM     82  C   UNL A   1      33.430  28.012  22.562  1.00  0.00     0.000 A 
ATOM     83  C   UNL A   1      32.127  28.479  22.456  1.00  0.00     0.000 A 
BRANCH  74  84
ATOM     84  C   UNL A   1      33.694  23.418  23.442  1.00  0.00     0.038 C 
ATOM     85  C   UNL A   1      33.144  22.985  22.075  1.00  0.00     0.008 C 
ATOM     86  C   UNL A   1      33.826  22.030  24.146  1.00  0.00     0.119 C 
ATOM     87  C   UNL A   1      32.270  21.748  22.302  1.00  0.00     0.003 C 
ATOM     88  C   UNL A   1      32.692  21.152  23.633  1.00  0.00     0.032 C 
BRANCH  86  89
ATOM     89  O   UNL A   1      33.792  22.032  25.558  1.00  0.00    -0.393 OA
ATOM     90  H   UNL A   1      32.876  22.141  25.858  1.00  0.00     0.210 HD
ENDBRANCH  86  89
ENDBRANCH  74  84
ENDBRANCH  71  74
ENDBRANCH  69  70
ENDBRANCH  68  69
ENDBRANCH   1  68
TORSDOF 15
ENDMDL
