MODEL 1
REMARK VINA RESULT:     -11.5      0.000      0.000
REMARK SMILES C[C@H]1CCC[C@]1(C(=O)NCCCNC(=O)c1ccc(-c2c3nc(c(-c4ccc(S(=O)(=O)[O-])cc4)c4ccc([nH]4)c(-c4ccc(S(=O)(=O)[O-])cc4)c4nc(c(-c5ccc(S(=O)(=O)[O-])cc5)c5ccc2[nH]5)C=C4)C=C3)cc1)c1ccc2c(c1)OCO2
REMARK SMILES IDX 12 1 11 2 10 3 9 4 7 5 8 6 6 8 1 9 2 10 3 11 4 12 5 13 76 14
REMARK SMILES IDX 77 15 81 16 78 17 80 18 79 19 82 20 84 21 83 22 13 23 14 24
REMARK SMILES IDX 15 26 16 27 17 28 75 29 18 30 74 31 19 32 20 33 21 34 68 35
REMARK SMILES IDX 22 36 73 37 67 38 69 39 23 40 72 41 66 42 65 43 24 45 54 46
REMARK SMILES IDX 35 47 53 48 36 49 39 50 52 51 70 52 37 53 38 54 51 56 71 57
REMARK SMILES IDX 40 58 25 59 26 60 34 61 27 62 33 63 28 64 29 65 30 66 31 67
REMARK SMILES IDX 32 68 55 69 56 70 64 71 57 72 63 73 58 74 59 75 60 76 61 77
REMARK SMILES IDX 62 78 41 79 42 80 50 81 43 82 49 83 44 84 45 85 46 86 47 87
REMARK SMILES IDX 48 88
REMARK H PARENT 9 7 13 25 69 44 39 55
REMARK Flexibility Score: inf
ROOT
ATOM      1  C   UNL A   1      33.562  28.684  27.140  1.00  0.00     0.118 C 
ENDROOT
BRANCH   1   2
ATOM      2  C   UNL A   1      32.309  27.966  27.608  1.00  0.00     0.042 C 
BRANCH   2   3
ATOM      3  C   UNL A   1      31.586  27.228  26.493  1.00  0.00     0.117 C 
BRANCH   3   4
ATOM      4  N   UNL A   1      31.194  25.875  26.855  1.00  0.00    -0.355 N 
ATOM      5  C   UNL A   1      31.687  24.631  26.584  1.00  0.00     0.230 C 
ATOM      6  O   UNL A   1      31.203  23.757  27.312  1.00  0.00    -0.274 OA
ATOM      7  H   UNL A   1      30.393  25.851  27.426  1.00  0.00     0.163 HD
BRANCH   5   8
ATOM      8  C   UNL A   1      32.738  24.317  25.460  1.00  0.00     0.077 C 
ATOM      9  C   UNL A   1      30.667  24.112  23.846  1.00  0.00     0.009 C 
ATOM     10  C   UNL A   1      32.153  24.415  24.006  1.00  0.00     0.006 C 
ATOM     11  C   UNL A   1      32.596  25.760  23.446  1.00  0.00     0.005 C 
ATOM     12  C   UNL A   1      33.934  26.030  24.124  1.00  0.00     0.002 C 
ATOM     13  C   UNL A   1      33.868  25.388  25.515  1.00  0.00     0.022 C 
BRANCH   8  14
ATOM     14  C   UNL A   1      33.354  22.871  25.495  1.00  0.00    -0.028 A 
ATOM     15  C   UNL A   1      32.702  21.746  24.926  1.00  0.00     0.009 A 
ATOM     16  C   UNL A   1      34.716  22.715  25.854  1.00  0.00     0.055 A 
ATOM     17  C   UNL A   1      33.369  20.531  24.704  1.00  0.00     0.051 A 
ATOM     18  C   UNL A   1      35.361  21.533  25.571  1.00  0.00     0.166 A 
ATOM     19  C   UNL A   1      34.710  20.471  25.001  1.00  0.00     0.165 A 
ATOM     20  O   UNL A   1      36.695  21.313  25.716  1.00  0.00    -0.454 OA
ATOM     21  O   UNL A   1      35.557  19.445  24.718  1.00  0.00    -0.454 OA
ATOM     22  C   UNL A   1      36.824  20.088  24.970  1.00  0.00     0.468 C 
ENDBRANCH   8  14
ENDBRANCH   5   8
ENDBRANCH   3   4
ENDBRANCH   2   3
ENDBRANCH   1   2
BRANCH   1  23
ATOM     23  N   UNL A   1      33.523  30.104  27.464  1.00  0.00    -0.352 N 
ATOM     24  C   UNL A   1      34.412  30.878  28.167  1.00  0.00     0.251 C 
ATOM     25  H   UNL A   1      32.733  30.585  27.123  1.00  0.00     0.163 HD
ATOM     26  O   UNL A   1      34.057  31.980  28.570  1.00  0.00    -0.269 OA
BRANCH  24  27
ATOM     27  C   UNL A   1      35.782  30.391  28.440  1.00  0.00     0.039 A 
ATOM     28  C   UNL A   1      36.763  30.538  27.454  1.00  0.00     0.014 A 
ATOM     29  C   UNL A   1      36.095  29.752  29.641  1.00  0.00     0.014 A 
ATOM     30  C   UNL A   1      38.061  30.088  27.700  1.00  0.00     0.010 A 
ATOM     31  C   UNL A   1      37.410  29.407  29.927  1.00  0.00     0.010 A 
ATOM     32  C   UNL A   1      38.402  29.546  28.950  1.00  0.00    -0.014 A 
BRANCH  32  33
ATOM     33  C   UNL A   1      39.789  29.108  29.240  1.00  0.00     0.031 A 
ATOM     34  C   UNL A   1      40.742  30.021  29.962  1.00  0.00     0.074 A 
ATOM     35  C   UNL A   1      40.198  27.897  28.812  1.00  0.00     0.049 A 
ATOM     36  N   UNL A   1      41.976  29.793  30.337  1.00  0.00    -0.248 NA
ATOM     37  C   UNL A   1      40.262  31.375  30.280  1.00  0.00     0.031 C 
ATOM     38  C   UNL A   1      39.383  26.952  28.045  1.00  0.00     0.029 A 
ATOM     39  N   UNL A   1      41.395  27.249  28.977  1.00  0.00    -0.354 N 
ATOM     40  C   UNL A   1      42.419  30.976  30.918  1.00  0.00     0.074 A 
ATOM     41  C   UNL A   1      41.347  31.938  30.788  1.00  0.00     0.031 C 
ATOM     42  C   UNL A   1      40.082  25.821  27.858  1.00  0.00     0.029 A 
ATOM     43  C   UNL A   1      41.403  25.975  28.460  1.00  0.00     0.049 A 
ATOM     44  H   UNL A   1      42.173  27.656  29.421  1.00  0.00     0.167 HD
ATOM     45  C   UNL A   1      43.601  31.234  31.529  1.00  0.00     0.031 A 
ATOM     46  C   UNL A   1      42.360  25.029  28.486  1.00  0.00     0.031 A 
ATOM     47  C   UNL A   1      44.661  30.270  31.658  1.00  0.00     0.049 A 
ATOM     48  C   UNL A   1      43.656  25.326  29.183  1.00  0.00     0.074 A 
ATOM     49  C   UNL A   1      45.873  30.400  32.311  1.00  0.00     0.029 A 
ATOM     50  N   UNL A   1      44.635  28.993  31.115  1.00  0.00    -0.354 N 
ATOM     51  N   UNL A   1      44.028  26.425  29.798  1.00  0.00    -0.248 NA
ATOM     52  C   UNL A   1      44.655  24.252  29.201  1.00  0.00     0.031 C 
ATOM     53  C   UNL A   1      46.602  29.221  32.118  1.00  0.00     0.029 A 
ATOM     54  C   UNL A   1      45.821  28.334  31.392  1.00  0.00     0.049 A 
ATOM     55  H   UNL A   1      43.884  28.611  30.606  1.00  0.00     0.167 HD
ATOM     56  C   UNL A   1      45.301  26.168  30.291  1.00  0.00     0.074 A 
ATOM     57  C   UNL A   1      45.622  24.802  29.922  1.00  0.00     0.031 C 
ATOM     58  C   UNL A   1      46.132  26.986  30.986  1.00  0.00     0.031 A 
BRANCH  45  59
ATOM     59  C   UNL A   1      43.800  32.622  32.084  1.00  0.00    -0.014 A 
ATOM     60  C   UNL A   1      43.411  32.947  33.398  1.00  0.00     0.010 A 
ATOM     61  C   UNL A   1      44.372  33.623  31.278  1.00  0.00     0.010 A 
ATOM     62  C   UNL A   1      43.525  34.257  33.870  1.00  0.00     0.020 A 
ATOM     63  C   UNL A   1      44.517  34.929  31.757  1.00  0.00     0.020 A 
ATOM     64  C   UNL A   1      44.067  35.243  33.041  1.00  0.00     0.054 A 
BRANCH  64  65
ATOM     65  S   UNL A   1      44.185  36.941  33.668  1.00  0.00     0.124 S 
ATOM     66  O   UNL A   1      43.800  37.721  32.495  1.00  0.00    -0.237 OA
ATOM     67  O   UNL A   1      43.222  36.945  34.767  1.00  0.00    -0.237 OA
ATOM     68  O   UNL A   1      45.583  37.067  34.070  1.00  0.00    -0.744 OA
ENDBRANCH  64  65
ENDBRANCH  45  59
BRANCH  46  69
ATOM     69  C   UNL A   1      42.090  23.697  27.881  1.00  0.00    -0.014 A 
ATOM     70  C   UNL A   1      42.360  23.470  26.520  1.00  0.00     0.010 A 
ATOM     71  C   UNL A   1      41.621  22.633  28.673  1.00  0.00     0.010 A 
ATOM     72  C   UNL A   1      42.167  22.205  25.961  1.00  0.00     0.020 A 
ATOM     73  C   UNL A   1      41.451  21.360  28.123  1.00  0.00     0.020 A 
ATOM     74  C   UNL A   1      41.722  21.155  26.768  1.00  0.00     0.054 A 
BRANCH  74  75
ATOM     75  S   UNL A   1      41.567  19.499  26.041  1.00  0.00     0.124 S 
ATOM     76  O   UNL A   1      42.517  19.562  24.935  1.00  0.00    -0.237 OA
ATOM     77  O   UNL A   1      41.947  18.630  27.153  1.00  0.00    -0.237 OA
ATOM     78  O   UNL A   1      40.159  19.425  25.657  1.00  0.00    -0.744 OA
ENDBRANCH  74  75
ENDBRANCH  46  69
BRANCH  58  79
ATOM     79  C   UNL A   1      47.465  26.414  31.390  1.00  0.00    -0.014 A 
ATOM     80  C   UNL A   1      48.555  26.416  30.501  1.00  0.00     0.010 A 
ATOM     81  C   UNL A   1      47.630  25.873  32.677  1.00  0.00     0.010 A 
ATOM     82  C   UNL A   1      49.771  25.838  30.874  1.00  0.00     0.020 A 
ATOM     83  C   UNL A   1      48.853  25.323  33.065  1.00  0.00     0.020 A 
ATOM     84  C   UNL A   1      49.909  25.287  32.151  1.00  0.00     0.054 A 
BRANCH  84  85
ATOM     85  S   UNL A   1      51.497  24.543  32.615  1.00  0.00     0.124 S 
ATOM     86  O   UNL A   1      51.306  23.152  32.213  1.00  0.00    -0.237 OA
ATOM     87  O   UNL A   1      52.454  25.303  31.816  1.00  0.00    -0.237 OA
ATOM     88  O   UNL A   1      51.577  24.771  34.055  1.00  0.00    -0.744 OA
ENDBRANCH  84  85
ENDBRANCH  58  79
ENDBRANCH  32  33
ENDBRANCH  24  27
ENDBRANCH   1  23
TORSDOF 14
ENDMDL
MODEL 2
REMARK VINA RESULT:     -11.3      2.986      4.518
REMARK SMILES C[C@H]1CCC[C@]1(C(=O)NCCCNC(=O)c1ccc(-c2c3nc(c(-c4ccc(S(=O)(=O)[O-])cc4)c4ccc([nH]4)c(-c4ccc(S(=O)(=O)[O-])cc4)c4nc(c(-c5ccc(S(=O)(=O)[O-])cc5)c5ccc2[nH]5)C=C4)C=C3)cc1)c1ccc2c(c1)OCO2
REMARK SMILES IDX 12 1 11 2 10 3 9 4 7 5 8 6 6 8 1 9 2 10 3 11 4 12 5 13 76 14
REMARK SMILES IDX 77 15 81 16 78 17 80 18 79 19 82 20 84 21 83 22 13 23 14 24
REMARK SMILES IDX 15 26 16 27 17 28 75 29 18 30 74 31 19 32 20 33 21 34 68 35
REMARK SMILES IDX 22 36 73 37 67 38 69 39 23 40 72 41 66 42 65 43 24 45 54 46
REMARK SMILES IDX 35 47 53 48 36 49 39 50 52 51 70 52 37 53 38 54 51 56 71 57
REMARK SMILES IDX 40 58 25 59 26 60 34 61 27 62 33 63 28 64 29 65 30 66 31 67
REMARK SMILES IDX 32 68 55 69 56 70 64 71 57 72 63 73 58 74 59 75 60 76 61 77
REMARK SMILES IDX 62 78 41 79 42 80 50 81 43 82 49 83 44 84 45 85 46 86 47 87
REMARK SMILES IDX 48 88
REMARK H PARENT 9 7 13 25 69 44 39 55
REMARK Flexibility Score: inf
ROOT
ATOM      1  C   UNL A   1      33.917  29.158  26.265  1.00  0.00     0.118 C 
ENDROOT
BRANCH   1   2
ATOM      2  C   UNL A   1      33.179  28.206  27.188  1.00  0.00     0.042 C 
BRANCH   2   3
ATOM      3  C   UNL A   1      31.713  28.030  26.825  1.00  0.00     0.117 C 
BRANCH   3   4
ATOM      4  N   UNL A   1      31.242  26.661  26.973  1.00  0.00    -0.355 N 
ATOM      5  C   UNL A   1      31.127  25.594  26.131  1.00  0.00     0.230 C 
ATOM      6  O   UNL A   1      30.924  24.532  26.732  1.00  0.00    -0.274 OA
ATOM      7  H   UNL A   1      30.939  26.461  27.887  1.00  0.00     0.163 HD
BRANCH   5   8
ATOM      8  C   UNL A   1      31.217  25.681  24.566  1.00  0.00     0.077 C 
ATOM      9  C   UNL A   1      33.828  25.683  24.907  1.00  0.00     0.009 C 
ATOM     10  C   UNL A   1      32.646  25.361  23.999  1.00  0.00     0.006 C 
ATOM     11  C   UNL A   1      32.604  23.928  23.487  1.00  0.00     0.005 C 
ATOM     12  C   UNL A   1      31.162  23.730  23.035  1.00  0.00     0.002 C 
ATOM     13  C   UNL A   1      30.285  24.597  23.946  1.00  0.00     0.022 C 
BRANCH   8  14
ATOM     14  C   UNL A   1      30.901  27.091  23.947  1.00  0.00    -0.028 A 
ATOM     15  C   UNL A   1      31.860  27.843  23.220  1.00  0.00     0.009 A 
ATOM     16  C   UNL A   1      29.551  27.517  23.866  1.00  0.00     0.055 A 
ATOM     17  C   UNL A   1      31.501  28.950  22.435  1.00  0.00     0.051 A 
ATOM     18  C   UNL A   1      29.220  28.568  23.043  1.00  0.00     0.166 A 
ATOM     19  C   UNL A   1      30.167  29.261  22.336  1.00  0.00     0.165 A 
ATOM     20  O   UNL A   1      27.953  28.969  22.754  1.00  0.00    -0.454 OA
ATOM     21  O   UNL A   1      29.611  30.190  21.513  1.00  0.00    -0.454 OA
ATOM     22  C   UNL A   1      28.218  29.830  21.630  1.00  0.00     0.468 C 
ENDBRANCH   8  14
ENDBRANCH   5   8
ENDBRANCH   3   4
ENDBRANCH   2   3
ENDBRANCH   1   2
BRANCH   1  23
ATOM     23  N   UNL A   1      33.719  30.548  26.653  1.00  0.00    -0.352 N 
ATOM     24  C   UNL A   1      34.327  31.289  27.637  1.00  0.00     0.251 C 
ATOM     25  H   UNL A   1      33.044  31.034  26.126  1.00  0.00     0.163 HD
ATOM     26  O   UNL A   1      33.818  32.349  27.987  1.00  0.00    -0.269 OA
BRANCH  24  27
ATOM     27  C   UNL A   1      35.577  30.817  28.271  1.00  0.00     0.039 A 
ATOM     28  C   UNL A   1      36.771  31.493  28.002  1.00  0.00     0.014 A 
ATOM     29  C   UNL A   1      35.588  29.688  29.093  1.00  0.00     0.014 A 
ATOM     30  C   UNL A   1      37.957  31.062  28.598  1.00  0.00     0.010 A 
ATOM     31  C   UNL A   1      36.746  29.329  29.772  1.00  0.00     0.010 A 
ATOM     32  C   UNL A   1      37.948  29.995  29.511  1.00  0.00    -0.014 A 
BRANCH  32  33
ATOM     33  C   UNL A   1      39.195  29.558  30.187  1.00  0.00     0.031 A 
ATOM     34  C   UNL A   1      39.622  30.192  31.483  1.00  0.00     0.074 A 
ATOM     35  C   UNL A   1      39.960  28.614  29.605  1.00  0.00     0.049 A 
ATOM     36  N   UNL A   1      40.656  29.911  32.235  1.00  0.00    -0.248 NA
ATOM     37  C   UNL A   1      38.802  31.306  31.986  1.00  0.00     0.031 C 
ATOM     38  C   UNL A   1      39.682  27.974  28.317  1.00  0.00     0.029 A 
ATOM     39  N   UNL A   1      41.119  28.018  30.030  1.00  0.00    -0.354 N 
ATOM     40  C   UNL A   1      40.616  30.819  33.287  1.00  0.00     0.074 A 
ATOM     41  C   UNL A   1      39.497  31.701  33.041  1.00  0.00     0.031 C 
ATOM     42  C   UNL A   1      40.609  27.032  28.086  1.00  0.00     0.029 A 
ATOM     43  C   UNL A   1      41.565  27.026  29.188  1.00  0.00     0.049 A 
ATOM     44  H   UNL A   1      41.588  28.275  30.856  1.00  0.00     0.167 HD
ATOM     45  C   UNL A   1      41.422  30.899  34.373  1.00  0.00     0.031 A 
ATOM     46  C   UNL A   1      42.614  26.192  29.302  1.00  0.00     0.031 A 
ATOM     47  C   UNL A   1      42.532  30.015  34.613  1.00  0.00     0.049 A 
ATOM     48  C   UNL A   1      43.485  26.282  30.522  1.00  0.00     0.074 A 
ATOM     49  C   UNL A   1      43.375  29.962  35.707  1.00  0.00     0.029 A 
ATOM     50  N   UNL A   1      42.957  29.028  33.733  1.00  0.00    -0.354 N 
ATOM     51  N   UNL A   1      43.386  27.095  31.547  1.00  0.00    -0.248 NA
ATOM     52  C   UNL A   1      44.601  25.333  30.605  1.00  0.00     0.031 C 
ATOM     53  C   UNL A   1      44.342  28.979  35.467  1.00  0.00     0.029 A 
ATOM     54  C   UNL A   1      44.068  28.380  34.247  1.00  0.00     0.049 A 
ATOM     55  H   UNL A   1      42.531  28.820  32.871  1.00  0.00     0.167 HD
ATOM     56  C   UNL A   1      44.419  26.746  32.408  1.00  0.00     0.074 A 
ATOM     57  C   UNL A   1      45.113  25.632  31.791  1.00  0.00     0.031 C 
ATOM     58  C   UNL A   1      44.763  27.295  33.601  1.00  0.00     0.031 A 
BRANCH  45  59
ATOM     59  C   UNL A   1      41.129  31.994  35.368  1.00  0.00    -0.014 A 
ATOM     60  C   UNL A   1      40.187  31.813  36.398  1.00  0.00     0.010 A 
ATOM     61  C   UNL A   1      41.795  33.229  35.266  1.00  0.00     0.010 A 
ATOM     62  C   UNL A   1      39.865  32.865  37.261  1.00  0.00     0.020 A 
ATOM     63  C   UNL A   1      41.500  34.274  36.147  1.00  0.00     0.020 A 
ATOM     64  C   UNL A   1      40.516  34.093  37.122  1.00  0.00     0.054 A 
BRANCH  64  65
ATOM     65  S   UNL A   1      40.066  35.449  38.239  1.00  0.00     0.124 S 
ATOM     66  O   UNL A   1      38.991  34.847  39.024  1.00  0.00    -0.237 OA
ATOM     67  O   UNL A   1      41.311  35.695  38.964  1.00  0.00    -0.237 OA
ATOM     68  O   UNL A   1      39.654  36.521  37.336  1.00  0.00    -0.744 OA
ENDBRANCH  64  65
ENDBRANCH  45  59
BRANCH  46  69
ATOM     69  C   UNL A   1      42.850  25.163  28.254  1.00  0.00    -0.014 A 
ATOM     70  C   UNL A   1      43.744  25.419  27.199  1.00  0.00     0.010 A 
ATOM     71  C   UNL A   1      42.231  23.902  28.336  1.00  0.00     0.010 A 
ATOM     72  C   UNL A   1      44.017  24.434  26.247  1.00  0.00     0.020 A 
ATOM     73  C   UNL A   1      42.520  22.906  27.399  1.00  0.00     0.020 A 
ATOM     74  C   UNL A   1      43.408  23.181  26.357  1.00  0.00     0.054 A 
BRANCH  74  75
ATOM     75  S   UNL A   1      43.848  21.888  25.161  1.00  0.00     0.124 S 
ATOM     76  O   UNL A   1      42.836  20.871  25.425  1.00  0.00    -0.237 OA
ATOM     77  O   UNL A   1      43.725  22.587  23.884  1.00  0.00    -0.237 OA
ATOM     78  O   UNL A   1      45.213  21.527  25.535  1.00  0.00    -0.744 OA
ENDBRANCH  74  75
ENDBRANCH  46  69
BRANCH  58  79
ATOM     79  C   UNL A   1      45.945  26.689  34.309  1.00  0.00    -0.014 A 
ATOM     80  C   UNL A   1      47.241  27.207  34.134  1.00  0.00     0.010 A 
ATOM     81  C   UNL A   1      45.754  25.591  35.167  1.00  0.00     0.010 A 
ATOM     82  C   UNL A   1      48.333  26.603  34.762  1.00  0.00     0.020 A 
ATOM     83  C   UNL A   1      46.841  25.004  35.820  1.00  0.00     0.020 A 
ATOM     84  C   UNL A   1      48.126  25.499  35.594  1.00  0.00     0.054 A 
BRANCH  84  85
ATOM     85  S   UNL A   1      49.559  24.732  36.399  1.00  0.00     0.124 S 
ATOM     86  O   UNL A   1      50.602  25.727  36.169  1.00  0.00    -0.237 OA
ATOM     87  O   UNL A   1      49.115  24.596  37.784  1.00  0.00    -0.237 OA
ATOM     88  O   UNL A   1      49.727  23.473  35.679  1.00  0.00    -0.744 OA
ENDBRANCH  84  85
ENDBRANCH  58  79
ENDBRANCH  32  33
ENDBRANCH  24  27
ENDBRANCH   1  23
TORSDOF 14
ENDMDL
MODEL 3
REMARK VINA RESULT:     -11.3      4.410     10.024
REMARK SMILES C[C@H]1CCC[C@]1(C(=O)NCCCNC(=O)c1ccc(-c2c3nc(c(-c4ccc(S(=O)(=O)[O-])cc4)c4ccc([nH]4)c(-c4ccc(S(=O)(=O)[O-])cc4)c4nc(c(-c5ccc(S(=O)(=O)[O-])cc5)c5ccc2[nH]5)C=C4)C=C3)cc1)c1ccc2c(c1)OCO2
REMARK SMILES IDX 12 1 11 2 10 3 9 4 7 5 8 6 6 8 1 9 2 10 3 11 4 12 5 13 76 14
REMARK SMILES IDX 77 15 81 16 78 17 80 18 79 19 82 20 84 21 83 22 13 23 14 24
REMARK SMILES IDX 15 26 16 27 17 28 75 29 18 30 74 31 19 32 20 33 21 34 68 35
REMARK SMILES IDX 22 36 73 37 67 38 69 39 23 40 72 41 66 42 65 43 24 45 54 46
REMARK SMILES IDX 35 47 53 48 36 49 39 50 52 51 70 52 37 53 38 54 51 56 71 57
REMARK SMILES IDX 40 58 25 59 26 60 34 61 27 62 33 63 28 64 29 65 30 66 31 67
REMARK SMILES IDX 32 68 55 69 56 70 64 71 57 72 63 73 58 74 59 75 60 76 61 77
REMARK SMILES IDX 62 78 41 79 42 80 50 81 43 82 49 83 44 84 45 85 46 86 47 87
REMARK SMILES IDX 48 88
REMARK H PARENT 9 7 13 25 69 44 39 55
REMARK Flexibility Score: inf
ROOT
ATOM      1  C   UNL A   1      39.285  23.531  26.876  1.00  0.00     0.118 C 
ENDROOT
BRANCH   1   2
ATOM      2  C   UNL A   1      38.081  23.825  26.001  1.00  0.00     0.042 C 
BRANCH   2   3
ATOM      3  C   UNL A   1      37.222  22.601  25.728  1.00  0.00     0.117 C 
BRANCH   3   4
ATOM      4  N   UNL A   1      36.075  22.492  26.616  1.00  0.00    -0.355 N 
ATOM      5  C   UNL A   1      34.756  22.188  26.442  1.00  0.00     0.230 C 
ATOM      6  O   UNL A   1      34.177  21.947  27.508  1.00  0.00    -0.274 OA
ATOM      7  H   UNL A   1      36.302  22.678  27.555  1.00  0.00     0.163 HD
BRANCH   5   8
ATOM      8  C   UNL A   1      34.025  22.161  25.052  1.00  0.00     0.077 C 
ATOM      9  C   UNL A   1      31.992  23.261  26.316  1.00  0.00     0.009 C 
ATOM     10  C   UNL A   1      32.738  23.061  25.002  1.00  0.00     0.006 C 
ATOM     11  C   UNL A   1      33.131  24.347  24.286  1.00  0.00     0.005 C 
ATOM     12  C   UNL A   1      34.226  23.920  23.315  1.00  0.00     0.002 C 
ATOM     13  C   UNL A   1      34.977  22.755  23.972  1.00  0.00     0.022 C 
BRANCH   8  14
ATOM     14  C   UNL A   1      33.490  20.756  24.596  1.00  0.00    -0.028 A 
ATOM     15  C   UNL A   1      32.443  20.604  23.649  1.00  0.00     0.009 A 
ATOM     16  C   UNL A   1      34.241  19.599  24.919  1.00  0.00     0.055 A 
ATOM     17  C   UNL A   1      32.166  19.372  23.035  1.00  0.00     0.051 A 
ATOM     18  C   UNL A   1      33.987  18.419  24.259  1.00  0.00     0.166 A 
ATOM     19  C   UNL A   1      32.983  18.308  23.333  1.00  0.00     0.165 A 
ATOM     20  O   UNL A   1      34.735  17.287  24.358  1.00  0.00    -0.454 OA
ATOM     21  O   UNL A   1      32.974  17.087  22.734  1.00  0.00    -0.454 OA
ATOM     22  C   UNL A   1      34.218  16.551  23.233  1.00  0.00     0.468 C 
ENDBRANCH   8  14
ENDBRANCH   5   8
ENDBRANCH   3   4
ENDBRANCH   2   3
ENDBRANCH   1   2
BRANCH   1  23
ATOM     23  N   UNL A   1      40.532  23.903  26.221  1.00  0.00    -0.352 N 
ATOM     24  C   UNL A   1      41.278  25.052  26.319  1.00  0.00     0.251 C 
ATOM     25  H   UNL A   1      40.899  23.222  25.611  1.00  0.00     0.163 HD
ATOM     26  O   UNL A   1      42.136  25.282  25.473  1.00  0.00    -0.269 OA
BRANCH  24  27
ATOM     27  C   UNL A   1      41.050  26.005  27.427  1.00  0.00     0.039 A 
ATOM     28  C   UNL A   1      40.061  25.720  28.373  1.00  0.00     0.014 A 
ATOM     29  C   UNL A   1      41.773  27.196  27.515  1.00  0.00     0.014 A 
ATOM     30  C   UNL A   1      39.838  26.607  29.428  1.00  0.00     0.010 A 
ATOM     31  C   UNL A   1      41.628  28.021  28.623  1.00  0.00     0.010 A 
ATOM     32  C   UNL A   1      40.641  27.750  29.577  1.00  0.00    -0.014 A 
BRANCH  32  33
ATOM     33  C   UNL A   1      40.446  28.676  30.720  1.00  0.00     0.031 A 
ATOM     34  C   UNL A   1      41.319  28.576  31.941  1.00  0.00     0.074 A 
ATOM     35  C   UNL A   1      39.450  29.582  30.667  1.00  0.00     0.049 A 
ATOM     36  N   UNL A   1      41.321  29.324  33.015  1.00  0.00    -0.248 NA
ATOM     37  C   UNL A   1      42.297  27.477  31.976  1.00  0.00     0.031 C 
ATOM     38  C   UNL A   1      38.498  29.730  29.563  1.00  0.00     0.029 A 
ATOM     39  N   UNL A   1      39.084  30.560  31.556  1.00  0.00    -0.354 N 
ATOM     40  C   UNL A   1      42.286  28.778  33.855  1.00  0.00     0.074 A 
ATOM     41  C   UNL A   1      42.800  27.599  33.195  1.00  0.00     0.031 C 
ATOM     42  C   UNL A   1      37.697  30.778  29.812  1.00  0.00     0.029 A 
ATOM     43  C   UNL A   1      38.054  31.351  31.106  1.00  0.00     0.049 A 
ATOM     44  H   UNL A   1      39.517  30.684  32.431  1.00  0.00     0.167 HD
ATOM     45  C   UNL A   1      42.723  29.228  35.055  1.00  0.00     0.031 A 
ATOM     46  C   UNL A   1      37.476  32.431  31.663  1.00  0.00     0.031 A 
ATOM     47  C   UNL A   1      42.208  30.405  35.703  1.00  0.00     0.049 A 
ATOM     48  C   UNL A   1      37.986  32.927  32.985  1.00  0.00     0.074 A 
ATOM     49  C   UNL A   1      42.619  30.991  36.887  1.00  0.00     0.029 A 
ATOM     50  N   UNL A   1      41.159  31.176  35.220  1.00  0.00    -0.354 N 
ATOM     51  N   UNL A   1      38.954  32.445  33.728  1.00  0.00    -0.248 NA
ATOM     52  C   UNL A   1      37.334  34.121  33.536  1.00  0.00     0.031 C 
ATOM     53  C   UNL A   1      41.784  32.084  37.147  1.00  0.00     0.029 A 
ATOM     54  C   UNL A   1      40.889  32.214  36.096  1.00  0.00     0.049 A 
ATOM     55  H   UNL A   1      40.677  31.008  34.378  1.00  0.00     0.167 HD
ATOM     56  C   UNL A   1      39.039  33.287  34.830  1.00  0.00     0.074 A 
ATOM     57  C   UNL A   1      38.040  34.321  34.640  1.00  0.00     0.031 C 
ATOM     58  C   UNL A   1      39.868  33.213  35.903  1.00  0.00     0.031 A 
BRANCH  45  59
ATOM     59  C   UNL A   1      43.801  28.426  35.740  1.00  0.00    -0.014 A 
ATOM     60  C   UNL A   1      43.483  27.396  36.645  1.00  0.00     0.010 A 
ATOM     61  C   UNL A   1      45.155  28.714  35.487  1.00  0.00     0.010 A 
ATOM     62  C   UNL A   1      44.491  26.718  37.335  1.00  0.00     0.020 A 
ATOM     63  C   UNL A   1      46.169  28.017  36.151  1.00  0.00     0.020 A 
ATOM     64  C   UNL A   1      45.829  27.042  37.091  1.00  0.00     0.054 A 
BRANCH  64  65
ATOM     65  S   UNL A   1      47.120  26.163  38.015  1.00  0.00     0.124 S 
ATOM     66  O   UNL A   1      47.912  27.268  38.548  1.00  0.00    -0.237 OA
ATOM     67  O   UNL A   1      46.351  25.408  39.002  1.00  0.00    -0.237 OA
ATOM     68  O   UNL A   1      47.785  25.353  36.997  1.00  0.00    -0.744 OA
ENDBRANCH  64  65
ENDBRANCH  45  59
BRANCH  46  69
ATOM     69  C   UNL A   1      36.392  33.141  30.932  1.00  0.00    -0.014 A 
ATOM     70  C   UNL A   1      35.087  33.171  31.455  1.00  0.00     0.010 A 
ATOM     71  C   UNL A   1      36.669  33.842  29.744  1.00  0.00     0.010 A 
ATOM     72  C   UNL A   1      34.080  33.889  30.806  1.00  0.00     0.020 A 
ATOM     73  C   UNL A   1      35.670  34.581  29.105  1.00  0.00     0.020 A 
ATOM     74  C   UNL A   1      34.380  34.596  29.638  1.00  0.00     0.054 A 
BRANCH  74  75
ATOM     75  S   UNL A   1      33.077  35.595  28.864  1.00  0.00     0.124 S 
ATOM     76  O   UNL A   1      32.371  34.604  28.059  1.00  0.00    -0.237 OA
ATOM     77  O   UNL A   1      32.347  36.111  30.019  1.00  0.00    -0.237 OA
ATOM     78  O   UNL A   1      33.822  36.601  28.109  1.00  0.00    -0.744 OA
ENDBRANCH  74  75
ENDBRANCH  46  69
BRANCH  58  79
ATOM     79  C   UNL A   1      39.721  34.287  36.948  1.00  0.00    -0.014 A 
ATOM     80  C   UNL A   1      40.382  35.522  36.818  1.00  0.00     0.010 A 
ATOM     81  C   UNL A   1      38.904  34.061  38.069  1.00  0.00     0.010 A 
ATOM     82  C   UNL A   1      40.273  36.490  37.819  1.00  0.00     0.020 A 
ATOM     83  C   UNL A   1      38.768  35.039  39.058  1.00  0.00     0.020 A 
ATOM     84  C   UNL A   1      39.473  36.238  38.937  1.00  0.00     0.054 A 
BRANCH  84  85
ATOM     85  S   UNL A   1      39.345  37.509  40.224  1.00  0.00     0.124 S 
ATOM     86  O   UNL A   1      38.901  36.728  41.375  1.00  0.00    -0.237 OA
ATOM     87  O   UNL A   1      40.708  38.026  40.303  1.00  0.00    -0.237 OA
ATOM     88  O   UNL A   1      38.360  38.445  39.688  1.00  0.00    -0.744 OA
ENDBRANCH  84  85
ENDBRANCH  58  79
ENDBRANCH  32  33
ENDBRANCH  24  27
ENDBRANCH   1  23
TORSDOF 14
ENDMDL
