MODEL 1
REMARK VINA RESULT:     -12.8      0.000      0.000
REMARK SMILES CCc1cccc2c3c([nH]c12)[C@](CC)(CC(=O)NCCCNC(=O)c1ccc(-c2c4nc(c(-c5ccc(S(=O)(=O)[O-])cc5)c5ccc([nH]5)c(-c5ccc(S(=O)(=O)[O-])cc5)c5nc(c(-c6ccc(S(=O)(=O)[O-])cc6)c6ccc2[nH]6)C=C5)C=C4)cc1)OCC3
REMARK SMILES IDX 20 1 19 2 18 3 16 4 17 5 15 7 12 8 3 9 4 10 11 11 5 12 7 13
REMARK SMILES IDX 10 14 6 15 8 16 9 17 87 19 86 20 85 21 2 22 1 23 13 24 14 25
REMARK SMILES IDX 21 26 22 27 23 28 24 30 25 31 26 32 84 33 27 34 83 35 28 36
REMARK SMILES IDX 29 37 30 38 77 39 31 40 82 41 76 42 78 43 32 44 81 45 75 46
REMARK SMILES IDX 74 47 33 49 63 50 44 51 62 52 45 53 48 54 61 55 79 56 46 57
REMARK SMILES IDX 47 58 60 60 80 61 49 62 34 63 35 64 43 65 36 66 42 67 37 68
REMARK SMILES IDX 38 69 39 70 40 71 41 72 64 73 65 74 73 75 66 76 72 77 67 78
REMARK SMILES IDX 68 79 69 80 70 81 71 82 50 83 51 84 59 85 52 86 58 87 53 88
REMARK SMILES IDX 54 89 55 90 56 91 57 92
REMARK H PARENT 18 6 10 18 22 29 78 48 48 59
REMARK Flexibility Score: inf
ROOT
ATOM      1  C   UNL A   1      38.943  21.748  26.102  1.00  0.00     0.042 C 
ENDROOT
BRANCH   1   2
ATOM      2  C   UNL A   1      38.189  23.082  25.909  1.00  0.00     0.117 C 
BRANCH   2   3
ATOM      3  N   UNL A   1      37.659  23.308  24.563  1.00  0.00    -0.356 N 
ATOM      4  C   UNL A   1      36.532  22.869  23.925  1.00  0.00     0.223 C 
ATOM      5  O   UNL A   1      36.425  23.129  22.724  1.00  0.00    -0.275 OA
ATOM      6  H   UNL A   1      38.227  23.889  24.008  1.00  0.00     0.163 HD
BRANCH   4   7
ATOM      7  C   UNL A   1      35.422  22.177  24.682  1.00  0.00     0.142 C 
BRANCH   7   8
ATOM      8  C   UNL A   1      34.042  22.862  24.852  1.00  0.00     0.117 C 
ATOM      9  C   UNL A   1      33.894  27.941  24.978  1.00  0.00    -0.024 A 
ATOM     10  C   UNL A   1      33.548  28.894  23.991  1.00  0.00     0.006 A 
ATOM     11  C   UNL A   1      33.928  26.596  24.554  1.00  0.00     0.049 A 
ATOM     12  C   UNL A   1      33.255  28.537  22.676  1.00  0.00     0.001 A 
ATOM     13  C   UNL A   1      33.585  26.220  23.256  1.00  0.00     0.003 A 
ATOM     14  N   UNL A   1      34.212  25.423  25.240  1.00  0.00    -0.356 N 
ATOM     15  C   UNL A   1      33.257  27.199  22.301  1.00  0.00     0.010 A 
ATOM     16  C   UNL A   1      33.535  24.809  23.241  1.00  0.00    -0.014 A 
ATOM     17  C   UNL A   1      34.001  24.323  24.442  1.00  0.00     0.052 A 
ATOM     18  H   UNL A   1      34.523  25.384  26.173  1.00  0.00     0.166 HD
ATOM     19  C   UNL A   1      32.935  23.937  22.222  1.00  0.00     0.066 C 
ATOM     20  C   UNL A   1      32.935  22.489  22.691  1.00  0.00     0.166 C 
ATOM     21  O   UNL A   1      32.988  22.222  24.099  1.00  0.00    -0.368 OA
BRANCH   9  22
ATOM     22  C   UNL A   1      34.080  28.405  26.401  1.00  0.00     0.034 C 
ATOM     23  C   UNL A   1      32.831  28.298  27.260  1.00  0.00     0.009 C 
ENDBRANCH   9  22
BRANCH   8  24
ATOM     24  C   UNL A   1      33.613  22.730  26.351  1.00  0.00     0.039 C 
ATOM     25  C   UNL A   1      34.112  21.477  27.074  1.00  0.00     0.007 C 
ENDBRANCH   8  24
ENDBRANCH   7   8
ENDBRANCH   4   7
ENDBRANCH   2   3
ENDBRANCH   1   2
BRANCH   1  26
ATOM     26  C   UNL A   1      40.395  21.854  26.584  1.00  0.00     0.118 C 
BRANCH  26  27
ATOM     27  N   UNL A   1      41.390  22.082  25.564  1.00  0.00    -0.352 N 
ATOM     28  C   UNL A   1      42.308  23.078  25.381  1.00  0.00     0.251 C 
ATOM     29  H   UNL A   1      41.411  21.388  24.867  1.00  0.00     0.163 HD
ATOM     30  O   UNL A   1      43.156  22.912  24.503  1.00  0.00    -0.269 OA
BRANCH  28  31
ATOM     31  C   UNL A   1      42.261  24.371  26.108  1.00  0.00     0.039 A 
ATOM     32  C   UNL A   1      43.040  24.707  27.217  1.00  0.00     0.014 A 
ATOM     33  C   UNL A   1      41.342  25.307  25.612  1.00  0.00     0.014 A 
ATOM     34  C   UNL A   1      42.798  25.889  27.907  1.00  0.00     0.010 A 
ATOM     35  C   UNL A   1      41.133  26.512  26.269  1.00  0.00     0.010 A 
ATOM     36  C   UNL A   1      41.818  26.775  27.453  1.00  0.00    -0.014 A 
BRANCH  36  37
ATOM     37  C   UNL A   1      41.599  28.009  28.206  1.00  0.00     0.031 A 
ATOM     38  C   UNL A   1      42.631  29.075  28.040  1.00  0.00     0.074 A 
ATOM     39  C   UNL A   1      40.483  28.248  28.924  1.00  0.00     0.049 A 
ATOM     40  N   UNL A   1      43.345  29.644  28.955  1.00  0.00    -0.248 NA
ATOM     41  C   UNL A   1      42.959  29.503  26.672  1.00  0.00     0.031 C 
ATOM     42  C   UNL A   1      39.257  27.448  28.981  1.00  0.00     0.029 A 
ATOM     43  N   UNL A   1      40.169  29.347  29.665  1.00  0.00    -0.354 N 
ATOM     44  C   UNL A   1      44.116  30.611  28.308  1.00  0.00     0.074 A 
ATOM     45  C   UNL A   1      43.913  30.408  26.895  1.00  0.00     0.031 C 
ATOM     46  C   UNL A   1      38.260  28.203  29.494  1.00  0.00     0.029 A 
ATOM     47  C   UNL A   1      38.813  29.470  29.938  1.00  0.00     0.049 A 
ATOM     48  H   UNL A   1      40.841  29.995  29.977  1.00  0.00     0.167 HD
ATOM     49  C   UNL A   1      44.763  31.606  28.979  1.00  0.00     0.031 A 
ATOM     50  C   UNL A   1      38.181  30.569  30.419  1.00  0.00     0.031 A 
ATOM     51  C   UNL A   1      44.871  31.329  30.385  1.00  0.00     0.049 A 
ATOM     52  C   UNL A   1      39.198  31.411  31.091  1.00  0.00     0.074 A 
ATOM     53  C   UNL A   1      45.494  30.349  31.130  1.00  0.00     0.029 A 
ATOM     54  N   UNL A   1      43.977  31.938  31.232  1.00  0.00    -0.354 N 
ATOM     55  N   UNL A   1      39.814  31.062  32.184  1.00  0.00    -0.248 NA
ATOM     56  C   UNL A   1      39.833  32.476  30.331  1.00  0.00     0.031 C 
ATOM     57  C   UNL A   1      44.608  30.096  32.216  1.00  0.00     0.029 A 
ATOM     58  C   UNL A   1      43.529  30.976  32.102  1.00  0.00     0.049 A 
ATOM     59  H   UNL A   1      43.708  32.885  31.218  1.00  0.00     0.167 HD
ATOM     60  C   UNL A   1      41.109  31.530  32.025  1.00  0.00     0.074 A 
ATOM     61  C   UNL A   1      41.029  32.490  30.927  1.00  0.00     0.031 C 
ATOM     62  C   UNL A   1      42.172  30.896  32.606  1.00  0.00     0.031 A 
BRANCH  49  63
ATOM     63  C   UNL A   1      45.079  32.960  28.397  1.00  0.00    -0.014 A 
ATOM     64  C   UNL A   1      44.087  33.923  28.130  1.00  0.00     0.010 A 
ATOM     65  C   UNL A   1      46.421  33.392  28.329  1.00  0.00     0.010 A 
ATOM     66  C   UNL A   1      44.404  35.241  27.792  1.00  0.00     0.020 A 
ATOM     67  C   UNL A   1      46.750  34.724  28.034  1.00  0.00     0.020 A 
ATOM     68  C   UNL A   1      45.736  35.640  27.763  1.00  0.00     0.054 A 
BRANCH  68  69
ATOM     69  S   UNL A   1      46.097  37.387  27.452  1.00  0.00     0.124 S 
ATOM     70  O   UNL A   1      46.747  37.786  28.698  1.00  0.00    -0.237 OA
ATOM     71  O   UNL A   1      46.963  37.323  26.279  1.00  0.00    -0.237 OA
ATOM     72  O   UNL A   1      44.779  37.973  27.220  1.00  0.00    -0.744 OA
ENDBRANCH  68  69
ENDBRANCH  49  63
BRANCH  50  73
ATOM     73  C   UNL A   1      36.877  31.112  29.961  1.00  0.00    -0.014 A 
ATOM     74  C   UNL A   1      36.687  31.431  28.602  1.00  0.00     0.010 A 
ATOM     75  C   UNL A   1      35.947  31.610  30.893  1.00  0.00     0.010 A 
ATOM     76  C   UNL A   1      35.666  32.293  28.195  1.00  0.00     0.020 A 
ATOM     77  C   UNL A   1      34.921  32.481  30.492  1.00  0.00     0.020 A 
ATOM     78  C   UNL A   1      34.816  32.848  29.149  1.00  0.00     0.054 A 
BRANCH  78  79
ATOM     79  S   UNL A   1      33.654  34.137  28.618  1.00  0.00     0.124 S 
ATOM     80  O   UNL A   1      33.080  34.566  29.895  1.00  0.00    -0.237 OA
ATOM     81  O   UNL A   1      34.539  35.114  27.978  1.00  0.00    -0.237 OA
ATOM     82  O   UNL A   1      32.745  33.444  27.723  1.00  0.00    -0.744 OA
ENDBRANCH  78  79
ENDBRANCH  50  73
BRANCH  62  83
ATOM     83  C   UNL A   1      41.905  29.820  33.644  1.00  0.00    -0.014 A 
ATOM     84  C   UNL A   1      42.175  30.122  34.992  1.00  0.00     0.010 A 
ATOM     85  C   UNL A   1      41.579  28.487  33.316  1.00  0.00     0.010 A 
ATOM     86  C   UNL A   1      42.144  29.130  35.976  1.00  0.00     0.020 A 
ATOM     87  C   UNL A   1      41.516  27.492  34.304  1.00  0.00     0.020 A 
ATOM     88  C   UNL A   1      41.821  27.817  35.626  1.00  0.00     0.054 A 
BRANCH  88  89
ATOM     89  S   UNL A   1      41.824  26.553  36.926  1.00  0.00     0.124 S 
ATOM     90  O   UNL A   1      41.951  25.316  36.159  1.00  0.00    -0.237 OA
ATOM     91  O   UNL A   1      42.994  26.912  37.724  1.00  0.00    -0.237 OA
ATOM     92  O   UNL A   1      40.540  26.733  37.600  1.00  0.00    -0.744 OA
ENDBRANCH  88  89
ENDBRANCH  62  83
ENDBRANCH  36  37
ENDBRANCH  28  31
ENDBRANCH  26  27
ENDBRANCH   1  26
TORSDOF 16
ENDMDL
MODEL 2
REMARK VINA RESULT:     -12.3      1.858      2.989
REMARK SMILES CCc1cccc2c3c([nH]c12)[C@](CC)(CC(=O)NCCCNC(=O)c1ccc(-c2c4nc(c(-c5ccc(S(=O)(=O)[O-])cc5)c5ccc([nH]5)c(-c5ccc(S(=O)(=O)[O-])cc5)c5nc(c(-c6ccc(S(=O)(=O)[O-])cc6)c6ccc2[nH]6)C=C5)C=C4)cc1)OCC3
REMARK SMILES IDX 20 1 19 2 18 3 16 4 17 5 15 7 12 8 3 9 4 10 11 11 5 12 7 13
REMARK SMILES IDX 10 14 6 15 8 16 9 17 87 19 86 20 85 21 2 22 1 23 13 24 14 25
REMARK SMILES IDX 21 26 22 27 23 28 24 30 25 31 26 32 84 33 27 34 83 35 28 36
REMARK SMILES IDX 29 37 30 38 77 39 31 40 82 41 76 42 78 43 32 44 81 45 75 46
REMARK SMILES IDX 74 47 33 49 63 50 44 51 62 52 45 53 48 54 61 55 79 56 46 57
REMARK SMILES IDX 47 58 60 60 80 61 49 62 34 63 35 64 43 65 36 66 42 67 37 68
REMARK SMILES IDX 38 69 39 70 40 71 41 72 64 73 65 74 73 75 66 76 72 77 67 78
REMARK SMILES IDX 68 79 69 80 70 81 71 82 50 83 51 84 59 85 52 86 58 87 53 88
REMARK SMILES IDX 54 89 55 90 56 91 57 92
REMARK H PARENT 18 6 10 18 22 29 78 48 48 59
REMARK Flexibility Score: inf
ROOT
ATOM      1  C   UNL A   1      36.531  22.209  23.842  1.00  0.00     0.042 C 
ENDROOT
BRANCH   1   2
ATOM      2  C   UNL A   1      35.717  23.385  23.261  1.00  0.00     0.117 C 
BRANCH   2   3
ATOM      3  N   UNL A   1      34.305  23.098  23.006  1.00  0.00    -0.356 N 
ATOM      4  C   UNL A   1      33.152  23.767  23.315  1.00  0.00     0.223 C 
ATOM      5  O   UNL A   1      32.085  23.196  23.076  1.00  0.00    -0.275 OA
ATOM      6  H   UNL A   1      34.154  22.257  22.517  1.00  0.00     0.163 HD
BRANCH   4   7
ATOM      7  C   UNL A   1      33.186  25.184  23.840  1.00  0.00     0.142 C 
BRANCH   7   8
ATOM      8  C   UNL A   1      32.885  25.475  25.332  1.00  0.00     0.117 C 
ATOM      9  C   UNL A   1      35.174  29.463  27.500  1.00  0.00    -0.024 A 
ATOM     10  C   UNL A   1      34.706  30.765  27.797  1.00  0.00     0.006 A 
ATOM     11  C   UNL A   1      34.283  28.635  26.784  1.00  0.00     0.049 A 
ATOM     12  C   UNL A   1      33.444  31.213  27.413  1.00  0.00     0.001 A 
ATOM     13  C   UNL A   1      32.998  29.052  26.441  1.00  0.00     0.003 A 
ATOM     14  N   UNL A   1      34.402  27.325  26.341  1.00  0.00    -0.356 N 
ATOM     15  C   UNL A   1      32.575  30.358  26.745  1.00  0.00     0.010 A 
ATOM     16  C   UNL A   1      32.328  27.922  25.922  1.00  0.00    -0.014 A 
ATOM     17  C   UNL A   1      33.223  26.884  25.788  1.00  0.00     0.052 A 
ATOM     18  H   UNL A   1      35.222  26.784  26.412  1.00  0.00     0.166 HD
ATOM     19  C   UNL A   1      30.886  27.747  25.704  1.00  0.00     0.066 C 
ATOM     20  C   UNL A   1      30.576  26.311  25.310  1.00  0.00     0.166 C 
ATOM     21  O   UNL A   1      31.498  25.280  25.686  1.00  0.00    -0.368 OA
BRANCH   9  22
ATOM     22  C   UNL A   1      36.506  29.024  28.056  1.00  0.00     0.034 C 
ATOM     23  C   UNL A   1      37.643  29.995  27.787  1.00  0.00     0.009 C 
ENDBRANCH   9  22
BRANCH   8  24
ATOM     24  C   UNL A   1      33.679  24.443  26.199  1.00  0.00     0.039 C 
ATOM     25  C   UNL A   1      32.828  23.421  26.956  1.00  0.00     0.007 C 
ENDBRANCH   8  24
ENDBRANCH   7   8
ENDBRANCH   4   7
ENDBRANCH   2   3
ENDBRANCH   1   2
BRANCH   1  26
ATOM     26  C   UNL A   1      37.266  22.478  25.160  1.00  0.00     0.118 C 
BRANCH  26  27
ATOM     27  N   UNL A   1      38.550  21.841  25.316  1.00  0.00    -0.352 N 
ATOM     28  C   UNL A   1      39.608  22.093  26.144  1.00  0.00     0.251 C 
ATOM     29  H   UNL A   1      38.692  21.078  24.710  1.00  0.00     0.163 HD
ATOM     30  O   UNL A   1      40.515  21.259  26.174  1.00  0.00    -0.269 OA
BRANCH  28  31
ATOM     31  C   UNL A   1      39.758  23.355  26.911  1.00  0.00     0.039 A 
ATOM     32  C   UNL A   1      38.862  24.425  26.894  1.00  0.00     0.014 A 
ATOM     33  C   UNL A   1      40.912  23.443  27.703  1.00  0.00     0.014 A 
ATOM     34  C   UNL A   1      39.187  25.616  27.534  1.00  0.00     0.010 A 
ATOM     35  C   UNL A   1      41.215  24.614  28.385  1.00  0.00     0.010 A 
ATOM     36  C   UNL A   1      40.382  25.722  28.250  1.00  0.00    -0.014 A 
BRANCH  36  37
ATOM     37  C   UNL A   1      40.681  26.991  28.910  1.00  0.00     0.031 A 
ATOM     38  C   UNL A   1      41.810  27.782  28.337  1.00  0.00     0.074 A 
ATOM     39  C   UNL A   1      39.928  27.502  29.905  1.00  0.00     0.049 A 
ATOM     40  N   UNL A   1      42.881  28.193  28.934  1.00  0.00    -0.248 NA
ATOM     41  C   UNL A   1      41.772  28.088  26.900  1.00  0.00     0.031 C 
ATOM     42  C   UNL A   1      38.641  27.011  30.407  1.00  0.00     0.029 A 
ATOM     43  N   UNL A   1      40.106  28.662  30.596  1.00  0.00    -0.354 N 
ATOM     44  C   UNL A   1      43.595  28.936  27.994  1.00  0.00     0.074 A 
ATOM     45  C   UNL A   1      42.917  28.751  26.735  1.00  0.00     0.031 C 
ATOM     46  C   UNL A   1      38.044  27.991  31.122  1.00  0.00     0.029 A 
ATOM     47  C   UNL A   1      38.966  29.105  31.253  1.00  0.00     0.049 A 
ATOM     48  H   UNL A   1      40.965  29.143  30.626  1.00  0.00     0.167 HD
ATOM     49  C   UNL A   1      44.618  29.769  28.338  1.00  0.00     0.031 A 
ATOM     50  C   UNL A   1      38.769  30.332  31.793  1.00  0.00     0.031 A 
ATOM     51  C   UNL A   1      45.104  29.510  29.665  1.00  0.00     0.049 A 
ATOM     52  C   UNL A   1      40.102  30.931  32.042  1.00  0.00     0.074 A 
ATOM     53  C   UNL A   1      45.707  28.431  30.279  1.00  0.00     0.029 A 
ATOM     54  N   UNL A   1      44.675  30.332  30.680  1.00  0.00    -0.354 N 
ATOM     55  N   UNL A   1      40.943  30.475  32.926  1.00  0.00    -0.248 NA
ATOM     56  C   UNL A   1      40.676  31.799  31.026  1.00  0.00     0.031 C 
ATOM     57  C   UNL A   1      45.177  28.419  31.601  1.00  0.00     0.029 A 
ATOM     58  C   UNL A   1      44.331  29.523  31.734  1.00  0.00     0.049 A 
ATOM     59  H   UNL A   1      44.625  31.315  30.656  1.00  0.00     0.167 HD
ATOM     60  C   UNL A   1      42.189  30.624  32.338  1.00  0.00     0.074 A 
ATOM     61  C   UNL A   1      41.972  31.549  31.228  1.00  0.00     0.031 C 
ATOM     62  C   UNL A   1      43.219  29.774  32.629  1.00  0.00     0.031 A 
BRANCH  49  63
ATOM     63  C   UNL A   1      45.016  30.997  27.559  1.00  0.00    -0.014 A 
ATOM     64  C   UNL A   1      44.202  32.145  27.482  1.00  0.00     0.010 A 
ATOM     65  C   UNL A   1      46.338  31.119  27.080  1.00  0.00     0.010 A 
ATOM     66  C   UNL A   1      44.664  33.347  26.940  1.00  0.00     0.020 A 
ATOM     67  C   UNL A   1      46.826  32.334  26.574  1.00  0.00     0.020 A 
ATOM     68  C   UNL A   1      45.982  33.440  26.504  1.00  0.00     0.054 A 
BRANCH  68  69
ATOM     69  S   UNL A   1      46.579  35.052  25.934  1.00  0.00     0.124 S 
ATOM     70  O   UNL A   1      45.389  35.603  25.290  1.00  0.00    -0.237 OA
ATOM     71  O   UNL A   1      46.978  35.696  27.181  1.00  0.00    -0.237 OA
ATOM     72  O   UNL A   1      47.676  34.711  25.032  1.00  0.00    -0.744 OA
ENDBRANCH  68  69
ENDBRANCH  49  63
BRANCH  50  73
ATOM     73  C   UNL A   1      37.535  31.153  31.701  1.00  0.00    -0.014 A 
ATOM     74  C   UNL A   1      37.390  32.088  30.657  1.00  0.00     0.010 A 
ATOM     75  C   UNL A   1      36.659  31.247  32.799  1.00  0.00     0.010 A 
ATOM     76  C   UNL A   1      36.472  33.137  30.744  1.00  0.00     0.020 A 
ATOM     77  C   UNL A   1      35.737  32.302  32.896  1.00  0.00     0.020 A 
ATOM     78  C   UNL A   1      35.682  33.263  31.885  1.00  0.00     0.054 A 
BRANCH  78  79
ATOM     79  S   UNL A   1      34.671  34.759  32.068  1.00  0.00     0.124 S 
ATOM     80  O   UNL A   1      34.467  35.155  30.673  1.00  0.00    -0.237 OA
ATOM     81  O   UNL A   1      33.477  34.249  32.748  1.00  0.00    -0.237 OA
ATOM     82  O   UNL A   1      35.500  35.650  32.858  1.00  0.00    -0.744 OA
ENDBRANCH  78  79
ENDBRANCH  50  73
BRANCH  62  83
ATOM     83  C   UNL A   1      43.071  28.816  33.799  1.00  0.00    -0.014 A 
ATOM     84  C   UNL A   1      42.280  27.667  33.614  1.00  0.00     0.010 A 
ATOM     85  C   UNL A   1      43.528  29.104  35.102  1.00  0.00     0.010 A 
ATOM     86  C   UNL A   1      41.936  26.845  34.690  1.00  0.00     0.020 A 
ATOM     87  C   UNL A   1      43.212  28.266  36.183  1.00  0.00     0.020 A 
ATOM     88  C   UNL A   1      42.398  27.153  35.972  1.00  0.00     0.054 A 
BRANCH  88  89
ATOM     89  S   UNL A   1      41.902  26.079  37.348  1.00  0.00     0.124 S 
ATOM     90  O   UNL A   1      42.933  26.355  38.345  1.00  0.00    -0.237 OA
ATOM     91  O   UNL A   1      40.568  26.574  37.679  1.00  0.00    -0.237 OA
ATOM     92  O   UNL A   1      41.936  24.733  36.779  1.00  0.00    -0.744 OA
ENDBRANCH  88  89
ENDBRANCH  62  83
ENDBRANCH  36  37
ENDBRANCH  28  31
ENDBRANCH  26  27
ENDBRANCH   1  26
TORSDOF 16
ENDMDL
MODEL 3
REMARK VINA RESULT:     -12.0      2.995      9.479
REMARK SMILES CCc1cccc2c3c([nH]c12)[C@](CC)(CC(=O)NCCCNC(=O)c1ccc(-c2c4nc(c(-c5ccc(S(=O)(=O)[O-])cc5)c5ccc([nH]5)c(-c5ccc(S(=O)(=O)[O-])cc5)c5nc(c(-c6ccc(S(=O)(=O)[O-])cc6)c6ccc2[nH]6)C=C5)C=C4)cc1)OCC3
REMARK SMILES IDX 20 1 19 2 18 3 16 4 17 5 15 7 12 8 3 9 4 10 11 11 5 12 7 13
REMARK SMILES IDX 10 14 6 15 8 16 9 17 87 19 86 20 85 21 2 22 1 23 13 24 14 25
REMARK SMILES IDX 21 26 22 27 23 28 24 30 25 31 26 32 84 33 27 34 83 35 28 36
REMARK SMILES IDX 29 37 30 38 77 39 31 40 82 41 76 42 78 43 32 44 81 45 75 46
REMARK SMILES IDX 74 47 33 49 63 50 44 51 62 52 45 53 48 54 61 55 79 56 46 57
REMARK SMILES IDX 47 58 60 60 80 61 49 62 34 63 35 64 43 65 36 66 42 67 37 68
REMARK SMILES IDX 38 69 39 70 40 71 41 72 64 73 65 74 73 75 66 76 72 77 67 78
REMARK SMILES IDX 68 79 69 80 70 81 71 82 50 83 51 84 59 85 52 86 58 87 53 88
REMARK SMILES IDX 54 89 55 90 56 91 57 92
REMARK H PARENT 18 6 10 18 22 29 78 48 48 59
REMARK Flexibility Score: inf
ROOT
ATOM      1  C   UNL A   1      35.206  30.429  27.912  1.00  0.00     0.042 C 
ENDROOT
BRANCH   1   2
ATOM      2  C   UNL A   1      34.226  29.713  26.957  1.00  0.00     0.117 C 
BRANCH   2   3
ATOM      3  N   UNL A   1      33.238  28.854  27.610  1.00  0.00    -0.356 N 
ATOM      4  C   UNL A   1      32.052  28.318  27.189  1.00  0.00     0.223 C 
ATOM      5  O   UNL A   1      31.366  27.730  28.028  1.00  0.00    -0.275 OA
ATOM      6  H   UNL A   1      33.472  28.615  28.536  1.00  0.00     0.163 HD
BRANCH   4   7
ATOM      7  C   UNL A   1      31.645  28.365  25.733  1.00  0.00     0.142 C 
BRANCH   7   8
ATOM      8  C   UNL A   1      31.716  27.088  24.858  1.00  0.00     0.117 C 
ATOM      9  C   UNL A   1      35.242  23.605  25.990  1.00  0.00    -0.024 A 
ATOM     10  C   UNL A   1      35.154  22.373  26.680  1.00  0.00     0.006 A 
ATOM     11  C   UNL A   1      34.062  24.379  25.955  1.00  0.00     0.049 A 
ATOM     12  C   UNL A   1      33.980  21.939  27.291  1.00  0.00     0.001 A 
ATOM     13  C   UNL A   1      32.866  23.931  26.515  1.00  0.00     0.003 A 
ATOM     14  N   UNL A   1      33.786  25.608  25.372  1.00  0.00    -0.356 N 
ATOM     15  C   UNL A   1      32.824  22.705  27.202  1.00  0.00     0.010 A 
ATOM     16  C   UNL A   1      31.866  24.849  26.125  1.00  0.00    -0.014 A 
ATOM     17  C   UNL A   1      32.452  25.921  25.491  1.00  0.00     0.052 A 
ATOM     18  H   UNL A   1      34.457  26.180  24.933  1.00  0.00     0.166 HD
ATOM     19  C   UNL A   1      30.408  24.678  26.189  1.00  0.00     0.066 C 
ATOM     20  C   UNL A   1      29.704  25.832  25.491  1.00  0.00     0.166 C 
ATOM     21  O   UNL A   1      30.418  26.570  24.492  1.00  0.00    -0.368 OA
BRANCH   9  22
ATOM     22  C   UNL A   1      36.518  23.941  25.260  1.00  0.00     0.034 C 
ATOM     23  C   UNL A   1      37.781  23.694  26.068  1.00  0.00     0.009 C 
ENDBRANCH   9  22
BRANCH   8  24
ATOM     24  C   UNL A   1      32.404  27.464  23.503  1.00  0.00     0.039 C 
ATOM     25  C   UNL A   1      32.043  28.839  22.936  1.00  0.00     0.007 C 
ENDBRANCH   8  24
ENDBRANCH   7   8
ENDBRANCH   4   7
ENDBRANCH   2   3
ENDBRANCH   1   2
BRANCH   1  26
ATOM     26  C   UNL A   1      34.820  31.850  28.339  1.00  0.00     0.118 C 
BRANCH  26  27
ATOM     27  N   UNL A   1      34.493  32.030  29.732  1.00  0.00    -0.352 N 
ATOM     28  C   UNL A   1      35.224  31.871  30.877  1.00  0.00     0.251 C 
ATOM     29  H   UNL A   1      33.567  32.324  29.889  1.00  0.00     0.163 HD
ATOM     30  O   UNL A   1      34.724  32.276  31.928  1.00  0.00    -0.269 OA
BRANCH  28  31
ATOM     31  C   UNL A   1      36.520  31.151  30.921  1.00  0.00     0.039 A 
ATOM     32  C   UNL A   1      37.781  31.744  30.840  1.00  0.00     0.014 A 
ATOM     33  C   UNL A   1      36.429  29.757  31.050  1.00  0.00     0.014 A 
ATOM     34  C   UNL A   1      38.919  30.952  30.737  1.00  0.00     0.010 A 
ATOM     35  C   UNL A   1      37.569  28.965  30.999  1.00  0.00     0.010 A 
ATOM     36  C   UNL A   1      38.809  29.560  30.779  1.00  0.00    -0.014 A 
BRANCH  36  37
ATOM     37  C   UNL A   1      40.031  28.766  30.672  1.00  0.00     0.031 A 
ATOM     38  C   UNL A   1      40.735  28.462  31.953  1.00  0.00     0.074 A 
ATOM     39  C   UNL A   1      40.460  28.225  29.514  1.00  0.00     0.049 A 
ATOM     40  N   UNL A   1      41.955  28.740  32.278  1.00  0.00    -0.248 NA
ATOM     41  C   UNL A   1      39.955  27.837  33.031  1.00  0.00     0.031 C 
ATOM     42  C   UNL A   1      39.766  28.182  28.224  1.00  0.00     0.029 A 
ATOM     43  N   UNL A   1      41.576  27.476  29.288  1.00  0.00    -0.354 N 
ATOM     44  C   UNL A   1      42.155  28.201  33.549  1.00  0.00     0.074 A 
ATOM     45  C   UNL A   1      40.863  27.749  34.004  1.00  0.00     0.031 C 
ATOM     46  C   UNL A   1      40.343  27.242  27.443  1.00  0.00     0.029 A 
ATOM     47  C   UNL A   1      41.527  26.736  28.114  1.00  0.00     0.049 A 
ATOM     48  H   UNL A   1      42.346  27.461  29.902  1.00  0.00     0.167 HD
ATOM     49  C   UNL A   1      43.395  28.033  34.090  1.00  0.00     0.031 A 
ATOM     50  C   UNL A   1      42.356  25.723  27.762  1.00  0.00     0.031 A 
ATOM     51  C   UNL A   1      44.397  28.794  33.395  1.00  0.00     0.049 A 
ATOM     52  C   UNL A   1      43.605  25.874  28.544  1.00  0.00     0.074 A 
ATOM     53  C   UNL A   1      44.612  30.141  33.186  1.00  0.00     0.029 A 
ATOM     54  N   UNL A   1      45.186  28.138  32.482  1.00  0.00    -0.354 N 
ATOM     55  N   UNL A   1      44.442  26.859  28.382  1.00  0.00    -0.248 NA
ATOM     56  C   UNL A   1      43.735  25.146  29.796  1.00  0.00     0.031 C 
ATOM     57  C   UNL A   1      45.124  30.228  31.860  1.00  0.00     0.029 A 
ATOM     58  C   UNL A   1      45.247  28.929  31.362  1.00  0.00     0.049 A 
ATOM     59  H   UNL A   1      45.625  27.266  32.607  1.00  0.00     0.167 HD
ATOM     60  C   UNL A   1      44.890  27.157  29.660  1.00  0.00     0.074 A 
ATOM     61  C   UNL A   1      44.515  25.998  30.467  1.00  0.00     0.031 C 
ATOM     62  C   UNL A   1      45.271  28.423  30.003  1.00  0.00     0.031 A 
BRANCH  49  63
ATOM     63  C   UNL A   1      43.747  26.972  35.102  1.00  0.00    -0.014 A 
ATOM     64  C   UNL A   1      43.760  25.598  34.791  1.00  0.00     0.010 A 
ATOM     65  C   UNL A   1      44.314  27.351  36.339  1.00  0.00     0.010 A 
ATOM     66  C   UNL A   1      44.286  24.644  35.666  1.00  0.00     0.020 A 
ATOM     67  C   UNL A   1      44.885  26.406  37.205  1.00  0.00     0.020 A 
ATOM     68  C   UNL A   1      44.863  25.056  36.862  1.00  0.00     0.054 A 
BRANCH  68  69
ATOM     69  S   UNL A   1      45.653  23.803  37.904  1.00  0.00     0.124 S 
ATOM     70  O   UNL A   1      44.914  23.943  39.156  1.00  0.00    -0.237 OA
ATOM     71  O   UNL A   1      45.403  22.574  37.157  1.00  0.00    -0.237 OA
ATOM     72  O   UNL A   1      47.050  24.227  37.951  1.00  0.00    -0.744 OA
ENDBRANCH  68  69
ENDBRANCH  49  63
BRANCH  50  73
ATOM     73  C   UNL A   1      41.964  24.437  27.132  1.00  0.00    -0.014 A 
ATOM     74  C   UNL A   1      41.066  23.576  27.794  1.00  0.00     0.010 A 
ATOM     75  C   UNL A   1      42.705  23.917  26.055  1.00  0.00     0.010 A 
ATOM     76  C   UNL A   1      40.978  22.222  27.460  1.00  0.00     0.020 A 
ATOM     77  C   UNL A   1      42.626  22.555  25.717  1.00  0.00     0.020 A 
ATOM     78  C   UNL A   1      41.793  21.711  26.452  1.00  0.00     0.054 A 
BRANCH  78  79
ATOM     79  S   UNL A   1      41.823  19.914  26.201  1.00  0.00     0.124 S 
ATOM     80  O   UNL A   1      42.111  19.428  27.552  1.00  0.00    -0.237 OA
ATOM     81  O   UNL A   1      40.466  19.641  25.721  1.00  0.00    -0.237 OA
ATOM     82  O   UNL A   1      42.878  19.713  25.224  1.00  0.00    -0.744 OA
ENDBRANCH  78  79
ENDBRANCH  50  73
BRANCH  62  83
ATOM     83  C   UNL A   1      45.449  29.459  28.907  1.00  0.00    -0.014 A 
ATOM     84  C   UNL A   1      46.697  30.100  28.801  1.00  0.00     0.010 A 
ATOM     85  C   UNL A   1      44.387  29.940  28.113  1.00  0.00     0.010 A 
ATOM     86  C   UNL A   1      46.877  31.196  27.953  1.00  0.00     0.020 A 
ATOM     87  C   UNL A   1      44.568  31.021  27.236  1.00  0.00     0.020 A 
ATOM     88  C   UNL A   1      45.809  31.657  27.179  1.00  0.00     0.054 A 
BRANCH  88  89
ATOM     89  S   UNL A   1      46.075  33.102  26.116  1.00  0.00     0.124 S 
ATOM     90  O   UNL A   1      47.495  32.992  25.791  1.00  0.00    -0.237 OA
ATOM     91  O   UNL A   1      45.161  32.858  25.003  1.00  0.00    -0.237 OA
ATOM     92  O   UNL A   1      45.723  34.238  26.966  1.00  0.00    -0.744 OA
ENDBRANCH  88  89
ENDBRANCH  62  83
ENDBRANCH  36  37
ENDBRANCH  28  31
ENDBRANCH  26  27
ENDBRANCH   1  26
TORSDOF 16
ENDMDL
