MODEL 1
REMARK VINA RESULT:     -12.2      0.000      0.000
REMARK SMILES O=C(/C=C/c1ccccc1Oc1cccc(Cl)c1)NCCCNC(=O)c1ccc(-c2c3nc(c(-c4ccc(S(=O)(=O)[O-])cc4)c4ccc([nH]4)c(-c4ccc(S(=O)(=O)[O-])cc4)c4nc(c(-c5ccc(S(=O)(=O)[O-])cc5)c5ccc2[nH]5)C=C4)C=C3)cc1
REMARK SMILES IDX 21 1 20 2 19 3 1 4 2 5 3 7 4 8 5 9 6 10 10 11 7 12 9 13 8 14
REMARK SMILES IDX 11 15 12 16 13 17 18 18 14 19 16 20 15 21 17 22 22 23 23 24
REMARK SMILES IDX 24 25 25 27 26 28 27 29 85 30 28 31 84 32 29 33 30 34 31 35
REMARK SMILES IDX 78 36 32 37 83 38 77 39 79 40 33 41 82 42 76 43 75 44 34 46
REMARK SMILES IDX 64 47 45 48 63 49 46 50 49 51 62 52 80 53 47 54 48 55 61 57
REMARK SMILES IDX 81 58 50 59 35 60 36 61 44 62 37 63 43 64 38 65 39 66 40 67
REMARK SMILES IDX 41 68 42 69 65 70 66 71 74 72 67 73 73 74 68 75 69 76 70 77
REMARK SMILES IDX 71 78 72 79 51 80 52 81 60 82 53 83 59 84 54 85 55 86 56 87
REMARK SMILES IDX 57 88 58 89
REMARK H PARENT 19 6 23 26 79 45 49 56
REMARK Flexibility Score: inf
ROOT
ATOM      1  C   UNL A   1      40.465  22.408  27.468  1.00  0.00     0.042 C 
ENDROOT
BRANCH   1   2
ATOM      2  C   UNL A   1      39.999  21.635  26.243  1.00  0.00     0.118 C 
BRANCH   2   3
ATOM      3  N   UNL A   1      38.831  22.216  25.616  1.00  0.00    -0.352 N 
ATOM      4  O   UNL A   1      37.894  20.236  24.935  1.00  0.00    -0.270 OA
ATOM      5  C   UNL A   1      37.853  21.458  25.025  1.00  0.00     0.244 C 
ATOM      6  H   UNL A   1      38.736  23.197  25.612  1.00  0.00     0.163 HD
BRANCH   5   7
ATOM      7  C   UNL A   1      36.639  22.190  24.576  1.00  0.00     0.072 C 
ATOM      8  C   UNL A   1      35.383  21.722  24.640  1.00  0.00     0.017 C 
BRANCH   8   9
ATOM      9  C   UNL A   1      34.231  22.402  24.033  1.00  0.00     0.017 A 
ATOM     10  C   UNL A   1      34.544  23.590  23.342  1.00  0.00     0.012 A 
ATOM     11  C   UNL A   1      32.880  22.008  24.127  1.00  0.00     0.134 A 
ATOM     12  C   UNL A   1      33.552  24.366  22.743  1.00  0.00     0.001 A 
ATOM     13  C   UNL A   1      31.895  22.800  23.509  1.00  0.00     0.048 A 
ATOM     14  C   UNL A   1      32.224  23.970  22.825  1.00  0.00     0.004 A 
BRANCH  11  15
ATOM     15  O   UNL A   1      32.324  20.887  24.713  1.00  0.00    -0.457 OA
BRANCH  15  16
ATOM     16  C   UNL A   1      32.605  19.623  24.272  1.00  0.00     0.128 A 
ATOM     17  C   UNL A   1      32.297  19.341  22.938  1.00  0.00     0.047 A 
ATOM     18  C   UNL A   1      33.104  18.625  25.108  1.00  0.00     0.067 A 
ATOM     19  C   UNL A   1      32.575  18.083  22.407  1.00  0.00     0.005 A 
ATOM     20  C   UNL A   1      33.386  17.371  24.567  1.00  0.00     0.044 A 
ATOM     21  C   UNL A   1      33.133  17.098  23.221  1.00  0.00     0.021 A 
ATOM     22  Cl  UNL A   1      34.116  16.165  25.554  1.00  0.00    -0.084 Cl
ENDBRANCH  15  16
ENDBRANCH  11  15
ENDBRANCH   8   9
ENDBRANCH   5   7
ENDBRANCH   2   3
ENDBRANCH   1   2
BRANCH   1  23
ATOM     23  C   UNL A   1      41.767  23.173  27.269  1.00  0.00     0.118 C 
BRANCH  23  24
ATOM     24  N   UNL A   1      41.734  24.100  26.145  1.00  0.00    -0.352 N 
ATOM     25  C   UNL A   1      41.489  25.452  26.132  1.00  0.00     0.251 C 
ATOM     26  H   UNL A   1      41.914  23.698  25.265  1.00  0.00     0.163 HD
ATOM     27  O   UNL A   1      41.394  26.037  25.053  1.00  0.00    -0.269 OA
BRANCH  25  28
ATOM     28  C   UNL A   1      41.304  26.202  27.397  1.00  0.00     0.039 A 
ATOM     29  C   UNL A   1      42.301  27.096  27.796  1.00  0.00     0.014 A 
ATOM     30  C   UNL A   1      40.167  26.034  28.191  1.00  0.00     0.014 A 
ATOM     31  C   UNL A   1      42.124  27.866  28.949  1.00  0.00     0.010 A 
ATOM     32  C   UNL A   1      39.953  26.865  29.291  1.00  0.00     0.010 A 
ATOM     33  C   UNL A   1      40.929  27.789  29.686  1.00  0.00    -0.014 A 
BRANCH  33  34
ATOM     34  C   UNL A   1      40.698  28.692  30.847  1.00  0.00     0.031 A 
ATOM     35  C   UNL A   1      41.525  28.571  32.099  1.00  0.00     0.074 A 
ATOM     36  C   UNL A   1      39.715  29.613  30.778  1.00  0.00     0.049 A 
ATOM     37  N   UNL A   1      41.493  29.309  33.181  1.00  0.00    -0.248 NA
ATOM     38  C   UNL A   1      42.498  27.469  32.158  1.00  0.00     0.031 C 
ATOM     39  C   UNL A   1      38.798  29.792  29.649  1.00  0.00     0.029 A 
ATOM     40  N   UNL A   1      39.328  30.581  31.671  1.00  0.00    -0.354 N 
ATOM     41  C   UNL A   1      42.431  28.759  34.047  1.00  0.00     0.074 A 
ATOM     42  C   UNL A   1      42.974  27.591  33.390  1.00  0.00     0.031 C 
ATOM     43  C   UNL A   1      37.995  30.838  29.894  1.00  0.00     0.029 A 
ATOM     44  C   UNL A   1      38.307  31.381  31.211  1.00  0.00     0.049 A 
ATOM     45  H   UNL A   1      39.743  30.694  32.557  1.00  0.00     0.167 HD
ATOM     46  C   UNL A   1      42.825  29.199  35.267  1.00  0.00     0.031 A 
ATOM     47  C   UNL A   1      37.694  32.438  31.779  1.00  0.00     0.031 A 
ATOM     48  C   UNL A   1      42.281  30.362  35.921  1.00  0.00     0.049 A 
ATOM     49  C   UNL A   1      38.155  32.912  33.130  1.00  0.00     0.074 A 
ATOM     50  C   UNL A   1      42.651  30.919  37.133  1.00  0.00     0.029 A 
ATOM     51  N   UNL A   1      41.250  31.144  35.423  1.00  0.00    -0.354 N 
ATOM     52  N   UNL A   1      39.101  32.425  33.897  1.00  0.00    -0.248 NA
ATOM     53  C   UNL A   1      37.477  34.093  33.680  1.00  0.00     0.031 C 
ATOM     54  C   UNL A   1      41.803  32.001  37.396  1.00  0.00     0.029 A 
ATOM     55  C   UNL A   1      40.953  32.163  36.313  1.00  0.00     0.049 A 
ATOM     56  H   UNL A   1      40.794  30.996  34.562  1.00  0.00     0.167 HD
ATOM     57  C   UNL A   1      39.152  33.258  35.009  1.00  0.00     0.074 A 
ATOM     58  C   UNL A   1      38.159  34.293  34.799  1.00  0.00     0.031 C 
ATOM     59  C   UNL A   1      39.951  33.177  36.104  1.00  0.00     0.031 A 
BRANCH  46  60
ATOM     60  C   UNL A   1      43.897  28.412  35.980  1.00  0.00    -0.014 A 
ATOM     61  C   UNL A   1      45.256  28.767  35.873  1.00  0.00     0.010 A 
ATOM     62  C   UNL A   1      43.541  27.331  36.807  1.00  0.00     0.010 A 
ATOM     63  C   UNL A   1      46.238  28.030  36.541  1.00  0.00     0.020 A 
ATOM     64  C   UNL A   1      44.517  26.611  37.504  1.00  0.00     0.020 A 
ATOM     65  C   UNL A   1      45.861  26.956  37.353  1.00  0.00     0.054 A 
BRANCH  65  66
ATOM     66  S   UNL A   1      47.156  26.035  38.227  1.00  0.00     0.124 S 
ATOM     67  O   UNL A   1      48.273  26.122  37.290  1.00  0.00    -0.237 OA
ATOM     68  O   UNL A   1      47.312  26.797  39.462  1.00  0.00    -0.237 OA
ATOM     69  O   UNL A   1      46.584  24.701  38.390  1.00  0.00    -0.744 OA
ENDBRANCH  65  66
ENDBRANCH  46  60
BRANCH  47  70
ATOM     70  C   UNL A   1      36.598  33.141  31.053  1.00  0.00    -0.014 A 
ATOM     71  C   UNL A   1      36.863  33.862  29.876  1.00  0.00     0.010 A 
ATOM     72  C   UNL A   1      35.278  33.084  31.536  1.00  0.00     0.010 A 
ATOM     73  C   UNL A   1      35.834  34.533  29.208  1.00  0.00     0.020 A 
ATOM     74  C   UNL A   1      34.240  33.726  30.853  1.00  0.00     0.020 A 
ATOM     75  C   UNL A   1      34.528  34.457  29.699  1.00  0.00     0.054 A 
BRANCH  75  76
ATOM     76  S   UNL A   1      33.201  35.293  28.789  1.00  0.00     0.124 S 
ATOM     77  O   UNL A   1      32.585  34.187  28.063  1.00  0.00    -0.237 OA
ATOM     78  O   UNL A   1      32.397  35.870  29.864  1.00  0.00    -0.237 OA
ATOM     79  O   UNL A   1      33.912  36.265  27.962  1.00  0.00    -0.744 OA
ENDBRANCH  75  76
ENDBRANCH  47  70
BRANCH  59  80
ATOM     80  C   UNL A   1      39.802  34.261  37.142  1.00  0.00    -0.014 A 
ATOM     81  C   UNL A   1      40.517  35.469  37.053  1.00  0.00     0.010 A 
ATOM     82  C   UNL A   1      38.929  34.063  38.228  1.00  0.00     0.010 A 
ATOM     83  C   UNL A   1      40.413  36.428  38.065  1.00  0.00     0.020 A 
ATOM     84  C   UNL A   1      38.795  35.034  39.222  1.00  0.00     0.020 A 
ATOM     85  C   UNL A   1      39.559  36.200  39.148  1.00  0.00     0.054 A 
BRANCH  85  86
ATOM     86  S   UNL A   1      39.453  37.451  40.457  1.00  0.00     0.124 S 
ATOM     87  O   UNL A   1      40.797  38.020  40.442  1.00  0.00    -0.237 OA
ATOM     88  O   UNL A   1      38.391  38.331  39.973  1.00  0.00    -0.237 OA
ATOM     89  O   UNL A   1      39.117  36.677  41.650  1.00  0.00    -0.744 OA
ENDBRANCH  85  86
ENDBRANCH  59  80
ENDBRANCH  33  34
ENDBRANCH  25  28
ENDBRANCH  23  24
ENDBRANCH   1  23
TORSDOF 16
ENDMDL
MODEL 2
REMARK VINA RESULT:     -11.7      2.051      3.296
REMARK SMILES O=C(/C=C/c1ccccc1Oc1cccc(Cl)c1)NCCCNC(=O)c1ccc(-c2c3nc(c(-c4ccc(S(=O)(=O)[O-])cc4)c4ccc([nH]4)c(-c4ccc(S(=O)(=O)[O-])cc4)c4nc(c(-c5ccc(S(=O)(=O)[O-])cc5)c5ccc2[nH]5)C=C4)C=C3)cc1
REMARK SMILES IDX 21 1 20 2 19 3 1 4 2 5 3 7 4 8 5 9 6 10 10 11 7 12 9 13 8 14
REMARK SMILES IDX 11 15 12 16 13 17 18 18 14 19 16 20 15 21 17 22 22 23 23 24
REMARK SMILES IDX 24 25 25 27 26 28 27 29 85 30 28 31 84 32 29 33 30 34 31 35
REMARK SMILES IDX 78 36 32 37 83 38 77 39 79 40 33 41 82 42 76 43 75 44 34 46
REMARK SMILES IDX 64 47 45 48 63 49 46 50 49 51 62 52 80 53 47 54 48 55 61 57
REMARK SMILES IDX 81 58 50 59 35 60 36 61 44 62 37 63 43 64 38 65 39 66 40 67
REMARK SMILES IDX 41 68 42 69 65 70 66 71 74 72 67 73 73 74 68 75 69 76 70 77
REMARK SMILES IDX 71 78 72 79 51 80 52 81 60 82 53 83 59 84 54 85 55 86 56 87
REMARK SMILES IDX 57 88 58 89
REMARK H PARENT 19 6 23 26 79 45 49 56
REMARK Flexibility Score: inf
ROOT
ATOM      1  C   UNL A   1      40.725  22.269  27.475  1.00  0.00     0.042 C 
ENDROOT
BRANCH   1   2
ATOM      2  C   UNL A   1      40.205  21.687  26.169  1.00  0.00     0.118 C 
BRANCH   2   3
ATOM      3  N   UNL A   1      38.760  21.654  26.098  1.00  0.00    -0.352 N 
ATOM      4  O   UNL A   1      38.462  23.922  25.918  1.00  0.00    -0.270 OA
ATOM      5  C   UNL A   1      38.000  22.787  25.955  1.00  0.00     0.244 C 
ATOM      6  H   UNL A   1      38.304  20.783  26.156  1.00  0.00     0.163 HD
BRANCH   5   7
ATOM      7  C   UNL A   1      36.545  22.575  25.728  1.00  0.00     0.072 C 
ATOM      8  C   UNL A   1      35.729  23.426  25.089  1.00  0.00     0.017 C 
BRANCH   8   9
ATOM      9  C   UNL A   1      34.270  23.264  25.033  1.00  0.00     0.017 A 
ATOM     10  C   UNL A   1      33.829  22.136  24.312  1.00  0.00     0.012 A 
ATOM     11  C   UNL A   1      33.307  24.142  25.573  1.00  0.00     0.134 A 
ATOM     12  C   UNL A   1      32.471  21.867  24.140  1.00  0.00     0.001 A 
ATOM     13  C   UNL A   1      31.942  23.848  25.396  1.00  0.00     0.048 A 
ATOM     14  C   UNL A   1      31.525  22.724  24.684  1.00  0.00     0.004 A 
BRANCH  11  15
ATOM     15  O   UNL A   1      33.478  25.282  26.334  1.00  0.00    -0.457 OA
BRANCH  15  16
ATOM     16  C   UNL A   1      33.251  26.533  25.829  1.00  0.00     0.128 A 
ATOM     17  C   UNL A   1      32.419  27.371  26.578  1.00  0.00     0.047 A 
ATOM     18  C   UNL A   1      33.751  26.951  24.597  1.00  0.00     0.067 A 
ATOM     19  C   UNL A   1      32.157  28.668  26.142  1.00  0.00     0.005 A 
ATOM     20  C   UNL A   1      33.490  28.253  24.171  1.00  0.00     0.044 A 
ATOM     21  C   UNL A   1      32.706  29.115  24.940  1.00  0.00     0.021 A 
ATOM     22  Cl  UNL A   1      34.200  28.828  22.712  1.00  0.00    -0.084 Cl
ENDBRANCH  15  16
ENDBRANCH  11  15
ENDBRANCH   8   9
ENDBRANCH   5   7
ENDBRANCH   2   3
ENDBRANCH   1   2
BRANCH   1  23
ATOM     23  C   UNL A   1      41.876  23.255  27.308  1.00  0.00     0.118 C 
BRANCH  23  24
ATOM     24  N   UNL A   1      41.710  24.160  26.178  1.00  0.00    -0.352 N 
ATOM     25  C   UNL A   1      41.370  25.491  26.165  1.00  0.00     0.251 C 
ATOM     26  H   UNL A   1      41.864  23.758  25.293  1.00  0.00     0.163 HD
ATOM     27  O   UNL A   1      41.170  26.052  25.088  1.00  0.00    -0.269 OA
BRANCH  25  28
ATOM     28  C   UNL A   1      41.209  26.245  27.431  1.00  0.00     0.039 A 
ATOM     29  C   UNL A   1      42.195  27.169  27.789  1.00  0.00     0.014 A 
ATOM     30  C   UNL A   1      40.105  26.053  28.266  1.00  0.00     0.014 A 
ATOM     31  C   UNL A   1      42.037  27.942  28.942  1.00  0.00     0.010 A 
ATOM     32  C   UNL A   1      39.907  26.886  29.367  1.00  0.00     0.010 A 
ATOM     33  C   UNL A   1      40.871  27.839  29.720  1.00  0.00    -0.014 A 
BRANCH  33  34
ATOM     34  C   UNL A   1      40.656  28.744  30.883  1.00  0.00     0.031 A 
ATOM     35  C   UNL A   1      41.494  28.620  32.128  1.00  0.00     0.074 A 
ATOM     36  C   UNL A   1      39.678  29.671  30.823  1.00  0.00     0.049 A 
ATOM     37  N   UNL A   1      41.476  29.359  33.209  1.00  0.00    -0.248 NA
ATOM     38  C   UNL A   1      42.461  27.512  32.179  1.00  0.00     0.031 C 
ATOM     39  C   UNL A   1      38.751  29.854  29.702  1.00  0.00     0.029 A 
ATOM     40  N   UNL A   1      39.304  30.642  31.719  1.00  0.00    -0.354 N 
ATOM     41  C   UNL A   1      42.420  28.804  34.067  1.00  0.00     0.074 A 
ATOM     42  C   UNL A   1      42.949  27.632  33.405  1.00  0.00     0.031 C 
ATOM     43  C   UNL A   1      37.956  30.904  29.954  1.00  0.00     0.029 A 
ATOM     44  C   UNL A   1      38.283  31.447  31.268  1.00  0.00     0.049 A 
ATOM     45  H   UNL A   1      39.728  30.753  32.601  1.00  0.00     0.167 HD
ATOM     46  C   UNL A   1      42.827  29.243  35.283  1.00  0.00     0.031 A 
ATOM     47  C   UNL A   1      37.682  32.508  31.840  1.00  0.00     0.031 A 
ATOM     48  C   UNL A   1      42.296  30.409  35.941  1.00  0.00     0.049 A 
ATOM     49  C   UNL A   1      38.159  32.980  33.186  1.00  0.00     0.074 A 
ATOM     50  C   UNL A   1      42.680  30.965  37.149  1.00  0.00     0.029 A 
ATOM     51  N   UNL A   1      41.265  31.196  35.452  1.00  0.00    -0.354 N 
ATOM     52  N   UNL A   1      39.109  32.488  33.945  1.00  0.00    -0.248 NA
ATOM     53  C   UNL A   1      37.492  34.166  33.742  1.00  0.00     0.031 C 
ATOM     54  C   UNL A   1      41.841  32.052  37.419  1.00  0.00     0.029 A 
ATOM     55  C   UNL A   1      40.982  32.218  36.344  1.00  0.00     0.049 A 
ATOM     56  H   UNL A   1      40.800  31.051  34.596  1.00  0.00     0.167 HD
ATOM     57  C   UNL A   1      39.175  33.323  35.056  1.00  0.00     0.074 A 
ATOM     58  C   UNL A   1      38.186  34.363  34.854  1.00  0.00     0.031 C 
ATOM     59  C   UNL A   1      39.983  33.238  36.143  1.00  0.00     0.031 A 
BRANCH  46  60
ATOM     60  C   UNL A   1      43.902  28.450  35.987  1.00  0.00    -0.014 A 
ATOM     61  C   UNL A   1      45.264  28.774  35.835  1.00  0.00     0.010 A 
ATOM     62  C   UNL A   1      43.546  27.397  36.848  1.00  0.00     0.010 A 
ATOM     63  C   UNL A   1      46.248  28.033  36.495  1.00  0.00     0.020 A 
ATOM     64  C   UNL A   1      44.525  26.673  37.537  1.00  0.00     0.020 A 
ATOM     65  C   UNL A   1      45.871  26.986  37.342  1.00  0.00     0.054 A 
BRANCH  65  66
ATOM     66  S   UNL A   1      47.170  26.058  38.204  1.00  0.00     0.124 S 
ATOM     67  O   UNL A   1      48.383  26.693  37.695  1.00  0.00    -0.237 OA
ATOM     68  O   UNL A   1      46.868  26.317  39.609  1.00  0.00    -0.237 OA
ATOM     69  O   UNL A   1      46.960  24.680  37.769  1.00  0.00    -0.744 OA
ENDBRANCH  65  66
ENDBRANCH  46  60
BRANCH  47  70
ATOM     70  C   UNL A   1      36.583  33.216  31.125  1.00  0.00    -0.014 A 
ATOM     71  C   UNL A   1      35.328  33.396  31.733  1.00  0.00     0.010 A 
ATOM     72  C   UNL A   1      36.792  33.723  29.829  1.00  0.00     0.010 A 
ATOM     73  C   UNL A   1      34.296  34.047  31.051  1.00  0.00     0.020 A 
ATOM     74  C   UNL A   1      35.773  34.404  29.156  1.00  0.00     0.020 A 
ATOM     75  C   UNL A   1      34.527  34.551  29.768  1.00  0.00     0.054 A 
BRANCH  75  76
ATOM     76  S   UNL A   1      33.189  35.436  28.921  1.00  0.00     0.124 S 
ATOM     77  O   UNL A   1      33.927  36.377  28.085  1.00  0.00    -0.237 OA
ATOM     78  O   UNL A   1      32.501  34.362  28.210  1.00  0.00    -0.237 OA
ATOM     79  O   UNL A   1      32.429  36.036  30.015  1.00  0.00    -0.744 OA
ENDBRANCH  75  76
ENDBRANCH  47  70
BRANCH  59  80
ATOM     80  C   UNL A   1      39.851  34.323  37.181  1.00  0.00    -0.014 A 
ATOM     81  C   UNL A   1      39.061  34.150  38.332  1.00  0.00     0.010 A 
ATOM     82  C   UNL A   1      40.531  35.542  36.998  1.00  0.00     0.010 A 
ATOM     83  C   UNL A   1      38.900  35.198  39.244  1.00  0.00     0.020 A 
ATOM     84  C   UNL A   1      40.403  36.578  37.925  1.00  0.00     0.020 A 
ATOM     85  C   UNL A   1      39.565  36.409  39.029  1.00  0.00     0.054 A 
BRANCH  85  86
ATOM     86  S   UNL A   1      39.329  37.758  40.217  1.00  0.00     0.124 S 
ATOM     87  O   UNL A   1      38.906  37.038  41.415  1.00  0.00    -0.237 OA
ATOM     88  O   UNL A   1      40.657  38.364  40.282  1.00  0.00    -0.237 OA
ATOM     89  O   UNL A   1      38.301  38.591  39.596  1.00  0.00    -0.744 OA
ENDBRANCH  85  86
ENDBRANCH  59  80
ENDBRANCH  33  34
ENDBRANCH  25  28
ENDBRANCH  23  24
ENDBRANCH   1  23
TORSDOF 16
ENDMDL
MODEL 3
REMARK VINA RESULT:     -11.6      1.320      2.434
REMARK SMILES O=C(/C=C/c1ccccc1Oc1cccc(Cl)c1)NCCCNC(=O)c1ccc(-c2c3nc(c(-c4ccc(S(=O)(=O)[O-])cc4)c4ccc([nH]4)c(-c4ccc(S(=O)(=O)[O-])cc4)c4nc(c(-c5ccc(S(=O)(=O)[O-])cc5)c5ccc2[nH]5)C=C4)C=C3)cc1
REMARK SMILES IDX 21 1 20 2 19 3 1 4 2 5 3 7 4 8 5 9 6 10 10 11 7 12 9 13 8 14
REMARK SMILES IDX 11 15 12 16 13 17 18 18 14 19 16 20 15 21 17 22 22 23 23 24
REMARK SMILES IDX 24 25 25 27 26 28 27 29 85 30 28 31 84 32 29 33 30 34 31 35
REMARK SMILES IDX 78 36 32 37 83 38 77 39 79 40 33 41 82 42 76 43 75 44 34 46
REMARK SMILES IDX 64 47 45 48 63 49 46 50 49 51 62 52 80 53 47 54 48 55 61 57
REMARK SMILES IDX 81 58 50 59 35 60 36 61 44 62 37 63 43 64 38 65 39 66 40 67
REMARK SMILES IDX 41 68 42 69 65 70 66 71 74 72 67 73 73 74 68 75 69 76 70 77
REMARK SMILES IDX 71 78 72 79 51 80 52 81 60 82 53 83 59 84 54 85 55 86 56 87
REMARK SMILES IDX 57 88 58 89
REMARK H PARENT 19 6 23 26 79 45 49 56
REMARK Flexibility Score: inf
ROOT
ATOM      1  C   UNL A   1      40.423  22.160  26.640  1.00  0.00     0.042 C 
ENDROOT
BRANCH   1   2
ATOM      2  C   UNL A   1      39.076  22.867  26.613  1.00  0.00     0.118 C 
BRANCH   2   3
ATOM      3  N   UNL A   1      38.011  22.036  26.093  1.00  0.00    -0.352 N 
ATOM      4  O   UNL A   1      36.953  23.691  24.905  1.00  0.00    -0.270 OA
ATOM      5  C   UNL A   1      37.038  22.519  25.254  1.00  0.00     0.244 C 
ATOM      6  H   UNL A   1      37.983  21.087  26.353  1.00  0.00     0.163 HD
BRANCH   5   7
ATOM      7  C   UNL A   1      36.115  21.507  24.673  1.00  0.00     0.072 C 
ATOM      8  C   UNL A   1      35.238  20.768  25.369  1.00  0.00     0.017 C 
BRANCH   8   9
ATOM      9  C   UNL A   1      34.465  19.663  24.787  1.00  0.00     0.017 A 
ATOM     10  C   UNL A   1      35.187  18.465  24.615  1.00  0.00     0.012 A 
ATOM     11  C   UNL A   1      33.125  19.716  24.349  1.00  0.00     0.134 A 
ATOM     12  C   UNL A   1      34.600  17.337  24.041  1.00  0.00     0.001 A 
ATOM     13  C   UNL A   1      32.548  18.565  23.781  1.00  0.00     0.048 A 
ATOM     14  C   UNL A   1      33.277  17.387  23.623  1.00  0.00     0.004 A 
BRANCH  11  15
ATOM     15  O   UNL A   1      32.208  20.746  24.431  1.00  0.00    -0.457 OA
BRANCH  15  16
ATOM     16  C   UNL A   1      32.530  22.033  24.096  1.00  0.00     0.128 A 
ATOM     17  C   UNL A   1      32.909  22.259  22.769  1.00  0.00     0.047 A 
ATOM     18  C   UNL A   1      32.559  23.071  25.026  1.00  0.00     0.067 A 
ATOM     19  C   UNL A   1      33.231  23.546  22.343  1.00  0.00     0.005 A 
ATOM     20  C   UNL A   1      32.874  24.357  24.590  1.00  0.00     0.044 A 
ATOM     21  C   UNL A   1      33.201  24.602  23.254  1.00  0.00     0.021 A 
ATOM     22  Cl  UNL A   1      32.795  25.672  25.697  1.00  0.00    -0.084 Cl
ENDBRANCH  15  16
ENDBRANCH  11  15
ENDBRANCH   8   9
ENDBRANCH   5   7
ENDBRANCH   2   3
ENDBRANCH   1   2
BRANCH   1  23
ATOM     23  C   UNL A   1      41.605  23.075  26.937  1.00  0.00     0.118 C 
BRANCH  23  24
ATOM     24  N   UNL A   1      41.887  24.030  25.873  1.00  0.00    -0.352 N 
ATOM     25  C   UNL A   1      41.902  25.403  25.909  1.00  0.00     0.251 C 
ATOM     26  H   UNL A   1      42.098  23.631  24.998  1.00  0.00     0.163 HD
ATOM     27  O   UNL A   1      42.054  26.033  24.863  1.00  0.00    -0.269 OA
BRANCH  25  28
ATOM     28  C   UNL A   1      41.703  26.130  27.185  1.00  0.00     0.039 A 
ATOM     29  C   UNL A   1      42.628  27.114  27.546  1.00  0.00     0.014 A 
ATOM     30  C   UNL A   1      40.622  25.855  28.027  1.00  0.00     0.014 A 
ATOM     31  C   UNL A   1      42.430  27.861  28.710  1.00  0.00     0.010 A 
ATOM     32  C   UNL A   1      40.379  26.661  29.139  1.00  0.00     0.010 A 
ATOM     33  C   UNL A   1      41.281  27.672  29.497  1.00  0.00    -0.014 A 
BRANCH  33  34
ATOM     34  C   UNL A   1      41.016  28.547  30.672  1.00  0.00     0.031 A 
ATOM     35  C   UNL A   1      41.843  28.432  31.925  1.00  0.00     0.074 A 
ATOM     36  C   UNL A   1      40.004  29.437  30.615  1.00  0.00     0.049 A 
ATOM     37  N   UNL A   1      41.783  29.151  33.019  1.00  0.00    -0.248 NA
ATOM     38  C   UNL A   1      42.851  27.361  31.970  1.00  0.00     0.031 C 
ATOM     39  C   UNL A   1      39.085  29.604  29.485  1.00  0.00     0.029 A 
ATOM     40  N   UNL A   1      39.583  30.377  31.523  1.00  0.00    -0.354 N 
ATOM     41  C   UNL A   1      42.736  28.617  33.879  1.00  0.00     0.074 A 
ATOM     42  C   UNL A   1      43.319  27.478  33.204  1.00  0.00     0.031 C 
ATOM     43  C   UNL A   1      38.247  30.619  29.745  1.00  0.00     0.029 A 
ATOM     44  C   UNL A   1      38.537  31.150  31.072  1.00  0.00     0.049 A 
ATOM     45  H   UNL A   1      39.990  30.488  32.412  1.00  0.00     0.167 HD
ATOM     46  C   UNL A   1      43.111  29.049  35.108  1.00  0.00     0.031 A 
ATOM     47  C   UNL A   1      37.888  32.177  31.655  1.00  0.00     0.031 A 
ATOM     48  C   UNL A   1      42.528  30.182  35.779  1.00  0.00     0.049 A 
ATOM     49  C   UNL A   1      38.330  32.643  33.015  1.00  0.00     0.074 A 
ATOM     50  C   UNL A   1      42.875  30.731  37.002  1.00  0.00     0.029 A 
ATOM     51  N   UNL A   1      41.473  30.938  35.291  1.00  0.00    -0.354 N 
ATOM     52  N   UNL A   1      39.288  32.174  33.778  1.00  0.00    -0.248 NA
ATOM     53  C   UNL A   1      37.612  33.792  33.583  1.00  0.00     0.031 C 
ATOM     54  C   UNL A   1      41.991  31.780  37.279  1.00  0.00     0.029 A 
ATOM     55  C   UNL A   1      41.140  31.932  36.196  1.00  0.00     0.049 A 
ATOM     56  H   UNL A   1      41.025  30.790  34.426  1.00  0.00     0.167 HD
ATOM     57  C   UNL A   1      39.309  32.990  34.904  1.00  0.00     0.074 A 
ATOM     58  C   UNL A   1      38.283  33.995  34.707  1.00  0.00     0.031 C 
ATOM     59  C   UNL A   1      40.106  32.917  36.000  1.00  0.00     0.031 A 
BRANCH  46  60
ATOM     60  C   UNL A   1      44.206  28.285  35.812  1.00  0.00    -0.014 A 
ATOM     61  C   UNL A   1      45.560  28.642  35.657  1.00  0.00     0.010 A 
ATOM     62  C   UNL A   1      43.878  27.226  36.677  1.00  0.00     0.010 A 
ATOM     63  C   UNL A   1      46.563  27.928  36.317  1.00  0.00     0.020 A 
ATOM     64  C   UNL A   1      44.876  26.529  37.366  1.00  0.00     0.020 A 
ATOM     65  C   UNL A   1      46.214  26.875  37.168  1.00  0.00     0.054 A 
BRANCH  65  66
ATOM     66  S   UNL A   1      47.537  25.982  38.031  1.00  0.00     0.124 S 
ATOM     67  O   UNL A   1      48.556  27.018  38.174  1.00  0.00    -0.237 OA
ATOM     68  O   UNL A   1      46.886  25.566  39.270  1.00  0.00    -0.237 OA
ATOM     69  O   UNL A   1      47.878  24.896  37.115  1.00  0.00    -0.744 OA
ENDBRANCH  65  66
ENDBRANCH  46  60
BRANCH  47  70
ATOM     70  C   UNL A   1      36.773  32.856  30.937  1.00  0.00    -0.014 A 
ATOM     71  C   UNL A   1      35.438  32.657  31.333  1.00  0.00     0.010 A 
ATOM     72  C   UNL A   1      37.043  33.713  29.856  1.00  0.00     0.010 A 
ATOM     73  C   UNL A   1      34.394  33.284  30.646  1.00  0.00     0.020 A 
ATOM     74  C   UNL A   1      36.005  34.369  29.187  1.00  0.00     0.020 A 
ATOM     75  C   UNL A   1      34.685  34.139  29.579  1.00  0.00     0.054 A 
BRANCH  75  76
ATOM     76  S   UNL A   1      33.318  34.981  28.735  1.00  0.00     0.124 S 
ATOM     77  O   UNL A   1      33.040  34.074  27.626  1.00  0.00    -0.237 OA
ATOM     78  O   UNL A   1      32.294  35.041  29.775  1.00  0.00    -0.237 OA
ATOM     79  O   UNL A   1      33.890  36.271  28.359  1.00  0.00    -0.744 OA
ENDBRANCH  75  76
ENDBRANCH  47  70
BRANCH  59  80
ATOM     80  C   UNL A   1      39.919  33.978  37.055  1.00  0.00    -0.014 A 
ATOM     81  C   UNL A   1      40.587  35.213  36.985  1.00  0.00     0.010 A 
ATOM     82  C   UNL A   1      39.057  33.729  38.140  1.00  0.00     0.010 A 
ATOM     83  C   UNL A   1      40.449  36.152  38.012  1.00  0.00     0.020 A 
ATOM     84  C   UNL A   1      38.888  34.679  39.150  1.00  0.00     0.020 A 
ATOM     85  C   UNL A   1      39.607  35.874  39.093  1.00  0.00     0.054 A 
BRANCH  85  86
ATOM     86  S   UNL A   1      39.457  37.099  40.421  1.00  0.00     0.124 S 
ATOM     87  O   UNL A   1      38.526  36.443  41.335  1.00  0.00    -0.237 OA
ATOM     88  O   UNL A   1      40.831  37.221  40.902  1.00  0.00    -0.237 OA
ATOM     89  O   UNL A   1      38.933  38.283  39.744  1.00  0.00    -0.744 OA
ENDBRANCH  85  86
ENDBRANCH  59  80
ENDBRANCH  33  34
ENDBRANCH  25  28
ENDBRANCH  23  24
ENDBRANCH   1  23
TORSDOF 16
ENDMDL
