MODEL 1
REMARK VINA RESULT:     -13.3      0.000      0.000
REMARK SMILES O=C(NCCCNC(=O)c1ccc(-c2c3nc(c(-c4ccc(S(=O)(=O)[O-])cc4)c4ccc([nH]4)c(-c4ccc(S(=O)(=O)[O-])cc4)c4nc(c(-c5ccc(S(=O)(=O)[O-])cc5)c5ccc2[nH]5)C=C4)C=C3)cc1)C1=Cc2cc(Cl)cc(-c3ccc(Cl)cc3)c2O[C@@H]1C(F)(F)F
REMARK SMILES IDX 6 1 5 2 4 3 3 4 1 5 2 6 70 8 71 9 87 10 72 11 86 12 73 13
REMARK SMILES IDX 85 14 74 15 77 16 75 17 76 18 88 19 89 20 90 21 91 22 78 23
REMARK SMILES IDX 79 24 84 25 80 26 83 27 81 28 82 29 7 30 8 31 9 33 10 34
REMARK SMILES IDX 11 35 69 36 12 37 68 38 13 39 14 40 15 41 62 42 16 43 67 44
REMARK SMILES IDX 61 45 63 46 17 47 66 48 60 49 59 50 18 52 48 53 29 54 47 55
REMARK SMILES IDX 30 56 33 57 46 58 64 59 31 60 32 61 45 63 65 64 34 65 19 66
REMARK SMILES IDX 20 67 28 68 21 69 27 70 22 71 23 72 24 73 25 74 26 75 49 76
REMARK SMILES IDX 50 77 58 78 51 79 57 80 52 81 53 82 54 83 55 84 56 85 35 86
REMARK SMILES IDX 36 87 44 88 37 89 43 90 38 91 39 92 40 93 41 94 42 95
REMARK H PARENT 3 7 7 32 63 51 33 62
REMARK Flexibility Score: inf
ROOT
ATOM      1  C   UNL A   1      33.387  29.300  26.684  1.00  0.00     0.118 C 
ENDROOT
BRANCH   1   2
ATOM      2  C   UNL A   1      32.405  28.253  27.208  1.00  0.00     0.042 C 
BRANCH   2   3
ATOM      3  C   UNL A   1      32.253  27.061  26.260  1.00  0.00     0.118 C 
BRANCH   3   4
ATOM      4  N   UNL A   1      31.563  25.921  26.876  1.00  0.00    -0.352 N 
ATOM      5  O   UNL A   1      31.258  23.742  27.446  1.00  0.00    -0.270 OA
ATOM      6  C   UNL A   1      31.765  24.576  26.706  1.00  0.00     0.251 C 
ATOM      7  H   UNL A   1      30.846  26.160  27.508  1.00  0.00     0.163 HD
BRANCH   6   8
ATOM      8  C   UNL A   1      32.679  24.181  25.629  1.00  0.00     0.067 C 
ATOM      9  C   UNL A   1      33.982  24.435  25.796  1.00  0.00     0.025 C 
ATOM     10  C   UNL A   1      32.167  23.227  24.600  1.00  0.00     0.314 C 
ATOM     11  C   UNL A   1      34.873  23.391  25.288  1.00  0.00     0.019 A 
ATOM     12  O   UNL A   1      32.976  22.026  24.560  1.00  0.00    -0.475 OA
ATOM     13  C   UNL A   1      36.233  23.477  25.597  1.00  0.00     0.032 A 
ATOM     14  C   UNL A   1      34.312  22.163  24.874  1.00  0.00     0.135 A 
ATOM     15  C   UNL A   1      37.008  22.324  25.585  1.00  0.00     0.042 A 
ATOM     16  C   UNL A   1      35.077  20.985  24.933  1.00  0.00     0.026 A 
ATOM     17  Cl  UNL A   1      38.646  22.403  26.104  1.00  0.00    -0.084 Cl
ATOM     18  C   UNL A   1      36.436  21.089  25.284  1.00  0.00     0.033 A 
BRANCH  10  19
ATOM     19  C   UNL A   1      32.029  23.888  23.217  1.00  0.00     0.429 C 
ATOM     20  F   UNL A   1      32.758  23.229  22.284  1.00  0.00    -0.167 F 
ATOM     21  F   UNL A   1      30.746  23.877  22.782  1.00  0.00    -0.167 F 
ATOM     22  F   UNL A   1      32.442  25.177  23.208  1.00  0.00    -0.167 F 
ENDBRANCH  10  19
BRANCH  16  23
ATOM     23  C   UNL A   1      34.468  19.646  24.862  1.00  0.00    -0.015 A 
ATOM     24  C   UNL A   1      33.165  19.445  25.353  1.00  0.00     0.010 A 
ATOM     25  C   UNL A   1      35.186  18.533  24.414  1.00  0.00     0.010 A 
ATOM     26  C   UNL A   1      32.618  18.167  25.468  1.00  0.00     0.021 A 
ATOM     27  C   UNL A   1      34.632  17.250  24.504  1.00  0.00     0.021 A 
ATOM     28  C   UNL A   1      33.361  17.070  25.051  1.00  0.00     0.041 A 
ATOM     29  Cl  UNL A   1      32.713  15.487  25.224  1.00  0.00    -0.084 Cl
ENDBRANCH  16  23
ENDBRANCH   6   8
ENDBRANCH   3   4
ENDBRANCH   2   3
ENDBRANCH   1   2
BRANCH   1  30
ATOM     30  N   UNL A   1      33.528  30.483  27.514  1.00  0.00    -0.352 N 
ATOM     31  C   UNL A   1      34.601  30.919  28.267  1.00  0.00     0.251 C 
ATOM     32  H   UNL A   1      32.734  31.066  27.546  1.00  0.00     0.163 HD
ATOM     33  O   UNL A   1      34.486  31.966  28.903  1.00  0.00    -0.269 OA
BRANCH  31  34
ATOM     34  C   UNL A   1      35.836  30.103  28.420  1.00  0.00     0.039 A 
ATOM     35  C   UNL A   1      36.740  30.080  27.350  1.00  0.00     0.014 A 
ATOM     36  C   UNL A   1      36.170  29.438  29.598  1.00  0.00     0.014 A 
ATOM     37  C   UNL A   1      38.015  29.533  27.518  1.00  0.00     0.010 A 
ATOM     38  C   UNL A   1      37.472  28.991  29.804  1.00  0.00     0.010 A 
ATOM     39  C   UNL A   1      38.421  29.068  28.778  1.00  0.00    -0.014 A 
BRANCH  39  40
ATOM     40  C   UNL A   1      39.845  28.762  29.068  1.00  0.00     0.031 A 
ATOM     41  C   UNL A   1      40.754  29.799  29.669  1.00  0.00     0.074 A 
ATOM     42  C   UNL A   1      40.341  27.570  28.674  1.00  0.00     0.049 A 
ATOM     43  N   UNL A   1      42.035  29.722  29.924  1.00  0.00    -0.248 NA
ATOM     44  C   UNL A   1      40.160  31.108  29.984  1.00  0.00     0.031 C 
ATOM     45  C   UNL A   1      39.584  26.523  27.977  1.00  0.00     0.029 A 
ATOM     46  N   UNL A   1      41.598  27.034  28.795  1.00  0.00    -0.354 N 
ATOM     47  C   UNL A   1      42.406  30.977  30.393  1.00  0.00     0.074 A 
ATOM     48  C   UNL A   1      41.224  31.810  30.345  1.00  0.00     0.031 C 
ATOM     49  C   UNL A   1      40.375  25.458  27.780  1.00  0.00     0.029 A 
ATOM     50  C   UNL A   1      41.703  25.754  28.302  1.00  0.00     0.049 A 
ATOM     51  H   UNL A   1      42.354  27.520  29.197  1.00  0.00     0.167 HD
ATOM     52  C   UNL A   1      43.615  31.391  30.845  1.00  0.00     0.031 A 
ATOM     53  C   UNL A   1      42.748  24.906  28.282  1.00  0.00     0.031 A 
ATOM     54  C   UNL A   1      44.772  30.540  30.928  1.00  0.00     0.049 A 
ATOM     55  C   UNL A   1      44.048  25.352  28.890  1.00  0.00     0.074 A 
ATOM     56  C   UNL A   1      46.024  30.832  31.442  1.00  0.00     0.029 A 
ATOM     57  N   UNL A   1      44.814  29.223  30.497  1.00  0.00    -0.354 N 
ATOM     58  N   UNL A   1      44.355  26.519  29.405  1.00  0.00    -0.248 NA
ATOM     59  C   UNL A   1      45.131  24.362  28.934  1.00  0.00     0.031 C 
ATOM     60  C   UNL A   1      46.830  29.695  31.299  1.00  0.00     0.029 A 
ATOM     61  C   UNL A   1      46.068  28.686  30.731  1.00  0.00     0.049 A 
ATOM     62  H   UNL A   1      44.062  28.740  30.083  1.00  0.00     0.167 HD
ATOM     63  C   UNL A   1      45.665  26.400  29.848  1.00  0.00     0.074 A 
ATOM     64  C   UNL A   1      46.081  25.040  29.564  1.00  0.00     0.031 C 
ATOM     65  C   UNL A   1      46.457  27.332  30.433  1.00  0.00     0.031 A 
BRANCH  52  66
ATOM     66  C   UNL A   1      43.733  32.824  31.295  1.00  0.00    -0.014 A 
ATOM     67  C   UNL A   1      43.429  33.196  32.617  1.00  0.00     0.010 A 
ATOM     68  C   UNL A   1      44.167  33.810  30.391  1.00  0.00     0.010 A 
ATOM     69  C   UNL A   1      43.503  34.533  33.014  1.00  0.00     0.020 A 
ATOM     70  C   UNL A   1      44.270  35.147  30.791  1.00  0.00     0.020 A 
ATOM     71  C   UNL A   1      43.915  35.503  32.095  1.00  0.00     0.054 A 
BRANCH  71  72
ATOM     72  S   UNL A   1      44.006  37.232  32.634  1.00  0.00     0.124 S 
ATOM     73  O   UNL A   1      43.734  37.948  31.391  1.00  0.00    -0.237 OA
ATOM     74  O   UNL A   1      42.955  37.311  33.646  1.00  0.00    -0.237 OA
ATOM     75  O   UNL A   1      45.368  37.365  33.145  1.00  0.00    -0.744 OA
ENDBRANCH  71  72
ENDBRANCH  52  66
BRANCH  53  76
ATOM     76  C   UNL A   1      42.589  23.538  27.718  1.00  0.00    -0.014 A 
ATOM     77  C   UNL A   1      43.055  23.247  26.423  1.00  0.00     0.010 A 
ATOM     78  C   UNL A   1      41.994  22.514  28.477  1.00  0.00     0.010 A 
ATOM     79  C   UNL A   1      42.911  21.963  25.889  1.00  0.00     0.020 A 
ATOM     80  C   UNL A   1      41.870  21.223  27.955  1.00  0.00     0.020 A 
ATOM     81  C   UNL A   1      42.318  20.959  26.659  1.00  0.00     0.054 A 
BRANCH  81  82
ATOM     82  S   UNL A   1      42.186  19.286  25.967  1.00  0.00     0.124 S 
ATOM     83  O   UNL A   1      40.756  19.183  25.694  1.00  0.00    -0.237 OA
ATOM     84  O   UNL A   1      43.052  19.355  24.793  1.00  0.00    -0.237 OA
ATOM     85  O   UNL A   1      42.682  18.433  27.046  1.00  0.00    -0.744 OA
ENDBRANCH  81  82
ENDBRANCH  53  76
BRANCH  65  86
ATOM     86  C   UNL A   1      47.842  26.897  30.818  1.00  0.00    -0.014 A 
ATOM     87  C   UNL A   1      48.075  26.205  32.019  1.00  0.00     0.010 A 
ATOM     88  C   UNL A   1      48.920  27.167  29.956  1.00  0.00     0.010 A 
ATOM     89  C   UNL A   1      49.370  25.827  32.373  1.00  0.00     0.020 A 
ATOM     90  C   UNL A   1      50.214  26.769  30.296  1.00  0.00     0.020 A 
ATOM     91  C   UNL A   1      50.434  26.118  31.513  1.00  0.00     0.054 A 
BRANCH  91  92
ATOM     92  S   UNL A   1      52.108  25.601  31.981  1.00  0.00     0.124 S 
ATOM     93  O   UNL A   1      52.870  25.924  30.778  1.00  0.00    -0.237 OA
ATOM     94  O   UNL A   1      52.390  26.435  33.147  1.00  0.00    -0.237 OA
ATOM     95  O   UNL A   1      51.960  24.175  32.264  1.00  0.00    -0.744 OA
ENDBRANCH  91  92
ENDBRANCH  65  86
ENDBRANCH  39  40
ENDBRANCH  31  34
ENDBRANCH   1  30
TORSDOF 15
ENDMDL
MODEL 2
REMARK VINA RESULT:     -13.1      3.487      9.790
REMARK SMILES O=C(NCCCNC(=O)c1ccc(-c2c3nc(c(-c4ccc(S(=O)(=O)[O-])cc4)c4ccc([nH]4)c(-c4ccc(S(=O)(=O)[O-])cc4)c4nc(c(-c5ccc(S(=O)(=O)[O-])cc5)c5ccc2[nH]5)C=C4)C=C3)cc1)C1=Cc2cc(Cl)cc(-c3ccc(Cl)cc3)c2O[C@@H]1C(F)(F)F
REMARK SMILES IDX 6 1 5 2 4 3 3 4 1 5 2 6 70 8 71 9 87 10 72 11 86 12 73 13
REMARK SMILES IDX 85 14 74 15 77 16 75 17 76 18 88 19 89 20 90 21 91 22 78 23
REMARK SMILES IDX 79 24 84 25 80 26 83 27 81 28 82 29 7 30 8 31 9 33 10 34
REMARK SMILES IDX 11 35 69 36 12 37 68 38 13 39 14 40 15 41 62 42 16 43 67 44
REMARK SMILES IDX 61 45 63 46 17 47 66 48 60 49 59 50 18 52 48 53 29 54 47 55
REMARK SMILES IDX 30 56 33 57 46 58 64 59 31 60 32 61 45 63 65 64 34 65 19 66
REMARK SMILES IDX 20 67 28 68 21 69 27 70 22 71 23 72 24 73 25 74 26 75 49 76
REMARK SMILES IDX 50 77 58 78 51 79 57 80 52 81 53 82 54 83 55 84 56 85 35 86
REMARK SMILES IDX 36 87 44 88 37 89 43 90 38 91 39 92 40 93 41 94 42 95
REMARK H PARENT 3 7 7 32 63 51 33 62
REMARK Flexibility Score: inf
ROOT
ATOM      1  C   UNL A   1      37.285  23.031  24.974  1.00  0.00     0.118 C 
ENDROOT
BRANCH   1   2
ATOM      2  C   UNL A   1      36.155  23.169  25.994  1.00  0.00     0.042 C 
BRANCH   2   3
ATOM      3  C   UNL A   1      34.772  22.962  25.373  1.00  0.00     0.118 C 
BRANCH   3   4
ATOM      4  N   UNL A   1      34.634  23.589  24.053  1.00  0.00    -0.352 N 
ATOM      5  O   UNL A   1      34.191  25.274  22.592  1.00  0.00    -0.270 OA
ATOM      6  C   UNL A   1      34.044  24.775  23.701  1.00  0.00     0.251 C 
ATOM      7  H   UNL A   1      35.026  23.080  23.307  1.00  0.00     0.163 HD
BRANCH   6   8
ATOM      8  C   UNL A   1      33.275  25.460  24.747  1.00  0.00     0.067 C 
ATOM      9  C   UNL A   1      33.945  26.249  25.593  1.00  0.00     0.025 C 
ATOM     10  C   UNL A   1      31.791  25.520  24.590  1.00  0.00     0.314 C 
ATOM     11  C   UNL A   1      33.239  27.476  25.968  1.00  0.00     0.019 A 
ATOM     12  O   UNL A   1      31.329  26.893  24.553  1.00  0.00    -0.475 OA
ATOM     13  C   UNL A   1      33.941  28.448  26.685  1.00  0.00     0.032 A 
ATOM     14  C   UNL A   1      32.056  27.815  25.275  1.00  0.00     0.135 A 
ATOM     15  C   UNL A   1      33.517  29.771  26.632  1.00  0.00     0.042 A 
ATOM     16  C   UNL A   1      31.670  29.162  25.161  1.00  0.00     0.026 A 
ATOM     17  Cl  UNL A   1      34.461  30.990  27.395  1.00  0.00    -0.084 Cl
ATOM     18  C   UNL A   1      32.413  30.131  25.861  1.00  0.00     0.033 A 
BRANCH  10  19
ATOM     19  C   UNL A   1      31.063  24.684  25.657  1.00  0.00     0.429 C 
ATOM     20  F   UNL A   1      29.845  25.206  25.942  1.00  0.00    -0.167 F 
ATOM     21  F   UNL A   1      30.849  23.414  25.240  1.00  0.00    -0.167 F 
ATOM     22  F   UNL A   1      31.747  24.611  26.823  1.00  0.00    -0.167 F 
ENDBRANCH  10  19
BRANCH  16  23
ATOM     23  C   UNL A   1      30.672  29.614  24.178  1.00  0.00    -0.015 A 
ATOM     24  C   UNL A   1      30.614  29.005  22.911  1.00  0.00     0.010 A 
ATOM     25  C   UNL A   1      29.840  30.711  24.422  1.00  0.00     0.010 A 
ATOM     26  C   UNL A   1      29.811  29.515  21.892  1.00  0.00     0.021 A 
ATOM     27  C   UNL A   1      29.012  31.213  23.411  1.00  0.00     0.021 A 
ATOM     28  C   UNL A   1      29.018  30.627  22.144  1.00  0.00     0.041 A 
ATOM     29  Cl  UNL A   1      28.053  31.288  20.884  1.00  0.00    -0.084 Cl
ENDBRANCH  16  23
ENDBRANCH   6   8
ENDBRANCH   3   4
ENDBRANCH   2   3
ENDBRANCH   1   2
BRANCH   1  30
ATOM     30  N   UNL A   1      38.477  22.360  25.462  1.00  0.00    -0.352 N 
ATOM     31  C   UNL A   1      39.463  22.810  26.320  1.00  0.00     0.251 C 
ATOM     32  H   UNL A   1      38.603  21.441  25.130  1.00  0.00     0.163 HD
ATOM     33  O   UNL A   1      40.394  22.054  26.591  1.00  0.00    -0.269 OA
BRANCH  31  34
ATOM     34  C   UNL A   1      39.486  24.210  26.823  1.00  0.00     0.039 A 
ATOM     35  C   UNL A   1      38.903  24.465  28.071  1.00  0.00     0.014 A 
ATOM     36  C   UNL A   1      40.130  25.250  26.156  1.00  0.00     0.014 A 
ATOM     37  C   UNL A   1      39.100  25.697  28.701  1.00  0.00     0.010 A 
ATOM     38  C   UNL A   1      40.420  26.436  26.824  1.00  0.00     0.010 A 
ATOM     39  C   UNL A   1      39.940  26.658  28.120  1.00  0.00    -0.014 A 
BRANCH  39  40
ATOM     40  C   UNL A   1      40.409  27.841  28.886  1.00  0.00     0.031 A 
ATOM     41  C   UNL A   1      41.755  27.846  29.557  1.00  0.00     0.074 A 
ATOM     42  C   UNL A   1      39.555  28.871  29.067  1.00  0.00     0.049 A 
ATOM     43  N   UNL A   1      42.292  28.765  30.318  1.00  0.00    -0.248 NA
ATOM     44  C   UNL A   1      42.590  26.646  29.390  1.00  0.00     0.031 C 
ATOM     45  C   UNL A   1      38.179  28.934  28.560  1.00  0.00     0.029 A 
ATOM     46  N   UNL A   1      39.710  30.062  29.732  1.00  0.00    -0.354 N 
ATOM     47  C   UNL A   1      43.505  28.242  30.748  1.00  0.00     0.074 A 
ATOM     48  C   UNL A   1      43.606  26.907  30.201  1.00  0.00     0.031 C 
ATOM     49  C   UNL A   1      37.638  30.117  28.887  1.00  0.00     0.029 A 
ATOM     50  C   UNL A   1      38.610  30.885  29.654  1.00  0.00     0.049 A 
ATOM     51  H   UNL A   1      40.532  30.305  30.217  1.00  0.00     0.167 HD
ATOM     52  C   UNL A   1      44.460  28.828  31.511  1.00  0.00     0.031 A 
ATOM     53  C   UNL A   1      38.409  32.125  30.137  1.00  0.00     0.031 A 
ATOM     54  C   UNL A   1      44.367  30.173  32.015  1.00  0.00     0.049 A 
ATOM     55  C   UNL A   1      39.525  32.795  30.886  1.00  0.00     0.074 A 
ATOM     56  C   UNL A   1      45.307  30.894  32.731  1.00  0.00     0.029 A 
ATOM     57  N   UNL A   1      43.271  31.004  31.844  1.00  0.00    -0.354 N 
ATOM     58  N   UNL A   1      40.700  32.312  31.213  1.00  0.00    -0.248 NA
ATOM     59  C   UNL A   1      39.298  34.182  31.311  1.00  0.00     0.031 C 
ATOM     60  C   UNL A   1      44.768  32.156  33.011  1.00  0.00     0.029 A 
ATOM     61  C   UNL A   1      43.508  32.231  32.438  1.00  0.00     0.049 A 
ATOM     62  H   UNL A   1      42.444  30.758  31.369  1.00  0.00     0.167 HD
ATOM     63  C   UNL A   1      41.360  33.341  31.870  1.00  0.00     0.074 A 
ATOM     64  C   UNL A   1      40.462  34.480  31.871  1.00  0.00     0.031 C 
ATOM     65  C   UNL A   1      42.595  33.345  32.429  1.00  0.00     0.031 A 
BRANCH  52  66
ATOM     66  C   UNL A   1      45.688  28.016  31.830  1.00  0.00    -0.014 A 
ATOM     67  C   UNL A   1      46.819  28.055  30.994  1.00  0.00     0.010 A 
ATOM     68  C   UNL A   1      45.721  27.216  32.986  1.00  0.00     0.010 A 
ATOM     69  C   UNL A   1      47.938  27.269  31.276  1.00  0.00     0.020 A 
ATOM     70  C   UNL A   1      46.851  26.447  33.287  1.00  0.00     0.020 A 
ATOM     71  C   UNL A   1      47.944  26.462  32.417  1.00  0.00     0.054 A 
BRANCH  71  72
ATOM     72  S   UNL A   1      49.409  25.451  32.764  1.00  0.00     0.124 S 
ATOM     73  O   UNL A   1      48.864  24.427  33.652  1.00  0.00    -0.237 OA
ATOM     74  O   UNL A   1      49.802  24.984  31.436  1.00  0.00    -0.237 OA
ATOM     75  O   UNL A   1      50.338  26.389  33.389  1.00  0.00    -0.744 OA
ENDBRANCH  71  72
ENDBRANCH  52  66
BRANCH  53  76
ATOM     76  C   UNL A   1      37.122  32.827  29.879  1.00  0.00    -0.014 A 
ATOM     77  C   UNL A   1      36.102  32.816  30.847  1.00  0.00     0.010 A 
ATOM     78  C   UNL A   1      36.917  33.527  28.677  1.00  0.00     0.010 A 
ATOM     79  C   UNL A   1      34.892  33.477  30.611  1.00  0.00     0.020 A 
ATOM     80  C   UNL A   1      35.717  34.209  28.447  1.00  0.00     0.020 A 
ATOM     81  C   UNL A   1      34.708  34.168  29.411  1.00  0.00     0.054 A 
BRANCH  81  82
ATOM     82  S   UNL A   1      33.150  35.061  29.144  1.00  0.00     0.124 S 
ATOM     83  O   UNL A   1      32.551  35.030  30.474  1.00  0.00    -0.237 OA
ATOM     84  O   UNL A   1      33.607  36.371  28.685  1.00  0.00    -0.237 OA
ATOM     85  O   UNL A   1      32.469  34.259  28.130  1.00  0.00    -0.744 OA
ENDBRANCH  81  82
ENDBRANCH  53  76
BRANCH  65  86
ATOM     86  C   UNL A   1      43.045  34.628  33.066  1.00  0.00    -0.014 A 
ATOM     87  C   UNL A   1      43.673  35.631  32.307  1.00  0.00     0.010 A 
ATOM     88  C   UNL A   1      42.817  34.841  34.438  1.00  0.00     0.010 A 
ATOM     89  C   UNL A   1      44.104  36.809  32.918  1.00  0.00     0.020 A 
ATOM     90  C   UNL A   1      43.227  36.027  35.047  1.00  0.00     0.020 A 
ATOM     91  C   UNL A   1      43.885  36.997  34.287  1.00  0.00     0.054 A 
BRANCH  91  92
ATOM     92  S   UNL A   1      44.436  38.542  35.059  1.00  0.00     0.124 S 
ATOM     93  O   UNL A   1      43.664  39.539  34.324  1.00  0.00    -0.237 OA
ATOM     94  O   UNL A   1      44.057  38.358  36.458  1.00  0.00    -0.237 OA
ATOM     95  O   UNL A   1      45.876  38.557  34.808  1.00  0.00    -0.744 OA
ENDBRANCH  91  92
ENDBRANCH  65  86
ENDBRANCH  39  40
ENDBRANCH  31  34
ENDBRANCH   1  30
TORSDOF 15
ENDMDL
MODEL 3
REMARK VINA RESULT:     -13.0      0.658      7.990
REMARK SMILES O=C(NCCCNC(=O)c1ccc(-c2c3nc(c(-c4ccc(S(=O)(=O)[O-])cc4)c4ccc([nH]4)c(-c4ccc(S(=O)(=O)[O-])cc4)c4nc(c(-c5ccc(S(=O)(=O)[O-])cc5)c5ccc2[nH]5)C=C4)C=C3)cc1)C1=Cc2cc(Cl)cc(-c3ccc(Cl)cc3)c2O[C@@H]1C(F)(F)F
REMARK SMILES IDX 6 1 5 2 4 3 3 4 1 5 2 6 70 8 71 9 87 10 72 11 86 12 73 13
REMARK SMILES IDX 85 14 74 15 77 16 75 17 76 18 88 19 89 20 90 21 91 22 78 23
REMARK SMILES IDX 79 24 84 25 80 26 83 27 81 28 82 29 7 30 8 31 9 33 10 34
REMARK SMILES IDX 11 35 69 36 12 37 68 38 13 39 14 40 15 41 62 42 16 43 67 44
REMARK SMILES IDX 61 45 63 46 17 47 66 48 60 49 59 50 18 52 48 53 29 54 47 55
REMARK SMILES IDX 30 56 33 57 46 58 64 59 31 60 32 61 45 63 65 64 34 65 19 66
REMARK SMILES IDX 20 67 28 68 21 69 27 70 22 71 23 72 24 73 25 74 26 75 49 76
REMARK SMILES IDX 50 77 58 78 51 79 57 80 52 81 53 82 54 83 55 84 56 85 35 86
REMARK SMILES IDX 36 87 44 88 37 89 43 90 38 91 39 92 40 93 41 94 42 95
REMARK H PARENT 3 7 7 32 63 51 33 62
REMARK Flexibility Score: inf
ROOT
ATOM      1  C   UNL A   1      33.359  29.186  26.783  1.00  0.00     0.118 C 
ENDROOT
BRANCH   1   2
ATOM      2  C   UNL A   1      32.230  28.227  27.159  1.00  0.00     0.042 C 
BRANCH   2   3
ATOM      3  C   UNL A   1      32.205  26.974  26.280  1.00  0.00     0.118 C 
BRANCH   3   4
ATOM      4  N   UNL A   1      31.513  25.843  26.911  1.00  0.00    -0.352 N 
ATOM      5  O   UNL A   1      31.196  23.669  27.494  1.00  0.00    -0.270 OA
ATOM      6  C   UNL A   1      31.700  24.496  26.744  1.00  0.00     0.251 C 
ATOM      7  H   UNL A   1      30.807  26.091  27.551  1.00  0.00     0.163 HD
BRANCH   6   8
ATOM      8  C   UNL A   1      32.596  24.088  25.655  1.00  0.00     0.067 C 
ATOM      9  C   UNL A   1      33.902  24.336  25.801  1.00  0.00     0.025 C 
ATOM     10  C   UNL A   1      32.063  23.130  24.641  1.00  0.00     0.314 C 
ATOM     11  C   UNL A   1      34.780  23.282  25.287  1.00  0.00     0.019 A 
ATOM     12  O   UNL A   1      32.865  21.923  24.598  1.00  0.00    -0.475 OA
ATOM     13  C   UNL A   1      36.144  23.363  25.575  1.00  0.00     0.032 A 
ATOM     14  C   UNL A   1      34.206  22.054  24.891  1.00  0.00     0.135 A 
ATOM     15  C   UNL A   1      36.913  22.205  25.560  1.00  0.00     0.042 A 
ATOM     16  C   UNL A   1      34.964  20.873  24.948  1.00  0.00     0.026 A 
ATOM     17  Cl  UNL A   1      38.559  22.279  26.053  1.00  0.00    -0.084 Cl
ATOM     18  C   UNL A   1      36.329  20.971  25.276  1.00  0.00     0.033 A 
BRANCH  10  19
ATOM     19  C   UNL A   1      31.907  23.781  23.256  1.00  0.00     0.429 C 
ATOM     20  F   UNL A   1      32.365  22.964  22.276  1.00  0.00    -0.167 F 
ATOM     21  F   UNL A   1      30.610  24.039  22.966  1.00  0.00    -0.167 F 
ATOM     22  F   UNL A   1      32.581  24.949  23.147  1.00  0.00    -0.167 F 
ENDBRANCH  10  19
BRANCH  16  23
ATOM     23  C   UNL A   1      34.348  19.537  24.895  1.00  0.00    -0.015 A 
ATOM     24  C   UNL A   1      33.135  19.301  25.569  1.00  0.00     0.010 A 
ATOM     25  C   UNL A   1      34.983  18.454  24.280  1.00  0.00     0.010 A 
ATOM     26  C   UNL A   1      32.608  18.016  25.695  1.00  0.00     0.021 A 
ATOM     27  C   UNL A   1      34.446  17.165  24.381  1.00  0.00     0.021 A 
ATOM     28  C   UNL A   1      33.273  16.949  25.107  1.00  0.00     0.041 A 
ATOM     29  Cl  UNL A   1      32.654  15.355  25.288  1.00  0.00    -0.084 Cl
ENDBRANCH  16  23
ENDBRANCH   6   8
ENDBRANCH   3   4
ENDBRANCH   2   3
ENDBRANCH   1   2
BRANCH   1  30
ATOM     30  N   UNL A   1      33.469  30.367  27.623  1.00  0.00    -0.352 N 
ATOM     31  C   UNL A   1      34.545  30.847  28.345  1.00  0.00     0.251 C 
ATOM     32  H   UNL A   1      32.650  30.909  27.688  1.00  0.00     0.163 HD
ATOM     33  O   UNL A   1      34.400  31.880  28.996  1.00  0.00    -0.269 OA
BRANCH  31  34
ATOM     34  C   UNL A   1      35.823  30.091  28.447  1.00  0.00     0.039 A 
ATOM     35  C   UNL A   1      36.680  30.107  27.339  1.00  0.00     0.014 A 
ATOM     36  C   UNL A   1      36.238  29.448  29.611  1.00  0.00     0.014 A 
ATOM     37  C   UNL A   1      37.986  29.621  27.454  1.00  0.00     0.010 A 
ATOM     38  C   UNL A   1      37.568  29.066  29.762  1.00  0.00     0.010 A 
ATOM     39  C   UNL A   1      38.467  29.183  28.696  1.00  0.00    -0.014 A 
BRANCH  39  40
ATOM     40  C   UNL A   1      39.915  28.946  28.926  1.00  0.00     0.031 A 
ATOM     41  C   UNL A   1      40.556  27.637  28.555  1.00  0.00     0.074 A 
ATOM     42  C   UNL A   1      40.625  29.888  29.584  1.00  0.00     0.049 A 
ATOM     43  N   UNL A   1      41.787  27.240  28.747  1.00  0.00    -0.248 NA
ATOM     44  C   UNL A   1      39.692  26.624  27.926  1.00  0.00     0.031 C 
ATOM     45  C   UNL A   1      40.087  31.154  30.097  1.00  0.00     0.029 A 
ATOM     46  N   UNL A   1      41.949  29.929  29.943  1.00  0.00    -0.354 N 
ATOM     47  C   UNL A   1      41.837  25.925  28.299  1.00  0.00     0.074 A 
ATOM     48  C   UNL A   1      40.501  25.577  27.867  1.00  0.00     0.031 C 
ATOM     49  C   UNL A   1      41.078  31.864  30.655  1.00  0.00     0.029 A 
ATOM     50  C   UNL A   1      42.314  31.096  30.574  1.00  0.00     0.049 A 
ATOM     51  H   UNL A   1      42.578  29.194  29.765  1.00  0.00     0.167 HD
ATOM     52  C   UNL A   1      42.904  25.091  28.231  1.00  0.00     0.031 A 
ATOM     53  C   UNL A   1      43.513  31.509  31.027  1.00  0.00     0.031 A 
ATOM     54  C   UNL A   1      44.236  25.463  28.626  1.00  0.00     0.049 A 
ATOM     55  C   UNL A   1      44.700  30.609  30.840  1.00  0.00     0.074 A 
ATOM     56  C   UNL A   1      45.404  24.726  28.527  1.00  0.00     0.029 A 
ATOM     57  N   UNL A   1      44.581  26.686  29.182  1.00  0.00    -0.354 N 
ATOM     58  N   UNL A   1      44.741  29.398  30.336  1.00  0.00    -0.248 NA
ATOM     59  C   UNL A   1      46.004  31.138  31.260  1.00  0.00     0.031 C 
ATOM     60  C   UNL A   1      46.452  25.498  29.046  1.00  0.00     0.029 A 
ATOM     61  C   UNL A   1      45.941  26.727  29.432  1.00  0.00     0.049 A 
ATOM     62  H   UNL A   1      43.950  27.418  29.371  1.00  0.00     0.167 HD
ATOM     63  C   UNL A   1      46.078  29.025  30.366  1.00  0.00     0.074 A 
ATOM     64  C   UNL A   1      46.814  30.148  30.913  1.00  0.00     0.031 C 
ATOM     65  C   UNL A   1      46.648  27.855  29.982  1.00  0.00     0.031 A 
BRANCH  52  66
ATOM     66  C   UNL A   1      42.665  23.702  27.699  1.00  0.00    -0.014 A 
ATOM     67  C   UNL A   1      42.433  22.622  28.571  1.00  0.00     0.010 A 
ATOM     68  C   UNL A   1      42.655  23.473  26.311  1.00  0.00     0.010 A 
ATOM     69  C   UNL A   1      42.252  21.332  28.070  1.00  0.00     0.020 A 
ATOM     70  C   UNL A   1      42.446  22.186  25.804  1.00  0.00     0.020 A 
ATOM     71  C   UNL A   1      42.268  21.119  26.688  1.00  0.00     0.054 A 
BRANCH  71  72
ATOM     72  S   UNL A   1      42.028  19.434  26.062  1.00  0.00     0.124 S 
ATOM     73  O   UNL A   1      40.593  19.418  25.790  1.00  0.00    -0.237 OA
ATOM     74  O   UNL A   1      42.890  19.402  24.882  1.00  0.00    -0.237 OA
ATOM     75  O   UNL A   1      42.464  18.587  27.169  1.00  0.00    -0.744 OA
ENDBRANCH  71  72
ENDBRANCH  52  66
BRANCH  53  76
ATOM     76  C   UNL A   1      43.653  32.854  31.646  1.00  0.00    -0.014 A 
ATOM     77  C   UNL A   1      43.860  33.988  30.839  1.00  0.00     0.010 A 
ATOM     78  C   UNL A   1      43.558  33.016  33.040  1.00  0.00     0.010 A 
ATOM     79  C   UNL A   1      43.990  35.256  31.415  1.00  0.00     0.020 A 
ATOM     80  C   UNL A   1      43.664  34.285  33.617  1.00  0.00     0.020 A 
ATOM     81  C   UNL A   1      43.892  35.395  32.802  1.00  0.00     0.054 A 
BRANCH  81  82
ATOM     82  S   UNL A   1      44.012  37.055  33.527  1.00  0.00     0.124 S 
ATOM     83  O   UNL A   1      42.709  37.202  34.166  1.00  0.00    -0.237 OA
ATOM     84  O   UNL A   1      45.152  36.927  34.432  1.00  0.00    -0.237 OA
ATOM     85  O   UNL A   1      44.244  37.915  32.367  1.00  0.00    -0.744 OA
ENDBRANCH  81  82
ENDBRANCH  53  76
BRANCH  65  86
ATOM     86  C   UNL A   1      48.138  27.751  30.125  1.00  0.00    -0.014 A 
ATOM     87  C   UNL A   1      48.994  28.153  29.085  1.00  0.00     0.010 A 
ATOM     88  C   UNL A   1      48.690  27.262  31.323  1.00  0.00     0.010 A 
ATOM     89  C   UNL A   1      50.377  28.030  29.224  1.00  0.00     0.020 A 
ATOM     90  C   UNL A   1      50.073  27.159  31.474  1.00  0.00     0.020 A 
ATOM     91  C   UNL A   1      50.909  27.526  30.416  1.00  0.00     0.054 A 
BRANCH  91  92
ATOM     92  S   UNL A   1      52.709  27.390  30.586  1.00  0.00     0.124 S 
ATOM     93  O   UNL A   1      53.136  28.769  30.375  1.00  0.00    -0.237 OA
ATOM     94  O   UNL A   1      52.868  26.881  31.946  1.00  0.00    -0.237 OA
ATOM     95  O   UNL A   1      53.083  26.451  29.530  1.00  0.00    -0.744 OA
ENDBRANCH  91  92
ENDBRANCH  65  86
ENDBRANCH  39  40
ENDBRANCH  31  34
ENDBRANCH   1  30
TORSDOF 15
ENDMDL
