MODEL 1
REMARK VINA RESULT:      -9.9      0.000      0.000
REMARK SMILES C[C@H](Sc1ccnc(C(=O)NCCCNC(=O)c2ccc(-c3c4nc(c(-c5ccc(S(=O)(=O)[O-])cc5)c5ccc([nH]5)c(-c5ccc(S(=O)(=O)[O-])cc5)c5nc(c(-c6ccc(S(=O)(=O)[O-])cc6)c6ccc3[nH]6)C=C5)C=C4)cc2)c1)[C@@H](C)O
REMARK SMILES IDX 12 1 11 2 9 3 10 4 8 6 4 7 5 8 78 9 6 10 7 11 3 12 2 13 1 14
REMARK SMILES IDX 79 15 80 16 81 17 13 19 14 20 15 21 16 22 17 24 18 25 19 26
REMARK SMILES IDX 77 27 20 28 76 29 21 30 22 31 23 32 70 33 24 34 75 35 69 36
REMARK SMILES IDX 71 37 25 38 74 39 68 40 67 41 26 43 56 44 37 45 55 46 38 47
REMARK SMILES IDX 41 48 54 49 72 50 39 51 40 52 53 54 73 55 42 56 27 57 28 58
REMARK SMILES IDX 36 59 29 60 35 61 30 62 31 63 32 64 33 65 34 66 57 67 58 68
REMARK SMILES IDX 66 69 59 70 65 71 60 72 61 73 62 74 63 75 64 76 43 77 44 78
REMARK SMILES IDX 52 79 45 80 51 81 46 82 47 83 48 84 49 85 50 86
REMARK H PARENT 11 5 81 18 15 23 71 42 41 53
REMARK Flexibility Score: inf
ROOT
ATOM      1  C   UNL A   1      35.142  34.656  28.612  1.00  0.00     0.118 C 
ENDROOT
BRANCH   1   2
ATOM      2  N   UNL A   1      33.948  35.453  28.409  1.00  0.00    -0.351 N 
ATOM      3  C   UNL A   1      33.102  36.126  29.261  1.00  0.00     0.269 C 
ATOM      4  O   UNL A   1      32.145  36.696  28.731  1.00  0.00    -0.268 OA
ATOM      5  H   UNL A   1      33.688  35.530  27.463  1.00  0.00     0.163 HD
BRANCH   3   6
ATOM      6  C   UNL A   1      33.328  36.264  30.744  1.00  0.00     0.129 A 
ATOM      7  C   UNL A   1      34.002  35.495  32.926  1.00  0.00     0.011 A 
ATOM      8  C   UNL A   1      34.032  36.824  33.336  1.00  0.00     0.035 A 
ATOM      9  C   UNL A   1      33.608  35.213  31.610  1.00  0.00     0.049 A 
ATOM     10  C   UNL A   1      33.628  37.804  32.448  1.00  0.00     0.113 A 
ATOM     11  N   UNL A   1      33.296  37.555  31.172  1.00  0.00    -0.251 NA
BRANCH   7  12
ATOM     12  S   UNL A   1      34.775  34.176  33.861  1.00  0.00    -0.120 SA
BRANCH  12  13
ATOM     13  C   UNL A   1      36.622  34.289  33.680  1.00  0.00     0.077 C 
ATOM     14  C   UNL A   1      37.457  33.753  34.838  1.00  0.00     0.022 C 
BRANCH  13  15
ATOM     15  C   UNL A   1      37.140  33.769  32.314  1.00  0.00     0.124 C 
ATOM     16  C   UNL A   1      36.249  32.714  31.659  1.00  0.00     0.039 C 
BRANCH  15  17
ATOM     17  O   UNL A   1      37.235  34.870  31.396  1.00  0.00    -0.392 OA
ATOM     18  H   UNL A   1      37.163  35.705  31.883  1.00  0.00     0.210 HD
ENDBRANCH  15  17
ENDBRANCH  13  15
ENDBRANCH  12  13
ENDBRANCH   7  12
ENDBRANCH   3   6
ENDBRANCH   1   2
BRANCH   1  19
ATOM     19  C   UNL A   1      35.030  33.322  27.873  1.00  0.00     0.042 C 
BRANCH  19  20
ATOM     20  C   UNL A   1      34.156  32.299  28.602  1.00  0.00     0.118 C 
BRANCH  20  21
ATOM     21  N   UNL A   1      33.811  31.175  27.743  1.00  0.00    -0.352 N 
ATOM     22  C   UNL A   1      34.568  30.110  27.332  1.00  0.00     0.251 C 
ATOM     23  H   UNL A   1      32.888  31.182  27.403  1.00  0.00     0.163 HD
ATOM     24  O   UNL A   1      34.144  29.401  26.415  1.00  0.00    -0.269 OA
BRANCH  22  25
ATOM     25  C   UNL A   1      35.872  29.797  27.958  1.00  0.00     0.039 A 
ATOM     26  C   UNL A   1      35.879  29.280  29.257  1.00  0.00     0.014 A 
ATOM     27  C   UNL A   1      37.083  30.078  27.318  1.00  0.00     0.014 A 
ATOM     28  C   UNL A   1      37.092  29.018  29.899  1.00  0.00     0.010 A 
ATOM     29  C   UNL A   1      38.294  29.758  27.936  1.00  0.00     0.010 A 
ATOM     30  C   UNL A   1      38.311  29.238  29.237  1.00  0.00    -0.014 A 
BRANCH  30  31
ATOM     31  C   UNL A   1      39.601  28.936  29.912  1.00  0.00     0.031 A 
ATOM     32  C   UNL A   1      40.011  29.683  31.154  1.00  0.00     0.074 A 
ATOM     33  C   UNL A   1      40.416  28.000  29.389  1.00  0.00     0.049 A 
ATOM     34  N   UNL A   1      41.088  29.539  31.883  1.00  0.00    -0.248 NA
ATOM     35  C   UNL A   1      39.105  30.743  31.624  1.00  0.00     0.031 C 
ATOM     36  C   UNL A   1      40.157  27.239  28.163  1.00  0.00     0.029 A 
ATOM     37  N   UNL A   1      41.628  27.524  29.824  1.00  0.00    -0.354 N 
ATOM     38  C   UNL A   1      40.998  30.496  32.889  1.00  0.00     0.074 A 
ATOM     39  C   UNL A   1      39.782  31.245  32.648  1.00  0.00     0.031 C 
ATOM     40  C   UNL A   1      41.160  26.369  27.965  1.00  0.00     0.029 A 
ATOM     41  C   UNL A   1      42.144  26.526  29.031  1.00  0.00     0.049 A 
ATOM     42  H   UNL A   1      42.083  27.863  30.627  1.00  0.00     0.167 HD
ATOM     43  C   UNL A   1      41.837  30.720  33.928  1.00  0.00     0.031 A 
ATOM     44  C   UNL A   1      43.279  25.811  29.151  1.00  0.00     0.031 A 
ATOM     45  C   UNL A   1      43.039  29.967  34.174  1.00  0.00     0.049 A 
ATOM     46  C   UNL A   1      44.179  26.056  30.331  1.00  0.00     0.074 A 
ATOM     47  C   UNL A   1      43.932  30.085  35.227  1.00  0.00     0.029 A 
ATOM     48  N   UNL A   1      43.517  28.953  33.359  1.00  0.00    -0.354 N 
ATOM     49  N   UNL A   1      44.043  26.926  31.302  1.00  0.00    -0.248 NA
ATOM     50  C   UNL A   1      45.371  25.207  30.438  1.00  0.00     0.031 C 
ATOM     51  C   UNL A   1      44.969  29.165  35.027  1.00  0.00     0.029 A 
ATOM     52  C   UNL A   1      44.696  28.443  33.877  1.00  0.00     0.049 A 
ATOM     53  H   UNL A   1      43.082  28.641  32.533  1.00  0.00     0.167 HD
ATOM     54  C   UNL A   1      45.123  26.713  32.151  1.00  0.00     0.074 A 
ATOM     55  C   UNL A   1      45.889  25.620  31.587  1.00  0.00     0.031 C 
ATOM     56  C   UNL A   1      45.453  27.363  33.296  1.00  0.00     0.031 A 
BRANCH  43  57
ATOM     57  C   UNL A   1      41.479  31.832  34.880  1.00  0.00    -0.014 A 
ATOM     58  C   UNL A   1      40.665  31.592  36.003  1.00  0.00     0.010 A 
ATOM     59  C   UNL A   1      41.984  33.128  34.669  1.00  0.00     0.010 A 
ATOM     60  C   UNL A   1      40.324  32.635  36.869  1.00  0.00     0.020 A 
ATOM     61  C   UNL A   1      41.668  34.169  35.548  1.00  0.00     0.020 A 
ATOM     62  C   UNL A   1      40.824  33.919  36.632  1.00  0.00     0.054 A 
BRANCH  62  63
ATOM     63  S   UNL A   1      40.377  35.253  37.778  1.00  0.00     0.124 S 
ATOM     64  O   UNL A   1      41.530  35.278  38.675  1.00  0.00    -0.237 OA
ATOM     65  O   UNL A   1      40.245  36.408  36.893  1.00  0.00    -0.237 OA
ATOM     66  O   UNL A   1      39.129  34.790  38.379  1.00  0.00    -0.744 OA
ENDBRANCH  62  63
ENDBRANCH  43  57
BRANCH  44  67
ATOM     67  C   UNL A   1      43.605  24.765  28.145  1.00  0.00    -0.014 A 
ATOM     68  C   UNL A   1      43.167  23.442  28.326  1.00  0.00     0.010 A 
ATOM     69  C   UNL A   1      44.338  25.092  26.990  1.00  0.00     0.010 A 
ATOM     70  C   UNL A   1      43.467  22.460  27.378  1.00  0.00     0.020 A 
ATOM     71  C   UNL A   1      44.619  24.118  26.027  1.00  0.00     0.020 A 
ATOM     72  C   UNL A   1      44.191  22.805  26.234  1.00  0.00     0.054 A 
BRANCH  72  73
ATOM     73  S   UNL A   1      44.519  21.530  24.984  1.00  0.00     0.124 S 
ATOM     74  O   UNL A   1      45.842  21.054  25.377  1.00  0.00    -0.237 OA
ATOM     75  O   UNL A   1      43.420  20.591  25.194  1.00  0.00    -0.237 OA
ATOM     76  O   UNL A   1      44.465  22.267  23.724  1.00  0.00    -0.744 OA
ENDBRANCH  72  73
ENDBRANCH  44  67
BRANCH  56  77
ATOM     77  C   UNL A   1      46.680  26.884  34.023  1.00  0.00    -0.014 A 
ATOM     78  C   UNL A   1      46.602  25.866  34.991  1.00  0.00     0.010 A 
ATOM     79  C   UNL A   1      47.930  27.458  33.728  1.00  0.00     0.010 A 
ATOM     80  C   UNL A   1      47.746  25.468  35.688  1.00  0.00     0.020 A 
ATOM     81  C   UNL A   1      49.080  27.043  34.404  1.00  0.00     0.020 A 
ATOM     82  C   UNL A   1      48.976  26.066  35.398  1.00  0.00     0.054 A 
BRANCH  82  83
ATOM     83  S   UNL A   1      50.449  25.535  36.313  1.00  0.00     0.124 S 
ATOM     84  O   UNL A   1      49.899  25.257  37.636  1.00  0.00    -0.237 OA
ATOM     85  O   UNL A   1      50.894  24.366  35.559  1.00  0.00    -0.237 OA
ATOM     86  O   UNL A   1      51.337  26.692  36.236  1.00  0.00    -0.744 OA
ENDBRANCH  82  83
ENDBRANCH  56  77
ENDBRANCH  30  31
ENDBRANCH  22  25
ENDBRANCH  20  21
ENDBRANCH  19  20
ENDBRANCH   1  19
TORSDOF 17
ENDMDL
MODEL 2
REMARK VINA RESULT:      -9.8      3.966      6.939
REMARK SMILES C[C@H](Sc1ccnc(C(=O)NCCCNC(=O)c2ccc(-c3c4nc(c(-c5ccc(S(=O)(=O)[O-])cc5)c5ccc([nH]5)c(-c5ccc(S(=O)(=O)[O-])cc5)c5nc(c(-c6ccc(S(=O)(=O)[O-])cc6)c6ccc3[nH]6)C=C5)C=C4)cc2)c1)[C@@H](C)O
REMARK SMILES IDX 12 1 11 2 9 3 10 4 8 6 4 7 5 8 78 9 6 10 7 11 3 12 2 13 1 14
REMARK SMILES IDX 79 15 80 16 81 17 13 19 14 20 15 21 16 22 17 24 18 25 19 26
REMARK SMILES IDX 77 27 20 28 76 29 21 30 22 31 23 32 70 33 24 34 75 35 69 36
REMARK SMILES IDX 71 37 25 38 74 39 68 40 67 41 26 43 56 44 37 45 55 46 38 47
REMARK SMILES IDX 41 48 54 49 72 50 39 51 40 52 53 54 73 55 42 56 27 57 28 58
REMARK SMILES IDX 36 59 29 60 35 61 30 62 31 63 32 64 33 65 34 66 57 67 58 68
REMARK SMILES IDX 66 69 59 70 65 71 60 72 61 73 62 74 63 75 64 76 43 77 44 78
REMARK SMILES IDX 52 79 45 80 51 81 46 82 47 83 48 84 49 85 50 86
REMARK H PARENT 11 5 81 18 15 23 71 42 41 53
REMARK Flexibility Score: inf
ROOT
ATOM      1  C   UNL A   1      32.386  26.355  26.006  1.00  0.00     0.118 C 
ENDROOT
BRANCH   1   2
ATOM      2  N   UNL A   1      31.238  25.587  26.444  1.00  0.00    -0.351 N 
ATOM      3  C   UNL A   1      31.040  24.254  26.722  1.00  0.00     0.269 C 
ATOM      4  O   UNL A   1      29.895  23.937  27.057  1.00  0.00    -0.268 OA
ATOM      5  H   UNL A   1      30.429  26.134  26.569  1.00  0.00     0.163 HD
BRANCH   3   6
ATOM      6  C   UNL A   1      32.132  23.217  26.718  1.00  0.00     0.129 A 
ATOM      7  C   UNL A   1      33.920  21.939  25.729  1.00  0.00     0.011 A 
ATOM      8  C   UNL A   1      34.316  21.582  27.014  1.00  0.00     0.035 A 
ATOM      9  C   UNL A   1      32.783  22.747  25.583  1.00  0.00     0.049 A 
ATOM     10  C   UNL A   1      33.548  21.996  28.086  1.00  0.00     0.113 A 
ATOM     11  N   UNL A   1      32.487  22.809  27.966  1.00  0.00    -0.251 NA
BRANCH   7  12
ATOM     12  S   UNL A   1      34.976  21.728  24.297  1.00  0.00    -0.120 SA
BRANCH  12  13
ATOM     13  C   UNL A   1      36.504  22.768  24.495  1.00  0.00     0.077 C 
ATOM     14  C   UNL A   1      36.382  24.003  25.383  1.00  0.00     0.022 C 
BRANCH  13  15
ATOM     15  C   UNL A   1      37.771  21.943  24.837  1.00  0.00     0.124 C 
ATOM     16  C   UNL A   1      38.549  22.450  26.052  1.00  0.00     0.039 C 
BRANCH  15  17
ATOM     17  O   UNL A   1      37.390  20.587  25.117  1.00  0.00    -0.392 OA
ATOM     18  H   UNL A   1      37.137  20.507  26.050  1.00  0.00     0.210 HD
ENDBRANCH  15  17
ENDBRANCH  13  15
ENDBRANCH  12  13
ENDBRANCH   7  12
ENDBRANCH   3   6
ENDBRANCH   1   2
BRANCH   1  19
ATOM     19  C   UNL A   1      32.299  27.794  26.516  1.00  0.00     0.042 C 
BRANCH  19  20
ATOM     20  C   UNL A   1      33.626  28.324  27.062  1.00  0.00     0.118 C 
BRANCH  20  21
ATOM     21  N   UNL A   1      33.547  29.740  27.392  1.00  0.00    -0.352 N 
ATOM     22  C   UNL A   1      34.443  30.550  28.038  1.00  0.00     0.251 C 
ATOM     23  H   UNL A   1      32.718  30.186  27.105  1.00  0.00     0.163 HD
ATOM     24  O   UNL A   1      34.067  31.662  28.417  1.00  0.00    -0.269 OA
BRANCH  22  25
ATOM     25  C   UNL A   1      35.836  30.120  28.289  1.00  0.00     0.039 A 
ATOM     26  C   UNL A   1      36.170  29.661  29.568  1.00  0.00     0.014 A 
ATOM     27  C   UNL A   1      36.832  30.239  27.314  1.00  0.00     0.014 A 
ATOM     28  C   UNL A   1      37.487  29.293  29.857  1.00  0.00     0.010 A 
ATOM     29  C   UNL A   1      38.133  29.812  27.585  1.00  0.00     0.010 A 
ATOM     30  C   UNL A   1      38.477  29.349  28.863  1.00  0.00    -0.014 A 
BRANCH  30  31
ATOM     31  C   UNL A   1      39.873  28.934  29.164  1.00  0.00     0.031 A 
ATOM     32  C   UNL A   1      40.821  29.877  29.858  1.00  0.00     0.074 A 
ATOM     33  C   UNL A   1      40.294  27.710  28.790  1.00  0.00     0.049 A 
ATOM     34  N   UNL A   1      42.063  29.679  30.217  1.00  0.00    -0.248 NA
ATOM     35  C   UNL A   1      40.314  31.223  30.170  1.00  0.00     0.031 C 
ATOM     36  C   UNL A   1      39.488  26.722  28.069  1.00  0.00     0.029 A 
ATOM     37  N   UNL A   1      41.502  27.086  28.968  1.00  0.00    -0.354 N 
ATOM     38  C   UNL A   1      42.492  30.875  30.783  1.00  0.00     0.074 A 
ATOM     39  C   UNL A   1      41.390  31.808  30.678  1.00  0.00     0.031 C 
ATOM     40  C   UNL A   1      40.213  25.604  27.897  1.00  0.00     0.029 A 
ATOM     41  C   UNL A   1      41.539  25.805  28.472  1.00  0.00     0.049 A 
ATOM     42  H   UNL A   1      42.270  27.515  29.411  1.00  0.00     0.167 HD
ATOM     43  C   UNL A   1      43.685  31.167  31.355  1.00  0.00     0.031 A 
ATOM     44  C   UNL A   1      42.526  24.889  28.484  1.00  0.00     0.031 A 
ATOM     45  C   UNL A   1      44.776  30.235  31.470  1.00  0.00     0.049 A 
ATOM     46  C   UNL A   1      43.830  25.225  29.152  1.00  0.00     0.074 A 
ATOM     47  C   UNL A   1      46.008  30.419  32.075  1.00  0.00     0.029 A 
ATOM     48  N   UNL A   1      44.767  28.941  30.971  1.00  0.00    -0.354 N 
ATOM     49  N   UNL A   1      44.193  26.342  29.734  1.00  0.00    -0.248 NA
ATOM     50  C   UNL A   1      44.847  24.166  29.183  1.00  0.00     0.031 C 
ATOM     51  C   UNL A   1      46.757  29.247  31.910  1.00  0.00     0.029 A 
ATOM     52  C   UNL A   1      45.973  28.318  31.245  1.00  0.00     0.049 A 
ATOM     53  H   UNL A   1      44.013  28.526  30.493  1.00  0.00     0.167 HD
ATOM     54  C   UNL A   1      45.475  26.114  30.221  1.00  0.00     0.074 A 
ATOM     55  C   UNL A   1      45.813  24.747  29.882  1.00  0.00     0.031 C 
ATOM     56  C   UNL A   1      46.299  26.960  30.890  1.00  0.00     0.031 A 
BRANCH  43  57
ATOM     57  C   UNL A   1      43.870  32.559  31.901  1.00  0.00    -0.014 A 
ATOM     58  C   UNL A   1      44.371  33.596  31.090  1.00  0.00     0.010 A 
ATOM     59  C   UNL A   1      43.513  32.846  33.231  1.00  0.00     0.010 A 
ATOM     60  C   UNL A   1      44.556  34.879  31.613  1.00  0.00     0.020 A 
ATOM     61  C   UNL A   1      43.672  34.135  33.750  1.00  0.00     0.020 A 
ATOM     62  C   UNL A   1      44.210  35.139  32.942  1.00  0.00     0.054 A 
BRANCH  62  63
ATOM     63  S   UNL A   1      44.449  36.816  33.593  1.00  0.00     0.124 S 
ATOM     64  O   UNL A   1      45.045  36.549  34.900  1.00  0.00    -0.237 OA
ATOM     65  O   UNL A   1      45.342  37.420  32.607  1.00  0.00    -0.237 OA
ATOM     66  O   UNL A   1      43.097  37.370  33.625  1.00  0.00    -0.744 OA
ENDBRANCH  62  63
ENDBRANCH  43  57
BRANCH  44  67
ATOM     67  C   UNL A   1      42.301  23.550  27.876  1.00  0.00    -0.014 A 
ATOM     68  C   UNL A   1      42.817  23.249  26.604  1.00  0.00     0.010 A 
ATOM     69  C   UNL A   1      41.586  22.562  28.578  1.00  0.00     0.010 A 
ATOM     70  C   UNL A   1      42.610  21.989  26.036  1.00  0.00     0.020 A 
ATOM     71  C   UNL A   1      41.399  21.292  28.023  1.00  0.00     0.020 A 
ATOM     72  C   UNL A   1      41.903  21.018  26.750  1.00  0.00     0.054 A 
BRANCH  72  73
ATOM     73  S   UNL A   1      41.699  19.368  26.021  1.00  0.00     0.124 S 
ATOM     74  O   UNL A   1      42.202  18.503  27.084  1.00  0.00    -0.237 OA
ATOM     75  O   UNL A   1      40.260  19.304  25.780  1.00  0.00    -0.237 OA
ATOM     76  O   UNL A   1      42.522  19.425  24.815  1.00  0.00    -0.744 OA
ENDBRANCH  72  73
ENDBRANCH  44  67
BRANCH  56  77
ATOM     77  C   UNL A   1      47.633  26.414  31.321  1.00  0.00    -0.014 A 
ATOM     78  C   UNL A   1      48.744  26.442  30.459  1.00  0.00     0.010 A 
ATOM     79  C   UNL A   1      47.777  25.869  32.610  1.00  0.00     0.010 A 
ATOM     80  C   UNL A   1      49.962  25.887  30.861  1.00  0.00     0.020 A 
ATOM     81  C   UNL A   1      49.001  25.339  33.025  1.00  0.00     0.020 A 
ATOM     82  C   UNL A   1      50.080  25.330  32.137  1.00  0.00     0.054 A 
BRANCH  82  83
ATOM     83  S   UNL A   1      51.669  24.615  32.641  1.00  0.00     0.124 S 
ATOM     84  O   UNL A   1      51.553  23.245  32.152  1.00  0.00    -0.237 OA
ATOM     85  O   UNL A   1      52.638  25.454  31.938  1.00  0.00    -0.237 OA
ATOM     86  O   UNL A   1      51.668  24.762  34.094  1.00  0.00    -0.744 OA
ENDBRANCH  82  83
ENDBRANCH  56  77
ENDBRANCH  30  31
ENDBRANCH  22  25
ENDBRANCH  20  21
ENDBRANCH  19  20
ENDBRANCH   1  19
TORSDOF 17
ENDMDL
MODEL 3
REMARK VINA RESULT:      -9.4      3.150      6.286
REMARK SMILES C[C@H](Sc1ccnc(C(=O)NCCCNC(=O)c2ccc(-c3c4nc(c(-c5ccc(S(=O)(=O)[O-])cc5)c5ccc([nH]5)c(-c5ccc(S(=O)(=O)[O-])cc5)c5nc(c(-c6ccc(S(=O)(=O)[O-])cc6)c6ccc3[nH]6)C=C5)C=C4)cc2)c1)[C@@H](C)O
REMARK SMILES IDX 12 1 11 2 9 3 10 4 8 6 4 7 5 8 78 9 6 10 7 11 3 12 2 13 1 14
REMARK SMILES IDX 79 15 80 16 81 17 13 19 14 20 15 21 16 22 17 24 18 25 19 26
REMARK SMILES IDX 77 27 20 28 76 29 21 30 22 31 23 32 70 33 24 34 75 35 69 36
REMARK SMILES IDX 71 37 25 38 74 39 68 40 67 41 26 43 56 44 37 45 55 46 38 47
REMARK SMILES IDX 41 48 54 49 72 50 39 51 40 52 53 54 73 55 42 56 27 57 28 58
REMARK SMILES IDX 36 59 29 60 35 61 30 62 31 63 32 64 33 65 34 66 57 67 58 68
REMARK SMILES IDX 66 69 59 70 65 71 60 72 61 73 62 74 63 75 64 76 43 77 44 78
REMARK SMILES IDX 52 79 45 80 51 81 46 82 47 83 48 84 49 85 50 86
REMARK H PARENT 11 5 81 18 15 23 71 42 41 53
REMARK Flexibility Score: inf
ROOT
ATOM      1  C   UNL A   1      32.687  27.544  24.208  1.00  0.00     0.118 C 
ENDROOT
BRANCH   1   2
ATOM      2  N   UNL A   1      32.830  27.131  22.826  1.00  0.00    -0.351 N 
ATOM      3  C   UNL A   1      33.247  25.966  22.223  1.00  0.00     0.269 C 
ATOM      4  O   UNL A   1      33.267  25.974  20.990  1.00  0.00    -0.268 OA
ATOM      5  H   UNL A   1      32.576  27.831  22.182  1.00  0.00     0.163 HD
BRANCH   3   6
ATOM      6  C   UNL A   1      33.589  24.703  22.969  1.00  0.00     0.129 A 
ATOM      7  C   UNL A   1      34.674  23.416  24.694  1.00  0.00     0.011 A 
ATOM      8  C   UNL A   1      33.782  22.384  24.423  1.00  0.00     0.035 A 
ATOM      9  C   UNL A   1      34.593  24.586  23.925  1.00  0.00     0.049 A 
ATOM     10  C   UNL A   1      32.888  22.534  23.380  1.00  0.00     0.113 A 
ATOM     11  N   UNL A   1      32.765  23.664  22.667  1.00  0.00    -0.251 NA
BRANCH   7  12
ATOM     12  S   UNL A   1      35.664  23.474  26.186  1.00  0.00    -0.120 SA
BRANCH  12  13
ATOM     13  C   UNL A   1      37.462  23.305  25.743  1.00  0.00     0.077 C 
ATOM     14  C   UNL A   1      38.434  24.242  26.455  1.00  0.00     0.022 C 
BRANCH  13  15
ATOM     15  C   UNL A   1      37.966  21.839  25.761  1.00  0.00     0.124 C 
ATOM     16  C   UNL A   1      37.423  20.969  24.627  1.00  0.00     0.039 C 
BRANCH  15  17
ATOM     17  O   UNL A   1      39.398  21.831  25.650  1.00  0.00    -0.392 OA
ATOM     18  H   UNL A   1      39.726  20.924  25.754  1.00  0.00     0.210 HD
ENDBRANCH  15  17
ENDBRANCH  13  15
ENDBRANCH  12  13
ENDBRANCH   7  12
ENDBRANCH   3   6
ENDBRANCH   1   2
BRANCH   1  19
ATOM     19  C   UNL A   1      33.834  28.468  24.616  1.00  0.00     0.042 C 
BRANCH  19  20
ATOM     20  C   UNL A   1      33.931  28.682  26.128  1.00  0.00     0.118 C 
BRANCH  20  21
ATOM     21  N   UNL A   1      33.652  30.063  26.497  1.00  0.00    -0.352 N 
ATOM     22  C   UNL A   1      34.244  30.864  27.437  1.00  0.00     0.251 C 
ATOM     23  H   UNL A   1      32.923  30.487  25.990  1.00  0.00     0.163 HD
ATOM     24  O   UNL A   1      33.690  31.924  27.742  1.00  0.00    -0.269 OA
BRANCH  22  25
ATOM     25  C   UNL A   1      35.517  30.487  28.088  1.00  0.00     0.039 A 
ATOM     26  C   UNL A   1      35.469  29.661  29.216  1.00  0.00     0.014 A 
ATOM     27  C   UNL A   1      36.746  30.998  27.655  1.00  0.00     0.014 A 
ATOM     28  C   UNL A   1      36.648  29.324  29.887  1.00  0.00     0.010 A 
ATOM     29  C   UNL A   1      37.928  30.610  28.288  1.00  0.00     0.010 A 
ATOM     30  C   UNL A   1      37.890  29.782  29.418  1.00  0.00    -0.014 A 
BRANCH  30  31
ATOM     31  C   UNL A   1      39.146  29.402  30.118  1.00  0.00     0.031 A 
ATOM     32  C   UNL A   1      39.570  30.116  31.375  1.00  0.00     0.074 A 
ATOM     33  C   UNL A   1      39.919  28.425  29.605  1.00  0.00     0.049 A 
ATOM     34  N   UNL A   1      40.621  29.907  32.126  1.00  0.00    -0.248 NA
ATOM     35  C   UNL A   1      38.715  31.223  31.834  1.00  0.00     0.031 C 
ATOM     36  C   UNL A   1      39.643  27.689  28.368  1.00  0.00     0.029 A 
ATOM     37  N   UNL A   1      41.091  27.878  30.062  1.00  0.00    -0.354 N 
ATOM     38  C   UNL A   1      40.562  30.860  33.138  1.00  0.00     0.074 A 
ATOM     39  C   UNL A   1      39.397  31.678  32.876  1.00  0.00     0.031 C 
ATOM     40  C   UNL A   1      40.601  26.765  28.185  1.00  0.00     0.029 A 
ATOM     41  C   UNL A   1      41.568  26.859  29.273  1.00  0.00     0.049 A 
ATOM     42  H   UNL A   1      41.547  28.185  30.879  1.00  0.00     0.167 HD
ATOM     43  C   UNL A   1      41.389  31.029  34.197  1.00  0.00     0.031 A 
ATOM     44  C   UNL A   1      42.658  26.079  29.412  1.00  0.00     0.031 A 
ATOM     45  C   UNL A   1      42.542  30.208  34.462  1.00  0.00     0.049 A 
ATOM     46  C   UNL A   1      43.544  26.266  30.612  1.00  0.00     0.074 A 
ATOM     47  C   UNL A   1      43.416  30.268  35.535  1.00  0.00     0.029 A 
ATOM     48  N   UNL A   1      42.980  29.174  33.649  1.00  0.00    -0.354 N 
ATOM     49  N   UNL A   1      43.436  27.135  31.588  1.00  0.00    -0.248 NA
ATOM     50  C   UNL A   1      44.684  25.349  30.738  1.00  0.00     0.031 C 
ATOM     51  C   UNL A   1      44.404  29.292  35.350  1.00  0.00     0.029 A 
ATOM     52  C   UNL A   1      44.117  28.595  34.188  1.00  0.00     0.049 A 
ATOM     53  H   UNL A   1      42.546  28.892  32.811  1.00  0.00     0.167 HD
ATOM     54  C   UNL A   1      44.484  26.855  32.458  1.00  0.00     0.074 A 
ATOM     55  C   UNL A   1      45.199  25.725  31.901  1.00  0.00     0.031 C 
ATOM     56  C   UNL A   1      44.824  27.478  33.615  1.00  0.00     0.031 A 
BRANCH  43  57
ATOM     57  C   UNL A   1      41.074  32.153  35.150  1.00  0.00    -0.014 A 
ATOM     58  C   UNL A   1      40.227  31.951  36.255  1.00  0.00     0.010 A 
ATOM     59  C   UNL A   1      41.653  33.421  34.957  1.00  0.00     0.010 A 
ATOM     60  C   UNL A   1      39.926  33.005  37.122  1.00  0.00     0.020 A 
ATOM     61  C   UNL A   1      41.377  34.472  35.838  1.00  0.00     0.020 A 
ATOM     62  C   UNL A   1      40.499  34.262  36.904  1.00  0.00     0.054 A 
BRANCH  62  63
ATOM     63  S   UNL A   1      40.103  35.611  38.051  1.00  0.00     0.124 S 
ATOM     64  O   UNL A   1      38.935  35.079  38.748  1.00  0.00    -0.237 OA
ATOM     65  O   UNL A   1      41.319  35.719  38.854  1.00  0.00    -0.237 OA
ATOM     66  O   UNL A   1      39.840  36.747  37.171  1.00  0.00    -0.744 OA
ENDBRANCH  62  63
ENDBRANCH  43  57
BRANCH  44  67
ATOM     67  C   UNL A   1      42.946  25.024  28.404  1.00  0.00    -0.014 A 
ATOM     68  C   UNL A   1      42.715  23.671  28.705  1.00  0.00     0.010 A 
ATOM     69  C   UNL A   1      43.435  25.370  27.131  1.00  0.00     0.010 A 
ATOM     70  C   UNL A   1      42.980  22.679  27.756  1.00  0.00     0.020 A 
ATOM     71  C   UNL A   1      43.678  24.382  26.171  1.00  0.00     0.020 A 
ATOM     72  C   UNL A   1      43.459  23.042  26.495  1.00  0.00     0.054 A 
BRANCH  72  73
ATOM     73  S   UNL A   1      43.739  21.745  25.256  1.00  0.00     0.124 S 
ATOM     74  O   UNL A   1      44.977  21.135  25.731  1.00  0.00    -0.237 OA
ATOM     75  O   UNL A   1      42.538  20.922  25.382  1.00  0.00    -0.237 OA
ATOM     76  O   UNL A   1      43.846  22.489  24.003  1.00  0.00    -0.744 OA
ENDBRANCH  72  73
ENDBRANCH  44  67
BRANCH  56  77
ATOM     77  C   UNL A   1      46.006  26.925  34.364  1.00  0.00    -0.014 A 
ATOM     78  C   UNL A   1      45.851  25.898  35.314  1.00  0.00     0.010 A 
ATOM     79  C   UNL A   1      47.290  27.438  34.110  1.00  0.00     0.010 A 
ATOM     80  C   UNL A   1      46.955  25.431  36.032  1.00  0.00     0.020 A 
ATOM     81  C   UNL A   1      48.400  26.954  34.807  1.00  0.00     0.020 A 
ATOM     82  C   UNL A   1      48.220  25.969  35.782  1.00  0.00     0.054 A 
BRANCH  82  83
ATOM     83  S   UNL A   1      49.640  25.349  36.725  1.00  0.00     0.124 S 
ATOM     84  O   UNL A   1      50.759  25.702  35.855  1.00  0.00    -0.237 OA
ATOM     85  O   UNL A   1      49.553  26.103  37.974  1.00  0.00    -0.237 OA
ATOM     86  O   UNL A   1      49.373  23.919  36.849  1.00  0.00    -0.744 OA
ENDBRANCH  82  83
ENDBRANCH  56  77
ENDBRANCH  30  31
ENDBRANCH  22  25
ENDBRANCH  20  21
ENDBRANCH  19  20
ENDBRANCH   1  19
TORSDOF 17
ENDMDL
