MODEL 1
REMARK VINA RESULT:     -10.7      0.000      0.000
REMARK SMILES Cn1ccnc(N[C@H]2C=C[C@H](C(=O)NCCCNC(=O)c3ccc(-c4c5nc(c(-c6ccc(S(=O)(=O)[O-])cc6)c6ccc([nH]6)c(-c6ccc(S(=O)(=O)[O-])cc6)c6nc(c(-c7ccc(S(=O)(=O)[O-])cc7)c7ccc4[nH]7)C=C6)C=C5)cc3)C2)c1=O
REMARK SMILES IDX 16 1 15 2 14 3 12 4 13 5 11 7 8 8 9 9 81 10 10 11 7 12 6 14
REMARK SMILES IDX 1 15 2 16 3 17 82 18 4 19 83 20 5 21 17 22 18 23 19 24 20 26
REMARK SMILES IDX 21 27 22 28 80 29 23 30 79 31 24 32 25 33 26 34 73 35 27 36
REMARK SMILES IDX 78 37 72 38 74 39 28 40 77 41 71 42 70 43 29 45 59 46 40 47
REMARK SMILES IDX 58 48 41 49 44 50 57 51 75 52 42 53 43 54 56 56 76 57 45 58
REMARK SMILES IDX 30 59 31 60 39 61 32 62 38 63 33 64 34 65 35 66 36 67 37 68
REMARK SMILES IDX 60 69 61 70 69 71 62 72 68 73 63 74 64 75 65 76 66 77 67 78
REMARK SMILES IDX 46 79 47 80 55 81 48 82 54 83 49 84 50 85 51 86 52 87 53 88
REMARK H PARENT 14 6 7 13 18 25 74 44 44 55
REMARK Flexibility Score: inf
ROOT
ATOM      1  C   UNL A   1      35.964  22.985  24.247  1.00  0.00     0.042 C 
ENDROOT
BRANCH   1   2
ATOM      2  C   UNL A   1      35.525  21.604  24.696  1.00  0.00     0.117 C 
BRANCH   2   3
ATOM      3  N   UNL A   1      35.123  21.562  26.093  1.00  0.00    -0.356 N 
ATOM      4  C   UNL A   1      33.940  21.973  26.646  1.00  0.00     0.227 C 
ATOM      5  O   UNL A   1      33.740  21.762  27.841  1.00  0.00    -0.274 OA
ATOM      6  H   UNL A   1      35.785  21.192  26.721  1.00  0.00     0.163 HD
BRANCH   4   7
ATOM      7  C   UNL A   1      32.936  22.674  25.736  1.00  0.00     0.103 C 
ATOM      8  C   UNL A   1      31.263  24.326  26.436  1.00  0.00     0.104 C 
ATOM      9  C   UNL A   1      30.655  22.982  26.280  1.00  0.00    -0.006 C 
ATOM     10  C   UNL A   1      32.733  24.168  26.050  1.00  0.00     0.046 C 
ATOM     11  C   UNL A   1      31.567  22.073  25.927  1.00  0.00    -0.016 C 
BRANCH   8  12
ATOM     12  N   UNL A   1      30.542  25.316  25.685  1.00  0.00    -0.359 N 
ATOM     13  H   UNL A   1      29.708  24.974  25.289  1.00  0.00     0.162 HD
BRANCH  12  14
ATOM     14  C   UNL A   1      30.775  26.644  25.405  1.00  0.00     0.193 A 
ATOM     15  C   UNL A   1      30.436  29.440  22.790  1.00  0.00     0.153 C 
ATOM     16  N   UNL A   1      30.759  28.704  23.996  1.00  0.00    -0.314 N 
ATOM     17  C   UNL A   1      31.451  29.292  25.024  1.00  0.00     0.109 A 
ATOM     18  C   UNL A   1      30.341  27.381  24.091  1.00  0.00     0.293 A 
ATOM     19  C   UNL A   1      31.741  28.602  26.130  1.00  0.00     0.131 A 
ATOM     20  O   UNL A   1      29.686  26.830  23.218  1.00  0.00    -0.265 OA
ATOM     21  N   UNL A   1      31.423  27.290  26.350  1.00  0.00    -0.233 NA
ENDBRANCH  12  14
ENDBRANCH   8  12
ENDBRANCH   4   7
ENDBRANCH   2   3
ENDBRANCH   1   2
BRANCH   1  22
ATOM     22  C   UNL A   1      37.034  23.611  25.126  1.00  0.00     0.118 C 
BRANCH  22  23
ATOM     23  N   UNL A   1      38.146  22.711  25.404  1.00  0.00    -0.352 N 
ATOM     24  C   UNL A   1      39.328  22.956  26.062  1.00  0.00     0.251 C 
ATOM     25  H   UNL A   1      38.033  21.791  25.072  1.00  0.00     0.163 HD
ATOM     26  O   UNL A   1      40.216  22.109  26.062  1.00  0.00    -0.269 OA
BRANCH  24  27
ATOM     27  C   UNL A   1      39.533  24.256  26.737  1.00  0.00     0.039 A 
ATOM     28  C   UNL A   1      39.055  24.429  28.037  1.00  0.00     0.014 A 
ATOM     29  C   UNL A   1      40.226  25.286  26.099  1.00  0.00     0.014 A 
ATOM     30  C   UNL A   1      39.351  25.607  28.728  1.00  0.00     0.010 A 
ATOM     31  C   UNL A   1      40.608  26.409  26.821  1.00  0.00     0.010 A 
ATOM     32  C   UNL A   1      40.173  26.585  28.143  1.00  0.00    -0.014 A 
BRANCH  32  33
ATOM     33  C   UNL A   1      40.584  27.806  28.883  1.00  0.00     0.031 A 
ATOM     34  C   UNL A   1      41.928  27.853  29.560  1.00  0.00     0.074 A 
ATOM     35  C   UNL A   1      39.726  28.839  29.009  1.00  0.00     0.049 A 
ATOM     36  N   UNL A   1      42.430  28.780  30.335  1.00  0.00    -0.248 NA
ATOM     37  C   UNL A   1      42.817  26.694  29.361  1.00  0.00     0.031 C 
ATOM     38  C   UNL A   1      38.383  28.905  28.426  1.00  0.00     0.029 A 
ATOM     39  N   UNL A   1      39.853  30.032  29.677  1.00  0.00    -0.354 N 
ATOM     40  C   UNL A   1      43.680  28.313  30.723  1.00  0.00     0.074 A 
ATOM     41  C   UNL A   1      43.835  26.994  30.152  1.00  0.00     0.031 C 
ATOM     42  C   UNL A   1      37.826  30.088  28.734  1.00  0.00     0.029 A 
ATOM     43  C   UNL A   1      38.745  30.842  29.579  1.00  0.00     0.049 A 
ATOM     44  H   UNL A   1      40.660  30.284  30.179  1.00  0.00     0.167 HD
ATOM     45  C   UNL A   1      44.627  28.935  31.464  1.00  0.00     0.031 A 
ATOM     46  C   UNL A   1      38.492  32.050  30.120  1.00  0.00     0.031 A 
ATOM     47  C   UNL A   1      44.473  30.251  32.024  1.00  0.00     0.049 A 
ATOM     48  C   UNL A   1      39.542  32.700  30.982  1.00  0.00     0.074 A 
ATOM     49  C   UNL A   1      45.386  30.982  32.761  1.00  0.00     0.029 A 
ATOM     50  N   UNL A   1      43.335  31.034  31.905  1.00  0.00    -0.354 N 
ATOM     51  N   UNL A   1      40.738  32.261  31.297  1.00  0.00    -0.248 NA
ATOM     52  C   UNL A   1      39.213  34.012  31.556  1.00  0.00     0.031 C 
ATOM     53  C   UNL A   1      44.780  32.185  33.137  1.00  0.00     0.029 A 
ATOM     54  C   UNL A   1      43.515  32.232  32.574  1.00  0.00     0.049 A 
ATOM     55  H   UNL A   1      42.519  30.775  31.417  1.00  0.00     0.167 HD
ATOM     56  C   UNL A   1      41.317  33.262  32.071  1.00  0.00     0.074 A 
ATOM     57  C   UNL A   1      40.345  34.330  32.168  1.00  0.00     0.031 C 
ATOM     58  C   UNL A   1      42.543  33.294  32.647  1.00  0.00     0.031 A 
BRANCH  45  59
ATOM     59  C   UNL A   1      45.918  28.199  31.706  1.00  0.00    -0.014 A 
ATOM     60  C   UNL A   1      46.068  27.344  32.815  1.00  0.00     0.010 A 
ATOM     61  C   UNL A   1      46.980  28.321  30.791  1.00  0.00     0.010 A 
ATOM     62  C   UNL A   1      47.265  26.657  33.024  1.00  0.00     0.020 A 
ATOM     63  C   UNL A   1      48.169  27.609  30.979  1.00  0.00     0.020 A 
ATOM     64  C   UNL A   1      48.308  26.792  32.103  1.00  0.00     0.054 A 
BRANCH  64  65
ATOM     65  S   UNL A   1      49.837  25.857  32.384  1.00  0.00     0.124 S 
ATOM     66  O   UNL A   1      50.725  26.888  32.915  1.00  0.00    -0.237 OA
ATOM     67  O   UNL A   1      49.415  24.837  33.340  1.00  0.00    -0.237 OA
ATOM     68  O   UNL A   1      50.187  25.358  31.056  1.00  0.00    -0.744 OA
ENDBRANCH  64  65
ENDBRANCH  45  59
BRANCH  46  69
ATOM     69  C   UNL A   1      37.194  32.735  29.862  1.00  0.00    -0.014 A 
ATOM     70  C   UNL A   1      36.998  33.469  28.677  1.00  0.00     0.010 A 
ATOM     71  C   UNL A   1      36.153  32.678  30.806  1.00  0.00     0.010 A 
ATOM     72  C   UNL A   1      35.802  34.159  28.458  1.00  0.00     0.020 A 
ATOM     73  C   UNL A   1      34.942  33.338  30.576  1.00  0.00     0.020 A 
ATOM     74  C   UNL A   1      34.781  34.089  29.411  1.00  0.00     0.054 A 
BRANCH  74  75
ATOM     75  S   UNL A   1      33.229  34.975  29.096  1.00  0.00     0.124 S 
ATOM     76  O   UNL A   1      33.710  36.272  28.628  1.00  0.00    -0.237 OA
ATOM     77  O   UNL A   1      32.586  34.136  28.088  1.00  0.00    -0.237 OA
ATOM     78  O   UNL A   1      32.571  34.986  30.400  1.00  0.00    -0.744 OA
ENDBRANCH  74  75
ENDBRANCH  46  69
BRANCH  58  79
ATOM     79  C   UNL A   1      42.935  34.545  33.390  1.00  0.00    -0.014 A 
ATOM     80  C   UNL A   1      42.818  34.637  34.787  1.00  0.00     0.010 A 
ATOM     81  C   UNL A   1      43.500  35.619  32.676  1.00  0.00     0.010 A 
ATOM     82  C   UNL A   1      43.236  35.792  35.455  1.00  0.00     0.020 A 
ATOM     83  C   UNL A   1      43.948  36.761  33.343  1.00  0.00     0.020 A 
ATOM     84  C   UNL A   1      43.803  36.844  34.729  1.00  0.00     0.054 A 
BRANCH  84  85
ATOM     85  S   UNL A   1      44.395  38.304  35.628  1.00  0.00     0.124 S 
ATOM     86  O   UNL A   1      43.849  39.396  34.827  1.00  0.00    -0.237 OA
ATOM     87  O   UNL A   1      43.792  38.130  36.948  1.00  0.00    -0.237 OA
ATOM     88  O   UNL A   1      45.850  38.169  35.590  1.00  0.00    -0.744 OA
ENDBRANCH  84  85
ENDBRANCH  58  79
ENDBRANCH  32  33
ENDBRANCH  24  27
ENDBRANCH  22  23
ENDBRANCH   1  22
TORSDOF 15
ENDMDL
MODEL 2
REMARK VINA RESULT:     -10.7      3.566      6.512
REMARK SMILES Cn1ccnc(N[C@H]2C=C[C@H](C(=O)NCCCNC(=O)c3ccc(-c4c5nc(c(-c6ccc(S(=O)(=O)[O-])cc6)c6ccc([nH]6)c(-c6ccc(S(=O)(=O)[O-])cc6)c6nc(c(-c7ccc(S(=O)(=O)[O-])cc7)c7ccc4[nH]7)C=C6)C=C5)cc3)C2)c1=O
REMARK SMILES IDX 16 1 15 2 14 3 12 4 13 5 11 7 8 8 9 9 81 10 10 11 7 12 6 14
REMARK SMILES IDX 1 15 2 16 3 17 82 18 4 19 83 20 5 21 17 22 18 23 19 24 20 26
REMARK SMILES IDX 21 27 22 28 80 29 23 30 79 31 24 32 25 33 26 34 73 35 27 36
REMARK SMILES IDX 78 37 72 38 74 39 28 40 77 41 71 42 70 43 29 45 59 46 40 47
REMARK SMILES IDX 58 48 41 49 44 50 57 51 75 52 42 53 43 54 56 56 76 57 45 58
REMARK SMILES IDX 30 59 31 60 39 61 32 62 38 63 33 64 34 65 35 66 36 67 37 68
REMARK SMILES IDX 60 69 61 70 69 71 62 72 68 73 63 74 64 75 65 76 66 77 67 78
REMARK SMILES IDX 46 79 47 80 55 81 48 82 54 83 49 84 50 85 51 86 52 87 53 88
REMARK H PARENT 14 6 7 13 18 25 74 44 44 55
REMARK Flexibility Score: inf
ROOT
ATOM      1  C   UNL A   1      41.021  20.419  26.139  1.00  0.00     0.042 C 
ENDROOT
BRANCH   1   2
ATOM      2  C   UNL A   1      42.524  20.405  26.351  1.00  0.00     0.117 C 
BRANCH   2   3
ATOM      3  N   UNL A   1      43.270  20.721  25.143  1.00  0.00    -0.356 N 
ATOM      4  C   UNL A   1      43.929  21.881  24.833  1.00  0.00     0.227 C 
ATOM      5  O   UNL A   1      44.595  21.925  23.800  1.00  0.00    -0.274 OA
ATOM      6  H   UNL A   1      43.306  20.011  24.461  1.00  0.00     0.163 HD
BRANCH   4   7
ATOM      7  C   UNL A   1      43.790  23.055  25.797  1.00  0.00     0.103 C 
ATOM      8  C   UNL A   1      45.154  25.094  25.791  1.00  0.00     0.104 C 
ATOM      9  C   UNL A   1      45.624  24.139  26.824  1.00  0.00    -0.006 C 
ATOM     10  C   UNL A   1      43.939  24.437  25.136  1.00  0.00     0.046 C 
ATOM     11  C   UNL A   1      44.904  23.016  26.812  1.00  0.00    -0.016 C 
BRANCH   8  12
ATOM     12  N   UNL A   1      44.910  26.394  26.353  1.00  0.00    -0.359 N 
ATOM     13  H   UNL A   1      43.995  26.503  26.700  1.00  0.00     0.162 HD
BRANCH  12  14
ATOM     14  C   UNL A   1      45.691  27.518  26.508  1.00  0.00     0.193 A 
ATOM     15  C   UNL A   1      45.729  31.359  26.639  1.00  0.00     0.153 C 
ATOM     16  N   UNL A   1      46.141  29.970  26.636  1.00  0.00    -0.314 N 
ATOM     17  C   UNL A   1      47.465  29.621  26.717  1.00  0.00     0.109 A 
ATOM     18  C   UNL A   1      45.156  28.990  26.556  1.00  0.00     0.293 A 
ATOM     19  C   UNL A   1      47.831  28.336  26.715  1.00  0.00     0.131 A 
ATOM     20  O   UNL A   1      43.963  29.255  26.524  1.00  0.00    -0.265 OA
ATOM     21  N   UNL A   1      46.980  27.271  26.610  1.00  0.00    -0.233 NA
ENDBRANCH  12  14
ENDBRANCH   8  12
ENDBRANCH   4   7
ENDBRANCH   2   3
ENDBRANCH   1   2
BRANCH   1  22
ATOM     22  C   UNL A   1      40.318  21.609  26.771  1.00  0.00     0.118 C 
BRANCH  22  23
ATOM     23  N   UNL A   1      39.183  22.084  25.989  1.00  0.00    -0.352 N 
ATOM     24  C   UNL A   1      38.593  23.326  25.969  1.00  0.00     0.251 C 
ATOM     25  H   UNL A   1      38.781  21.418  25.387  1.00  0.00     0.163 HD
ATOM     26  O   UNL A   1      37.543  23.495  25.357  1.00  0.00    -0.269 OA
BRANCH  24  27
ATOM     27  C   UNL A   1      39.213  24.442  26.714  1.00  0.00     0.039 A 
ATOM     28  C   UNL A   1      40.063  25.321  26.040  1.00  0.00     0.014 A 
ATOM     29  C   UNL A   1      38.925  24.640  28.066  1.00  0.00     0.014 A 
ATOM     30  C   UNL A   1      40.554  26.448  26.703  1.00  0.00     0.010 A 
ATOM     31  C   UNL A   1      39.329  25.813  28.691  1.00  0.00     0.010 A 
ATOM     32  C   UNL A   1      40.150  26.730  28.019  1.00  0.00    -0.014 A 
BRANCH  32  33
ATOM     33  C   UNL A   1      40.578  27.968  28.721  1.00  0.00     0.031 A 
ATOM     34  C   UNL A   1      41.952  28.043  29.333  1.00  0.00     0.074 A 
ATOM     35  C   UNL A   1      39.712  28.990  28.873  1.00  0.00     0.049 A 
ATOM     36  N   UNL A   1      42.476  28.988  30.070  1.00  0.00    -0.248 NA
ATOM     37  C   UNL A   1      42.846  26.893  29.108  1.00  0.00     0.031 C 
ATOM     38  C   UNL A   1      38.342  29.030  28.353  1.00  0.00     0.029 A 
ATOM     39  N   UNL A   1      39.853  30.194  29.517  1.00  0.00    -0.354 N 
ATOM     40  C   UNL A   1      43.749  28.543  30.405  1.00  0.00     0.074 A 
ATOM     41  C   UNL A   1      43.897  27.218  29.846  1.00  0.00     0.031 C 
ATOM     42  C   UNL A   1      37.784  30.209  28.671  1.00  0.00     0.029 A 
ATOM     43  C   UNL A   1      38.730  30.988  29.461  1.00  0.00     0.049 A 
ATOM     44  H   UNL A   1      40.680  30.465  29.977  1.00  0.00     0.167 HD
ATOM     45  C   UNL A   1      44.722  29.189  31.091  1.00  0.00     0.031 A 
ATOM     46  C   UNL A   1      38.486  32.201  29.997  1.00  0.00     0.031 A 
ATOM     47  C   UNL A   1      44.576  30.511  31.639  1.00  0.00     0.049 A 
ATOM     48  C   UNL A   1      39.567  32.877  30.799  1.00  0.00     0.074 A 
ATOM     49  C   UNL A   1      45.512  31.265  32.323  1.00  0.00     0.029 A 
ATOM     50  N   UNL A   1      43.422  31.276  31.564  1.00  0.00    -0.354 N 
ATOM     51  N   UNL A   1      40.782  32.459  31.063  1.00  0.00    -0.248 NA
ATOM     52  C   UNL A   1      39.246  34.193  31.369  1.00  0.00     0.031 C 
ATOM     53  C   UNL A   1      44.907  32.464  32.710  1.00  0.00     0.029 A 
ATOM     54  C   UNL A   1      43.616  32.486  32.207  1.00  0.00     0.049 A 
ATOM     55  H   UNL A   1      42.588  30.999  31.119  1.00  0.00     0.167 HD
ATOM     56  C   UNL A   1      41.382  33.478  31.795  1.00  0.00     0.074 A 
ATOM     57  C   UNL A   1      40.401  34.535  31.922  1.00  0.00     0.031 C 
ATOM     58  C   UNL A   1      42.633  33.535  32.311  1.00  0.00     0.031 A 
BRANCH  45  59
ATOM     59  C   UNL A   1      46.033  28.474  31.283  1.00  0.00    -0.014 A 
ATOM     60  C   UNL A   1      47.081  28.623  30.354  1.00  0.00     0.010 A 
ATOM     61  C   UNL A   1      46.244  27.683  32.428  1.00  0.00     0.010 A 
ATOM     62  C   UNL A   1      48.298  27.966  30.547  1.00  0.00     0.020 A 
ATOM     63  C   UNL A   1      47.471  27.049  32.641  1.00  0.00     0.020 A 
ATOM     64  C   UNL A   1      48.486  27.184  31.690  1.00  0.00     0.054 A 
BRANCH  64  65
ATOM     65  S   UNL A   1      50.091  26.374  31.930  1.00  0.00     0.124 S 
ATOM     66  O   UNL A   1      49.700  25.116  32.564  1.00  0.00    -0.237 OA
ATOM     67  O   UNL A   1      50.597  26.259  30.565  1.00  0.00    -0.237 OA
ATOM     68  O   UNL A   1      50.824  27.301  32.789  1.00  0.00    -0.744 OA
ENDBRANCH  64  65
ENDBRANCH  45  59
BRANCH  46  69
ATOM     69  C   UNL A   1      37.167  32.864  29.791  1.00  0.00    -0.014 A 
ATOM     70  C   UNL A   1      36.906  33.580  28.608  1.00  0.00     0.010 A 
ATOM     71  C   UNL A   1      36.172  32.803  30.783  1.00  0.00     0.010 A 
ATOM     72  C   UNL A   1      35.692  34.250  28.436  1.00  0.00     0.020 A 
ATOM     73  C   UNL A   1      34.942  33.443  30.601  1.00  0.00     0.020 A 
ATOM     74  C   UNL A   1      34.717  34.178  29.436  1.00  0.00     0.054 A 
BRANCH  74  75
ATOM     75  S   UNL A   1      33.140  35.038  29.183  1.00  0.00     0.124 S 
ATOM     76  O   UNL A   1      32.497  34.204  28.172  1.00  0.00    -0.237 OA
ATOM     77  O   UNL A   1      32.540  34.996  30.515  1.00  0.00    -0.237 OA
ATOM     78  O   UNL A   1      33.545  36.368  28.733  1.00  0.00    -0.744 OA
ENDBRANCH  74  75
ENDBRANCH  46  69
BRANCH  58  79
ATOM     79  C   UNL A   1      43.042  34.802  33.017  1.00  0.00    -0.014 A 
ATOM     80  C   UNL A   1      42.884  34.955  34.404  1.00  0.00     0.010 A 
ATOM     81  C   UNL A   1      43.664  35.830  32.281  1.00  0.00     0.010 A 
ATOM     82  C   UNL A   1      43.318  36.121  35.041  1.00  0.00     0.020 A 
ATOM     83  C   UNL A   1      44.128  36.983  32.917  1.00  0.00     0.020 A 
ATOM     84  C   UNL A   1      43.942  37.125  34.293  1.00  0.00     0.054 A 
BRANCH  84  85
ATOM     85  S   UNL A   1      44.552  38.601  35.154  1.00  0.00     0.124 S 
ATOM     86  O   UNL A   1      45.972  38.587  34.811  1.00  0.00    -0.237 OA
ATOM     87  O   UNL A   1      43.768  39.673  34.544  1.00  0.00    -0.237 OA
ATOM     88  O   UNL A   1      44.247  38.335  36.558  1.00  0.00    -0.744 OA
ENDBRANCH  84  85
ENDBRANCH  58  79
ENDBRANCH  32  33
ENDBRANCH  24  27
ENDBRANCH  22  23
ENDBRANCH   1  22
TORSDOF 15
ENDMDL
MODEL 3
REMARK VINA RESULT:     -10.5      4.088     10.306
REMARK SMILES Cn1ccnc(N[C@H]2C=C[C@H](C(=O)NCCCNC(=O)c3ccc(-c4c5nc(c(-c6ccc(S(=O)(=O)[O-])cc6)c6ccc([nH]6)c(-c6ccc(S(=O)(=O)[O-])cc6)c6nc(c(-c7ccc(S(=O)(=O)[O-])cc7)c7ccc4[nH]7)C=C6)C=C5)cc3)C2)c1=O
REMARK SMILES IDX 16 1 15 2 14 3 12 4 13 5 11 7 8 8 9 9 81 10 10 11 7 12 6 14
REMARK SMILES IDX 1 15 2 16 3 17 82 18 4 19 83 20 5 21 17 22 18 23 19 24 20 26
REMARK SMILES IDX 21 27 22 28 80 29 23 30 79 31 24 32 25 33 26 34 73 35 27 36
REMARK SMILES IDX 78 37 72 38 74 39 28 40 77 41 71 42 70 43 29 45 59 46 40 47
REMARK SMILES IDX 58 48 41 49 44 50 57 51 75 52 42 53 43 54 56 56 76 57 45 58
REMARK SMILES IDX 30 59 31 60 39 61 32 62 38 63 33 64 34 65 35 66 36 67 37 68
REMARK SMILES IDX 60 69 61 70 69 71 62 72 68 73 63 74 64 75 65 76 66 77 67 78
REMARK SMILES IDX 46 79 47 80 55 81 48 82 54 83 49 84 50 85 51 86 52 87 53 88
REMARK H PARENT 14 6 7 13 18 25 74 44 44 55
REMARK Flexibility Score: inf
ROOT
ATOM      1  C   UNL A   1      33.431  33.443  28.096  1.00  0.00     0.042 C 
ENDROOT
BRANCH   1   2
ATOM      2  C   UNL A   1      33.816  34.812  28.625  1.00  0.00     0.117 C 
BRANCH   2   3
ATOM      3  N   UNL A   1      32.818  35.377  29.519  1.00  0.00    -0.356 N 
ATOM      4  C   UNL A   1      32.961  35.724  30.836  1.00  0.00     0.227 C 
ATOM      5  O   UNL A   1      32.027  36.287  31.404  1.00  0.00    -0.274 OA
ATOM      6  H   UNL A   1      31.927  35.530  29.129  1.00  0.00     0.163 HD
BRANCH   4   7
ATOM      7  C   UNL A   1      34.281  35.383  31.521  1.00  0.00     0.103 C 
ATOM      8  C   UNL A   1      34.553  33.965  33.504  1.00  0.00     0.104 C 
ATOM      9  C   UNL A   1      34.592  35.403  33.866  1.00  0.00    -0.006 C 
ATOM     10  C   UNL A   1      34.394  33.920  31.984  1.00  0.00     0.046 C 
ATOM     11  C   UNL A   1      34.415  36.179  32.795  1.00  0.00    -0.016 C 
BRANCH   8  12
ATOM     12  N   UNL A   1      35.700  33.267  34.014  1.00  0.00    -0.359 N 
ATOM     13  H   UNL A   1      35.783  32.348  33.669  1.00  0.00     0.162 HD
BRANCH  12  14
ATOM     14  C   UNL A   1      36.709  33.615  34.886  1.00  0.00     0.193 A 
ATOM     15  C   UNL A   1      40.128  35.330  35.257  1.00  0.00     0.153 C 
ATOM     16  N   UNL A   1      38.904  34.607  35.539  1.00  0.00    -0.314 N 
ATOM     17  C   UNL A   1      38.651  34.094  36.786  1.00  0.00     0.109 A 
ATOM     18  C   UNL A   1      37.980  34.451  34.510  1.00  0.00     0.293 A 
ATOM     19  C   UNL A   1      37.518  33.432  37.031  1.00  0.00     0.131 A 
ATOM     20  O   UNL A   1      38.145  34.927  33.396  1.00  0.00    -0.265 OA
ATOM     21  N   UNL A   1      36.537  33.174  36.114  1.00  0.00    -0.233 NA
ENDBRANCH  12  14
ENDBRANCH   8  12
ENDBRANCH   4   7
ENDBRANCH   2   3
ENDBRANCH   1   2
BRANCH   1  22
ATOM     22  C   UNL A   1      34.462  32.361  28.368  1.00  0.00     0.118 C 
BRANCH  22  23
ATOM     23  N   UNL A   1      33.963  31.017  28.107  1.00  0.00    -0.352 N 
ATOM     24  C   UNL A   1      34.651  29.829  28.020  1.00  0.00     0.251 C 
ATOM     25  H   UNL A   1      32.990  30.949  27.974  1.00  0.00     0.163 HD
ATOM     26  O   UNL A   1      34.076  28.815  27.636  1.00  0.00    -0.269 OA
BRANCH  24  27
ATOM     27  C   UNL A   1      36.090  29.791  28.358  1.00  0.00     0.039 A 
ATOM     28  C   UNL A   1      36.474  29.467  29.661  1.00  0.00     0.014 A 
ATOM     29  C   UNL A   1      37.056  30.040  27.382  1.00  0.00     0.014 A 
ATOM     30  C   UNL A   1      37.829  29.307  29.960  1.00  0.00     0.010 A 
ATOM     31  C   UNL A   1      38.393  29.779  27.654  1.00  0.00     0.010 A 
ATOM     32  C   UNL A   1      38.796  29.412  28.946  1.00  0.00    -0.014 A 
BRANCH  32  33
ATOM     33  C   UNL A   1      40.237  29.157  29.209  1.00  0.00     0.031 A 
ATOM     34  C   UNL A   1      40.828  27.811  28.884  1.00  0.00     0.074 A 
ATOM     35  C   UNL A   1      40.991  30.104  29.803  1.00  0.00     0.049 A 
ATOM     36  N   UNL A   1      42.031  27.358  29.130  1.00  0.00    -0.248 NA
ATOM     37  C   UNL A   1      39.945  26.836  28.221  1.00  0.00     0.031 C 
ATOM     38  C   UNL A   1      40.530  31.439  30.194  1.00  0.00     0.029 A 
ATOM     39  N   UNL A   1      42.308  30.086  30.190  1.00  0.00    -0.354 N 
ATOM     40  C   UNL A   1      42.044  26.049  28.663  1.00  0.00     0.074 A 
ATOM     41  C   UNL A   1      40.713  25.758  28.179  1.00  0.00     0.031 C 
ATOM     42  C   UNL A   1      41.554  32.120  30.733  1.00  0.00     0.029 A 
ATOM     43  C   UNL A   1      42.729  31.256  30.778  1.00  0.00     0.049 A 
ATOM     44  H   UNL A   1      42.896  29.308  30.059  1.00  0.00     0.167 HD
ATOM     45  C   UNL A   1      43.076  25.174  28.615  1.00  0.00     0.031 A 
ATOM     46  C   UNL A   1      43.923  31.593  31.305  1.00  0.00     0.031 A 
ATOM     47  C   UNL A   1      44.402  25.469  29.090  1.00  0.00     0.049 A 
ATOM     48  C   UNL A   1      45.042  30.585  31.284  1.00  0.00     0.074 A 
ATOM     49  C   UNL A   1      45.525  24.663  29.055  1.00  0.00     0.029 A 
ATOM     50  N   UNL A   1      44.784  26.664  29.681  1.00  0.00    -0.354 N 
ATOM     51  N   UNL A   1      45.047  29.368  30.793  1.00  0.00    -0.248 NA
ATOM     52  C   UNL A   1      46.320  30.998  31.880  1.00  0.00     0.031 C 
ATOM     53  C   UNL A   1      46.573  25.348  29.677  1.00  0.00     0.029 A 
ATOM     54  C   UNL A   1      46.120  26.608  30.035  1.00  0.00     0.049 A 
ATOM     55  H   UNL A   1      44.191  27.437  29.828  1.00  0.00     0.167 HD
ATOM     56  C   UNL A   1      46.338  28.887  30.987  1.00  0.00     0.074 A 
ATOM     57  C   UNL A   1      47.087  29.947  31.628  1.00  0.00     0.031 C 
ATOM     58  C   UNL A   1      46.856  27.679  30.659  1.00  0.00     0.031 A 
BRANCH  45  59
ATOM     59  C   UNL A   1      42.813  23.816  28.021  1.00  0.00    -0.014 A 
ATOM     60  C   UNL A   1      42.293  22.770  28.807  1.00  0.00     0.010 A 
ATOM     61  C   UNL A   1      43.039  23.591  26.650  1.00  0.00     0.010 A 
ATOM     62  C   UNL A   1      42.040  21.518  28.243  1.00  0.00     0.020 A 
ATOM     63  C   UNL A   1      42.758  22.348  26.075  1.00  0.00     0.020 A 
ATOM     64  C   UNL A   1      42.273  21.315  26.880  1.00  0.00     0.054 A 
BRANCH  64  65
ATOM     65  S   UNL A   1      41.901  19.688  26.171  1.00  0.00     0.124 S 
ATOM     66  O   UNL A   1      40.449  19.753  26.018  1.00  0.00    -0.237 OA
ATOM     67  O   UNL A   1      42.665  19.700  24.926  1.00  0.00    -0.237 OA
ATOM     68  O   UNL A   1      42.377  18.749  27.185  1.00  0.00    -0.744 OA
ENDBRANCH  64  65
ENDBRANCH  45  59
BRANCH  46  69
ATOM     69  C   UNL A   1      44.133  32.946  31.893  1.00  0.00    -0.014 A 
ATOM     70  C   UNL A   1      44.576  34.013  31.089  1.00  0.00     0.010 A 
ATOM     71  C   UNL A   1      43.914  33.173  33.264  1.00  0.00     0.010 A 
ATOM     72  C   UNL A   1      44.827  35.268  31.649  1.00  0.00     0.020 A 
ATOM     73  C   UNL A   1      44.131  34.437  33.822  1.00  0.00     0.020 A 
ATOM     74  C   UNL A   1      44.604  35.471  33.014  1.00  0.00     0.054 A 
BRANCH  74  75
ATOM     75  S   UNL A   1      44.918  37.115  33.716  1.00  0.00     0.124 S 
ATOM     76  O   UNL A   1      45.063  37.935  32.516  1.00  0.00    -0.237 OA
ATOM     77  O   UNL A   1      43.712  37.356  34.506  1.00  0.00    -0.237 OA
ATOM     78  O   UNL A   1      46.138  36.926  34.497  1.00  0.00    -0.744 OA
ENDBRANCH  74  75
ENDBRANCH  46  69
BRANCH  58  79
ATOM     79  C   UNL A   1      48.320  27.447  30.935  1.00  0.00    -0.014 A 
ATOM     80  C   UNL A   1      48.752  26.762  32.082  1.00  0.00     0.010 A 
ATOM     81  C   UNL A   1      49.272  27.863  29.985  1.00  0.00     0.010 A 
ATOM     82  C   UNL A   1      50.113  26.518  32.288  1.00  0.00     0.020 A 
ATOM     83  C   UNL A   1      50.630  27.593  30.170  1.00  0.00     0.020 A 
ATOM     84  C   UNL A   1      51.042  26.931  31.327  1.00  0.00     0.054 A 
BRANCH  84  85
ATOM     85  S   UNL A   1      52.795  26.544  31.589  1.00  0.00     0.124 S 
ATOM     86  O   UNL A   1      53.388  26.942  30.314  1.00  0.00    -0.237 OA
ATOM     87  O   UNL A   1      53.140  27.387  32.732  1.00  0.00    -0.237 OA
ATOM     88  O   UNL A   1      52.799  25.108  31.856  1.00  0.00    -0.744 OA
ENDBRANCH  84  85
ENDBRANCH  58  79
ENDBRANCH  32  33
ENDBRANCH  24  27
ENDBRANCH  22  23
ENDBRANCH   1  22
TORSDOF 15
ENDMDL
