MODEL 1
REMARK VINA RESULT:     -13.4      0.000      0.000
REMARK SMILES Cc1ccc(C)c(S(=O)(=O)N[C@H](CC2=c3ccccc3=NC2)C(=O)NCCCNC(=O)c2ccc(-c3c4nc(c(-c5ccc(S(=O)(=O)[O-])cc5)c5ccc([nH]5)c(-c5ccc(S(=O)(=O)[O-])cc5)c5nc(c(-c6ccc(S(=O)(=O)[O-])cc6)c6ccc3[nH]6)C=C5)C=C4)cc2)c1
REMARK SMILES IDX 27 1 26 2 25 3 23 4 24 5 12 7 11 8 8 10 9 11 10 12 7 13 1 14
REMARK SMILES IDX 2 15 3 16 92 17 4 18 5 19 6 20 13 21 14 22 15 23 22 24 16 25
REMARK SMILES IDX 20 26 21 27 17 28 19 29 18 30 28 31 29 32 30 33 31 35 32 36
REMARK SMILES IDX 33 37 91 38 34 39 90 40 35 41 36 42 37 43 84 44 38 45 89 46
REMARK SMILES IDX 83 47 85 48 39 49 88 50 82 51 81 52 40 54 70 55 51 56 69 57
REMARK SMILES IDX 52 58 55 59 68 60 86 61 53 62 54 63 67 65 87 66 56 67 41 68
REMARK SMILES IDX 42 69 50 70 43 71 49 72 44 73 45 74 46 75 47 76 48 77 71 78
REMARK SMILES IDX 72 79 80 80 73 81 79 82 74 83 75 84 76 85 77 86 78 87 57 88
REMARK SMILES IDX 58 89 66 90 59 91 65 92 60 93 61 94 62 95 63 96 64 97
REMARK H PARENT 25 6 11 9 29 34 85 53 55 64
REMARK Flexibility Score: inf
ROOT
ATOM      1  C   UNL A   1      38.815  23.725  26.236  1.00  0.00     0.042 C 
ENDROOT
BRANCH   1   2
ATOM      2  C   UNL A   1      37.418  23.248  25.827  1.00  0.00     0.117 C 
BRANCH   2   3
ATOM      3  N   UNL A   1      37.163  23.024  24.409  1.00  0.00    -0.355 N 
ATOM      4  C   UNL A   1      36.161  23.301  23.524  1.00  0.00     0.238 C 
ATOM      5  O   UNL A   1      36.375  22.959  22.355  1.00  0.00    -0.273 OA
ATOM      6  H   UNL A   1      37.909  22.550  23.977  1.00  0.00     0.163 HD
BRANCH   4   7
ATOM      7  C   UNL A   1      34.809  23.911  23.900  1.00  0.00     0.163 C 
BRANCH   7   8
ATOM      8  N   UNL A   1      34.389  24.944  22.911  1.00  0.00    -0.198 NA
ATOM      9  H   UNL A   1      34.357  25.830  23.416  1.00  0.00     0.142 HD
BRANCH   8  10
ATOM     10  S   UNL A   1      32.938  24.819  22.080  1.00  0.00     0.241 S 
ATOM     11  O   UNL A   1      32.319  23.552  22.419  1.00  0.00    -0.207 OA
ATOM     12  O   UNL A   1      33.281  25.175  20.728  1.00  0.00    -0.207 OA
BRANCH  10  13
ATOM     13  C   UNL A   1      31.940  26.139  22.725  1.00  0.00     0.085 A 
ATOM     14  C   UNL A   1      28.410  26.510  24.102  1.00  0.00     0.044 C 
ATOM     15  C   UNL A   1      29.796  26.847  23.642  1.00  0.00    -0.050 A 
ATOM     16  C   UNL A   1      30.236  28.169  23.596  1.00  0.00     0.004 A 
ATOM     17  C   UNL A   1      30.666  25.838  23.227  1.00  0.00     0.025 A 
ATOM     18  C   UNL A   1      31.528  28.472  23.154  1.00  0.00     0.005 A 
ATOM     19  C   UNL A   1      32.406  27.465  22.717  1.00  0.00    -0.031 A 
ATOM     20  C   UNL A   1      33.782  27.879  22.273  1.00  0.00     0.046 C 
ENDBRANCH  10  13
ENDBRANCH   8  10
ENDBRANCH   7   8
BRANCH   7  21
ATOM     21  C   UNL A   1      34.703  24.503  25.341  1.00  0.00     0.063 C 
BRANCH  21  22
ATOM     22  C   UNL A   1      33.486  25.257  25.817  1.00  0.00    -0.037 C 
ATOM     23  C   UNL A   1      33.319  26.552  26.101  1.00  0.00     0.001 A 
ATOM     24  C   UNL A   1      32.265  24.501  26.235  1.00  0.00     0.174 C 
ATOM     25  C   UNL A   1      34.115  27.738  26.039  1.00  0.00     0.010 A 
ATOM     26  C   UNL A   1      31.964  26.591  26.693  1.00  0.00     0.065 A 
ATOM     27  N   UNL A   1      31.330  25.469  26.835  1.00  0.00    -0.280 NA
ATOM     28  C   UNL A   1      33.589  28.898  26.478  1.00  0.00     0.001 A 
ATOM     29  C   UNL A   1      31.439  27.904  27.112  1.00  0.00     0.028 A 
ATOM     30  C   UNL A   1      32.233  28.978  26.995  1.00  0.00     0.002 A 
ENDBRANCH  21  22
ENDBRANCH   7  21
ENDBRANCH   4   7
ENDBRANCH   2   3
ENDBRANCH   1   2
BRANCH   1  31
ATOM     31  C   UNL A   1      39.729  22.713  26.898  1.00  0.00     0.118 C 
BRANCH  31  32
ATOM     32  N   UNL A   1      40.871  22.302  26.098  1.00  0.00    -0.352 N 
ATOM     33  C   UNL A   1      41.966  23.078  25.766  1.00  0.00     0.251 C 
ATOM     34  H   UNL A   1      40.863  21.378  25.758  1.00  0.00     0.163 HD
ATOM     35  O   UNL A   1      42.884  22.610  25.103  1.00  0.00    -0.269 OA
BRANCH  33  36
ATOM     36  C   UNL A   1      42.052  24.444  26.330  1.00  0.00     0.039 A 
ATOM     37  C   UNL A   1      42.301  24.573  27.697  1.00  0.00     0.014 A 
ATOM     38  C   UNL A   1      41.698  25.556  25.561  1.00  0.00     0.014 A 
ATOM     39  C   UNL A   1      42.033  25.787  28.318  1.00  0.00     0.010 A 
ATOM     40  C   UNL A   1      41.334  26.731  26.192  1.00  0.00     0.010 A 
ATOM     41  C   UNL A   1      41.482  26.837  27.574  1.00  0.00    -0.014 A 
BRANCH  41  42
ATOM     42  C   UNL A   1      41.237  28.113  28.228  1.00  0.00     0.031 A 
ATOM     43  C   UNL A   1      42.292  29.126  28.008  1.00  0.00     0.074 A 
ATOM     44  C   UNL A   1      40.098  28.470  28.848  1.00  0.00     0.049 A 
ATOM     45  N   UNL A   1      43.223  29.491  28.825  1.00  0.00    -0.248 NA
ATOM     46  C   UNL A   1      42.404  29.704  26.660  1.00  0.00     0.031 C 
ATOM     47  C   UNL A   1      38.799  27.802  28.798  1.00  0.00     0.029 A 
ATOM     48  N   UNL A   1      39.854  29.597  29.576  1.00  0.00    -0.354 N 
ATOM     49  C   UNL A   1      43.938  30.473  28.150  1.00  0.00     0.074 A 
ATOM     50  C   UNL A   1      43.541  30.389  26.768  1.00  0.00     0.031 C 
ATOM     51  C   UNL A   1      37.857  28.640  29.293  1.00  0.00     0.029 A 
ATOM     52  C   UNL A   1      38.511  29.826  29.829  1.00  0.00     0.049 A 
ATOM     53  H   UNL A   1      40.569  30.196  29.893  1.00  0.00     0.167 HD
ATOM     54  C   UNL A   1      44.607  31.462  28.803  1.00  0.00     0.031 A 
ATOM     55  C   UNL A   1      37.985  30.945  30.378  1.00  0.00     0.031 A 
ATOM     56  C   UNL A   1      44.640  31.238  30.223  1.00  0.00     0.049 A 
ATOM     57  C   UNL A   1      39.052  31.636  31.145  1.00  0.00     0.074 A 
ATOM     58  C   UNL A   1      45.305  30.394  31.082  1.00  0.00     0.029 A 
ATOM     59  N   UNL A   1      43.578  31.773  30.909  1.00  0.00    -0.354 N 
ATOM     60  N   UNL A   1      39.641  31.124  32.191  1.00  0.00    -0.248 NA
ATOM     61  C   UNL A   1      39.699  32.821  30.590  1.00  0.00     0.031 C 
ATOM     62  C   UNL A   1      44.463  30.257  32.224  1.00  0.00     0.029 A 
ATOM     63  C   UNL A   1      43.316  31.031  32.033  1.00  0.00     0.049 A 
ATOM     64  H   UNL A   1      43.075  32.574  30.634  1.00  0.00     0.167 HD
ATOM     65  C   UNL A   1      40.917  31.657  32.172  1.00  0.00     0.074 A 
ATOM     66  C   UNL A   1      40.838  32.809  31.288  1.00  0.00     0.031 C 
ATOM     67  C   UNL A   1      41.989  30.945  32.622  1.00  0.00     0.031 A 
BRANCH  54  68
ATOM     68  C   UNL A   1      44.884  32.829  28.223  1.00  0.00    -0.014 A 
ATOM     69  C   UNL A   1      44.283  34.011  28.701  1.00  0.00     0.010 A 
ATOM     70  C   UNL A   1      45.954  32.983  27.318  1.00  0.00     0.010 A 
ATOM     71  C   UNL A   1      44.684  35.276  28.274  1.00  0.00     0.020 A 
ATOM     72  C   UNL A   1      46.400  34.253  26.920  1.00  0.00     0.020 A 
ATOM     73  C   UNL A   1      45.751  35.391  27.393  1.00  0.00     0.054 A 
BRANCH  73  74
ATOM     74  S   UNL A   1      46.317  37.054  26.966  1.00  0.00     0.124 S 
ATOM     75  O   UNL A   1      45.058  37.730  26.662  1.00  0.00    -0.237 OA
ATOM     76  O   UNL A   1      46.981  37.485  28.192  1.00  0.00    -0.237 OA
ATOM     77  O   UNL A   1      47.200  36.834  25.824  1.00  0.00    -0.744 OA
ENDBRANCH  73  74
ENDBRANCH  54  68
BRANCH  55  78
ATOM     78  C   UNL A   1      36.731  31.633  29.982  1.00  0.00    -0.014 A 
ATOM     79  C   UNL A   1      36.594  32.139  28.674  1.00  0.00     0.010 A 
ATOM     80  C   UNL A   1      35.819  32.071  30.961  1.00  0.00     0.010 A 
ATOM     81  C   UNL A   1      35.645  33.119  28.373  1.00  0.00     0.020 A 
ATOM     82  C   UNL A   1      34.866  33.059  30.666  1.00  0.00     0.020 A 
ATOM     83  C   UNL A   1      34.816  33.606  29.382  1.00  0.00     0.054 A 
BRANCH  83  84
ATOM     84  S   UNL A   1      33.754  35.030  29.006  1.00  0.00     0.124 S 
ATOM     85  O   UNL A   1      33.537  35.603  30.332  1.00  0.00    -0.237 OA
ATOM     86  O   UNL A   1      34.594  35.824  28.113  1.00  0.00    -0.237 OA
ATOM     87  O   UNL A   1      32.578  34.432  28.383  1.00  0.00    -0.744 OA
ENDBRANCH  83  84
ENDBRANCH  55  78
BRANCH  67  88
ATOM     88  C   UNL A   1      41.755  29.834  33.614  1.00  0.00    -0.014 A 
ATOM     89  C   UNL A   1      41.908  30.149  34.978  1.00  0.00     0.010 A 
ATOM     90  C   UNL A   1      41.548  28.490  33.253  1.00  0.00     0.010 A 
ATOM     91  C   UNL A   1      41.913  29.150  35.951  1.00  0.00     0.020 A 
ATOM     92  C   UNL A   1      41.524  27.483  34.230  1.00  0.00     0.020 A 
ATOM     93  C   UNL A   1      41.740  27.818  35.570  1.00  0.00     0.054 A 
BRANCH  93  94
ATOM     94  S   UNL A   1      41.835  26.542  36.855  1.00  0.00     0.124 S 
ATOM     95  O   UNL A   1      40.565  26.716  37.557  1.00  0.00    -0.237 OA
ATOM     96  O   UNL A   1      41.953  25.309  36.079  1.00  0.00    -0.237 OA
ATOM     97  O   UNL A   1      43.024  26.901  37.625  1.00  0.00    -0.744 OA
ENDBRANCH  93  94
ENDBRANCH  67  88
ENDBRANCH  41  42
ENDBRANCH  33  36
ENDBRANCH  31  32
ENDBRANCH   1  31
TORSDOF 18
ENDMDL
MODEL 2
REMARK VINA RESULT:     -13.2      2.852      9.364
REMARK SMILES Cc1ccc(C)c(S(=O)(=O)N[C@H](CC2=c3ccccc3=NC2)C(=O)NCCCNC(=O)c2ccc(-c3c4nc(c(-c5ccc(S(=O)(=O)[O-])cc5)c5ccc([nH]5)c(-c5ccc(S(=O)(=O)[O-])cc5)c5nc(c(-c6ccc(S(=O)(=O)[O-])cc6)c6ccc3[nH]6)C=C5)C=C4)cc2)c1
REMARK SMILES IDX 27 1 26 2 25 3 23 4 24 5 12 7 11 8 8 10 9 11 10 12 7 13 1 14
REMARK SMILES IDX 2 15 3 16 92 17 4 18 5 19 6 20 13 21 14 22 15 23 22 24 16 25
REMARK SMILES IDX 20 26 21 27 17 28 19 29 18 30 28 31 29 32 30 33 31 35 32 36
REMARK SMILES IDX 33 37 91 38 34 39 90 40 35 41 36 42 37 43 84 44 38 45 89 46
REMARK SMILES IDX 83 47 85 48 39 49 88 50 82 51 81 52 40 54 70 55 51 56 69 57
REMARK SMILES IDX 52 58 55 59 68 60 86 61 53 62 54 63 67 65 87 66 56 67 41 68
REMARK SMILES IDX 42 69 50 70 43 71 49 72 44 73 45 74 46 75 47 76 48 77 71 78
REMARK SMILES IDX 72 79 80 80 73 81 79 82 74 83 75 84 76 85 77 86 78 87 57 88
REMARK SMILES IDX 58 89 66 90 59 91 65 92 60 93 61 94 62 95 63 96 64 97
REMARK H PARENT 25 6 11 9 29 34 85 53 55 64
REMARK Flexibility Score: inf
ROOT
ATOM      1  C   UNL A   1      33.989  31.122  27.108  1.00  0.00     0.042 C 
ENDROOT
BRANCH   1   2
ATOM      2  C   UNL A   1      33.699  29.645  26.823  1.00  0.00     0.117 C 
BRANCH   2   3
ATOM      3  N   UNL A   1      32.552  29.037  27.488  1.00  0.00    -0.355 N 
ATOM      4  C   UNL A   1      31.883  27.848  27.426  1.00  0.00     0.238 C 
ATOM      5  O   UNL A   1      30.952  27.721  28.229  1.00  0.00    -0.273 OA
ATOM      6  H   UNL A   1      32.158  29.642  28.157  1.00  0.00     0.163 HD
BRANCH   4   7
ATOM      7  C   UNL A   1      32.159  26.744  26.404  1.00  0.00     0.163 C 
BRANCH   7   8
ATOM      8  N   UNL A   1      31.775  25.407  26.936  1.00  0.00    -0.198 NA
ATOM      9  H   UNL A   1      32.639  24.872  27.022  1.00  0.00     0.142 HD
BRANCH   8  10
ATOM     10  S   UNL A   1      30.688  24.422  26.123  1.00  0.00     0.241 S 
ATOM     11  O   UNL A   1      30.123  25.172  25.017  1.00  0.00    -0.207 OA
ATOM     12  O   UNL A   1      29.876  23.863  27.172  1.00  0.00    -0.207 OA
BRANCH  10  13
ATOM     13  C   UNL A   1      31.680  23.100  25.476  1.00  0.00     0.085 A 
ATOM     14  C   UNL A   1      32.055  21.309  22.137  1.00  0.00     0.044 C 
ATOM     15  C   UNL A   1      32.243  21.681  23.576  1.00  0.00    -0.050 A 
ATOM     16  C   UNL A   1      33.070  20.927  24.410  1.00  0.00     0.004 A 
ATOM     17  C   UNL A   1      31.573  22.780  24.115  1.00  0.00     0.025 A 
ATOM     18  C   UNL A   1      33.230  21.279  25.755  1.00  0.00     0.005 A 
ATOM     19  C   UNL A   1      32.545  22.373  26.311  1.00  0.00    -0.031 A 
ATOM     20  C   UNL A   1      32.789  22.686  27.762  1.00  0.00     0.046 C 
ENDBRANCH  10  13
ENDBRANCH   8  10
ENDBRANCH   7   8
BRANCH   7  21
ATOM     21  C   UNL A   1      33.617  26.679  25.845  1.00  0.00     0.063 C 
BRANCH  21  22
ATOM     22  C   UNL A   1      34.049  25.643  24.837  1.00  0.00    -0.037 C 
ATOM     23  C   UNL A   1      34.956  24.665  24.926  1.00  0.00     0.001 A 
ATOM     24  C   UNL A   1      33.575  25.744  23.422  1.00  0.00     0.174 C 
ATOM     25  C   UNL A   1      35.822  24.143  25.937  1.00  0.00     0.010 A 
ATOM     26  C   UNL A   1      35.028  24.151  23.541  1.00  0.00     0.065 A 
ATOM     27  N   UNL A   1      34.308  24.738  22.636  1.00  0.00    -0.280 NA
ATOM     28  C   UNL A   1      36.663  23.141  25.618  1.00  0.00     0.001 A 
ATOM     29  C   UNL A   1      35.942  23.024  23.277  1.00  0.00     0.028 A 
ATOM     30  C   UNL A   1      36.701  22.566  24.284  1.00  0.00     0.002 A 
ENDBRANCH  21  22
ENDBRANCH   7  21
ENDBRANCH   4   7
ENDBRANCH   2   3
ENDBRANCH   1   2
BRANCH   1  31
ATOM     31  C   UNL A   1      35.065  31.434  28.130  1.00  0.00     0.118 C 
BRANCH  31  32
ATOM     32  N   UNL A   1      34.600  32.131  29.317  1.00  0.00    -0.352 N 
ATOM     33  C   UNL A   1      35.137  32.040  30.589  1.00  0.00     0.251 C 
ATOM     34  H   UNL A   1      33.825  32.727  29.206  1.00  0.00     0.163 HD
ATOM     35  O   UNL A   1      34.671  32.700  31.511  1.00  0.00    -0.269 OA
BRANCH  33  36
ATOM     36  C   UNL A   1      36.354  31.220  30.776  1.00  0.00     0.039 A 
ATOM     37  C   UNL A   1      37.587  31.797  30.464  1.00  0.00     0.014 A 
ATOM     38  C   UNL A   1      36.257  29.856  31.064  1.00  0.00     0.014 A 
ATOM     39  C   UNL A   1      38.689  30.970  30.280  1.00  0.00     0.010 A 
ATOM     40  C   UNL A   1      37.325  29.024  30.782  1.00  0.00     0.010 A 
ATOM     41  C   UNL A   1      38.534  29.581  30.370  1.00  0.00    -0.014 A 
BRANCH  41  42
ATOM     42  C   UNL A   1      39.701  28.729  30.208  1.00  0.00     0.031 A 
ATOM     43  C   UNL A   1      40.426  28.439  31.464  1.00  0.00     0.074 A 
ATOM     44  C   UNL A   1      40.052  28.086  29.080  1.00  0.00     0.049 A 
ATOM     45  N   UNL A   1      41.529  28.964  31.883  1.00  0.00    -0.248 NA
ATOM     46  C   UNL A   1      39.767  27.553  32.435  1.00  0.00     0.031 C 
ATOM     47  C   UNL A   1      39.252  27.883  27.874  1.00  0.00     0.029 A 
ATOM     48  N   UNL A   1      41.190  27.375  28.836  1.00  0.00    -0.354 N 
ATOM     49  C   UNL A   1      41.791  28.346  33.100  1.00  0.00     0.074 A 
ATOM     50  C   UNL A   1      40.575  27.678  33.487  1.00  0.00     0.031 C 
ATOM     51  C   UNL A   1      39.843  26.933  27.111  1.00  0.00     0.029 A 
ATOM     52  C   UNL A   1      41.128  26.583  27.701  1.00  0.00     0.049 A 
ATOM     53  H   UNL A   1      41.985  27.420  29.415  1.00  0.00     0.167 HD
ATOM     54  C   UNL A   1      43.055  28.196  33.580  1.00  0.00     0.031 A 
ATOM     55  C   UNL A   1      42.043  25.660  27.324  1.00  0.00     0.031 A 
ATOM     56  C   UNL A   1      44.016  28.919  32.791  1.00  0.00     0.049 A 
ATOM     57  C   UNL A   1      43.337  25.992  27.974  1.00  0.00     0.074 A 
ATOM     58  C   UNL A   1      44.372  30.236  32.617  1.00  0.00     0.029 A 
ATOM     59  N   UNL A   1      44.542  28.206  31.742  1.00  0.00    -0.354 N 
ATOM     60  N   UNL A   1      44.006  27.087  27.739  1.00  0.00    -0.248 NA
ATOM     61  C   UNL A   1      43.788  25.229  29.133  1.00  0.00     0.031 C 
ATOM     62  C   UNL A   1      44.920  30.322  31.304  1.00  0.00     0.029 A 
ATOM     63  C   UNL A   1      44.892  29.053  30.721  1.00  0.00     0.049 A 
ATOM     64  H   UNL A   1      44.652  27.228  31.725  1.00  0.00     0.167 HD
ATOM     65  C   UNL A   1      44.669  27.354  28.923  1.00  0.00     0.074 A 
ATOM     66  C   UNL A   1      44.641  26.106  29.669  1.00  0.00     0.031 C 
ATOM     67  C   UNL A   1      44.908  28.634  29.329  1.00  0.00     0.031 A 
BRANCH  54  68
ATOM     68  C   UNL A   1      43.485  27.089  34.512  1.00  0.00    -0.014 A 
ATOM     69  C   UNL A   1      43.555  25.735  34.127  1.00  0.00     0.010 A 
ATOM     70  C   UNL A   1      44.064  27.426  35.753  1.00  0.00     0.010 A 
ATOM     71  C   UNL A   1      44.123  24.757  34.943  1.00  0.00     0.020 A 
ATOM     72  C   UNL A   1      44.683  26.458  36.560  1.00  0.00     0.020 A 
ATOM     73  C   UNL A   1      44.696  25.126  36.152  1.00  0.00     0.054 A 
BRANCH  73  74
ATOM     74  S   UNL A   1      45.531  23.845  37.117  1.00  0.00     0.124 S 
ATOM     75  O   UNL A   1      44.931  24.026  38.437  1.00  0.00    -0.237 OA
ATOM     76  O   UNL A   1      45.148  22.623  36.415  1.00  0.00    -0.237 OA
ATOM     77  O   UNL A   1      46.942  24.204  37.016  1.00  0.00    -0.744 OA
ENDBRANCH  73  74
ENDBRANCH  54  68
BRANCH  55  78
ATOM     78  C   UNL A   1      41.779  24.322  26.739  1.00  0.00    -0.014 A 
ATOM     79  C   UNL A   1      40.691  23.558  27.204  1.00  0.00     0.010 A 
ATOM     80  C   UNL A   1      42.764  23.673  25.970  1.00  0.00     0.010 A 
ATOM     81  C   UNL A   1      40.635  22.177  26.996  1.00  0.00     0.020 A 
ATOM     82  C   UNL A   1      42.715  22.285  25.761  1.00  0.00     0.020 A 
ATOM     83  C   UNL A   1      41.671  21.543  26.314  1.00  0.00     0.054 A 
BRANCH  83  84
ATOM     84  S   UNL A   1      41.674  19.728  26.257  1.00  0.00     0.124 S 
ATOM     85  O   UNL A   1      42.627  19.460  25.183  1.00  0.00    -0.237 OA
ATOM     86  O   UNL A   1      42.128  19.370  27.599  1.00  0.00    -0.237 OA
ATOM     87  O   UNL A   1      40.286  19.386  25.961  1.00  0.00    -0.744 OA
ENDBRANCH  83  84
ENDBRANCH  55  78
BRANCH  67  88
ATOM     88  C   UNL A   1      44.952  29.725  28.289  1.00  0.00    -0.014 A 
ATOM     89  C   UNL A   1      46.216  30.255  27.968  1.00  0.00     0.010 A 
ATOM     90  C   UNL A   1      43.808  30.339  27.747  1.00  0.00     0.010 A 
ATOM     91  C   UNL A   1      46.338  31.397  27.177  1.00  0.00     0.020 A 
ATOM     92  C   UNL A   1      43.925  31.472  26.928  1.00  0.00     0.020 A 
ATOM     93  C   UNL A   1      45.190  32.012  26.676  1.00  0.00     0.054 A 
BRANCH  93  94
ATOM     94  S   UNL A   1      45.386  33.540  25.720  1.00  0.00     0.124 S 
ATOM     95  O   UNL A   1      44.735  33.200  24.457  1.00  0.00    -0.237 OA
ATOM     96  O   UNL A   1      44.682  34.526  26.537  1.00  0.00    -0.237 OA
ATOM     97  O   UNL A   1      46.833  33.727  25.642  1.00  0.00    -0.744 OA
ENDBRANCH  93  94
ENDBRANCH  67  88
ENDBRANCH  41  42
ENDBRANCH  33  36
ENDBRANCH  31  32
ENDBRANCH   1  31
TORSDOF 18
ENDMDL
MODEL 3
REMARK VINA RESULT:     -13.1      1.605      2.464
REMARK SMILES Cc1ccc(C)c(S(=O)(=O)N[C@H](CC2=c3ccccc3=NC2)C(=O)NCCCNC(=O)c2ccc(-c3c4nc(c(-c5ccc(S(=O)(=O)[O-])cc5)c5ccc([nH]5)c(-c5ccc(S(=O)(=O)[O-])cc5)c5nc(c(-c6ccc(S(=O)(=O)[O-])cc6)c6ccc3[nH]6)C=C5)C=C4)cc2)c1
REMARK SMILES IDX 27 1 26 2 25 3 23 4 24 5 12 7 11 8 8 10 9 11 10 12 7 13 1 14
REMARK SMILES IDX 2 15 3 16 92 17 4 18 5 19 6 20 13 21 14 22 15 23 22 24 16 25
REMARK SMILES IDX 20 26 21 27 17 28 19 29 18 30 28 31 29 32 30 33 31 35 32 36
REMARK SMILES IDX 33 37 91 38 34 39 90 40 35 41 36 42 37 43 84 44 38 45 89 46
REMARK SMILES IDX 83 47 85 48 39 49 88 50 82 51 81 52 40 54 70 55 51 56 69 57
REMARK SMILES IDX 52 58 55 59 68 60 86 61 53 62 54 63 67 65 87 66 56 67 41 68
REMARK SMILES IDX 42 69 50 70 43 71 49 72 44 73 45 74 46 75 47 76 48 77 71 78
REMARK SMILES IDX 72 79 80 80 73 81 79 82 74 83 75 84 76 85 77 86 78 87 57 88
REMARK SMILES IDX 58 89 66 90 59 91 65 92 60 93 61 94 62 95 63 96 64 97
REMARK H PARENT 25 6 11 9 29 34 85 53 55 64
REMARK Flexibility Score: inf
ROOT
ATOM      1  C   UNL A   1      37.709  21.474  25.162  1.00  0.00     0.042 C 
ENDROOT
BRANCH   1   2
ATOM      2  C   UNL A   1      36.244  21.542  25.605  1.00  0.00     0.117 C 
BRANCH   2   3
ATOM      3  N   UNL A   1      35.406  20.372  25.366  1.00  0.00    -0.355 N 
ATOM      4  C   UNL A   1      34.197  20.118  24.785  1.00  0.00     0.238 C 
ATOM      5  O   UNL A   1      33.861  18.929  24.756  1.00  0.00    -0.273 OA
ATOM      6  H   UNL A   1      35.823  19.551  25.713  1.00  0.00     0.163 HD
BRANCH   4   7
ATOM      7  C   UNL A   1      33.237  21.190  24.265  1.00  0.00     0.163 C 
BRANCH   7   8
ATOM      8  N   UNL A   1      33.893  22.526  24.218  1.00  0.00    -0.198 NA
ATOM      9  H   UNL A   1      33.343  23.139  24.821  1.00  0.00     0.142 HD
BRANCH   8  10
ATOM     10  S   UNL A   1      34.101  23.347  22.771  1.00  0.00     0.241 S 
ATOM     11  O   UNL A   1      33.109  22.875  21.825  1.00  0.00    -0.207 OA
ATOM     12  O   UNL A   1      35.515  23.253  22.519  1.00  0.00    -0.207 OA
BRANCH  10  13
ATOM     13  C   UNL A   1      33.758  25.043  23.167  1.00  0.00     0.085 A 
ATOM     14  C   UNL A   1      33.864  27.224  26.287  1.00  0.00     0.044 C 
ATOM     15  C   UNL A   1      33.656  26.785  24.869  1.00  0.00    -0.050 A 
ATOM     16  C   UNL A   1      33.087  27.643  23.929  1.00  0.00     0.004 A 
ATOM     17  C   UNL A   1      34.011  25.496  24.471  1.00  0.00     0.025 A 
ATOM     18  C   UNL A   1      32.889  27.219  22.610  1.00  0.00     0.005 A 
ATOM     19  C   UNL A   1      33.225  25.916  22.203  1.00  0.00    -0.031 A 
ATOM     20  C   UNL A   1      32.992  25.551  20.763  1.00  0.00     0.046 C 
ENDBRANCH  10  13
ENDBRANCH   8  10
ENDBRANCH   7   8
BRANCH   7  21
ATOM     21  C   UNL A   1      31.874  21.309  25.019  1.00  0.00     0.063 C 
BRANCH  21  22
ATOM     22  C   UNL A   1      31.386  22.612  25.602  1.00  0.00    -0.037 C 
ATOM     23  C   UNL A   1      30.829  23.676  25.015  1.00  0.00     0.001 A 
ATOM     24  C   UNL A   1      31.681  22.939  27.032  1.00  0.00     0.174 C 
ATOM     25  C   UNL A   1      30.415  24.033  23.694  1.00  0.00     0.010 A 
ATOM     26  C   UNL A   1      30.772  24.669  26.110  1.00  0.00     0.065 A 
ATOM     27  N   UNL A   1      31.270  24.335  27.260  1.00  0.00    -0.280 NA
ATOM     28  C   UNL A   1      29.923  25.268  23.478  1.00  0.00     0.001 A 
ATOM     29  C   UNL A   1      30.181  25.986  25.809  1.00  0.00     0.028 A 
ATOM     30  C   UNL A   1      29.785  26.238  24.552  1.00  0.00     0.002 A 
ENDBRANCH  21  22
ENDBRANCH   7  21
ENDBRANCH   4   7
ENDBRANCH   2   3
ENDBRANCH   1   2
BRANCH   1  31
ATOM     31  C   UNL A   1      38.761  21.877  26.177  1.00  0.00     0.118 C 
BRANCH  31  32
ATOM     32  N   UNL A   1      40.135  21.660  25.755  1.00  0.00    -0.352 N 
ATOM     33  C   UNL A   1      41.206  22.509  25.971  1.00  0.00     0.251 C 
ATOM     34  H   UNL A   1      40.322  20.827  25.267  1.00  0.00     0.163 HD
ATOM     35  O   UNL A   1      42.330  22.204  25.588  1.00  0.00    -0.269 OA
BRANCH  33  36
ATOM     36  C   UNL A   1      40.979  23.730  26.776  1.00  0.00     0.039 A 
ATOM     37  C   UNL A   1      40.405  24.834  26.143  1.00  0.00     0.014 A 
ATOM     38  C   UNL A   1      41.503  23.840  28.067  1.00  0.00     0.014 A 
ATOM     39  C   UNL A   1      40.508  26.083  26.745  1.00  0.00     0.010 A 
ATOM     40  C   UNL A   1      41.697  25.093  28.617  1.00  0.00     0.010 A 
ATOM     41  C   UNL A   1      41.218  26.216  27.945  1.00  0.00    -0.014 A 
BRANCH  41  42
ATOM     42  C   UNL A   1      41.290  27.522  28.581  1.00  0.00     0.031 A 
ATOM     43  C   UNL A   1      42.535  28.270  28.299  1.00  0.00     0.074 A 
ATOM     44  C   UNL A   1      40.287  28.132  29.236  1.00  0.00     0.049 A 
ATOM     45  N   UNL A   1      43.557  28.428  29.071  1.00  0.00    -0.248 NA
ATOM     46  C   UNL A   1      42.716  28.792  26.936  1.00  0.00     0.031 C 
ATOM     47  C   UNL A   1      38.871  27.771  29.250  1.00  0.00     0.029 A 
ATOM     48  N   UNL A   1      40.331  29.294  29.948  1.00  0.00    -0.354 N 
ATOM     49  C   UNL A   1      44.444  29.217  28.349  1.00  0.00     0.074 A 
ATOM     50  C   UNL A   1      43.980  29.207  26.986  1.00  0.00     0.031 C 
ATOM     51  C   UNL A   1      38.161  28.804  29.762  1.00  0.00     0.029 A 
ATOM     52  C   UNL A   1      39.085  29.820  30.247  1.00  0.00     0.049 A 
ATOM     53  H   UNL A   1      41.174  29.722  30.225  1.00  0.00     0.167 HD
ATOM     54  C   UNL A   1      45.343  30.040  28.955  1.00  0.00     0.031 A 
ATOM     55  C   UNL A   1      38.845  31.036  30.792  1.00  0.00     0.031 A 
ATOM     56  C   UNL A   1      45.385  29.831  30.377  1.00  0.00     0.049 A 
ATOM     57  C   UNL A   1      40.070  31.480  31.503  1.00  0.00     0.074 A 
ATOM     58  C   UNL A   1      45.880  28.870  31.228  1.00  0.00     0.029 A 
ATOM     59  N   UNL A   1      44.499  30.598  31.092  1.00  0.00    -0.354 N 
ATOM     60  N   UNL A   1      40.573  30.862  32.537  1.00  0.00    -0.248 NA
ATOM     61  C   UNL A   1      40.941  32.483  30.899  1.00  0.00     0.031 C 
ATOM     62  C   UNL A   1      45.078  28.939  32.404  1.00  0.00     0.029 A 
ATOM     63  C   UNL A   1      44.125  29.947  32.240  1.00  0.00     0.049 A 
ATOM     64  H   UNL A   1      44.176  31.487  30.819  1.00  0.00     0.167 HD
ATOM     65  C   UNL A   1      41.934  31.096  32.458  1.00  0.00     0.074 A 
ATOM     66  C   UNL A   1      42.077  32.225  31.552  1.00  0.00     0.031 C 
ATOM     67  C   UNL A   1      42.839  30.167  32.881  1.00  0.00     0.031 A 
BRANCH  54  68
ATOM     68  C   UNL A   1      45.893  31.302  28.336  1.00  0.00    -0.014 A 
ATOM     69  C   UNL A   1      47.148  31.369  27.697  1.00  0.00     0.010 A 
ATOM     70  C   UNL A   1      45.040  32.413  28.174  1.00  0.00     0.010 A 
ATOM     71  C   UNL A   1      47.560  32.491  26.978  1.00  0.00     0.020 A 
ATOM     72  C   UNL A   1      45.424  33.527  27.411  1.00  0.00     0.020 A 
ATOM     73  C   UNL A   1      46.689  33.561  26.829  1.00  0.00     0.054 A 
BRANCH  73  74
ATOM     74  S   UNL A   1      47.216  34.939  25.784  1.00  0.00     0.124 S 
ATOM     75  O   UNL A   1      46.414  34.728  24.582  1.00  0.00    -0.237 OA
ATOM     76  O   UNL A   1      46.849  36.101  26.588  1.00  0.00    -0.237 OA
ATOM     77  O   UNL A   1      48.651  34.721  25.626  1.00  0.00    -0.744 OA
ENDBRANCH  73  74
ENDBRANCH  54  68
BRANCH  55  78
ATOM     78  C   UNL A   1      37.760  31.981  30.430  1.00  0.00    -0.014 A 
ATOM     79  C   UNL A   1      36.472  31.810  30.976  1.00  0.00     0.010 A 
ATOM     80  C   UNL A   1      37.901  32.838  29.322  1.00  0.00     0.010 A 
ATOM     81  C   UNL A   1      35.351  32.392  30.379  1.00  0.00     0.020 A 
ATOM     82  C   UNL A   1      36.778  33.422  28.716  1.00  0.00     0.020 A 
ATOM     83  C   UNL A   1      35.505  33.159  29.226  1.00  0.00     0.054 A 
BRANCH  83  84
ATOM     84  S   UNL A   1      34.010  33.711  28.358  1.00  0.00     0.124 S 
ATOM     85  O   UNL A   1      33.259  34.359  29.430  1.00  0.00    -0.237 OA
ATOM     86  O   UNL A   1      34.548  34.611  27.341  1.00  0.00    -0.237 OA
ATOM     87  O   UNL A   1      33.427  32.474  27.846  1.00  0.00    -0.744 OA
ENDBRANCH  83  84
ENDBRANCH  55  78
BRANCH  67  88
ATOM     88  C   UNL A   1      42.405  29.149  33.905  1.00  0.00    -0.014 A 
ATOM     89  C   UNL A   1      42.723  29.417  35.250  1.00  0.00     0.010 A 
ATOM     90  C   UNL A   1      41.848  27.898  33.581  1.00  0.00     0.010 A 
ATOM     91  C   UNL A   1      42.546  28.448  36.237  1.00  0.00     0.020 A 
ATOM     92  C   UNL A   1      41.643  26.929  34.574  1.00  0.00     0.020 A 
ATOM     93  C   UNL A   1      42.024  27.201  35.891  1.00  0.00     0.054 A 
BRANCH  93  94
ATOM     94  S   UNL A   1      41.887  25.941  37.189  1.00  0.00     0.124 S 
ATOM     95  O   UNL A   1      42.205  24.714  36.463  1.00  0.00    -0.237 OA
ATOM     96  O   UNL A   1      42.891  26.367  38.162  1.00  0.00    -0.237 OA
ATOM     97  O   UNL A   1      40.503  26.051  37.645  1.00  0.00    -0.744 OA
ENDBRANCH  93  94
ENDBRANCH  67  88
ENDBRANCH  41  42
ENDBRANCH  33  36
ENDBRANCH  31  32
ENDBRANCH   1  31
TORSDOF 18
ENDMDL
