MODEL 1
REMARK VINA RESULT:     -11.3      0.000      0.000
REMARK SMILES COCCN1C(=O)C[C@H](C(=O)NCCCNC(=O)c2ccc(-c3c4nc(c(-c5ccc(S(=O)(=O)[O-])cc5)c5ccc([nH]5)c(-c5ccc(S(=O)(=O)[O-])cc5)c5nc(c(-c6ccc(S(=O)(=O)[O-])cc6)c6ccc3[nH]6)C=C5)C=C4)cc2)[C@@H]1c1ccccc1N1CCOCC1
REMARK SMILES IDX 14 1 13 2 12 3 10 4 11 5 9 7 5 8 6 9 79 10 7 11 8 12 4 13
REMARK SMILES IDX 3 14 2 15 1 16 80 17 81 18 85 19 82 20 84 21 83 22 86 23
REMARK SMILES IDX 87 24 91 25 88 26 90 27 89 28 15 29 16 30 17 31 18 33 19 34
REMARK SMILES IDX 20 35 78 36 21 37 77 38 22 39 23 40 24 41 71 42 25 43 76 44
REMARK SMILES IDX 70 45 72 46 26 47 75 48 69 49 68 50 27 52 57 53 38 54 56 55
REMARK SMILES IDX 39 56 42 57 55 58 73 59 40 60 41 61 54 63 74 64 43 65 28 66
REMARK SMILES IDX 29 67 37 68 30 69 36 70 31 71 32 72 33 73 34 74 35 75 58 76
REMARK SMILES IDX 59 77 67 78 60 79 66 80 61 81 62 82 63 83 64 84 65 85 44 86
REMARK SMILES IDX 45 87 53 88 46 89 52 90 47 91 48 92 49 93 50 94 51 95
REMARK H PARENT 12 6 16 32 72 51 42 62
REMARK Flexibility Score: inf
ROOT
ATOM      1  C   UNL A   1      34.756  29.841  27.523  1.00  0.00     0.042 C 
ENDROOT
BRANCH   1   2
ATOM      2  C   UNL A   1      33.318  30.220  27.257  1.00  0.00     0.117 C 
BRANCH   2   3
ATOM      3  N   UNL A   1      32.391  29.151  27.550  1.00  0.00    -0.356 N 
ATOM      4  C   UNL A   1      32.290  27.916  27.011  1.00  0.00     0.226 C 
ATOM      5  O   UNL A   1      31.383  27.200  27.453  1.00  0.00    -0.275 OA
ATOM      6  H   UNL A   1      31.731  29.354  28.250  1.00  0.00     0.163 HD
BRANCH   4   7
ATOM      7  C   UNL A   1      33.060  27.447  25.801  1.00  0.00     0.115 C 
ATOM      8  N   UNL A   1      33.159  25.811  24.090  1.00  0.00    -0.332 N 
ATOM      9  C   UNL A   1      34.180  25.538  24.991  1.00  0.00     0.224 C 
ATOM     10  C   UNL A   1      32.459  27.071  24.427  1.00  0.00     0.130 C 
ATOM     11  O   UNL A   1      35.133  24.791  24.818  1.00  0.00    -0.275 OA
ATOM     12  C   UNL A   1      33.901  26.260  26.255  1.00  0.00     0.116 C 
BRANCH   8  13
ATOM     13  C   UNL A   1      33.212  25.227  22.749  1.00  0.00     0.148 C 
BRANCH  13  14
ATOM     14  C   UNL A   1      33.238  26.264  21.602  1.00  0.00     0.181 C 
BRANCH  14  15
ATOM     15  O   UNL A   1      34.336  27.181  21.670  1.00  0.00    -0.383 OA
ATOM     16  C   UNL A   1      33.946  28.518  21.972  1.00  0.00     0.194 C 
ENDBRANCH  14  15
ENDBRANCH  13  14
ENDBRANCH   8  13
BRANCH  10  17
ATOM     17  C   UNL A   1      30.958  27.181  24.155  1.00  0.00    -0.001 A 
ATOM     18  C   UNL A   1      30.434  28.342  23.532  1.00  0.00     0.008 A 
ATOM     19  C   UNL A   1      30.047  26.124  24.456  1.00  0.00     0.042 A 
ATOM     20  C   UNL A   1      29.080  28.487  23.226  1.00  0.00     0.001 A 
ATOM     21  C   UNL A   1      28.678  26.315  24.153  1.00  0.00     0.026 A 
ATOM     22  C   UNL A   1      28.198  27.472  23.543  1.00  0.00     0.002 A 
BRANCH  19  23
ATOM     23  N   UNL A   1      30.477  24.878  24.925  1.00  0.00    -0.367 N 
ATOM     24  C   UNL A   1      30.104  24.459  26.286  1.00  0.00     0.145 C 
ATOM     25  C   UNL A   1      30.502  23.737  23.971  1.00  0.00     0.145 C 
ATOM     26  C   UNL A   1      31.043  23.323  26.731  1.00  0.00     0.181 C 
ATOM     27  C   UNL A   1      31.338  22.567  24.519  1.00  0.00     0.181 C 
ATOM     28  O   UNL A   1      30.935  22.194  25.847  1.00  0.00    -0.378 OA
ENDBRANCH  19  23
ENDBRANCH  10  17
ENDBRANCH   4   7
ENDBRANCH   2   3
ENDBRANCH   1   2
BRANCH   1  29
ATOM     29  C   UNL A   1      35.570  31.020  28.030  1.00  0.00     0.118 C 
BRANCH  29  30
ATOM     30  N   UNL A   1      35.548  31.160  29.484  1.00  0.00    -0.352 N 
ATOM     31  C   UNL A   1      36.441  30.675  30.416  1.00  0.00     0.251 C 
ATOM     32  H   UNL A   1      34.790  31.671  29.850  1.00  0.00     0.163 HD
ATOM     33  O   UNL A   1      36.206  30.776  31.615  1.00  0.00    -0.269 OA
BRANCH  31  34
ATOM     34  C   UNL A   1      37.662  29.993  29.942  1.00  0.00     0.039 A 
ATOM     35  C   UNL A   1      38.035  30.113  28.603  1.00  0.00     0.014 A 
ATOM     36  C   UNL A   1      38.489  29.328  30.849  1.00  0.00     0.014 A 
ATOM     37  C   UNL A   1      39.289  29.650  28.198  1.00  0.00     0.010 A 
ATOM     38  C   UNL A   1      39.780  28.989  30.473  1.00  0.00     0.010 A 
ATOM     39  C   UNL A   1      40.196  29.137  29.142  1.00  0.00    -0.014 A 
BRANCH  39  40
ATOM     40  C   UNL A   1      41.578  28.742  28.765  1.00  0.00     0.031 A 
ATOM     41  C   UNL A   1      42.670  29.778  28.737  1.00  0.00     0.074 A 
ATOM     42  C   UNL A   1      41.834  27.476  28.376  1.00  0.00     0.049 A 
ATOM     43  N   UNL A   1      43.918  29.649  28.367  1.00  0.00    -0.248 NA
ATOM     44  C   UNL A   1      42.306  31.146  29.144  1.00  0.00     0.031 C 
ATOM     45  C   UNL A   1      40.851  26.390  28.303  1.00  0.00     0.029 A 
ATOM     46  N   UNL A   1      43.004  26.886  27.962  1.00  0.00    -0.354 N 
ATOM     47  C   UNL A   1      44.475  30.919  28.474  1.00  0.00     0.074 A 
ATOM     48  C   UNL A   1      43.417  31.815  28.879  1.00  0.00     0.031 C 
ATOM     49  C   UNL A   1      41.466  25.263  27.910  1.00  0.00     0.029 A 
ATOM     50  C   UNL A   1      42.873  25.551  27.655  1.00  0.00     0.049 A 
ATOM     51  H   UNL A   1      43.855  27.374  27.891  1.00  0.00     0.167 HD
ATOM     52  C   UNL A   1      45.759  31.302  28.281  1.00  0.00     0.031 A 
ATOM     53  C   UNL A   1      43.782  24.659  27.215  1.00  0.00     0.031 A 
ATOM     54  C   UNL A   1      46.815  30.404  27.901  1.00  0.00     0.049 A 
ATOM     55  C   UNL A   1      45.204  25.108  27.009  1.00  0.00     0.074 A 
ATOM     56  C   UNL A   1      48.162  30.679  27.745  1.00  0.00     0.029 A 
ATOM     57  N   UNL A   1      46.644  29.057  27.619  1.00  0.00    -0.354 N 
ATOM     58  N   UNL A   1      45.726  26.298  27.188  1.00  0.00    -0.248 NA
ATOM     59  C   UNL A   1      46.162  24.091  26.553  1.00  0.00     0.031 C 
ATOM     60  C   UNL A   1      48.796  29.511  27.311  1.00  0.00     0.029 A 
ATOM     61  C   UNL A   1      47.856  28.492  27.263  1.00  0.00     0.049 A 
ATOM     62  H   UNL A   1      45.787  28.574  27.665  1.00  0.00     0.167 HD
ATOM     63  C   UNL A   1      47.079  26.166  26.895  1.00  0.00     0.074 A 
ATOM     64  C   UNL A   1      47.297  24.777  26.543  1.00  0.00     0.031 C 
ATOM     65  C   UNL A   1      48.054  27.108  26.917  1.00  0.00     0.031 A 
BRANCH  52  66
ATOM     66  C   UNL A   1      46.088  32.759  28.482  1.00  0.00    -0.014 A 
ATOM     67  C   UNL A   1      46.496  33.248  29.737  1.00  0.00     0.010 A 
ATOM     68  C   UNL A   1      46.023  33.646  27.392  1.00  0.00     0.010 A 
ATOM     69  C   UNL A   1      46.789  34.602  29.908  1.00  0.00     0.020 A 
ATOM     70  C   UNL A   1      46.348  34.996  27.551  1.00  0.00     0.020 A 
ATOM     71  C   UNL A   1      46.712  35.469  28.814  1.00  0.00     0.054 A 
BRANCH  71  72
ATOM     72  S   UNL A   1      47.124  37.217  29.062  1.00  0.00     0.124 S 
ATOM     73  O   UNL A   1      48.551  37.237  28.753  1.00  0.00    -0.237 OA
ATOM     74  O   UNL A   1      46.263  37.889  28.091  1.00  0.00    -0.237 OA
ATOM     75  O   UNL A   1      46.787  37.458  30.462  1.00  0.00    -0.744 OA
ENDBRANCH  71  72
ENDBRANCH  52  66
BRANCH  53  76
ATOM     76  C   UNL A   1      43.380  23.248  26.955  1.00  0.00    -0.014 A 
ATOM     77  C   UNL A   1      43.334  22.748  25.641  1.00  0.00     0.010 A 
ATOM     78  C   UNL A   1      43.049  22.393  28.021  1.00  0.00     0.010 A 
ATOM     79  C   UNL A   1      42.945  21.427  25.398  1.00  0.00     0.020 A 
ATOM     80  C   UNL A   1      42.690  21.062  27.785  1.00  0.00     0.020 A 
ATOM     81  C   UNL A   1      42.629  20.591  26.471  1.00  0.00     0.054 A 
BRANCH  81  82
ATOM     82  S   UNL A   1      42.176  18.866  26.135  1.00  0.00     0.124 S 
ATOM     83  O   UNL A   1      43.102  18.513  25.064  1.00  0.00    -0.237 OA
ATOM     84  O   UNL A   1      42.420  18.221  27.423  1.00  0.00    -0.237 OA
ATOM     85  O   UNL A   1      40.770  18.951  25.747  1.00  0.00    -0.744 OA
ENDBRANCH  81  82
ENDBRANCH  53  76
BRANCH  65  86
ATOM     86  C   UNL A   1      49.456  26.665  26.588  1.00  0.00    -0.014 A 
ATOM     87  C   UNL A   1      50.320  26.173  27.581  1.00  0.00     0.010 A 
ATOM     88  C   UNL A   1      49.891  26.688  25.249  1.00  0.00     0.010 A 
ATOM     89  C   UNL A   1      51.606  25.740  27.246  1.00  0.00     0.020 A 
ATOM     90  C   UNL A   1      51.163  26.226  24.906  1.00  0.00     0.020 A 
ATOM     91  C   UNL A   1      52.018  25.768  25.910  1.00  0.00     0.054 A 
BRANCH  91  92
ATOM     92  S   UNL A   1      53.675  25.159  25.496  1.00  0.00     0.124 S 
ATOM     93  O   UNL A   1      53.447  23.723  25.366  1.00  0.00    -0.237 OA
ATOM     94  O   UNL A   1      53.973  25.863  24.252  1.00  0.00    -0.237 OA
ATOM     95  O   UNL A   1      54.488  25.559  26.643  1.00  0.00    -0.744 OA
ENDBRANCH  91  92
ENDBRANCH  65  86
ENDBRANCH  39  40
ENDBRANCH  31  34
ENDBRANCH  29  30
ENDBRANCH   1  29
TORSDOF 18
ENDMDL
MODEL 2
REMARK VINA RESULT:     -10.9      5.000      6.359
REMARK SMILES COCCN1C(=O)C[C@H](C(=O)NCCCNC(=O)c2ccc(-c3c4nc(c(-c5ccc(S(=O)(=O)[O-])cc5)c5ccc([nH]5)c(-c5ccc(S(=O)(=O)[O-])cc5)c5nc(c(-c6ccc(S(=O)(=O)[O-])cc6)c6ccc3[nH]6)C=C5)C=C4)cc2)[C@@H]1c1ccccc1N1CCOCC1
REMARK SMILES IDX 14 1 13 2 12 3 10 4 11 5 9 7 5 8 6 9 79 10 7 11 8 12 4 13
REMARK SMILES IDX 3 14 2 15 1 16 80 17 81 18 85 19 82 20 84 21 83 22 86 23
REMARK SMILES IDX 87 24 91 25 88 26 90 27 89 28 15 29 16 30 17 31 18 33 19 34
REMARK SMILES IDX 20 35 78 36 21 37 77 38 22 39 23 40 24 41 71 42 25 43 76 44
REMARK SMILES IDX 70 45 72 46 26 47 75 48 69 49 68 50 27 52 57 53 38 54 56 55
REMARK SMILES IDX 39 56 42 57 55 58 73 59 40 60 41 61 54 63 74 64 43 65 28 66
REMARK SMILES IDX 29 67 37 68 30 69 36 70 31 71 32 72 33 73 34 74 35 75 58 76
REMARK SMILES IDX 59 77 67 78 60 79 66 80 61 81 62 82 63 83 64 84 65 85 44 86
REMARK SMILES IDX 45 87 53 88 46 89 52 90 47 91 48 92 49 93 50 94 51 95
REMARK H PARENT 12 6 16 32 72 51 42 62
REMARK Flexibility Score: inf
ROOT
ATOM      1  C   UNL A   1      32.113  29.418  26.780  1.00  0.00     0.042 C 
ENDROOT
BRANCH   1   2
ATOM      2  C   UNL A   1      31.866  28.181  27.611  1.00  0.00     0.117 C 
BRANCH   2   3
ATOM      3  N   UNL A   1      31.059  27.197  26.927  1.00  0.00    -0.356 N 
ATOM      4  C   UNL A   1      31.359  25.933  26.554  1.00  0.00     0.226 C 
ATOM      5  O   UNL A   1      30.466  25.310  25.966  1.00  0.00    -0.275 OA
ATOM      6  H   UNL A   1      30.150  27.493  26.696  1.00  0.00     0.163 HD
BRANCH   4   7
ATOM      7  C   UNL A   1      32.740  25.326  26.627  1.00  0.00     0.115 C 
ATOM      8  N   UNL A   1      34.394  24.140  25.415  1.00  0.00    -0.332 N 
ATOM      9  C   UNL A   1      33.831  23.259  26.330  1.00  0.00     0.224 C 
ATOM     10  C   UNL A   1      33.873  25.514  25.593  1.00  0.00     0.130 C 
ATOM     11  O   UNL A   1      34.271  22.169  26.669  1.00  0.00    -0.275 OA
ATOM     12  C   UNL A   1      32.544  23.825  26.802  1.00  0.00     0.116 C 
BRANCH   8  13
ATOM     13  C   UNL A   1      35.688  23.815  24.812  1.00  0.00     0.148 C 
BRANCH  13  14
ATOM     14  C   UNL A   1      36.895  23.981  25.765  1.00  0.00     0.181 C 
BRANCH  14  15
ATOM     15  O   UNL A   1      37.534  22.748  26.115  1.00  0.00    -0.383 OA
ATOM     16  C   UNL A   1      37.698  21.857  25.015  1.00  0.00     0.194 C 
ENDBRANCH  14  15
ENDBRANCH  13  14
ENDBRANCH   8  13
BRANCH  10  17
ATOM     17  C   UNL A   1      33.694  26.403  24.362  1.00  0.00    -0.001 A 
ATOM     18  C   UNL A   1      34.256  27.705  24.340  1.00  0.00     0.008 A 
ATOM     19  C   UNL A   1      33.017  25.955  23.188  1.00  0.00     0.042 A 
ATOM     20  C   UNL A   1      34.155  28.550  23.234  1.00  0.00     0.001 A 
ATOM     21  C   UNL A   1      32.914  26.848  22.094  1.00  0.00     0.026 A 
ATOM     22  C   UNL A   1      33.478  28.122  22.109  1.00  0.00     0.002 A 
BRANCH  19  23
ATOM     23  N   UNL A   1      32.563  24.640  23.043  1.00  0.00    -0.367 N 
ATOM     24  C   UNL A   1      31.120  24.366  23.151  1.00  0.00     0.145 C 
ATOM     25  C   UNL A   1      33.227  23.773  22.033  1.00  0.00     0.145 C 
ATOM     26  C   UNL A   1      30.920  22.863  23.422  1.00  0.00     0.181 C 
ATOM     27  C   UNL A   1      32.885  22.290  22.257  1.00  0.00     0.181 C 
ATOM     28  O   UNL A   1      31.467  22.073  22.354  1.00  0.00    -0.378 OA
ENDBRANCH  19  23
ENDBRANCH  10  17
ENDBRANCH   4   7
ENDBRANCH   2   3
ENDBRANCH   1   2
BRANCH   1  29
ATOM     29  C   UNL A   1      33.499  29.996  27.021  1.00  0.00     0.118 C 
BRANCH  29  30
ATOM     30  N   UNL A   1      33.481  31.396  27.439  1.00  0.00    -0.352 N 
ATOM     31  C   UNL A   1      34.404  32.089  28.192  1.00  0.00     0.251 C 
ATOM     32  H   UNL A   1      32.700  31.917  27.141  1.00  0.00     0.163 HD
ATOM     33  O   UNL A   1      34.173  33.235  28.560  1.00  0.00    -0.269 OA
BRANCH  31  34
ATOM     34  C   UNL A   1      35.655  31.408  28.583  1.00  0.00     0.039 A 
ATOM     35  C   UNL A   1      36.879  32.022  28.317  1.00  0.00     0.014 A 
ATOM     36  C   UNL A   1      35.605  30.216  29.308  1.00  0.00     0.014 A 
ATOM     37  C   UNL A   1      38.046  31.489  28.868  1.00  0.00     0.010 A 
ATOM     38  C   UNL A   1      36.744  29.765  29.959  1.00  0.00     0.010 A 
ATOM     39  C   UNL A   1      37.981  30.390  29.742  1.00  0.00    -0.014 A 
BRANCH  39  40
ATOM     40  C   UNL A   1      39.188  29.868  30.434  1.00  0.00     0.031 A 
ATOM     41  C   UNL A   1      39.656  30.515  31.712  1.00  0.00     0.074 A 
ATOM     42  C   UNL A   1      39.905  28.870  29.879  1.00  0.00     0.049 A 
ATOM     43  N   UNL A   1      40.721  30.256  32.425  1.00  0.00    -0.248 NA
ATOM     44  C   UNL A   1      38.838  31.622  32.239  1.00  0.00     0.031 C 
ATOM     45  C   UNL A   1      39.592  28.196  28.615  1.00  0.00     0.029 A 
ATOM     46  N   UNL A   1      41.052  28.247  30.306  1.00  0.00    -0.354 N 
ATOM     47  C   UNL A   1      40.712  31.180  33.464  1.00  0.00     0.074 A 
ATOM     48  C   UNL A   1      39.575  32.046  33.254  1.00  0.00     0.031 C 
ATOM     49  C   UNL A   1      40.500  27.231  28.391  1.00  0.00     0.029 A 
ATOM     50  C   UNL A   1      41.487  27.247  29.466  1.00  0.00     0.049 A 
ATOM     51  H   UNL A   1      41.520  28.493  31.136  1.00  0.00     0.167 HD
ATOM     52  C   UNL A   1      41.557  31.282  34.516  1.00  0.00     0.031 A 
ATOM     53  C   UNL A   1      42.560  26.436  29.548  1.00  0.00     0.031 A 
ATOM     54  C   UNL A   1      42.674  30.404  34.736  1.00  0.00     0.049 A 
ATOM     55  C   UNL A   1      43.484  26.567  30.729  1.00  0.00     0.074 A 
ATOM     56  C   UNL A   1      43.551  30.380  35.805  1.00  0.00     0.029 A 
ATOM     57  N   UNL A   1      43.066  29.394  33.871  1.00  0.00    -0.354 N 
ATOM     58  N   UNL A   1      43.416  27.400  31.740  1.00  0.00    -0.248 NA
ATOM     59  C   UNL A   1      44.625  25.642  30.784  1.00  0.00     0.031 C 
ATOM     60  C   UNL A   1      44.510  29.394  35.559  1.00  0.00     0.029 A 
ATOM     61  C   UNL A   1      44.190  28.757  34.370  1.00  0.00     0.049 A 
ATOM     62  H   UNL A   1      42.613  29.162  33.028  1.00  0.00     0.167 HD
ATOM     63  C   UNL A   1      44.486  27.078  32.567  1.00  0.00     0.074 A 
ATOM     64  C   UNL A   1      45.176  25.966  31.946  1.00  0.00     0.031 C 
ATOM     65  C   UNL A   1      44.863  27.651  33.738  1.00  0.00     0.031 A 
BRANCH  52  66
ATOM     66  C   UNL A   1      41.299  32.384  35.512  1.00  0.00    -0.014 A 
ATOM     67  C   UNL A   1      40.379  32.217  36.562  1.00  0.00     0.010 A 
ATOM     68  C   UNL A   1      42.015  33.592  35.416  1.00  0.00     0.010 A 
ATOM     69  C   UNL A   1      40.145  33.252  37.470  1.00  0.00     0.020 A 
ATOM     70  C   UNL A   1      41.808  34.618  36.342  1.00  0.00     0.020 A 
ATOM     71  C   UNL A   1      40.861  34.447  37.354  1.00  0.00     0.054 A 
BRANCH  71  72
ATOM     72  S   UNL A   1      40.555  35.762  38.565  1.00  0.00     0.124 S 
ATOM     73  O   UNL A   1      41.013  35.142  39.805  1.00  0.00    -0.237 OA
ATOM     74  O   UNL A   1      41.386  36.855  38.065  1.00  0.00    -0.237 OA
ATOM     75  O   UNL A   1      39.115  35.987  38.476  1.00  0.00    -0.744 OA
ENDBRANCH  71  72
ENDBRANCH  52  66
BRANCH  53  76
ATOM     76  C   UNL A   1      42.809  25.417  28.490  1.00  0.00    -0.014 A 
ATOM     77  C   UNL A   1      43.746  25.660  27.470  1.00  0.00     0.010 A 
ATOM     78  C   UNL A   1      42.117  24.193  28.502  1.00  0.00     0.010 A 
ATOM     79  C   UNL A   1      43.971  24.707  26.471  1.00  0.00     0.020 A 
ATOM     80  C   UNL A   1      42.361  23.225  27.523  1.00  0.00     0.020 A 
ATOM     81  C   UNL A   1      43.279  23.494  26.505  1.00  0.00     0.054 A 
BRANCH  81  82
ATOM     82  S   UNL A   1      43.624  22.252  25.227  1.00  0.00     0.124 S 
ATOM     83  O   UNL A   1      45.029  21.946  25.474  1.00  0.00    -0.237 OA
ATOM     84  O   UNL A   1      42.676  21.190  25.558  1.00  0.00    -0.237 OA
ATOM     85  O   UNL A   1      43.345  22.959  23.980  1.00  0.00    -0.744 OA
ENDBRANCH  81  82
ENDBRANCH  53  76
BRANCH  65  86
ATOM     86  C   UNL A   1      46.055  27.063  34.447  1.00  0.00    -0.014 A 
ATOM     87  C   UNL A   1      45.915  26.001  35.356  1.00  0.00     0.010 A 
ATOM     88  C   UNL A   1      47.343  27.547  34.149  1.00  0.00     0.010 A 
ATOM     89  C   UNL A   1      47.040  25.452  35.979  1.00  0.00     0.020 A 
ATOM     90  C   UNL A   1      48.472  26.980  34.744  1.00  0.00     0.020 A 
ATOM     91  C   UNL A   1      48.311  25.945  35.667  1.00  0.00     0.054 A 
BRANCH  91  92
ATOM     92  S   UNL A   1      49.757  25.186  36.455  1.00  0.00     0.124 S 
ATOM     93  O   UNL A   1      50.674  26.317  36.560  1.00  0.00    -0.237 OA
ATOM     94  O   UNL A   1      49.212  24.698  37.719  1.00  0.00    -0.237 OA
ATOM     95  O   UNL A   1      50.159  24.144  35.512  1.00  0.00    -0.744 OA
ENDBRANCH  91  92
ENDBRANCH  65  86
ENDBRANCH  39  40
ENDBRANCH  31  34
ENDBRANCH  29  30
ENDBRANCH   1  29
TORSDOF 18
ENDMDL
MODEL 3
REMARK VINA RESULT:     -10.8      3.153      4.020
REMARK SMILES COCCN1C(=O)C[C@H](C(=O)NCCCNC(=O)c2ccc(-c3c4nc(c(-c5ccc(S(=O)(=O)[O-])cc5)c5ccc([nH]5)c(-c5ccc(S(=O)(=O)[O-])cc5)c5nc(c(-c6ccc(S(=O)(=O)[O-])cc6)c6ccc3[nH]6)C=C5)C=C4)cc2)[C@@H]1c1ccccc1N1CCOCC1
REMARK SMILES IDX 14 1 13 2 12 3 10 4 11 5 9 7 5 8 6 9 79 10 7 11 8 12 4 13
REMARK SMILES IDX 3 14 2 15 1 16 80 17 81 18 85 19 82 20 84 21 83 22 86 23
REMARK SMILES IDX 87 24 91 25 88 26 90 27 89 28 15 29 16 30 17 31 18 33 19 34
REMARK SMILES IDX 20 35 78 36 21 37 77 38 22 39 23 40 24 41 71 42 25 43 76 44
REMARK SMILES IDX 70 45 72 46 26 47 75 48 69 49 68 50 27 52 57 53 38 54 56 55
REMARK SMILES IDX 39 56 42 57 55 58 73 59 40 60 41 61 54 63 74 64 43 65 28 66
REMARK SMILES IDX 29 67 37 68 30 69 36 70 31 71 32 72 33 73 34 74 35 75 58 76
REMARK SMILES IDX 59 77 67 78 60 79 66 80 61 81 62 82 63 83 64 84 65 85 44 86
REMARK SMILES IDX 45 87 53 88 46 89 52 90 47 91 48 92 49 93 50 94 51 95
REMARK H PARENT 12 6 16 32 72 51 42 62
REMARK Flexibility Score: inf
ROOT
ATOM      1  C   UNL A   1      32.026  28.978  26.992  1.00  0.00     0.042 C 
ENDROOT
BRANCH   1   2
ATOM      2  C   UNL A   1      31.488  27.812  27.787  1.00  0.00     0.117 C 
BRANCH   2   3
ATOM      3  N   UNL A   1      30.807  26.838  26.965  1.00  0.00    -0.356 N 
ATOM      4  C   UNL A   1      31.224  25.632  26.519  1.00  0.00     0.226 C 
ATOM      5  O   UNL A   1      30.424  25.004  25.814  1.00  0.00    -0.275 OA
ATOM      6  H   UNL A   1      29.899  27.093  26.685  1.00  0.00     0.163 HD
BRANCH   4   7
ATOM      7  C   UNL A   1      32.635  25.113  26.655  1.00  0.00     0.115 C 
ATOM      8  N   UNL A   1      34.424  24.064  25.511  1.00  0.00    -0.332 N 
ATOM      9  C   UNL A   1      33.871  23.126  26.375  1.00  0.00     0.224 C 
ATOM     10  C   UNL A   1      33.807  25.397  25.689  1.00  0.00     0.130 C 
ATOM     11  O   UNL A   1      34.363  22.059  26.715  1.00  0.00    -0.275 OA
ATOM     12  C   UNL A   1      32.528  23.599  26.788  1.00  0.00     0.116 C 
BRANCH   8  13
ATOM     13  C   UNL A   1      35.767  23.837  24.973  1.00  0.00     0.148 C 
BRANCH  13  14
ATOM     14  C   UNL A   1      36.003  22.407  24.432  1.00  0.00     0.181 C 
BRANCH  14  15
ATOM     15  O   UNL A   1      37.331  21.915  24.649  1.00  0.00    -0.383 OA
ATOM     16  C   UNL A   1      38.033  22.599  25.683  1.00  0.00     0.194 C 
ENDBRANCH  14  15
ENDBRANCH  13  14
ENDBRANCH   8  13
BRANCH  10  17
ATOM     17  C   UNL A   1      33.636  26.303  24.469  1.00  0.00    -0.001 A 
ATOM     18  C   UNL A   1      34.142  27.628  24.493  1.00  0.00     0.008 A 
ATOM     19  C   UNL A   1      33.025  25.851  23.261  1.00  0.00     0.042 A 
ATOM     20  C   UNL A   1      34.048  28.491  23.400  1.00  0.00     0.001 A 
ATOM     21  C   UNL A   1      32.926  26.760  22.181  1.00  0.00     0.026 A 
ATOM     22  C   UNL A   1      33.433  28.057  22.242  1.00  0.00     0.002 A 
BRANCH  19  23
ATOM     23  N   UNL A   1      32.634  24.521  23.074  1.00  0.00    -0.367 N 
ATOM     24  C   UNL A   1      31.198  24.199  23.019  1.00  0.00     0.145 C 
ATOM     25  C   UNL A   1      33.437  23.674  22.152  1.00  0.00     0.145 C 
ATOM     26  C   UNL A   1      31.018  22.691  23.275  1.00  0.00     0.181 C 
ATOM     27  C   UNL A   1      33.121  22.181  22.344  1.00  0.00     0.181 C 
ATOM     28  O   UNL A   1      31.709  21.917  22.281  1.00  0.00    -0.378 OA
ENDBRANCH  19  23
ENDBRANCH  10  17
ENDBRANCH   4   7
ENDBRANCH   2   3
ENDBRANCH   1   2
BRANCH   1  29
ATOM     29  C   UNL A   1      33.445  29.339  27.401  1.00  0.00     0.118 C 
BRANCH  29  30
ATOM     30  N   UNL A   1      33.624  30.760  27.689  1.00  0.00    -0.352 N 
ATOM     31  C   UNL A   1      34.718  31.406  28.222  1.00  0.00     0.251 C 
ATOM     32  H   UNL A   1      32.856  31.336  27.473  1.00  0.00     0.163 HD
ATOM     33  O   UNL A   1      34.657  32.595  28.518  1.00  0.00    -0.269 OA
BRANCH  31  34
ATOM     34  C   UNL A   1      35.949  30.630  28.471  1.00  0.00     0.039 A 
ATOM     35  C   UNL A   1      36.872  30.460  27.438  1.00  0.00     0.014 A 
ATOM     36  C   UNL A   1      36.235  30.165  29.756  1.00  0.00     0.014 A 
ATOM     37  C   UNL A   1      38.124  29.912  27.722  1.00  0.00     0.010 A 
ATOM     38  C   UNL A   1      37.521  29.743  30.060  1.00  0.00     0.010 A 
ATOM     39  C   UNL A   1      38.481  29.604  29.046  1.00  0.00    -0.014 A 
BRANCH  39  40
ATOM     40  C   UNL A   1      39.843  29.126  29.399  1.00  0.00     0.031 A 
ATOM     41  C   UNL A   1      40.808  30.058  30.084  1.00  0.00     0.074 A 
ATOM     42  C   UNL A   1      40.239  27.888  29.036  1.00  0.00     0.049 A 
ATOM     43  N   UNL A   1      42.059  29.857  30.407  1.00  0.00    -0.248 NA
ATOM     44  C   UNL A   1      40.314  31.406  30.418  1.00  0.00     0.031 C 
ATOM     45  C   UNL A   1      39.419  26.908  28.317  1.00  0.00     0.029 A 
ATOM     46  N   UNL A   1      41.436  27.242  29.221  1.00  0.00    -0.354 N 
ATOM     47  C   UNL A   1      42.503  31.054  30.957  1.00  0.00     0.074 A 
ATOM     48  C   UNL A   1      41.411  31.996  30.864  1.00  0.00     0.031 C 
ATOM     49  C   UNL A   1      40.124  25.775  28.158  1.00  0.00     0.029 A 
ATOM     50  C   UNL A   1      41.458  25.961  28.717  1.00  0.00     0.049 A 
ATOM     51  H   UNL A   1      42.207  27.656  29.672  1.00  0.00     0.167 HD
ATOM     52  C   UNL A   1      43.702  31.339  31.517  1.00  0.00     0.031 A 
ATOM     53  C   UNL A   1      42.442  25.040  28.703  1.00  0.00     0.031 A 
ATOM     54  C   UNL A   1      44.779  30.393  31.630  1.00  0.00     0.049 A 
ATOM     55  C   UNL A   1      43.767  25.380  29.333  1.00  0.00     0.074 A 
ATOM     56  C   UNL A   1      46.009  30.561  32.239  1.00  0.00     0.029 A 
ATOM     57  N   UNL A   1      44.753  29.103  31.124  1.00  0.00    -0.354 N 
ATOM     58  N   UNL A   1      44.142  26.494  29.914  1.00  0.00    -0.248 NA
ATOM     59  C   UNL A   1      44.798  24.332  29.314  1.00  0.00     0.031 C 
ATOM     60  C   UNL A   1      46.751  29.391  32.050  1.00  0.00     0.029 A 
ATOM     61  C   UNL A   1      45.957  28.470  31.383  1.00  0.00     0.049 A 
ATOM     62  H   UNL A   1      43.991  28.695  30.651  1.00  0.00     0.167 HD
ATOM     63  C   UNL A   1      45.441  26.271  30.357  1.00  0.00     0.074 A 
ATOM     64  C   UNL A   1      45.781  24.912  29.990  1.00  0.00     0.031 C 
ATOM     65  C   UNL A   1      46.277  27.116  31.011  1.00  0.00     0.031 A 
BRANCH  52  66
ATOM     66  C   UNL A   1      43.908  32.733  32.052  1.00  0.00    -0.014 A 
ATOM     67  C   UNL A   1      43.582  33.059  33.382  1.00  0.00     0.010 A 
ATOM     68  C   UNL A   1      44.467  33.723  31.224  1.00  0.00     0.010 A 
ATOM     69  C   UNL A   1      43.770  34.357  33.859  1.00  0.00     0.020 A 
ATOM     70  C   UNL A   1      44.688  35.015  31.708  1.00  0.00     0.020 A 
ATOM     71  C   UNL A   1      44.322  35.329  33.018  1.00  0.00     0.054 A 
BRANCH  71  72
ATOM     72  S   UNL A   1      44.578  36.999  33.675  1.00  0.00     0.124 S 
ATOM     73  O   UNL A   1      44.596  36.757  35.115  1.00  0.00    -0.237 OA
ATOM     74  O   UNL A   1      45.861  37.379  33.087  1.00  0.00    -0.237 OA
ATOM     75  O   UNL A   1      43.424  37.747  33.183  1.00  0.00    -0.744 OA
ENDBRANCH  71  72
ENDBRANCH  52  66
BRANCH  53  76
ATOM     76  C   UNL A   1      42.207  23.705  28.087  1.00  0.00    -0.014 A 
ATOM     77  C   UNL A   1      41.262  22.820  28.637  1.00  0.00     0.010 A 
ATOM     78  C   UNL A   1      42.920  23.313  26.940  1.00  0.00     0.010 A 
ATOM     79  C   UNL A   1      41.050  21.562  28.064  1.00  0.00     0.020 A 
ATOM     80  C   UNL A   1      42.688  22.068  26.345  1.00  0.00     0.020 A 
ATOM     81  C   UNL A   1      41.762  21.195  26.920  1.00  0.00     0.054 A 
BRANCH  81  82
ATOM     82  S   UNL A   1      41.434  19.578  26.164  1.00  0.00     0.124 S 
ATOM     83  O   UNL A   1      41.847  18.660  27.221  1.00  0.00    -0.237 OA
ATOM     84  O   UNL A   1      39.997  19.639  25.904  1.00  0.00    -0.237 OA
ATOM     85  O   UNL A   1      42.276  19.581  24.971  1.00  0.00    -0.744 OA
ENDBRANCH  81  82
ENDBRANCH  53  76
BRANCH  65  86
ATOM     86  C   UNL A   1      47.630  26.585  31.408  1.00  0.00    -0.014 A 
ATOM     87  C   UNL A   1      47.835  25.960  32.649  1.00  0.00     0.010 A 
ATOM     88  C   UNL A   1      48.697  26.663  30.494  1.00  0.00     0.010 A 
ATOM     89  C   UNL A   1      49.092  25.448  32.982  1.00  0.00     0.020 A 
ATOM     90  C   UNL A   1      49.946  26.125  30.809  1.00  0.00     0.020 A 
ATOM     91  C   UNL A   1      50.139  25.533  32.059  1.00  0.00     0.054 A 
BRANCH  91  92
ATOM     92  S   UNL A   1      51.749  24.822  32.499  1.00  0.00     0.124 S 
ATOM     93  O   UNL A   1      51.548  23.408  32.197  1.00  0.00    -0.237 OA
ATOM     94  O   UNL A   1      52.665  25.531  31.609  1.00  0.00    -0.237 OA
ATOM     95  O   UNL A   1      51.893  25.142  33.918  1.00  0.00    -0.744 OA
ENDBRANCH  91  92
ENDBRANCH  65  86
ENDBRANCH  39  40
ENDBRANCH  31  34
ENDBRANCH  29  30
ENDBRANCH   1  29
TORSDOF 18
ENDMDL
