MODEL 1
REMARK VINA RESULT:     -12.2      0.000      0.000
REMARK SMILES O=C(NCCCNC(=O)C1CCN(c2nc(-c3ccc(F)cc3)cc(C(F)F)n2)CC1)c1ccc(-c2c3nc(c(-c4ccc(S(=O)(=O)[O-])cc4)c4ccc([nH]4)c(-c4ccc(S(=O)(=O)[O-])cc4)c4nc(c(-c5ccc(S(=O)(=O)[O-])cc5)c5ccc2[nH]5)C=C4)C=C3)cc1
REMARK SMILES IDX 4 1 3 2 1 3 2 4 32 6 33 7 91 8 34 9 90 10 35 11 36 12 37 13
REMARK SMILES IDX 84 14 38 15 89 16 83 17 85 18 39 19 88 20 82 21 81 22 40 24
REMARK SMILES IDX 70 25 51 26 69 27 52 28 55 29 68 30 86 31 53 32 54 33 67 35
REMARK SMILES IDX 87 36 56 37 41 38 42 39 50 40 43 41 49 42 44 43 45 44 46 45
REMARK SMILES IDX 47 46 48 47 71 48 72 49 80 50 73 51 79 52 74 53 75 54 76 55
REMARK SMILES IDX 77 56 78 57 57 58 58 59 66 60 59 61 65 62 60 63 61 64 62 65
REMARK SMILES IDX 63 66 64 67 5 68 6 69 7 70 8 71 9 73 10 74 11 75 31 76 12 77
REMARK SMILES IDX 30 78 13 79 14 80 15 81 29 82 16 83 25 84 24 85 17 86 18 87
REMARK SMILES IDX 23 88 19 89 22 90 20 91 21 92 26 93 27 94 28 95
REMARK H PARENT 3 5 85 23 55 34 7 72
REMARK Flexibility Score: inf
ROOT
ATOM      1  C   UNL A   1      41.202  22.940  27.447  1.00  0.00     0.118 C 
ENDROOT
BRANCH   1   2
ATOM      2  N   UNL A   1      41.149  23.858  26.319  1.00  0.00    -0.352 N 
ATOM      3  O   UNL A   1      40.859  25.747  25.147  1.00  0.00    -0.269 OA
ATOM      4  C   UNL A   1      40.962  25.220  26.250  1.00  0.00     0.251 C 
ATOM      5  H   UNL A   1      41.268  23.425  25.442  1.00  0.00     0.163 HD
BRANCH   4   6
ATOM      6  C   UNL A   1      40.843  26.049  27.474  1.00  0.00     0.039 A 
ATOM      7  C   UNL A   1      39.801  25.876  28.383  1.00  0.00     0.014 A 
ATOM      8  C   UNL A   1      41.836  27.000  27.738  1.00  0.00     0.014 A 
ATOM      9  C   UNL A   1      39.655  26.761  29.450  1.00  0.00     0.010 A 
ATOM     10  C   UNL A   1      41.737  27.829  28.861  1.00  0.00     0.010 A 
ATOM     11  C   UNL A   1      40.619  27.750  29.703  1.00  0.00    -0.014 A 
BRANCH  11  12
ATOM     12  C   UNL A   1      40.446  28.664  30.865  1.00  0.00     0.031 A 
ATOM     13  C   UNL A   1      41.347  28.571  32.070  1.00  0.00     0.074 A 
ATOM     14  C   UNL A   1      39.495  29.618  30.813  1.00  0.00     0.049 A 
ATOM     15  N   UNL A   1      41.383  29.338  33.131  1.00  0.00    -0.248 NA
ATOM     16  C   UNL A   1      42.328  27.475  32.094  1.00  0.00     0.031 C 
ATOM     17  C   UNL A   1      38.551  29.810  29.708  1.00  0.00     0.029 A 
ATOM     18  N   UNL A   1      39.182  30.625  31.692  1.00  0.00    -0.354 N 
ATOM     19  C   UNL A   1      42.370  28.807  33.956  1.00  0.00     0.074 A 
ATOM     20  C   UNL A   1      42.891  27.637  33.283  1.00  0.00     0.031 C 
ATOM     21  C   UNL A   1      37.813  30.903  29.945  1.00  0.00     0.029 A 
ATOM     22  C   UNL A   1      38.187  31.458  31.242  1.00  0.00     0.049 A 
ATOM     23  H   UNL A   1      39.629  30.739  32.562  1.00  0.00     0.167 HD
ATOM     24  C   UNL A   1      42.807  29.254  35.159  1.00  0.00     0.031 A 
ATOM     25  C   UNL A   1      37.630  32.548  31.804  1.00  0.00     0.031 A 
ATOM     26  C   UNL A   1      42.292  30.422  35.827  1.00  0.00     0.049 A 
ATOM     27  C   UNL A   1      38.120  33.012  33.145  1.00  0.00     0.074 A 
ATOM     28  C   UNL A   1      42.699  30.978  37.028  1.00  0.00     0.029 A 
ATOM     29  N   UNL A   1      41.251  31.211  35.357  1.00  0.00    -0.354 N 
ATOM     30  N   UNL A   1      39.084  32.520  33.886  1.00  0.00    -0.248 NA
ATOM     31  C   UNL A   1      37.447  34.182  33.726  1.00  0.00     0.031 C 
ATOM     32  C   UNL A   1      41.872  32.070  37.308  1.00  0.00     0.029 A 
ATOM     33  C   UNL A   1      40.986  32.230  36.257  1.00  0.00     0.049 A 
ATOM     34  H   UNL A   1      40.772  31.066  34.510  1.00  0.00     0.167 HD
ATOM     35  C   UNL A   1      39.147  33.332  35.011  1.00  0.00     0.074 A 
ATOM     36  C   UNL A   1      38.135  34.356  34.845  1.00  0.00     0.031 C 
ATOM     37  C   UNL A   1      39.970  33.238  36.085  1.00  0.00     0.031 A 
BRANCH  24  38
ATOM     38  C   UNL A   1      43.883  28.455  35.850  1.00  0.00    -0.014 A 
ATOM     39  C   UNL A   1      43.565  27.376  36.696  1.00  0.00     0.010 A 
ATOM     40  C   UNL A   1      45.236  28.769  35.622  1.00  0.00     0.010 A 
ATOM     41  C   UNL A   1      44.580  26.658  37.337  1.00  0.00     0.020 A 
ATOM     42  C   UNL A   1      46.253  28.037  36.241  1.00  0.00     0.020 A 
ATOM     43  C   UNL A   1      45.917  26.998  37.112  1.00  0.00     0.054 A 
BRANCH  43  44
ATOM     44  S   UNL A   1      47.213  26.051  37.957  1.00  0.00     0.124 S 
ATOM     45  O   UNL A   1      47.204  24.797  37.207  1.00  0.00    -0.237 OA
ATOM     46  O   UNL A   1      48.397  26.886  37.768  1.00  0.00    -0.237 OA
ATOM     47  O   UNL A   1      46.734  25.957  39.334  1.00  0.00    -0.744 OA
ENDBRANCH  43  44
ENDBRANCH  24  38
BRANCH  25  48
ATOM     48  C   UNL A   1      36.551  33.279  31.086  1.00  0.00    -0.014 A 
ATOM     49  C   UNL A   1      36.813  33.910  29.858  1.00  0.00     0.010 A 
ATOM     50  C   UNL A   1      35.249  33.323  31.617  1.00  0.00     0.010 A 
ATOM     51  C   UNL A   1      35.792  34.580  29.177  1.00  0.00     0.020 A 
ATOM     52  C   UNL A   1      34.221  33.969  30.925  1.00  0.00     0.020 A 
ATOM     53  C   UNL A   1      34.502  34.601  29.714  1.00  0.00     0.054 A 
BRANCH  53  54
ATOM     54  S   UNL A   1      33.179  35.422  28.782  1.00  0.00     0.124 S 
ATOM     55  O   UNL A   1      33.931  36.345  27.938  1.00  0.00    -0.237 OA
ATOM     56  O   UNL A   1      32.540  34.307  28.089  1.00  0.00    -0.237 OA
ATOM     57  O   UNL A   1      32.365  36.045  29.824  1.00  0.00    -0.744 OA
ENDBRANCH  53  54
ENDBRANCH  25  48
BRANCH  37  58
ATOM     58  C   UNL A   1      39.827  34.289  37.152  1.00  0.00    -0.014 A 
ATOM     59  C   UNL A   1      38.978  34.097  38.257  1.00  0.00     0.010 A 
ATOM     60  C   UNL A   1      40.575  35.477  37.060  1.00  0.00     0.010 A 
ATOM     61  C   UNL A   1      38.850  35.092  39.230  1.00  0.00     0.020 A 
ATOM     62  C   UNL A   1      40.470  36.463  38.044  1.00  0.00     0.020 A 
ATOM     63  C   UNL A   1      39.594  36.271  39.115  1.00  0.00     0.054 A 
BRANCH  63  64
ATOM     64  S   UNL A   1      39.432  37.538  40.402  1.00  0.00     0.124 S 
ATOM     65  O   UNL A   1      39.361  36.730  41.617  1.00  0.00    -0.237 OA
ATOM     66  O   UNL A   1      40.655  38.322  40.240  1.00  0.00    -0.237 OA
ATOM     67  O   UNL A   1      38.201  38.238  40.046  1.00  0.00    -0.744 OA
ENDBRANCH  63  64
ENDBRANCH  37  58
ENDBRANCH  11  12
ENDBRANCH   4   6
ENDBRANCH   1   2
BRANCH   1  68
ATOM     68  C   UNL A   1      40.370  21.673  27.256  1.00  0.00     0.042 C 
BRANCH  68  69
ATOM     69  C   UNL A   1      39.913  21.393  25.827  1.00  0.00     0.117 C 
BRANCH  69  70
ATOM     70  N   UNL A   1      38.553  20.897  25.731  1.00  0.00    -0.356 N 
ATOM     71  C   UNL A   1      37.431  21.485  25.231  1.00  0.00     0.223 C 
ATOM     72  H   UNL A   1      38.419  19.989  26.084  1.00  0.00     0.163 HD
ATOM     73  O   UNL A   1      36.388  20.832  25.249  1.00  0.00    -0.275 OA
BRANCH  71  74
ATOM     74  C   UNL A   1      37.506  22.895  24.662  1.00  0.00     0.082 C 
ATOM     75  C   UNL A   1      37.100  23.928  25.723  1.00  0.00     0.035 C 
ATOM     76  C   UNL A   1      36.673  23.018  23.372  1.00  0.00     0.035 C 
ATOM     77  C   UNL A   1      35.591  24.027  25.902  1.00  0.00     0.120 C 
ATOM     78  C   UNL A   1      35.164  23.201  23.614  1.00  0.00     0.120 C 
ATOM     79  N   UNL A   1      34.986  24.245  24.599  1.00  0.00    -0.341 N 
BRANCH  79  80
ATOM     80  C   UNL A   1      33.949  25.140  24.553  1.00  0.00     0.226 A 
ATOM     81  N   UNL A   1      34.082  26.238  25.307  1.00  0.00    -0.213 NA
ATOM     82  N   UNL A   1      32.867  24.912  23.799  1.00  0.00    -0.212 NA
ATOM     83  C   UNL A   1      33.084  27.130  25.348  1.00  0.00     0.076 A 
ATOM     84  C   UNL A   1      31.842  25.801  23.874  1.00  0.00     0.112 A 
ATOM     85  C   UNL A   1      31.911  26.940  24.657  1.00  0.00     0.059 A 
BRANCH  83  86
ATOM     86  C   UNL A   1      33.361  28.312  26.170  1.00  0.00     0.001 A 
ATOM     87  C   UNL A   1      34.593  28.489  26.821  1.00  0.00     0.013 A 
ATOM     88  C   UNL A   1      32.396  29.334  26.278  1.00  0.00     0.013 A 
ATOM     89  C   UNL A   1      34.847  29.648  27.561  1.00  0.00     0.040 A 
ATOM     90  C   UNL A   1      32.645  30.486  27.025  1.00  0.00     0.040 A 
ATOM     91  C   UNL A   1      33.870  30.632  27.659  1.00  0.00     0.123 A 
ATOM     92  F   UNL A   1      34.118  31.740  28.369  1.00  0.00    -0.207 F 
ENDBRANCH  83  86
BRANCH  84  93
ATOM     93  C   UNL A   1      30.572  25.505  23.105  1.00  0.00     0.391 C 
ATOM     94  F   UNL A   1      30.071  24.257  23.331  1.00  0.00    -0.203 F 
ATOM     95  F   UNL A   1      29.560  26.378  23.378  1.00  0.00    -0.203 F 
ENDBRANCH  84  93
ENDBRANCH  79  80
ENDBRANCH  71  74
ENDBRANCH  69  70
ENDBRANCH  68  69
ENDBRANCH   1  68
TORSDOF 16
ENDMDL
MODEL 2
REMARK VINA RESULT:     -11.9      0.529      7.980
REMARK SMILES O=C(NCCCNC(=O)C1CCN(c2nc(-c3ccc(F)cc3)cc(C(F)F)n2)CC1)c1ccc(-c2c3nc(c(-c4ccc(S(=O)(=O)[O-])cc4)c4ccc([nH]4)c(-c4ccc(S(=O)(=O)[O-])cc4)c4nc(c(-c5ccc(S(=O)(=O)[O-])cc5)c5ccc2[nH]5)C=C4)C=C3)cc1
REMARK SMILES IDX 4 1 3 2 1 3 2 4 32 6 33 7 91 8 34 9 90 10 35 11 36 12 37 13
REMARK SMILES IDX 84 14 38 15 89 16 83 17 85 18 39 19 88 20 82 21 81 22 40 24
REMARK SMILES IDX 70 25 51 26 69 27 52 28 55 29 68 30 86 31 53 32 54 33 67 35
REMARK SMILES IDX 87 36 56 37 41 38 42 39 50 40 43 41 49 42 44 43 45 44 46 45
REMARK SMILES IDX 47 46 48 47 71 48 72 49 80 50 73 51 79 52 74 53 75 54 76 55
REMARK SMILES IDX 77 56 78 57 57 58 58 59 66 60 59 61 65 62 60 63 61 64 62 65
REMARK SMILES IDX 63 66 64 67 5 68 6 69 7 70 8 71 9 73 10 74 11 75 31 76 12 77
REMARK SMILES IDX 30 78 13 79 14 80 15 81 29 82 16 83 25 84 24 85 17 86 18 87
REMARK SMILES IDX 23 88 19 89 22 90 20 91 21 92 26 93 27 94 28 95
REMARK H PARENT 3 5 85 23 55 34 7 72
REMARK Flexibility Score: inf
ROOT
ATOM      1  C   UNL A   1      40.546  23.071  27.564  1.00  0.00     0.118 C 
ENDROOT
BRANCH   1   2
ATOM      2  N   UNL A   1      40.733  23.949  26.418  1.00  0.00    -0.352 N 
ATOM      3  O   UNL A   1      40.873  25.823  25.197  1.00  0.00    -0.269 OA
ATOM      4  C   UNL A   1      40.809  25.319  26.313  1.00  0.00     0.251 C 
ATOM      5  H   UNL A   1      40.821  23.476  25.559  1.00  0.00     0.163 HD
BRANCH   4   6
ATOM      6  C   UNL A   1      40.774  26.192  27.511  1.00  0.00     0.039 A 
ATOM      7  C   UNL A   1      39.773  26.082  28.475  1.00  0.00     0.014 A 
ATOM      8  C   UNL A   1      41.806  27.121  27.694  1.00  0.00     0.014 A 
ATOM      9  C   UNL A   1      39.705  27.006  29.517  1.00  0.00     0.010 A 
ATOM     10  C   UNL A   1      41.786  27.989  28.791  1.00  0.00     0.010 A 
ATOM     11  C   UNL A   1      40.709  27.973  29.688  1.00  0.00    -0.014 A 
BRANCH  11  12
ATOM     12  C   UNL A   1      40.619  28.930  30.824  1.00  0.00     0.031 A 
ATOM     13  C   UNL A   1      39.561  30.003  30.856  1.00  0.00     0.074 A 
ATOM     14  C   UNL A   1      41.472  28.802  31.859  1.00  0.00     0.049 A 
ATOM     15  N   UNL A   1      39.294  30.867  31.803  1.00  0.00    -0.248 NA
ATOM     16  C   UNL A   1      38.695  30.130  29.673  1.00  0.00     0.031 C 
ATOM     17  C   UNL A   1      42.549  27.812  31.948  1.00  0.00     0.029 A 
ATOM     18  N   UNL A   1      41.553  29.484  33.048  1.00  0.00    -0.354 N 
ATOM     19  C   UNL A   1      38.249  31.651  31.325  1.00  0.00     0.074 A 
ATOM     20  C   UNL A   1      37.947  31.177  29.992  1.00  0.00     0.031 C 
ATOM     21  C   UNL A   1      43.137  27.907  33.149  1.00  0.00     0.029 A 
ATOM     22  C   UNL A   1      42.522  29.000  33.894  1.00  0.00     0.049 A 
ATOM     23  H   UNL A   1      40.973  30.247  33.273  1.00  0.00     0.167 HD
ATOM     24  C   UNL A   1      37.596  32.669  31.939  1.00  0.00     0.031 A 
ATOM     25  C   UNL A   1      42.883  29.389  35.132  1.00  0.00     0.031 A 
ATOM     26  C   UNL A   1      37.892  33.138  33.269  1.00  0.00     0.049 A 
ATOM     27  C   UNL A   1      42.156  30.529  35.783  1.00  0.00     0.074 A 
ATOM     28  C   UNL A   1      37.259  34.134  33.992  1.00  0.00     0.029 A 
ATOM     29  N   UNL A   1      38.912  32.650  34.073  1.00  0.00    -0.354 N 
ATOM     30  N   UNL A   1      41.142  31.227  35.329  1.00  0.00    -0.248 NA
ATOM     31  C   UNL A   1      42.621  30.934  37.117  1.00  0.00     0.031 C 
ATOM     32  C   UNL A   1      37.927  34.283  35.212  1.00  0.00     0.029 A 
ATOM     33  C   UNL A   1      38.942  33.344  35.272  1.00  0.00     0.049 A 
ATOM     34  H   UNL A   1      39.525  31.920  33.827  1.00  0.00     0.167 HD
ATOM     35  C   UNL A   1      40.835  32.140  36.330  1.00  0.00     0.074 A 
ATOM     36  C   UNL A   1      41.759  31.895  37.419  1.00  0.00     0.031 C 
ATOM     37  C   UNL A   1      39.873  33.096  36.345  1.00  0.00     0.031 A 
BRANCH  24  38
ATOM     38  C   UNL A   1      36.509  33.368  31.164  1.00  0.00    -0.014 A 
ATOM     39  C   UNL A   1      36.759  33.937  29.901  1.00  0.00     0.010 A 
ATOM     40  C   UNL A   1      35.206  33.428  31.693  1.00  0.00     0.010 A 
ATOM     41  C   UNL A   1      35.739  34.593  29.206  1.00  0.00     0.020 A 
ATOM     42  C   UNL A   1      34.177  34.060  30.989  1.00  0.00     0.020 A 
ATOM     43  C   UNL A   1      34.456  34.657  29.758  1.00  0.00     0.054 A 
BRANCH  43  44
ATOM     44  S   UNL A   1      33.150  35.515  28.835  1.00  0.00     0.124 S 
ATOM     45  O   UNL A   1      33.922  36.466  28.037  1.00  0.00    -0.237 OA
ATOM     46  O   UNL A   1      32.523  34.431  28.083  1.00  0.00    -0.237 OA
ATOM     47  O   UNL A   1      32.319  36.108  29.879  1.00  0.00    -0.744 OA
ENDBRANCH  43  44
ENDBRANCH  24  38
BRANCH  25  48
ATOM     48  C   UNL A   1      43.983  28.678  35.838  1.00  0.00    -0.014 A 
ATOM     49  C   UNL A   1      45.311  29.123  35.721  1.00  0.00     0.010 A 
ATOM     50  C   UNL A   1      43.701  27.567  36.653  1.00  0.00     0.010 A 
ATOM     51  C   UNL A   1      46.339  28.463  36.401  1.00  0.00     0.020 A 
ATOM     52  C   UNL A   1      44.723  26.923  37.356  1.00  0.00     0.020 A 
ATOM     53  C   UNL A   1      46.037  27.370  37.217  1.00  0.00     0.054 A 
BRANCH  53  54
ATOM     54  S   UNL A   1      47.378  26.569  38.140  1.00  0.00     0.124 S 
ATOM     55  O   UNL A   1      46.713  25.383  38.672  1.00  0.00    -0.237 OA
ATOM     56  O   UNL A   1      48.376  26.324  37.103  1.00  0.00    -0.237 OA
ATOM     57  O   UNL A   1      47.755  27.574  39.132  1.00  0.00    -0.744 OA
ENDBRANCH  53  54
ENDBRANCH  25  48
BRANCH  37  58
ATOM     58  C   UNL A   1      39.754  33.929  37.593  1.00  0.00    -0.014 A 
ATOM     59  C   UNL A   1      39.057  33.460  38.720  1.00  0.00     0.010 A 
ATOM     60  C   UNL A   1      40.374  35.191  37.645  1.00  0.00     0.010 A 
ATOM     61  C   UNL A   1      38.948  34.255  39.864  1.00  0.00     0.020 A 
ATOM     62  C   UNL A   1      40.290  35.978  38.796  1.00  0.00     0.020 A 
ATOM     63  C   UNL A   1      39.562  35.512  39.893  1.00  0.00     0.054 A 
BRANCH  63  64
ATOM     64  S   UNL A   1      39.429  36.517  41.397  1.00  0.00     0.124 S 
ATOM     65  O   UNL A   1      39.046  37.820  40.859  1.00  0.00    -0.237 OA
ATOM     66  O   UNL A   1      38.393  35.823  42.159  1.00  0.00    -0.237 OA
ATOM     67  O   UNL A   1      40.768  36.451  41.976  1.00  0.00    -0.744 OA
ENDBRANCH  63  64
ENDBRANCH  37  58
ENDBRANCH  11  12
ENDBRANCH   4   6
ENDBRANCH   1   2
BRANCH   1  68
ATOM     68  C   UNL A   1      40.344  21.603  27.194  1.00  0.00     0.042 C 
BRANCH  68  69
ATOM     69  C   UNL A   1      39.906  21.339  25.755  1.00  0.00     0.117 C 
BRANCH  69  70
ATOM     70  N   UNL A   1      38.564  20.798  25.639  1.00  0.00    -0.356 N 
ATOM     71  C   UNL A   1      37.411  21.380  25.207  1.00  0.00     0.223 C 
ATOM     72  H   UNL A   1      38.472  19.859  25.918  1.00  0.00     0.163 HD
ATOM     73  O   UNL A   1      36.395  20.686  25.187  1.00  0.00    -0.275 OA
BRANCH  71  74
ATOM     74  C   UNL A   1      37.421  22.833  24.756  1.00  0.00     0.082 C 
ATOM     75  C   UNL A   1      37.010  23.759  25.910  1.00  0.00     0.035 C 
ATOM     76  C   UNL A   1      36.546  23.032  23.504  1.00  0.00     0.035 C 
ATOM     77  C   UNL A   1      35.504  23.788  26.136  1.00  0.00     0.120 C 
ATOM     78  C   UNL A   1      35.039  23.139  23.799  1.00  0.00     0.120 C 
ATOM     79  N   UNL A   1      34.854  24.090  24.873  1.00  0.00    -0.341 N 
BRANCH  79  80
ATOM     80  C   UNL A   1      33.787  24.947  24.929  1.00  0.00     0.226 A 
ATOM     81  N   UNL A   1      33.992  26.107  25.563  1.00  0.00    -0.213 NA
ATOM     82  N   UNL A   1      32.607  24.624  24.383  1.00  0.00    -0.212 NA
ATOM     83  C   UNL A   1      32.977  26.970  25.699  1.00  0.00     0.076 A 
ATOM     84  C   UNL A   1      31.570  25.486  24.558  1.00  0.00     0.112 A 
ATOM     85  C   UNL A   1      31.717  26.688  25.228  1.00  0.00     0.059 A 
BRANCH  83  86
ATOM     86  C   UNL A   1      33.332  28.224  26.369  1.00  0.00     0.001 A 
ATOM     87  C   UNL A   1      34.652  28.510  26.755  1.00  0.00     0.013 A 
ATOM     88  C   UNL A   1      32.343  29.203  26.596  1.00  0.00     0.013 A 
ATOM     89  C   UNL A   1      34.971  29.733  27.351  1.00  0.00     0.040 A 
ATOM     90  C   UNL A   1      32.659  30.421  27.200  1.00  0.00     0.040 A 
ATOM     91  C   UNL A   1      33.972  30.674  27.572  1.00  0.00     0.123 A 
ATOM     92  F   UNL A   1      34.281  31.845  28.144  1.00  0.00    -0.207 F 
ENDBRANCH  83  86
BRANCH  84  93
ATOM     93  C   UNL A   1      30.207  25.089  24.033  1.00  0.00     0.391 C 
ATOM     94  F   UNL A   1      29.462  26.140  23.585  1.00  0.00    -0.203 F 
ATOM     95  F   UNL A   1      30.265  24.196  23.003  1.00  0.00    -0.203 F 
ENDBRANCH  84  93
ENDBRANCH  79  80
ENDBRANCH  71  74
ENDBRANCH  69  70
ENDBRANCH  68  69
ENDBRANCH   1  68
TORSDOF 16
ENDMDL
MODEL 3
REMARK VINA RESULT:     -11.9      4.844     12.104
REMARK SMILES O=C(NCCCNC(=O)C1CCN(c2nc(-c3ccc(F)cc3)cc(C(F)F)n2)CC1)c1ccc(-c2c3nc(c(-c4ccc(S(=O)(=O)[O-])cc4)c4ccc([nH]4)c(-c4ccc(S(=O)(=O)[O-])cc4)c4nc(c(-c5ccc(S(=O)(=O)[O-])cc5)c5ccc2[nH]5)C=C4)C=C3)cc1
REMARK SMILES IDX 4 1 3 2 1 3 2 4 32 6 33 7 91 8 34 9 90 10 35 11 36 12 37 13
REMARK SMILES IDX 84 14 38 15 89 16 83 17 85 18 39 19 88 20 82 21 81 22 40 24
REMARK SMILES IDX 70 25 51 26 69 27 52 28 55 29 68 30 86 31 53 32 54 33 67 35
REMARK SMILES IDX 87 36 56 37 41 38 42 39 50 40 43 41 49 42 44 43 45 44 46 45
REMARK SMILES IDX 47 46 48 47 71 48 72 49 80 50 73 51 79 52 74 53 75 54 76 55
REMARK SMILES IDX 77 56 78 57 57 58 58 59 66 60 59 61 65 62 60 63 61 64 62 65
REMARK SMILES IDX 63 66 64 67 5 68 6 69 7 70 8 71 9 73 10 74 11 75 31 76 12 77
REMARK SMILES IDX 30 78 13 79 14 80 15 81 29 82 16 83 25 84 24 85 17 86 18 87
REMARK SMILES IDX 23 88 19 89 22 90 20 91 21 92 26 93 27 94 28 95
REMARK H PARENT 3 5 85 23 55 34 7 72
REMARK Flexibility Score: inf
ROOT
ATOM      1  C   UNL A   1      34.714  32.993  28.089  1.00  0.00     0.118 C 
ENDROOT
BRANCH   1   2
ATOM      2  N   UNL A   1      33.949  31.790  27.794  1.00  0.00    -0.352 N 
ATOM      3  O   UNL A   1      33.479  29.641  27.366  1.00  0.00    -0.269 OA
ATOM      4  C   UNL A   1      34.308  30.463  27.742  1.00  0.00     0.251 C 
ATOM      5  H   UNL A   1      32.999  31.957  27.595  1.00  0.00     0.163 HD
BRANCH   4   6
ATOM      6  C   UNL A   1      35.678  30.016  28.090  1.00  0.00     0.039 A 
ATOM      7  C   UNL A   1      35.987  29.493  29.345  1.00  0.00     0.014 A 
ATOM      8  C   UNL A   1      36.675  30.084  27.108  1.00  0.00     0.014 A 
ATOM      9  C   UNL A   1      37.311  29.207  29.673  1.00  0.00     0.010 A 
ATOM     10  C   UNL A   1      37.989  29.709  27.411  1.00  0.00     0.010 A 
ATOM     11  C   UNL A   1      38.330  29.313  28.711  1.00  0.00    -0.014 A 
BRANCH  11  12
ATOM     12  C   UNL A   1      39.731  28.977  29.087  1.00  0.00     0.031 A 
ATOM     13  C   UNL A   1      40.563  29.924  29.914  1.00  0.00     0.074 A 
ATOM     14  C   UNL A   1      40.243  27.787  28.717  1.00  0.00     0.049 A 
ATOM     15  N   UNL A   1      41.770  29.755  30.393  1.00  0.00    -0.248 NA
ATOM     16  C   UNL A   1      39.971  31.232  30.239  1.00  0.00     0.031 C 
ATOM     17  C   UNL A   1      39.546  26.784  27.907  1.00  0.00     0.029 A 
ATOM     18  N   UNL A   1      41.453  27.202  28.996  1.00  0.00    -0.354 N 
ATOM     19  C   UNL A   1      42.090  30.935  31.056  1.00  0.00     0.074 A 
ATOM     20  C   UNL A   1      40.960  31.824  30.895  1.00  0.00     0.031 C 
ATOM     21  C   UNL A   1      40.311  25.687  27.810  1.00  0.00     0.029 A 
ATOM     22  C   UNL A   1      41.575  25.927  28.499  1.00  0.00     0.049 A 
ATOM     23  H   UNL A   1      42.166  27.654  29.503  1.00  0.00     0.167 HD
ATOM     24  C   UNL A   1      43.217  31.250  31.741  1.00  0.00     0.031 A 
ATOM     25  C   UNL A   1      42.587  25.043  28.582  1.00  0.00     0.031 A 
ATOM     26  C   UNL A   1      44.341  30.364  31.906  1.00  0.00     0.049 A 
ATOM     27  C   UNL A   1      43.832  25.423  29.332  1.00  0.00     0.074 A 
ATOM     28  C   UNL A   1      45.509  30.577  32.617  1.00  0.00     0.029 A 
ATOM     29  N   UNL A   1      44.441  29.098  31.348  1.00  0.00    -0.354 N 
ATOM     30  N   UNL A   1      44.094  26.528  29.987  1.00  0.00    -0.248 NA
ATOM     31  C   UNL A   1      44.917  24.433  29.353  1.00  0.00     0.031 C 
ATOM     32  C   UNL A   1      46.337  29.462  32.447  1.00  0.00     0.029 A 
ATOM     33  C   UNL A   1      45.662  28.531  31.675  1.00  0.00     0.049 A 
ATOM     34  H   UNL A   1      43.748  28.667  30.798  1.00  0.00     0.167 HD
ATOM     35  C   UNL A   1      45.367  26.359  30.517  1.00  0.00     0.074 A 
ATOM     36  C   UNL A   1      45.814  25.039  30.119  1.00  0.00     0.031 C 
ATOM     37  C   UNL A   1      46.100  27.220  31.266  1.00  0.00     0.031 A 
BRANCH  24  38
ATOM     38  C   UNL A   1      43.305  32.630  32.341  1.00  0.00    -0.014 A 
ATOM     39  C   UNL A   1      42.881  32.885  33.659  1.00  0.00     0.010 A 
ATOM     40  C   UNL A   1      43.854  33.683  31.586  1.00  0.00     0.010 A 
ATOM     41  C   UNL A   1      42.959  34.176  34.190  1.00  0.00     0.020 A 
ATOM     42  C   UNL A   1      43.958  34.969  32.122  1.00  0.00     0.020 A 
ATOM     43  C   UNL A   1      43.490  35.212  33.415  1.00  0.00     0.054 A 
BRANCH  43  44
ATOM     44  S   UNL A   1      43.580  36.878  34.129  1.00  0.00     0.124 S 
ATOM     45  O   UNL A   1      42.450  36.868  35.056  1.00  0.00    -0.237 OA
ATOM     46  O   UNL A   1      44.901  36.890  34.752  1.00  0.00    -0.237 OA
ATOM     47  O   UNL A   1      43.430  37.759  32.974  1.00  0.00    -0.744 OA
ENDBRANCH  43  44
ENDBRANCH  24  38
BRANCH  25  48
ATOM     48  C   UNL A   1      42.454  23.705  27.945  1.00  0.00    -0.014 A 
ATOM     49  C   UNL A   1      43.005  23.461  26.675  1.00  0.00     0.010 A 
ATOM     50  C   UNL A   1      41.798  22.660  28.621  1.00  0.00     0.010 A 
ATOM     51  C   UNL A   1      42.893  22.197  26.088  1.00  0.00     0.020 A 
ATOM     52  C   UNL A   1      41.709  21.388  28.049  1.00  0.00     0.020 A 
ATOM     53  C   UNL A   1      42.249  21.168  26.781  1.00  0.00     0.054 A 
BRANCH  53  54
ATOM     54  S   UNL A   1      42.173  19.519  26.028  1.00  0.00     0.124 S 
ATOM     55  O   UNL A   1      40.752  19.392  25.722  1.00  0.00    -0.237 OA
ATOM     56  O   UNL A   1      43.060  19.655  24.876  1.00  0.00    -0.237 OA
ATOM     57  O   UNL A   1      42.668  18.639  27.085  1.00  0.00    -0.744 OA
ENDBRANCH  53  54
ENDBRANCH  25  48
BRANCH  37  58
ATOM     58  C   UNL A   1      47.452  26.747  31.728  1.00  0.00    -0.014 A 
ATOM     59  C   UNL A   1      47.607  26.057  32.943  1.00  0.00     0.010 A 
ATOM     60  C   UNL A   1      48.579  26.975  30.918  1.00  0.00     0.010 A 
ATOM     61  C   UNL A   1      48.874  25.638  33.359  1.00  0.00     0.020 A 
ATOM     62  C   UNL A   1      49.843  26.535  31.318  1.00  0.00     0.020 A 
ATOM     63  C   UNL A   1      49.985  25.884  32.546  1.00  0.00     0.054 A 
BRANCH  63  64
ATOM     64  S   UNL A   1      51.616  25.309  33.094  1.00  0.00     0.124 S 
ATOM     65  O   UNL A   1      51.934  26.263  34.153  1.00  0.00    -0.237 OA
ATOM     66  O   UNL A   1      51.345  23.944  33.539  1.00  0.00    -0.237 OA
ATOM     67  O   UNL A   1      52.440  25.413  31.893  1.00  0.00    -0.744 OA
ENDBRANCH  63  64
ENDBRANCH  37  58
ENDBRANCH  11  12
ENDBRANCH   4   6
ENDBRANCH   1   2
BRANCH   1  68
ATOM     68  C   UNL A   1      33.860  34.252  28.230  1.00  0.00     0.042 C 
BRANCH  68  69
ATOM     69  C   UNL A   1      33.925  34.945  29.589  1.00  0.00     0.117 C 
BRANCH  69  70
ATOM     70  N   UNL A   1      33.669  34.062  30.712  1.00  0.00    -0.356 N 
ATOM     71  C   UNL A   1      34.529  33.478  31.591  1.00  0.00     0.223 C 
ATOM     72  H   UNL A   1      32.720  33.850  30.862  1.00  0.00     0.163 HD
ATOM     73  O   UNL A   1      34.048  32.777  32.480  1.00  0.00    -0.275 OA
BRANCH  71  74
ATOM     74  C   UNL A   1      36.026  33.721  31.458  1.00  0.00     0.082 C 
ATOM     75  C   UNL A   1      36.798  32.397  31.550  1.00  0.00     0.035 C 
ATOM     76  C   UNL A   1      36.513  34.758  32.488  1.00  0.00     0.035 C 
ATOM     77  C   UNL A   1      36.956  31.904  32.982  1.00  0.00     0.120 C 
ATOM     78  C   UNL A   1      36.737  34.187  33.899  1.00  0.00     0.120 C 
ATOM     79  N   UNL A   1      37.522  32.978  33.780  1.00  0.00    -0.341 N 
BRANCH  79  80
ATOM     80  C   UNL A   1      38.471  32.616  34.699  1.00  0.00     0.226 A 
ATOM     81  N   UNL A   1      39.240  31.570  34.374  1.00  0.00    -0.213 NA
ATOM     82  N   UNL A   1      38.603  33.274  35.857  1.00  0.00    -0.212 NA
ATOM     83  C   UNL A   1      40.154  31.131  35.249  1.00  0.00     0.076 A 
ATOM     84  C   UNL A   1      39.505  32.800  36.757  1.00  0.00     0.112 A 
ATOM     85  C   UNL A   1      40.310  31.707  36.488  1.00  0.00     0.059 A 
BRANCH  83  86
ATOM     86  C   UNL A   1      40.968  30.011  34.766  1.00  0.00     0.001 A 
ATOM     87  C   UNL A   1      42.228  29.721  35.314  1.00  0.00     0.013 A 
ATOM     88  C   UNL A   1      40.465  29.162  33.760  1.00  0.00     0.013 A 
ATOM     89  C   UNL A   1      42.963  28.620  34.865  1.00  0.00     0.040 A 
ATOM     90  C   UNL A   1      41.203  28.068  33.304  1.00  0.00     0.040 A 
ATOM     91  C   UNL A   1      42.446  27.807  33.863  1.00  0.00     0.123 A 
ATOM     92  F   UNL A   1      43.154  26.754  33.436  1.00  0.00    -0.207 F 
ENDBRANCH  83  86
BRANCH  84  93
ATOM     93  C   UNL A   1      39.596  33.474  38.110  1.00  0.00     0.391 C 
ATOM     94  F   UNL A   1      38.884  34.634  38.196  1.00  0.00    -0.203 F 
ATOM     95  F   UNL A   1      39.163  32.685  39.135  1.00  0.00    -0.203 F 
ENDBRANCH  84  93
ENDBRANCH  79  80
ENDBRANCH  71  74
ENDBRANCH  69  70
ENDBRANCH  68  69
ENDBRANCH   1  68
TORSDOF 16
ENDMDL
