MODEL 1
REMARK VINA RESULT:      -8.7      0.000      0.000
REMARK SMILES CC(C)C(=O)Nc1ccc2c([C@H](C(=O)NCCCNC(=O)c3ccc(-c4c5nc(c(-c6ccc(S(=O)(=O)[O-])cc6)c6ccc([nH]6)c(-c6ccc(S(=O)(=O)[O-])cc6)c6nc(c(-c7ccc(S(=O)(=O)[O-])cc7)c7ccc4[nH]7)C=C6)C=C5)cc3)[NH+]3CC[NH+](CC(=O)N(C)C)CC3)c[nH]c2c1
REMARK SMILES IDX 17 1 16 2 15 3 13 4 14 5 12 7 11 8 7 9 8 10 97 11 9 12 96 13
REMARK SMILES IDX 10 14 95 15 94 16 6 18 4 19 5 20 2 22 1 23 3 24 82 25 83 26
REMARK SMILES IDX 93 27 84 29 92 30 85 31 86 33 87 34 88 35 89 36 90 37 91 38
REMARK SMILES IDX 18 39 19 40 20 41 21 43 22 44 23 45 81 46 24 47 80 48 25 49
REMARK SMILES IDX 26 50 27 51 74 52 28 53 79 54 73 55 75 56 29 57 78 58 72 59
REMARK SMILES IDX 71 60 30 62 60 63 41 64 59 65 42 66 45 67 58 68 76 69 43 70
REMARK SMILES IDX 44 71 57 73 77 74 46 75 31 76 32 77 40 78 33 79 39 80 34 81
REMARK SMILES IDX 35 82 36 83 37 84 38 85 61 86 62 87 70 88 63 89 69 90 64 91
REMARK SMILES IDX 65 92 66 93 67 94 68 95 47 96 48 97 56 98 49 99 55 100
REMARK SMILES IDX 50 101 51 102 52 103 53 104 54 105
REMARK H PARENT 15 6 95 17 6 21 82 28 85 32 19 42 75 61 45 72
REMARK Flexibility Score: inf
ROOT
ATOM      1  C   UNL A   1      46.339  38.529  31.550  1.00  0.00     0.042 C 
ENDROOT
BRANCH   1   2
ATOM      2  C   UNL A   1      46.181  39.638  30.518  1.00  0.00     0.118 C 
BRANCH   2   3
ATOM      3  N   UNL A   1      44.791  40.020  30.322  1.00  0.00    -0.351 N 
ATOM      4  C   UNL A   1      43.812  39.459  29.547  1.00  0.00     0.283 C 
ATOM      5  O   UNL A   1      42.673  39.921  29.674  1.00  0.00    -0.268 OA
ATOM      6  H   UNL A   1      44.507  40.814  30.830  1.00  0.00     0.163 HD
BRANCH   4   7
ATOM      7  C   UNL A   1      44.163  38.315  28.577  1.00  0.00     0.308 C 
BRANCH   7   8
ATOM      8  C   UNL A   1      43.180  37.171  28.626  1.00  0.00     0.044 A 
ATOM      9  C   UNL A   1      42.373  34.252  31.513  1.00  0.00     0.043 A 
ATOM     10  C   UNL A   1      43.610  34.873  31.626  1.00  0.00     0.027 A 
ATOM     11  C   UNL A   1      41.593  34.415  30.363  1.00  0.00     0.052 A 
ATOM     12  C   UNL A   1      44.007  35.841  30.707  1.00  0.00     0.013 A 
ATOM     13  C   UNL A   1      41.999  35.400  29.453  1.00  0.00     0.048 A 
ATOM     14  C   UNL A   1      43.156  36.155  29.634  1.00  0.00     0.009 A 
ATOM     15  N   UNL A   1      41.404  35.854  28.301  1.00  0.00    -0.361 N 
ATOM     16  C   UNL A   1      42.089  36.932  27.809  1.00  0.00     0.094 A 
ATOM     17  H   UNL A   1      40.601  35.461  27.889  1.00  0.00     0.166 HD
BRANCH   9  18
ATOM     18  N   UNL A   1      41.877  33.442  32.536  1.00  0.00    -0.326 N 
ATOM     19  C   UNL A   1      41.399  33.781  33.770  1.00  0.00     0.226 C 
ATOM     20  O   UNL A   1      41.178  32.854  34.561  1.00  0.00    -0.274 OA
ATOM     21  H   UNL A   1      41.870  32.478  32.337  1.00  0.00     0.169 HD
BRANCH  19  22
ATOM     22  C   UNL A   1      41.012  35.217  34.168  1.00  0.00     0.072 C 
ATOM     23  C   UNL A   1      39.689  35.366  34.906  1.00  0.00     0.018 C 
ATOM     24  C   UNL A   1      42.143  36.004  34.830  1.00  0.00     0.018 C 
ENDBRANCH  19  22
ENDBRANCH   9  18
ENDBRANCH   7   8
BRANCH   7  25
ATOM     25  N   UNL A   1      44.449  38.765  27.204  1.00  0.00    -0.312 N 
ATOM     26  C   UNL A   1      43.618  39.834  26.643  1.00  0.00     0.325 C 
ATOM     27  C   UNL A   1      45.877  38.938  26.931  1.00  0.00     0.325 C 
ATOM     28  H   UNL A   1      44.131  37.960  26.664  1.00  0.00     0.349 HD
ATOM     29  C   UNL A   1      44.195  41.267  26.664  1.00  0.00     0.325 C 
ATOM     30  C   UNL A   1      46.422  40.382  26.995  1.00  0.00     0.325 C 
ATOM     31  N   UNL A   1      45.619  41.407  26.330  1.00  0.00    -0.318 N 
ATOM     32  H   UNL A   1      45.931  42.293  26.727  1.00  0.00     0.348 HD
BRANCH  31  33
ATOM     33  C   UNL A   1      45.903  41.631  24.902  1.00  0.00     0.364 C 
BRANCH  33  34
ATOM     34  C   UNL A   1      44.953  42.602  24.193  1.00  0.00     0.277 C 
ATOM     35  O   UNL A   1      44.071  42.153  23.451  1.00  0.00    -0.268 OA
ATOM     36  N   UNL A   1      45.121  43.971  24.359  1.00  0.00    -0.344 N 
ATOM     37  C   UNL A   1      45.895  44.625  25.404  1.00  0.00     0.146 C 
ATOM     38  C   UNL A   1      44.427  44.850  23.432  1.00  0.00     0.146 C 
ENDBRANCH  33  34
ENDBRANCH  31  33
ENDBRANCH   7  25
ENDBRANCH   4   7
ENDBRANCH   2   3
ENDBRANCH   1   2
BRANCH   1  39
ATOM     39  C   UNL A   1      47.119  37.318  31.049  1.00  0.00     0.118 C 
BRANCH  39  40
ATOM     40  N   UNL A   1      47.902  37.610  29.855  1.00  0.00    -0.352 N 
ATOM     41  C   UNL A   1      48.262  36.795  28.812  1.00  0.00     0.251 C 
ATOM     42  H   UNL A   1      48.221  38.538  29.786  1.00  0.00     0.163 HD
ATOM     43  O   UNL A   1      49.094  37.183  28.001  1.00  0.00    -0.269 OA
BRANCH  41  44
ATOM     44  C   UNL A   1      47.664  35.451  28.685  1.00  0.00     0.039 A 
ATOM     45  C   UNL A   1      46.825  35.187  27.600  1.00  0.00     0.014 A 
ATOM     46  C   UNL A   1      47.925  34.458  29.632  1.00  0.00     0.014 A 
ATOM     47  C   UNL A   1      46.304  33.904  27.430  1.00  0.00     0.010 A 
ATOM     48  C   UNL A   1      47.479  33.160  29.413  1.00  0.00     0.010 A 
ATOM     49  C   UNL A   1      46.660  32.870  28.312  1.00  0.00    -0.014 A 
BRANCH  49  50
ATOM     50  C   UNL A   1      46.185  31.479  28.100  1.00  0.00     0.031 A 
ATOM     51  C   UNL A   1      44.784  31.090  28.488  1.00  0.00     0.074 A 
ATOM     52  C   UNL A   1      47.036  30.553  27.616  1.00  0.00     0.049 A 
ATOM     53  N   UNL A   1      44.211  29.915  28.435  1.00  0.00    -0.248 NA
ATOM     54  C   UNL A   1      43.921  32.154  29.030  1.00  0.00     0.031 C 
ATOM     55  C   UNL A   1      48.433  30.797  27.244  1.00  0.00     0.029 A 
ATOM     56  N   UNL A   1      46.854  29.218  27.358  1.00  0.00    -0.354 N 
ATOM     57  C   UNL A   1      42.930  30.096  28.943  1.00  0.00     0.074 A 
ATOM     58  C   UNL A   1      42.830  31.478  29.356  1.00  0.00     0.031 C 
ATOM     59  C   UNL A   1      48.971  29.657  26.782  1.00  0.00     0.029 A 
ATOM     60  C   UNL A   1      47.977  28.592  26.867  1.00  0.00     0.049 A 
ATOM     61  H   UNL A   1      46.001  28.751  27.510  1.00  0.00     0.167 HD
ATOM     62  C   UNL A   1      41.919  29.199  29.034  1.00  0.00     0.031 A 
ATOM     63  C   UNL A   1      48.188  27.303  26.534  1.00  0.00     0.031 A 
ATOM     64  C   UNL A   1      42.023  27.826  28.619  1.00  0.00     0.049 A 
ATOM     65  C   UNL A   1      47.057  26.321  26.665  1.00  0.00     0.074 A 
ATOM     66  C   UNL A   1      41.044  26.847  28.632  1.00  0.00     0.029 A 
ATOM     67  N   UNL A   1      43.174  27.233  28.120  1.00  0.00    -0.354 N 
ATOM     68  N   UNL A   1      45.833  26.526  27.091  1.00  0.00    -0.248 NA
ATOM     69  C   UNL A   1      47.331  24.935  26.259  1.00  0.00     0.031 C 
ATOM     70  C   UNL A   1      41.619  25.650  28.196  1.00  0.00     0.029 A 
ATOM     71  C   UNL A   1      42.937  25.898  27.844  1.00  0.00     0.049 A 
ATOM     72  H   UNL A   1      44.033  27.696  27.983  1.00  0.00     0.167 HD
ATOM     73  C   UNL A   1      45.183  25.302  26.976  1.00  0.00     0.074 A 
ATOM     74  C   UNL A   1      46.143  24.368  26.426  1.00  0.00     0.031 C 
ATOM     75  C   UNL A   1      43.905  24.980  27.298  1.00  0.00     0.031 A 
BRANCH  62  76
ATOM     76  C   UNL A   1      40.610  29.682  29.606  1.00  0.00    -0.014 A 
ATOM     77  C   UNL A   1      40.371  29.654  30.993  1.00  0.00     0.010 A 
ATOM     78  C   UNL A   1      39.622  30.207  28.754  1.00  0.00     0.010 A 
ATOM     79  C   UNL A   1      39.153  30.102  31.511  1.00  0.00     0.020 A 
ATOM     80  C   UNL A   1      38.415  30.687  29.271  1.00  0.00     0.020 A 
ATOM     81  C   UNL A   1      38.182  30.614  30.645  1.00  0.00     0.054 A 
BRANCH  81  82
ATOM     82  S   UNL A   1      36.621  31.211  31.351  1.00  0.00     0.124 S 
ATOM     83  O   UNL A   1      35.745  31.213  30.183  1.00  0.00    -0.237 OA
ATOM     84  O   UNL A   1      36.320  30.200  32.360  1.00  0.00    -0.237 OA
ATOM     85  O   UNL A   1      36.961  32.532  31.876  1.00  0.00    -0.744 OA
ENDBRANCH  81  82
ENDBRANCH  62  76
BRANCH  63  86
ATOM     86  C   UNL A   1      49.526  26.873  26.042  1.00  0.00    -0.014 A 
ATOM     87  C   UNL A   1      49.912  27.104  24.710  1.00  0.00     0.010 A 
ATOM     88  C   UNL A   1      50.430  26.237  26.914  1.00  0.00     0.010 A 
ATOM     89  C   UNL A   1      51.166  26.688  24.253  1.00  0.00     0.020 A 
ATOM     90  C   UNL A   1      51.697  25.848  26.469  1.00  0.00     0.020 A 
ATOM     91  C   UNL A   1      52.052  26.065  25.137  1.00  0.00     0.054 A 
BRANCH  91  92
ATOM     92  S   UNL A   1      53.693  25.577  24.535  1.00  0.00     0.124 S 
ATOM     93  O   UNL A   1      53.663  26.051  23.156  1.00  0.00    -0.237 OA
ATOM     94  O   UNL A   1      54.586  26.301  25.437  1.00  0.00    -0.237 OA
ATOM     95  O   UNL A   1      53.697  24.124  24.700  1.00  0.00    -0.744 OA
ENDBRANCH  91  92
ENDBRANCH  63  86
BRANCH  75  96
ATOM     96  C   UNL A   1      43.456  23.567  27.028  1.00  0.00    -0.014 A 
ATOM     97  C   UNL A   1      43.334  22.627  28.066  1.00  0.00     0.010 A 
ATOM     98  C   UNL A   1      43.098  23.194  25.720  1.00  0.00     0.010 A 
ATOM     99  C   UNL A   1      42.893  21.329  27.793  1.00  0.00     0.020 A 
ATOM    100  C   UNL A   1      42.627  21.907  25.448  1.00  0.00     0.020 A 
ATOM    101  C   UNL A   1      42.542  20.978  26.487  1.00  0.00     0.054 A 
BRANCH 101 102
ATOM    102  S   UNL A   1      41.931  19.301  26.169  1.00  0.00     0.124 S 
ATOM    103  O   UNL A   1      42.240  18.622  27.425  1.00  0.00    -0.237 OA
ATOM    104  O   UNL A   1      40.511  19.521  25.906  1.00  0.00    -0.237 OA
ATOM    105  O   UNL A   1      42.711  18.858  25.016  1.00  0.00    -0.744 OA
ENDBRANCH 101 102
ENDBRANCH  75  96
ENDBRANCH  49  50
ENDBRANCH  41  44
ENDBRANCH  39  40
ENDBRANCH   1  39
TORSDOF 19
ENDMDL
MODEL 2
REMARK VINA RESULT:      -8.3      4.915     11.213
REMARK SMILES CC(C)C(=O)Nc1ccc2c([C@H](C(=O)NCCCNC(=O)c3ccc(-c4c5nc(c(-c6ccc(S(=O)(=O)[O-])cc6)c6ccc([nH]6)c(-c6ccc(S(=O)(=O)[O-])cc6)c6nc(c(-c7ccc(S(=O)(=O)[O-])cc7)c7ccc4[nH]7)C=C6)C=C5)cc3)[NH+]3CC[NH+](CC(=O)N(C)C)CC3)c[nH]c2c1
REMARK SMILES IDX 17 1 16 2 15 3 13 4 14 5 12 7 11 8 7 9 8 10 97 11 9 12 96 13
REMARK SMILES IDX 10 14 95 15 94 16 6 18 4 19 5 20 2 22 1 23 3 24 82 25 83 26
REMARK SMILES IDX 93 27 84 29 92 30 85 31 86 33 87 34 88 35 89 36 90 37 91 38
REMARK SMILES IDX 18 39 19 40 20 41 21 43 22 44 23 45 81 46 24 47 80 48 25 49
REMARK SMILES IDX 26 50 27 51 74 52 28 53 79 54 73 55 75 56 29 57 78 58 72 59
REMARK SMILES IDX 71 60 30 62 60 63 41 64 59 65 42 66 45 67 58 68 76 69 43 70
REMARK SMILES IDX 44 71 57 73 77 74 46 75 31 76 32 77 40 78 33 79 39 80 34 81
REMARK SMILES IDX 35 82 36 83 37 84 38 85 61 86 62 87 70 88 63 89 69 90 64 91
REMARK SMILES IDX 65 92 66 93 67 94 68 95 47 96 48 97 56 98 49 99 55 100
REMARK SMILES IDX 50 101 51 102 52 103 53 104 54 105
REMARK H PARENT 15 6 95 17 6 21 82 28 85 32 19 42 75 61 45 72
REMARK Flexibility Score: inf
ROOT
ATOM      1  C   UNL A   1      45.096  21.856  24.181  1.00  0.00     0.042 C 
ENDROOT
BRANCH   1   2
ATOM      2  C   UNL A   1      45.433  23.342  24.202  1.00  0.00     0.118 C 
BRANCH   2   3
ATOM      3  N   UNL A   1      45.853  23.797  25.519  1.00  0.00    -0.351 N 
ATOM      4  C   UNL A   1      45.973  25.060  26.032  1.00  0.00     0.283 C 
ATOM      5  O   UNL A   1      46.231  25.147  27.236  1.00  0.00    -0.268 OA
ATOM      6  H   UNL A   1      46.092  23.075  26.145  1.00  0.00     0.163 HD
BRANCH   4   7
ATOM      7  C   UNL A   1      45.791  26.282  25.110  1.00  0.00     0.308 C 
BRANCH   7   8
ATOM      8  C   UNL A   1      44.570  27.103  25.446  1.00  0.00     0.044 A 
ATOM      9  C   UNL A   1      43.912  30.219  28.160  1.00  0.00     0.043 A 
ATOM     10  C   UNL A   1      45.027  29.433  28.417  1.00  0.00     0.027 A 
ATOM     11  C   UNL A   1      42.953  29.817  27.222  1.00  0.00     0.052 A 
ATOM     12  C   UNL A   1      45.337  28.347  27.602  1.00  0.00     0.013 A 
ATOM     13  C   UNL A   1      43.283  28.729  26.403  1.00  0.00     0.048 A 
ATOM     14  C   UNL A   1      44.480  28.027  26.535  1.00  0.00     0.009 A 
ATOM     15  N   UNL A   1      42.607  28.167  25.346  1.00  0.00    -0.361 N 
ATOM     16  C   UNL A   1      43.379  27.208  24.750  1.00  0.00     0.094 A 
ATOM     17  H   UNL A   1      41.699  28.419  25.061  1.00  0.00     0.166 HD
BRANCH   9  18
ATOM     18  N   UNL A   1      43.708  31.425  28.833  1.00  0.00    -0.326 N 
ATOM     19  C   UNL A   1      44.254  32.657  28.611  1.00  0.00     0.226 C 
ATOM     20  O   UNL A   1      44.039  33.530  29.462  1.00  0.00    -0.274 OA
ATOM     21  H   UNL A   1      43.072  31.380  29.583  1.00  0.00     0.169 HD
BRANCH  19  22
ATOM     22  C   UNL A   1      45.002  33.036  27.319  1.00  0.00     0.072 C 
ATOM     23  C   UNL A   1      46.384  32.421  27.149  1.00  0.00     0.018 C 
ATOM     24  C   UNL A   1      44.152  32.924  26.054  1.00  0.00     0.018 C 
ENDBRANCH  19  22
ENDBRANCH   9  18
ENDBRANCH   7   8
BRANCH   7  25
ATOM     25  N   UNL A   1      47.006  27.100  24.958  1.00  0.00    -0.312 N 
ATOM     26  C   UNL A   1      48.303  26.418  25.001  1.00  0.00     0.325 C 
ATOM     27  C   UNL A   1      46.910  28.096  23.890  1.00  0.00     0.325 C 
ATOM     28  H   UNL A   1      47.016  27.602  25.845  1.00  0.00     0.349 HD
ATOM     29  C   UNL A   1      48.987  26.107  23.651  1.00  0.00     0.325 C 
ATOM     30  C   UNL A   1      47.577  27.733  22.545  1.00  0.00     0.325 C 
ATOM     31  N   UNL A   1      48.917  27.154  22.622  1.00  0.00    -0.318 N 
ATOM     32  H   UNL A   1      49.065  26.697  21.722  1.00  0.00     0.348 HD
BRANCH  31  33
ATOM     33  C   UNL A   1      50.038  28.109  22.632  1.00  0.00     0.364 C 
BRANCH  33  34
ATOM     34  C   UNL A   1      51.136  27.838  21.598  1.00  0.00     0.277 C 
ATOM     35  O   UNL A   1      51.590  26.693  21.481  1.00  0.00    -0.268 OA
ATOM     36  N   UNL A   1      51.634  28.888  20.835  1.00  0.00    -0.344 N 
ATOM     37  C   UNL A   1      51.012  30.190  20.647  1.00  0.00     0.146 C 
ATOM     38  C   UNL A   1      52.877  28.662  20.114  1.00  0.00     0.146 C 
ENDBRANCH  33  34
ENDBRANCH  31  33
ENDBRANCH   7  25
ENDBRANCH   4   7
ENDBRANCH   2   3
ENDBRANCH   1   2
BRANCH   1  39
ATOM     39  C   UNL A   1      44.527  21.328  25.493  1.00  0.00     0.118 C 
BRANCH  39  40
ATOM     40  N   UNL A   1      43.125  20.946  25.383  1.00  0.00    -0.352 N 
ATOM     41  C   UNL A   1      42.027  21.405  26.065  1.00  0.00     0.251 C 
ATOM     42  H   UNL A   1      42.936  20.250  24.713  1.00  0.00     0.163 HD
ATOM     43  O   UNL A   1      40.960  20.811  25.965  1.00  0.00    -0.269 OA
BRANCH  41  44
ATOM     44  C   UNL A   1      42.141  22.597  26.930  1.00  0.00     0.039 A 
ATOM     45  C   UNL A   1      42.113  22.429  28.316  1.00  0.00     0.014 A 
ATOM     46  C   UNL A   1      42.271  23.873  26.377  1.00  0.00     0.014 A 
ATOM     47  C   UNL A   1      42.285  23.536  29.147  1.00  0.00     0.010 A 
ATOM     48  C   UNL A   1      42.531  24.960  27.204  1.00  0.00     0.010 A 
ATOM     49  C   UNL A   1      42.537  24.805  28.597  1.00  0.00    -0.014 A 
BRANCH  49  50
ATOM     50  C   UNL A   1      42.807  25.980  29.463  1.00  0.00     0.031 A 
ATOM     51  C   UNL A   1      41.796  27.089  29.572  1.00  0.00     0.074 A 
ATOM     52  C   UNL A   1      43.990  26.076  30.103  1.00  0.00     0.049 A 
ATOM     53  N   UNL A   1      41.880  28.218  30.228  1.00  0.00    -0.248 NA
ATOM     54  C   UNL A   1      40.537  26.920  28.827  1.00  0.00     0.031 C 
ATOM     55  C   UNL A   1      45.070  25.086  30.042  1.00  0.00     0.029 A 
ATOM     56  N   UNL A   1      44.486  27.055  30.926  1.00  0.00    -0.354 N 
ATOM     57  C   UNL A   1      40.694  28.895  29.967  1.00  0.00     0.074 A 
ATOM     58  C   UNL A   1      39.935  28.080  29.046  1.00  0.00     0.031 C 
ATOM     59  C   UNL A   1      46.087  25.497  30.816  1.00  0.00     0.029 A 
ATOM     60  C   UNL A   1      45.755  26.796  31.390  1.00  0.00     0.049 A 
ATOM     61  H   UNL A   1      43.982  27.867  31.162  1.00  0.00     0.167 HD
ATOM     62  C   UNL A   1      40.264  30.077  30.470  1.00  0.00     0.031 A 
ATOM     63  C   UNL A   1      46.566  27.527  32.179  1.00  0.00     0.031 A 
ATOM     64  C   UNL A   1      41.022  30.883  31.388  1.00  0.00     0.049 A 
ATOM     65  C   UNL A   1      46.076  28.847  32.707  1.00  0.00     0.074 A 
ATOM     66  C   UNL A   1      40.658  32.076  31.988  1.00  0.00     0.029 A 
ATOM     67  N   UNL A   1      42.299  30.583  31.840  1.00  0.00    -0.354 N 
ATOM     68  N   UNL A   1      44.926  29.442  32.497  1.00  0.00    -0.248 NA
ATOM     69  C   UNL A   1      46.988  29.590  33.588  1.00  0.00     0.031 C 
ATOM     70  C   UNL A   1      41.737  32.526  32.755  1.00  0.00     0.029 A 
ATOM     71  C   UNL A   1      42.747  31.578  32.691  1.00  0.00     0.049 A 
ATOM     72  H   UNL A   1      42.811  29.779  31.591  1.00  0.00     0.167 HD
ATOM     73  C   UNL A   1      44.964  30.615  33.244  1.00  0.00     0.074 A 
ATOM     74  C   UNL A   1      46.243  30.636  33.923  1.00  0.00     0.031 C 
ATOM     75  C   UNL A   1      44.025  31.586  33.358  1.00  0.00     0.031 A 
BRANCH  62  76
ATOM     76  C   UNL A   1      38.907  30.567  30.032  1.00  0.00    -0.014 A 
ATOM     77  C   UNL A   1      38.778  31.669  29.167  1.00  0.00     0.010 A 
ATOM     78  C   UNL A   1      37.747  29.893  30.457  1.00  0.00     0.010 A 
ATOM     79  C   UNL A   1      37.514  32.115  28.770  1.00  0.00     0.020 A 
ATOM     80  C   UNL A   1      36.482  30.315  30.036  1.00  0.00     0.020 A 
ATOM     81  C   UNL A   1      36.374  31.435  29.209  1.00  0.00     0.054 A 
BRANCH  81  82
ATOM     82  S   UNL A   1      34.750  32.023  28.656  1.00  0.00     0.124 S 
ATOM     83  O   UNL A   1      34.148  30.797  28.137  1.00  0.00    -0.237 OA
ATOM     84  O   UNL A   1      34.160  32.539  29.888  1.00  0.00    -0.237 OA
ATOM     85  O   UNL A   1      35.071  33.032  27.650  1.00  0.00    -0.744 OA
ENDBRANCH  81  82
ENDBRANCH  62  76
BRANCH  63  86
ATOM     86  C   UNL A   1      47.926  27.022  32.518  1.00  0.00    -0.014 A 
ATOM     87  C   UNL A   1      48.127  26.190  33.633  1.00  0.00     0.010 A 
ATOM     88  C   UNL A   1      49.029  27.364  31.714  1.00  0.00     0.010 A 
ATOM     89  C   UNL A   1      49.409  25.728  33.951  1.00  0.00     0.020 A 
ATOM     90  C   UNL A   1      50.306  26.878  32.009  1.00  0.00     0.020 A 
ATOM     91  C   UNL A   1      50.490  26.073  33.134  1.00  0.00     0.054 A 
BRANCH  91  92
ATOM     92  S   UNL A   1      52.135  25.423  33.536  1.00  0.00     0.124 S 
ATOM     93  O   UNL A   1      52.002  24.016  33.172  1.00  0.00    -0.237 OA
ATOM     94  O   UNL A   1      53.007  26.221  32.678  1.00  0.00    -0.237 OA
ATOM     95  O   UNL A   1      52.265  25.691  34.967  1.00  0.00    -0.744 OA
ENDBRANCH  91  92
ENDBRANCH  63  86
BRANCH  75  96
ATOM     96  C   UNL A   1      44.327  32.740  34.279  1.00  0.00    -0.014 A 
ATOM     97  C   UNL A   1      44.010  32.687  35.647  1.00  0.00     0.010 A 
ATOM     98  C   UNL A   1      44.990  33.873  33.772  1.00  0.00     0.010 A 
ATOM     99  C   UNL A   1      44.321  33.762  36.485  1.00  0.00     0.020 A 
ATOM    100  C   UNL A   1      45.332  34.935  34.612  1.00  0.00     0.020 A 
ATOM    101  C   UNL A   1      44.981  34.878  35.962  1.00  0.00     0.054 A 
BRANCH 101 102
ATOM    102  S   UNL A   1      45.413  36.238  37.081  1.00  0.00     0.124 S 
ATOM    103  O   UNL A   1      44.802  37.385  36.414  1.00  0.00    -0.237 OA
ATOM    104  O   UNL A   1      44.785  35.832  38.336  1.00  0.00    -0.237 OA
ATOM    105  O   UNL A   1      46.874  36.230  37.090  1.00  0.00    -0.744 OA
ENDBRANCH 101 102
ENDBRANCH  75  96
ENDBRANCH  49  50
ENDBRANCH  41  44
ENDBRANCH  39  40
ENDBRANCH   1  39
TORSDOF 19
ENDMDL
MODEL 3
REMARK VINA RESULT:      -8.0      4.739     13.277
REMARK SMILES CC(C)C(=O)Nc1ccc2c([C@H](C(=O)NCCCNC(=O)c3ccc(-c4c5nc(c(-c6ccc(S(=O)(=O)[O-])cc6)c6ccc([nH]6)c(-c6ccc(S(=O)(=O)[O-])cc6)c6nc(c(-c7ccc(S(=O)(=O)[O-])cc7)c7ccc4[nH]7)C=C6)C=C5)cc3)[NH+]3CC[NH+](CC(=O)N(C)C)CC3)c[nH]c2c1
REMARK SMILES IDX 17 1 16 2 15 3 13 4 14 5 12 7 11 8 7 9 8 10 97 11 9 12 96 13
REMARK SMILES IDX 10 14 95 15 94 16 6 18 4 19 5 20 2 22 1 23 3 24 82 25 83 26
REMARK SMILES IDX 93 27 84 29 92 30 85 31 86 33 87 34 88 35 89 36 90 37 91 38
REMARK SMILES IDX 18 39 19 40 20 41 21 43 22 44 23 45 81 46 24 47 80 48 25 49
REMARK SMILES IDX 26 50 27 51 74 52 28 53 79 54 73 55 75 56 29 57 78 58 72 59
REMARK SMILES IDX 71 60 30 62 60 63 41 64 59 65 42 66 45 67 58 68 76 69 43 70
REMARK SMILES IDX 44 71 57 73 77 74 46 75 31 76 32 77 40 78 33 79 39 80 34 81
REMARK SMILES IDX 35 82 36 83 37 84 38 85 61 86 62 87 70 88 63 89 69 90 64 91
REMARK SMILES IDX 65 92 66 93 67 94 68 95 47 96 48 97 56 98 49 99 55 100
REMARK SMILES IDX 50 101 51 102 52 103 53 104 54 105
REMARK H PARENT 15 6 95 17 6 21 82 28 85 32 19 42 75 61 45 72
REMARK Flexibility Score: inf
ROOT
ATOM      1  C   UNL A   1      45.297  21.974  24.134  1.00  0.00     0.042 C 
ENDROOT
BRANCH   1   2
ATOM      2  C   UNL A   1      45.469  23.485  24.243  1.00  0.00     0.118 C 
BRANCH   2   3
ATOM      3  N   UNL A   1      45.955  23.894  25.552  1.00  0.00    -0.351 N 
ATOM      4  C   UNL A   1      46.127  25.140  26.091  1.00  0.00     0.283 C 
ATOM      5  O   UNL A   1      46.438  25.189  27.285  1.00  0.00    -0.268 OA
ATOM      6  H   UNL A   1      46.202  23.151  26.149  1.00  0.00     0.163 HD
BRANCH   4   7
ATOM      7  C   UNL A   1      45.938  26.390  25.209  1.00  0.00     0.308 C 
BRANCH   7   8
ATOM      8  C   UNL A   1      44.654  27.131  25.497  1.00  0.00     0.044 A 
ATOM      9  C   UNL A   1      43.636  30.035  28.332  1.00  0.00     0.043 A 
ATOM     10  C   UNL A   1      44.768  29.287  28.628  1.00  0.00     0.027 A 
ATOM     11  C   UNL A   1      42.773  29.649  27.300  1.00  0.00     0.052 A 
ATOM     12  C   UNL A   1      45.193  28.270  27.777  1.00  0.00     0.013 A 
ATOM     13  C   UNL A   1      43.218  28.632  26.445  1.00  0.00     0.048 A 
ATOM     14  C   UNL A   1      44.435  27.979  26.629  1.00  0.00     0.009 A 
ATOM     15  N   UNL A   1      42.653  28.107  25.308  1.00  0.00    -0.361 N 
ATOM     16  C   UNL A   1      43.515  27.224  24.718  1.00  0.00     0.094 A 
ATOM     17  H   UNL A   1      41.757  28.334  24.968  1.00  0.00     0.166 HD
BRANCH   9  18
ATOM     18  N   UNL A   1      43.321  31.185  29.057  1.00  0.00    -0.326 N 
ATOM     19  C   UNL A   1      43.927  32.410  29.068  1.00  0.00     0.226 C 
ATOM     20  O   UNL A   1      43.556  33.213  29.933  1.00  0.00    -0.274 OA
ATOM     21  H   UNL A   1      42.542  31.101  29.653  1.00  0.00     0.169 HD
BRANCH  19  22
ATOM     22  C   UNL A   1      44.934  32.870  27.998  1.00  0.00     0.072 C 
ATOM     23  C   UNL A   1      44.597  32.489  26.563  1.00  0.00     0.018 C 
ATOM     24  C   UNL A   1      45.357  34.332  28.131  1.00  0.00     0.018 C 
ENDBRANCH  19  22
ENDBRANCH   9  18
ENDBRANCH   7   8
BRANCH   7  25
ATOM     25  N   UNL A   1      47.113  27.276  25.170  1.00  0.00    -0.312 N 
ATOM     26  C   UNL A   1      48.321  26.848  25.882  1.00  0.00     0.325 C 
ATOM     27  C   UNL A   1      47.388  27.823  23.840  1.00  0.00     0.325 C 
ATOM     28  H   UNL A   1      46.797  28.047  25.758  1.00  0.00     0.349 HD
ATOM     29  C   UNL A   1      49.446  26.200  25.045  1.00  0.00     0.325 C 
ATOM     30  C   UNL A   1      48.497  27.126  23.022  1.00  0.00     0.325 C 
ATOM     31  N   UNL A   1      49.731  26.811  23.740  1.00  0.00    -0.318 N 
ATOM     32  H   UNL A   1      50.198  26.102  23.175  1.00  0.00     0.348 HD
BRANCH  31  33
ATOM     33  C   UNL A   1      50.758  27.867  23.760  1.00  0.00     0.364 C 
BRANCH  33  34
ATOM     34  C   UNL A   1      52.204  27.368  23.858  1.00  0.00     0.277 C 
ATOM     35  O   UNL A   1      52.735  27.264  24.971  1.00  0.00    -0.268 OA
ATOM     36  N   UNL A   1      52.911  27.079  22.697  1.00  0.00    -0.344 N 
ATOM     37  C   UNL A   1      52.346  26.868  21.373  1.00  0.00     0.146 C 
ATOM     38  C   UNL A   1      54.353  26.928  22.809  1.00  0.00     0.146 C 
ENDBRANCH  33  34
ENDBRANCH  31  33
ENDBRANCH   7  25
ENDBRANCH   4   7
ENDBRANCH   2   3
ENDBRANCH   1   2
BRANCH   1  39
ATOM     39  C   UNL A   1      44.691  21.325  25.373  1.00  0.00     0.118 C 
BRANCH  39  40
ATOM     40  N   UNL A   1      43.258  21.096  25.242  1.00  0.00    -0.352 N 
ATOM     41  C   UNL A   1      42.209  21.616  25.959  1.00  0.00     0.251 C 
ATOM     42  H   UNL A   1      43.002  20.471  24.527  1.00  0.00     0.163 HD
ATOM     43  O   UNL A   1      41.089  21.141  25.821  1.00  0.00    -0.269 OA
BRANCH  41  44
ATOM     44  C   UNL A   1      42.440  22.727  26.904  1.00  0.00     0.039 A 
ATOM     45  C   UNL A   1      42.662  24.008  26.395  1.00  0.00     0.014 A 
ATOM     46  C   UNL A   1      42.441  22.506  28.283  1.00  0.00     0.014 A 
ATOM     47  C   UNL A   1      42.817  25.081  27.275  1.00  0.00     0.010 A 
ATOM     48  C   UNL A   1      42.506  23.586  29.155  1.00  0.00     0.010 A 
ATOM     49  C   UNL A   1      42.699  24.884  28.661  1.00  0.00    -0.014 A 
BRANCH  49  50
ATOM     50  C   UNL A   1      42.775  26.024  29.609  1.00  0.00     0.031 A 
ATOM     51  C   UNL A   1      43.898  26.104  30.608  1.00  0.00     0.074 A 
ATOM     52  C   UNL A   1      41.800  26.954  29.611  1.00  0.00     0.049 A 
ATOM     53  N   UNL A   1      44.099  26.987  31.552  1.00  0.00    -0.248 NA
ATOM     54  C   UNL A   1      44.914  25.039  30.557  1.00  0.00     0.031 C 
ATOM     55  C   UNL A   1      40.635  26.962  28.720  1.00  0.00     0.029 A 
ATOM     56  N   UNL A   1      41.626  28.069  30.391  1.00  0.00    -0.354 N 
ATOM     57  C   UNL A   1      45.253  26.581  32.210  1.00  0.00     0.074 A 
ATOM     58  C   UNL A   1      45.674  25.340  31.600  1.00  0.00     0.031 C 
ATOM     59  C   UNL A   1      39.885  28.044  28.986  1.00  0.00     0.029 A 
ATOM     60  C   UNL A   1      40.486  28.780  30.094  1.00  0.00     0.049 A 
ATOM     61  H   UNL A   1      42.258  28.337  31.096  1.00  0.00     0.167 HD
ATOM     62  C   UNL A   1      45.919  27.198  33.216  1.00  0.00     0.031 A 
ATOM     63  C   UNL A   1      39.974  29.891  30.657  1.00  0.00     0.031 A 
ATOM     64  C   UNL A   1      45.497  28.434  33.819  1.00  0.00     0.049 A 
ATOM     65  C   UNL A   1      40.718  30.546  31.788  1.00  0.00     0.074 A 
ATOM     66  C   UNL A   1      46.123  29.162  34.816  1.00  0.00     0.029 A 
ATOM     67  N   UNL A   1      44.342  29.126  33.485  1.00  0.00    -0.354 N 
ATOM     68  N   UNL A   1      41.842  30.179  32.356  1.00  0.00    -0.248 NA
ATOM     69  C   UNL A   1      40.132  31.773  32.346  1.00  0.00     0.031 C 
ATOM     70  C   UNL A   1      45.317  30.262  35.125  1.00  0.00     0.029 A 
ATOM     71  C   UNL A   1      44.223  30.258  34.272  1.00  0.00     0.049 A 
ATOM     72  H   UNL A   1      43.700  28.850  32.790  1.00  0.00     0.167 HD
ATOM     73  C   UNL A   1      42.113  31.146  33.319  1.00  0.00     0.074 A 
ATOM     74  C   UNL A   1      41.045  32.121  33.243  1.00  0.00     0.031 C 
ATOM     75  C   UNL A   1      43.152  31.219  34.187  1.00  0.00     0.031 A 
BRANCH  62  76
ATOM     76  C   UNL A   1      47.176  26.540  33.726  1.00  0.00    -0.014 A 
ATOM     77  C   UNL A   1      48.442  26.928  33.252  1.00  0.00     0.010 A 
ATOM     78  C   UNL A   1      47.094  25.549  34.721  1.00  0.00     0.010 A 
ATOM     79  C   UNL A   1      49.599  26.309  33.731  1.00  0.00     0.020 A 
ATOM     80  C   UNL A   1      48.251  24.949  35.228  1.00  0.00     0.020 A 
ATOM     81  C   UNL A   1      49.495  25.321  34.716  1.00  0.00     0.054 A 
BRANCH  81  82
ATOM     82  S   UNL A   1      51.017  24.554  35.335  1.00  0.00     0.124 S 
ATOM     83  O   UNL A   1      51.749  25.709  35.849  1.00  0.00    -0.237 OA
ATOM     84  O   UNL A   1      50.519  23.625  36.345  1.00  0.00    -0.237 OA
ATOM     85  O   UNL A   1      51.598  23.928  34.149  1.00  0.00    -0.744 OA
ENDBRANCH  81  82
ENDBRANCH  62  76
BRANCH  63  86
ATOM     86  C   UNL A   1      38.689  30.453  30.156  1.00  0.00    -0.014 A 
ATOM     87  C   UNL A   1      38.658  31.684  29.478  1.00  0.00     0.010 A 
ATOM     88  C   UNL A   1      37.485  29.748  30.345  1.00  0.00     0.010 A 
ATOM     89  C   UNL A   1      37.446  32.211  29.020  1.00  0.00     0.020 A 
ATOM     90  C   UNL A   1      36.277  30.255  29.860  1.00  0.00     0.020 A 
ATOM     91  C   UNL A   1      36.263  31.490  29.211  1.00  0.00     0.054 A 
BRANCH  91  92
ATOM     92  S   UNL A   1      34.709  32.169  28.565  1.00  0.00     0.124 S 
ATOM     93  O   UNL A   1      34.079  30.986  27.988  1.00  0.00    -0.237 OA
ATOM     94  O   UNL A   1      34.075  32.702  29.768  1.00  0.00    -0.237 OA
ATOM     95  O   UNL A   1      35.152  33.177  27.603  1.00  0.00    -0.744 OA
ENDBRANCH  91  92
ENDBRANCH  63  86
BRANCH  75  96
ATOM     96  C   UNL A   1      43.209  32.414  35.103  1.00  0.00    -0.014 A 
ATOM     97  C   UNL A   1      43.808  33.620  34.698  1.00  0.00     0.010 A 
ATOM     98  C   UNL A   1      42.602  32.342  36.370  1.00  0.00     0.010 A 
ATOM     99  C   UNL A   1      43.827  34.721  35.558  1.00  0.00     0.020 A 
ATOM    100  C   UNL A   1      42.591  33.451  37.220  1.00  0.00     0.020 A 
ATOM    101  C   UNL A   1      43.217  34.630  36.813  1.00  0.00     0.054 A 
BRANCH 101 102
ATOM    102  S   UNL A   1      43.218  36.088  37.890  1.00  0.00     0.124 S 
ATOM    103  O   UNL A   1      42.926  35.501  39.196  1.00  0.00    -0.237 OA
ATOM    104  O   UNL A   1      44.573  36.609  37.724  1.00  0.00    -0.237 OA
ATOM    105  O   UNL A   1      42.161  36.930  37.337  1.00  0.00    -0.744 OA
ENDBRANCH 101 102
ENDBRANCH  75  96
ENDBRANCH  49  50
ENDBRANCH  41  44
ENDBRANCH  39  40
ENDBRANCH   1  39
TORSDOF 19
ENDMDL
