MODEL 1
REMARK VINA RESULT:     -11.5      0.000      0.000
REMARK SMILES Cc1n[nH]c(CCC(=O)NCCCNC(=O)c2ccc(-c3c4nc(c(-c5ccc(S(=O)(=O)[O-])cc5)c5ccc([nH]5)c(-c5ccc(S(=O)(=O)[O-])cc5)c5nc(c(-c6ccc(S(=O)(=O)[O-])cc6)c6ccc3[nH]6)C=C5)C=C4)cc2)c1C
REMARK SMILES IDX 12 1 11 2 10 3 8 4 9 5 7 7 6 8 5 9 1 10 2 11 3 12 77 13 4 14
REMARK SMILES IDX 78 15 13 17 14 18 15 19 16 21 17 22 18 23 76 24 19 25 75 26
REMARK SMILES IDX 20 27 21 28 22 29 69 30 23 31 74 32 68 33 70 34 24 35 73 36
REMARK SMILES IDX 67 37 66 38 25 40 55 41 36 42 54 43 37 44 40 45 53 46 71 47
REMARK SMILES IDX 38 48 39 49 52 51 72 52 41 53 26 54 27 55 35 56 28 57 34 58
REMARK SMILES IDX 29 59 30 60 31 61 32 62 33 63 56 64 57 65 65 66 58 67 64 68
REMARK SMILES IDX 59 69 60 70 61 71 62 72 63 73 42 74 43 75 51 76 44 77 50 78
REMARK SMILES IDX 45 79 46 80 47 81 48 82 49 83
REMARK H PARENT 10 6 4 16 14 20 70 39 40 50
REMARK Flexibility Score: inf
ROOT
ATOM      1  C   UNL A   1      34.198  35.491  28.575  1.00  0.00     0.042 C 
ENDROOT
BRANCH   1   2
ATOM      2  C   UNL A   1      33.093  35.656  29.607  1.00  0.00     0.117 C 
BRANCH   2   3
ATOM      3  N   UNL A   1      33.142  36.929  30.313  1.00  0.00    -0.356 N 
ATOM      4  C   UNL A   1      33.115  37.217  31.643  1.00  0.00     0.220 C 
ATOM      5  O   UNL A   1      33.194  38.401  31.981  1.00  0.00    -0.275 OA
ATOM      6  H   UNL A   1      33.206  37.718  29.726  1.00  0.00     0.163 HD
BRANCH   4   7
ATOM      7  C   UNL A   1      33.015  36.126  32.689  1.00  0.00     0.106 C 
BRANCH   7   8
ATOM      8  C   UNL A   1      34.385  35.687  33.213  1.00  0.00     0.066 C 
BRANCH   8   9
ATOM      9  C   UNL A   1      34.797  34.353  32.687  1.00  0.00     0.039 A 
ATOM     10  C   UNL A   1      36.462  31.105  32.325  1.00  0.00     0.069 C 
ATOM     11  C   UNL A   1      35.663  32.359  32.248  1.00  0.00     0.062 A 
ATOM     12  N   UNL A   1      34.422  32.326  31.748  1.00  0.00    -0.181 NA
ATOM     13  C   UNL A   1      35.980  33.642  32.791  1.00  0.00    -0.007 A 
ATOM     14  N   UNL A   1      33.943  33.554  31.978  1.00  0.00    -0.282 N 
ATOM     15  C   UNL A   1      37.240  34.070  33.453  1.00  0.00     0.048 C 
ATOM     16  H   UNL A   1      33.060  33.855  31.666  1.00  0.00     0.190 HD
ENDBRANCH   8   9
ENDBRANCH   7   8
ENDBRANCH   4   7
ENDBRANCH   2   3
ENDBRANCH   1   2
BRANCH   1  17
ATOM     17  C   UNL A   1      34.955  34.180  28.649  1.00  0.00     0.118 C 
BRANCH  17  18
ATOM     18  N   UNL A   1      34.111  33.028  28.382  1.00  0.00    -0.352 N 
ATOM     19  C   UNL A   1      34.431  31.705  28.163  1.00  0.00     0.251 C 
ATOM     20  H   UNL A   1      33.148  33.227  28.353  1.00  0.00     0.163 HD
ATOM     21  O   UNL A   1      33.552  30.963  27.744  1.00  0.00    -0.269 OA
BRANCH  19  22
ATOM     22  C   UNL A   1      35.791  31.168  28.439  1.00  0.00     0.039 A 
ATOM     23  C   UNL A   1      36.809  32.053  28.827  1.00  0.00     0.014 A 
ATOM     24  C   UNL A   1      36.103  29.820  28.259  1.00  0.00     0.014 A 
ATOM     25  C   UNL A   1      38.111  31.577  28.990  1.00  0.00     0.010 A 
ATOM     26  C   UNL A   1      37.345  29.324  28.564  1.00  0.00     0.010 A 
ATOM     27  C   UNL A   1      38.371  30.210  28.830  1.00  0.00    -0.014 A 
BRANCH  27  28
ATOM     28  C   UNL A   1      39.684  29.634  29.082  1.00  0.00     0.031 A 
ATOM     29  C   UNL A   1      39.936  29.447  30.527  1.00  0.00     0.074 A 
ATOM     30  C   UNL A   1      40.477  29.114  28.118  1.00  0.00     0.049 A 
ATOM     31  N   UNL A   1      40.631  30.216  31.296  1.00  0.00    -0.248 NA
ATOM     32  C   UNL A   1      39.134  28.445  31.254  1.00  0.00     0.031 C 
ATOM     33  C   UNL A   1      40.173  28.958  26.688  1.00  0.00     0.029 A 
ATOM     34  N   UNL A   1      41.694  28.511  28.223  1.00  0.00    -0.354 N 
ATOM     35  C   UNL A   1      40.608  29.600  32.538  1.00  0.00     0.074 A 
ATOM     36  C   UNL A   1      39.472  28.715  32.517  1.00  0.00     0.031 C 
ATOM     37  C   UNL A   1      41.067  28.115  26.119  1.00  0.00     0.029 A 
ATOM     38  C   UNL A   1      42.097  27.799  27.092  1.00  0.00     0.049 A 
ATOM     39  H   UNL A   1      42.248  28.574  29.035  1.00  0.00     0.167 HD
ATOM     40  C   UNL A   1      41.723  29.590  33.320  1.00  0.00     0.031 A 
ATOM     41  C   UNL A   1      43.192  27.001  26.970  1.00  0.00     0.031 A 
ATOM     42  C   UNL A   1      42.715  30.508  32.807  1.00  0.00     0.049 A 
ATOM     43  C   UNL A   1      44.130  27.410  28.041  1.00  0.00     0.074 A 
ATOM     44  C   UNL A   1      42.772  31.863  32.559  1.00  0.00     0.029 A 
ATOM     45  N   UNL A   1      43.714  29.926  32.061  1.00  0.00    -0.354 N 
ATOM     46  N   UNL A   1      44.718  28.572  28.071  1.00  0.00    -0.248 NA
ATOM     47  C   UNL A   1      44.089  26.698  29.307  1.00  0.00     0.031 C 
ATOM     48  C   UNL A   1      43.563  31.998  31.381  1.00  0.00     0.029 A 
ATOM     49  C   UNL A   1      44.032  30.736  31.008  1.00  0.00     0.049 A 
ATOM     50  H   UNL A   1      44.135  29.058  32.257  1.00  0.00     0.167 HD
ATOM     51  C   UNL A   1      44.698  28.937  29.408  1.00  0.00     0.074 A 
ATOM     52  C   UNL A   1      44.427  27.693  30.130  1.00  0.00     0.031 C 
ATOM     53  C   UNL A   1      44.604  30.251  29.766  1.00  0.00     0.031 A 
BRANCH  40  54
ATOM     54  C   UNL A   1      42.126  28.418  34.194  1.00  0.00    -0.014 A 
ATOM     55  C   UNL A   1      42.201  28.626  35.587  1.00  0.00     0.010 A 
ATOM     56  C   UNL A   1      42.697  27.228  33.701  1.00  0.00     0.010 A 
ATOM     57  C   UNL A   1      42.883  27.734  36.424  1.00  0.00     0.020 A 
ATOM     58  C   UNL A   1      43.343  26.310  34.531  1.00  0.00     0.020 A 
ATOM     59  C   UNL A   1      43.457  26.584  35.885  1.00  0.00     0.054 A 
BRANCH  59  60
ATOM     60  S   UNL A   1      44.385  25.469  36.963  1.00  0.00     0.124 S 
ATOM     61  O   UNL A   1      43.994  24.161  36.449  1.00  0.00    -0.237 OA
ATOM     62  O   UNL A   1      45.765  25.869  36.701  1.00  0.00    -0.237 OA
ATOM     63  O   UNL A   1      43.890  25.795  38.298  1.00  0.00    -0.744 OA
ENDBRANCH  59  60
ENDBRANCH  40  54
BRANCH  41  64
ATOM     64  C   UNL A   1      43.411  25.760  26.178  1.00  0.00    -0.014 A 
ATOM     65  C   UNL A   1      44.664  25.488  25.585  1.00  0.00     0.010 A 
ATOM     66  C   UNL A   1      42.497  24.694  26.270  1.00  0.00     0.010 A 
ATOM     67  C   UNL A   1      45.018  24.186  25.183  1.00  0.00     0.020 A 
ATOM     68  C   UNL A   1      42.840  23.394  25.866  1.00  0.00     0.020 A 
ATOM     69  C   UNL A   1      44.110  23.140  25.351  1.00  0.00     0.054 A 
BRANCH  69  70
ATOM     70  S   UNL A   1      44.641  21.428  25.024  1.00  0.00     0.124 S 
ATOM     71  O   UNL A   1      44.560  21.347  23.568  1.00  0.00    -0.237 OA
ATOM     72  O   UNL A   1      45.989  21.398  25.584  1.00  0.00    -0.237 OA
ATOM     73  O   UNL A   1      43.658  20.621  25.744  1.00  0.00    -0.744 OA
ENDBRANCH  69  70
ENDBRANCH  41  64
BRANCH  53  74
ATOM     74  C   UNL A   1      44.971  31.300  28.743  1.00  0.00    -0.014 A 
ATOM     75  C   UNL A   1      44.092  31.837  27.783  1.00  0.00     0.010 A 
ATOM     76  C   UNL A   1      46.260  31.850  28.855  1.00  0.00     0.010 A 
ATOM     77  C   UNL A   1      44.509  32.885  26.943  1.00  0.00     0.020 A 
ATOM     78  C   UNL A   1      46.672  32.904  28.041  1.00  0.00     0.020 A 
ATOM     79  C   UNL A   1      45.799  33.410  27.079  1.00  0.00     0.054 A 
BRANCH  79  80
ATOM     80  S   UNL A   1      46.332  34.782  26.019  1.00  0.00     0.124 S 
ATOM     81  O   UNL A   1      45.668  35.930  26.627  1.00  0.00    -0.237 OA
ATOM     82  O   UNL A   1      47.787  34.752  26.153  1.00  0.00    -0.237 OA
ATOM     83  O   UNL A   1      45.835  34.413  24.693  1.00  0.00    -0.744 OA
ENDBRANCH  79  80
ENDBRANCH  53  74
ENDBRANCH  27  28
ENDBRANCH  19  22
ENDBRANCH  17  18
ENDBRANCH   1  17
TORSDOF 15
ENDMDL
MODEL 2
REMARK VINA RESULT:     -11.4      3.336     12.254
REMARK SMILES Cc1n[nH]c(CCC(=O)NCCCNC(=O)c2ccc(-c3c4nc(c(-c5ccc(S(=O)(=O)[O-])cc5)c5ccc([nH]5)c(-c5ccc(S(=O)(=O)[O-])cc5)c5nc(c(-c6ccc(S(=O)(=O)[O-])cc6)c6ccc3[nH]6)C=C5)C=C4)cc2)c1C
REMARK SMILES IDX 12 1 11 2 10 3 8 4 9 5 7 7 6 8 5 9 1 10 2 11 3 12 77 13 4 14
REMARK SMILES IDX 78 15 13 17 14 18 15 19 16 21 17 22 18 23 76 24 19 25 75 26
REMARK SMILES IDX 20 27 21 28 22 29 69 30 23 31 74 32 68 33 70 34 24 35 73 36
REMARK SMILES IDX 67 37 66 38 25 40 55 41 36 42 54 43 37 44 40 45 53 46 71 47
REMARK SMILES IDX 38 48 39 49 52 51 72 52 41 53 26 54 27 55 35 56 28 57 34 58
REMARK SMILES IDX 29 59 30 60 31 61 32 62 33 63 56 64 57 65 65 66 58 67 64 68
REMARK SMILES IDX 59 69 60 70 61 71 62 72 63 73 42 74 43 75 51 76 44 77 50 78
REMARK SMILES IDX 45 79 46 80 47 81 48 82 49 83
REMARK H PARENT 10 6 4 16 14 20 70 39 40 50
REMARK Flexibility Score: inf
ROOT
ATOM      1  C   UNL A   1      42.400  20.485  26.139  1.00  0.00     0.042 C 
ENDROOT
BRANCH   1   2
ATOM      2  C   UNL A   1      43.020  19.099  26.050  1.00  0.00     0.117 C 
BRANCH   2   3
ATOM      3  N   UNL A   1      43.606  18.806  24.749  1.00  0.00    -0.356 N 
ATOM      4  C   UNL A   1      44.884  18.924  24.296  1.00  0.00     0.220 C 
ATOM      5  O   UNL A   1      45.121  18.579  23.135  1.00  0.00    -0.275 OA
ATOM      6  H   UNL A   1      42.967  18.465  24.082  1.00  0.00     0.163 HD
BRANCH   4   7
ATOM      7  C   UNL A   1      45.998  19.436  25.185  1.00  0.00     0.106 C 
BRANCH   7   8
ATOM      8  C   UNL A   1      46.509  20.813  24.753  1.00  0.00     0.066 C 
BRANCH   8   9
ATOM      9  C   UNL A   1      45.416  21.824  24.658  1.00  0.00     0.039 A 
ATOM     10  C   UNL A   1      43.445  24.886  25.100  1.00  0.00     0.069 C 
ATOM     11  C   UNL A   1      44.044  23.563  24.771  1.00  0.00     0.062 A 
ATOM     12  N   UNL A   1      43.831  23.019  23.567  1.00  0.00    -0.181 NA
ATOM     13  C   UNL A   1      44.985  22.806  25.534  1.00  0.00    -0.007 A 
ATOM     14  N   UNL A   1      44.630  21.945  23.546  1.00  0.00    -0.282 N 
ATOM     15  C   UNL A   1      45.499  23.093  26.899  1.00  0.00     0.048 C 
ATOM     16  H   UNL A   1      44.650  21.302  22.802  1.00  0.00     0.190 HD
ENDBRANCH   8   9
ENDBRANCH   7   8
ENDBRANCH   4   7
ENDBRANCH   2   3
ENDBRANCH   1   2
BRANCH   1  17
ATOM     17  C   UNL A   1      41.189  20.588  27.045  1.00  0.00     0.118 C 
BRANCH  17  18
ATOM     18  N   UNL A   1      39.971  20.907  26.319  1.00  0.00    -0.352 N 
ATOM     19  C   UNL A   1      39.188  22.042  26.321  1.00  0.00     0.251 C 
ATOM     20  H   UNL A   1      39.651  20.190  25.725  1.00  0.00     0.163 HD
ATOM     21  O   UNL A   1      38.089  21.983  25.786  1.00  0.00    -0.269 OA
BRANCH  19  22
ATOM     22  C   UNL A   1      39.653  23.318  26.932  1.00  0.00     0.039 A 
ATOM     23  C   UNL A   1      40.875  23.339  27.623  1.00  0.00     0.014 A 
ATOM     24  C   UNL A   1      38.879  24.478  26.897  1.00  0.00     0.014 A 
ATOM     25  C   UNL A   1      41.272  24.500  28.285  1.00  0.00     0.010 A 
ATOM     26  C   UNL A   1      39.336  25.661  27.418  1.00  0.00     0.010 A 
ATOM     27  C   UNL A   1      40.478  25.652  28.195  1.00  0.00    -0.014 A 
BRANCH  27  28
ATOM     28  C   UNL A   1      40.884  26.922  28.778  1.00  0.00     0.031 A 
ATOM     29  C   UNL A   1      42.037  27.514  28.066  1.00  0.00     0.074 A 
ATOM     30  C   UNL A   1      40.156  27.596  29.699  1.00  0.00     0.049 A 
ATOM     31  N   UNL A   1      43.274  27.473  28.433  1.00  0.00    -0.248 NA
ATOM     32  C   UNL A   1      41.840  27.981  26.682  1.00  0.00     0.031 C 
ATOM     33  C   UNL A   1      38.831  27.247  30.231  1.00  0.00     0.029 A 
ATOM     34  N   UNL A   1      40.396  28.801  30.286  1.00  0.00    -0.354 N 
ATOM     35  C   UNL A   1      43.958  28.198  27.469  1.00  0.00     0.074 A 
ATOM     36  C   UNL A   1      43.100  28.226  26.313  1.00  0.00     0.031 C 
ATOM     37  C   UNL A   1      38.300  28.314  30.873  1.00  0.00     0.029 A 
ATOM     38  C   UNL A   1      39.301  29.364  30.943  1.00  0.00     0.049 A 
ATOM     39  H   UNL A   1      41.276  29.242  30.249  1.00  0.00     0.167 HD
ATOM     40  C   UNL A   1      44.985  29.018  27.829  1.00  0.00     0.031 A 
ATOM     41  C   UNL A   1      39.222  30.605  31.494  1.00  0.00     0.031 A 
ATOM     42  C   UNL A   1      45.382  28.771  29.197  1.00  0.00     0.049 A 
ATOM     43  C   UNL A   1      40.615  31.051  31.724  1.00  0.00     0.074 A 
ATOM     44  C   UNL A   1      45.857  27.689  29.907  1.00  0.00     0.029 A 
ATOM     45  N   UNL A   1      44.874  29.658  30.117  1.00  0.00    -0.354 N 
ATOM     46  N   UNL A   1      41.413  30.488  32.586  1.00  0.00    -0.248 NA
ATOM     47  C   UNL A   1      41.266  31.846  30.696  1.00  0.00     0.031 C 
ATOM     48  C   UNL A   1      45.273  27.803  31.202  1.00  0.00     0.029 A 
ATOM     49  C   UNL A   1      44.541  28.991  31.262  1.00  0.00     0.049 A 
ATOM     50  H   UNL A   1      44.767  30.626  29.973  1.00  0.00     0.167 HD
ATOM     51  C   UNL A   1      42.646  30.465  31.953  1.00  0.00     0.074 A 
ATOM     52  C   UNL A   1      42.524  31.431  30.862  1.00  0.00     0.031 C 
ATOM     53  C   UNL A   1      43.528  29.451  32.194  1.00  0.00     0.031 A 
BRANCH  40  54
ATOM     54  C   UNL A   1      45.265  30.353  27.166  1.00  0.00    -0.014 A 
ATOM     55  C   UNL A   1      46.610  30.760  27.039  1.00  0.00     0.010 A 
ATOM     56  C   UNL A   1      44.283  31.334  26.926  1.00  0.00     0.010 A 
ATOM     57  C   UNL A   1      46.949  32.092  26.770  1.00  0.00     0.020 A 
ATOM     58  C   UNL A   1      44.608  32.656  26.615  1.00  0.00     0.020 A 
ATOM     59  C   UNL A   1      45.942  33.033  26.568  1.00  0.00     0.054 A 
BRANCH  59  60
ATOM     60  S   UNL A   1      46.387  34.760  26.279  1.00  0.00     0.124 S 
ATOM     61  O   UNL A   1      47.129  34.672  25.025  1.00  0.00    -0.237 OA
ATOM     62  O   UNL A   1      45.079  35.404  26.201  1.00  0.00    -0.237 OA
ATOM     63  O   UNL A   1      47.179  35.109  27.456  1.00  0.00    -0.744 OA
ENDBRANCH  59  60
ENDBRANCH  40  54
BRANCH  41  64
ATOM     64  C   UNL A   1      38.074  31.545  31.620  1.00  0.00    -0.014 A 
ATOM     65  C   UNL A   1      36.800  31.086  32.020  1.00  0.00     0.010 A 
ATOM     66  C   UNL A   1      38.301  32.934  31.660  1.00  0.00     0.010 A 
ATOM     67  C   UNL A   1      35.826  31.970  32.521  1.00  0.00     0.020 A 
ATOM     68  C   UNL A   1      37.332  33.822  32.153  1.00  0.00     0.020 A 
ATOM     69  C   UNL A   1      36.109  33.333  32.609  1.00  0.00     0.054 A 
BRANCH  69  70
ATOM     70  S   UNL A   1      34.933  34.444  33.446  1.00  0.00     0.124 S 
ATOM     71  O   UNL A   1      35.231  34.212  34.856  1.00  0.00    -0.237 OA
ATOM     72  O   UNL A   1      35.308  35.757  32.928  1.00  0.00    -0.237 OA
ATOM     73  O   UNL A   1      33.627  33.959  33.002  1.00  0.00    -0.744 OA
ENDBRANCH  69  70
ENDBRANCH  41  64
BRANCH  53  74
ATOM     74  C   UNL A   1      43.352  28.632  33.451  1.00  0.00    -0.014 A 
ATOM     75  C   UNL A   1      44.084  28.807  34.641  1.00  0.00     0.010 A 
ATOM     76  C   UNL A   1      42.291  27.710  33.445  1.00  0.00     0.010 A 
ATOM     77  C   UNL A   1      43.769  28.057  35.787  1.00  0.00     0.020 A 
ATOM     78  C   UNL A   1      41.959  26.980  34.585  1.00  0.00     0.020 A 
ATOM     79  C   UNL A   1      42.707  27.147  35.749  1.00  0.00     0.054 A 
BRANCH  79  80
ATOM     80  S   UNL A   1      42.277  26.198  37.235  1.00  0.00     0.124 S 
ATOM     81  O   UNL A   1      43.266  26.658  38.204  1.00  0.00    -0.237 OA
ATOM     82  O   UNL A   1      40.900  26.609  37.497  1.00  0.00    -0.237 OA
ATOM     83  O   UNL A   1      42.427  24.804  36.815  1.00  0.00    -0.744 OA
ENDBRANCH  79  80
ENDBRANCH  53  74
ENDBRANCH  27  28
ENDBRANCH  19  22
ENDBRANCH  17  18
ENDBRANCH   1  17
TORSDOF 15
ENDMDL
MODEL 3
REMARK VINA RESULT:     -11.0      3.090      5.219
REMARK SMILES Cc1n[nH]c(CCC(=O)NCCCNC(=O)c2ccc(-c3c4nc(c(-c5ccc(S(=O)(=O)[O-])cc5)c5ccc([nH]5)c(-c5ccc(S(=O)(=O)[O-])cc5)c5nc(c(-c6ccc(S(=O)(=O)[O-])cc6)c6ccc3[nH]6)C=C5)C=C4)cc2)c1C
REMARK SMILES IDX 12 1 11 2 10 3 8 4 9 5 7 7 6 8 5 9 1 10 2 11 3 12 77 13 4 14
REMARK SMILES IDX 78 15 13 17 14 18 15 19 16 21 17 22 18 23 76 24 19 25 75 26
REMARK SMILES IDX 20 27 21 28 22 29 69 30 23 31 74 32 68 33 70 34 24 35 73 36
REMARK SMILES IDX 67 37 66 38 25 40 55 41 36 42 54 43 37 44 40 45 53 46 71 47
REMARK SMILES IDX 38 48 39 49 52 51 72 52 41 53 26 54 27 55 35 56 28 57 34 58
REMARK SMILES IDX 29 59 30 60 31 61 32 62 33 63 56 64 57 65 65 66 58 67 64 68
REMARK SMILES IDX 59 69 60 70 61 71 62 72 63 73 42 74 43 75 51 76 44 77 50 78
REMARK SMILES IDX 45 79 46 80 47 81 48 82 49 83
REMARK H PARENT 10 6 4 16 14 20 70 39 40 50
REMARK Flexibility Score: inf
ROOT
ATOM      1  C   UNL A   1      31.897  28.757  27.537  1.00  0.00     0.042 C 
ENDROOT
BRANCH   1   2
ATOM      2  C   UNL A   1      31.400  27.883  26.396  1.00  0.00     0.117 C 
BRANCH   2   3
ATOM      3  N   UNL A   1      32.435  27.040  25.815  1.00  0.00    -0.356 N 
ATOM      4  C   UNL A   1      33.168  27.179  24.676  1.00  0.00     0.220 C 
ATOM      5  O   UNL A   1      34.012  26.316  24.422  1.00  0.00    -0.275 OA
ATOM      6  H   UNL A   1      32.641  26.230  26.336  1.00  0.00     0.163 HD
BRANCH   4   7
ATOM      7  C   UNL A   1      32.981  28.364  23.751  1.00  0.00     0.106 C 
BRANCH   7   8
ATOM      8  C   UNL A   1      32.249  27.992  22.459  1.00  0.00     0.066 C 
BRANCH   8   9
ATOM      9  C   UNL A   1      30.922  28.663  22.342  1.00  0.00     0.039 A 
ATOM     10  C   UNL A   1      27.495  29.768  23.039  1.00  0.00     0.069 C 
ATOM     11  C   UNL A   1      28.863  29.467  22.539  1.00  0.00     0.062 A 
ATOM     12  N   UNL A   1      29.551  30.406  21.879  1.00  0.00    -0.181 NA
ATOM     13  C   UNL A   1      29.662  28.310  22.795  1.00  0.00    -0.007 A 
ATOM     14  N   UNL A   1      30.770  29.875  21.727  1.00  0.00    -0.282 N 
ATOM     15  C   UNL A   1      29.273  27.071  23.517  1.00  0.00     0.048 C 
ATOM     16  H   UNL A   1      31.490  30.315  21.220  1.00  0.00     0.190 HD
ENDBRANCH   8   9
ENDBRANCH   7   8
ENDBRANCH   4   7
ENDBRANCH   2   3
ENDBRANCH   1   2
BRANCH   1  17
ATOM     17  C   UNL A   1      33.319  29.260  27.388  1.00  0.00     0.118 C 
BRANCH  17  18
ATOM     18  N   UNL A   1      33.411  30.709  27.443  1.00  0.00    -0.352 N 
ATOM     19  C   UNL A   1      34.421  31.534  27.890  1.00  0.00     0.251 C 
ATOM     20  H   UNL A   1      32.618  31.181  27.102  1.00  0.00     0.163 HD
ATOM     21  O   UNL A   1      34.171  32.724  28.033  1.00  0.00    -0.269 OA
BRANCH  19  22
ATOM     22  C   UNL A   1      35.788  31.020  28.178  1.00  0.00     0.039 A 
ATOM     23  C   UNL A   1      36.713  31.860  28.818  1.00  0.00     0.014 A 
ATOM     24  C   UNL A   1      36.201  29.751  27.770  1.00  0.00     0.014 A 
ATOM     25  C   UNL A   1      38.026  31.426  29.001  1.00  0.00     0.010 A 
ATOM     26  C   UNL A   1      37.444  29.267  28.083  1.00  0.00     0.010 A 
ATOM     27  C   UNL A   1      38.386  30.131  28.606  1.00  0.00    -0.014 A 
BRANCH  27  28
ATOM     28  C   UNL A   1      39.711  29.582  28.858  1.00  0.00     0.031 A 
ATOM     29  C   UNL A   1      39.986  29.448  30.305  1.00  0.00     0.074 A 
ATOM     30  C   UNL A   1      40.498  29.040  27.901  1.00  0.00     0.049 A 
ATOM     31  N   UNL A   1      40.681  30.252  31.037  1.00  0.00    -0.248 NA
ATOM     32  C   UNL A   1      39.208  28.462  31.077  1.00  0.00     0.031 C 
ATOM     33  C   UNL A   1      40.176  28.831  26.482  1.00  0.00     0.029 A 
ATOM     34  N   UNL A   1      41.724  28.457  28.009  1.00  0.00    -0.354 N 
ATOM     35  C   UNL A   1      40.683  29.679  32.300  1.00  0.00     0.074 A 
ATOM     36  C   UNL A   1      39.560  28.779  32.326  1.00  0.00     0.031 C 
ATOM     37  C   UNL A   1      41.073  27.981  25.929  1.00  0.00     0.029 A 
ATOM     38  C   UNL A   1      42.121  27.712  26.897  1.00  0.00     0.049 A 
ATOM     39  H   UNL A   1      42.288  28.555  28.811  1.00  0.00     0.167 HD
ATOM     40  C   UNL A   1      41.809  29.711  33.065  1.00  0.00     0.031 A 
ATOM     41  C   UNL A   1      43.226  26.925  26.788  1.00  0.00     0.031 A 
ATOM     42  C   UNL A   1      42.781  30.624  32.507  1.00  0.00     0.049 A 
ATOM     43  C   UNL A   1      44.172  27.383  27.830  1.00  0.00     0.074 A 
ATOM     44  C   UNL A   1      42.816  31.971  32.212  1.00  0.00     0.029 A 
ATOM     45  N   UNL A   1      43.777  30.030  31.767  1.00  0.00    -0.354 N 
ATOM     46  N   UNL A   1      44.745  28.553  27.812  1.00  0.00    -0.248 NA
ATOM     47  C   UNL A   1      44.158  26.714  29.120  1.00  0.00     0.031 C 
ATOM     48  C   UNL A   1      43.589  32.075  31.018  1.00  0.00     0.029 A 
ATOM     49  C   UNL A   1      44.069  30.808  30.682  1.00  0.00     0.049 A 
ATOM     50  H   UNL A   1      44.214  29.175  31.986  1.00  0.00     0.167 HD
ATOM     51  C   UNL A   1      44.738  28.963  29.136  1.00  0.00     0.074 A 
ATOM     52  C   UNL A   1      44.495  27.742  29.903  1.00  0.00     0.031 C 
ATOM     53  C   UNL A   1      44.631  30.288  29.450  1.00  0.00     0.031 A 
BRANCH  40  54
ATOM     54  C   UNL A   1      42.240  28.576  33.973  1.00  0.00    -0.014 A 
ATOM     55  C   UNL A   1      42.920  27.485  33.392  1.00  0.00     0.010 A 
ATOM     56  C   UNL A   1      41.769  28.398  35.289  1.00  0.00     0.010 A 
ATOM     57  C   UNL A   1      43.045  26.261  34.061  1.00  0.00     0.020 A 
ATOM     58  C   UNL A   1      41.926  27.197  35.982  1.00  0.00     0.020 A 
ATOM     59  C   UNL A   1      42.538  26.125  35.351  1.00  0.00     0.054 A 
BRANCH  59  60
ATOM     60  S   UNL A   1      42.653  24.525  36.184  1.00  0.00     0.124 S 
ATOM     61  O   UNL A   1      41.546  24.599  37.130  1.00  0.00    -0.237 OA
ATOM     62  O   UNL A   1      42.481  23.591  35.075  1.00  0.00    -0.237 OA
ATOM     63  O   UNL A   1      43.990  24.544  36.775  1.00  0.00    -0.744 OA
ENDBRANCH  59  60
ENDBRANCH  40  54
BRANCH  41  64
ATOM     64  C   UNL A   1      43.450  25.660  26.035  1.00  0.00    -0.014 A 
ATOM     65  C   UNL A   1      44.665  25.427  25.353  1.00  0.00     0.010 A 
ATOM     66  C   UNL A   1      42.608  24.553  26.250  1.00  0.00     0.010 A 
ATOM     67  C   UNL A   1      45.059  24.128  24.981  1.00  0.00     0.020 A 
ATOM     68  C   UNL A   1      42.992  23.255  25.876  1.00  0.00     0.020 A 
ATOM     69  C   UNL A   1      44.229  23.044  25.269  1.00  0.00     0.054 A 
BRANCH  69  70
ATOM     70  S   UNL A   1      44.828  21.349  24.975  1.00  0.00     0.124 S 
ATOM     71  O   UNL A   1      44.672  21.207  23.530  1.00  0.00    -0.237 OA
ATOM     72  O   UNL A   1      46.205  21.407  25.459  1.00  0.00    -0.237 OA
ATOM     73  O   UNL A   1      43.929  20.523  25.779  1.00  0.00    -0.744 OA
ENDBRANCH  69  70
ENDBRANCH  41  64
BRANCH  53  74
ATOM     74  C   UNL A   1      44.969  31.305  28.386  1.00  0.00    -0.014 A 
ATOM     75  C   UNL A   1      44.093  31.741  27.373  1.00  0.00     0.010 A 
ATOM     76  C   UNL A   1      46.219  31.938  28.509  1.00  0.00     0.010 A 
ATOM     77  C   UNL A   1      44.474  32.769  26.494  1.00  0.00     0.020 A 
ATOM     78  C   UNL A   1      46.594  32.974  27.655  1.00  0.00     0.020 A 
ATOM     79  C   UNL A   1      45.726  33.378  26.642  1.00  0.00     0.054 A 
BRANCH  79  80
ATOM     80  S   UNL A   1      46.212  34.726  25.530  1.00  0.00     0.124 S 
ATOM     81  O   UNL A   1      45.844  35.915  26.293  1.00  0.00    -0.237 OA
ATOM     82  O   UNL A   1      47.646  34.506  25.359  1.00  0.00    -0.237 OA
ATOM     83  O   UNL A   1      45.411  34.493  24.328  1.00  0.00    -0.744 OA
ENDBRANCH  79  80
ENDBRANCH  53  74
ENDBRANCH  27  28
ENDBRANCH  19  22
ENDBRANCH  17  18
ENDBRANCH   1  17
TORSDOF 15
ENDMDL
