MODEL 1
REMARK VINA RESULT:     -12.5      0.000      0.000
REMARK SMILES Cc1c(-c2nn(-c3ccccc3)cc2/C=N/O)nnn1-c1ccc(C(=O)NCCCNC(=O)c2ccc(-c3c4nc(c(-c5ccc(S(=O)(=O)[O-])cc5)c5ccc([nH]5)c(-c5ccc(S(=O)(=O)[O-])cc5)c5nc(c(-c6ccc(S(=O)(=O)[O-])cc6)c6ccc3[nH]6)C=C5)C=C4)cc2)cc1
REMARK SMILES IDX 28 1 27 2 25 3 26 4 24 6 21 7 22 8 95 9 23 10 94 11 20 12
REMARK SMILES IDX 1 13 2 14 3 15 18 16 19 17 4 18 5 19 14 20 6 21 13 22 15 23
REMARK SMILES IDX 16 24 17 25 7 27 8 28 12 29 9 30 11 31 10 32 29 33 30 34
REMARK SMILES IDX 31 35 32 36 33 38 34 39 35 40 93 41 36 42 92 43 37 44 38 45
REMARK SMILES IDX 39 46 86 47 40 48 91 49 85 50 87 51 41 52 90 53 84 54 83 55
REMARK SMILES IDX 42 57 72 58 53 59 71 60 54 61 57 62 70 63 88 64 55 65 56 66
REMARK SMILES IDX 69 68 89 69 58 70 43 71 44 72 52 73 45 74 51 75 46 76 47 77
REMARK SMILES IDX 48 78 49 79 50 80 73 81 74 82 82 83 75 84 81 85 76 86 77 87
REMARK SMILES IDX 78 88 79 89 80 90 59 91 60 92 68 93 61 94 67 95 62 96 63 97
REMARK SMILES IDX 64 98 65 99 66 100
REMARK H PARENT 27 5 17 26 31 37 87 56 57 67
REMARK Flexibility Score: inf
ROOT
ATOM      1  C   UNL A   1      41.841  19.398  27.291  1.00  0.00     0.118 C 
ENDROOT
BRANCH   1   2
ATOM      2  N   UNL A   1      41.947  20.654  28.015  1.00  0.00    -0.352 N 
ATOM      3  C   UNL A   1      41.243  21.832  27.958  1.00  0.00     0.251 C 
ATOM      4  O   UNL A   1      41.534  22.700  28.781  1.00  0.00    -0.269 OA
ATOM      5  H   UNL A   1      42.671  20.662  28.682  1.00  0.00     0.163 HD
BRANCH   3   6
ATOM      6  C   UNL A   1      40.124  22.091  27.004  1.00  0.00     0.039 A 
ATOM      7  C   UNL A   1      37.911  22.710  25.387  1.00  0.00     0.067 A 
ATOM      8  C   UNL A   1      38.530  23.723  26.121  1.00  0.00     0.029 A 
ATOM      9  C   UNL A   1      38.444  21.420  25.383  1.00  0.00     0.029 A 
ATOM     10  C   UNL A   1      39.611  23.401  26.950  1.00  0.00     0.016 A 
ATOM     11  C   UNL A   1      39.572  21.132  26.153  1.00  0.00     0.016 A 
BRANCH   7  12
ATOM     12  N   UNL A   1      36.757  22.989  24.630  1.00  0.00    -0.217 N 
ATOM     13  C   UNL A   1      35.135  23.625  26.481  1.00  0.00     0.069 C 
ATOM     14  C   UNL A   1      35.481  23.266  25.084  1.00  0.00     0.071 A 
ATOM     15  C   UNL A   1      34.734  23.275  23.924  1.00  0.00     0.137 A 
ATOM     16  N   UNL A   1      35.544  23.118  22.838  1.00  0.00    -0.128 NA
ATOM     17  N   UNL A   1      36.793  23.022  23.278  1.00  0.00    -0.061 NA
BRANCH  15  18
ATOM     18  C   UNL A   1      33.313  23.559  23.776  1.00  0.00     0.124 A 
ATOM     19  N   UNL A   1      32.873  24.785  23.473  1.00  0.00    -0.165 NA
ATOM     20  C   UNL A   1      32.256  22.641  23.985  1.00  0.00     0.044 A 
ATOM     21  N   UNL A   1      31.535  24.703  23.598  1.00  0.00    -0.240 N 
ATOM     22  C   UNL A   1      31.123  23.431  23.918  1.00  0.00     0.125 A 
BRANCH  20  23
ATOM     23  C   UNL A   1      32.256  21.220  24.220  1.00  0.00     0.166 C 
ATOM     24  N   UNL A   1      31.917  20.752  25.375  1.00  0.00    -0.097 NA
BRANCH  24  25
ATOM     25  O   UNL A   1      32.042  19.357  25.362  1.00  0.00    -0.411 OA
ATOM     26  H   UNL A   1      32.011  18.891  24.549  1.00  0.00     0.330 HD
ENDBRANCH  24  25
ENDBRANCH  20  23
BRANCH  21  27
ATOM     27  C   UNL A   1      30.727  25.849  23.436  1.00  0.00     0.065 A 
ATOM     28  C   UNL A   1      29.399  25.812  23.875  1.00  0.00     0.028 A 
ATOM     29  C   UNL A   1      31.241  26.994  22.816  1.00  0.00     0.028 A 
ATOM     30  C   UNL A   1      28.590  26.938  23.722  1.00  0.00     0.002 A 
ATOM     31  C   UNL A   1      30.406  28.094  22.615  1.00  0.00     0.002 A 
ATOM     32  C   UNL A   1      29.089  28.070  23.079  1.00  0.00     0.000 A 
ENDBRANCH  21  27
ENDBRANCH  15  18
ENDBRANCH   7  12
ENDBRANCH   3   6
ENDBRANCH   1   2
BRANCH   1  33
ATOM     33  C   UNL A   1      42.960  19.244  26.254  1.00  0.00     0.042 C 
BRANCH  33  34
ATOM     34  C   UNL A   1      42.939  20.356  25.215  1.00  0.00     0.118 C 
BRANCH  34  35
ATOM     35  N   UNL A   1      44.288  20.719  24.776  1.00  0.00    -0.352 N 
ATOM     36  C   UNL A   1      44.892  21.954  24.806  1.00  0.00     0.251 C 
ATOM     37  H   UNL A   1      44.833  19.984  24.411  1.00  0.00     0.163 HD
ATOM     38  O   UNL A   1      45.861  22.184  24.076  1.00  0.00    -0.269 OA
BRANCH  36  39
ATOM     39  C   UNL A   1      44.372  22.995  25.706  1.00  0.00     0.039 A 
ATOM     40  C   UNL A   1      44.850  23.117  27.013  1.00  0.00     0.014 A 
ATOM     41  C   UNL A   1      43.409  23.875  25.217  1.00  0.00     0.014 A 
ATOM     42  C   UNL A   1      44.417  24.188  27.789  1.00  0.00     0.010 A 
ATOM     43  C   UNL A   1      43.087  25.005  25.931  1.00  0.00     0.010 A 
ATOM     44  C   UNL A   1      43.558  25.151  27.231  1.00  0.00    -0.014 A 
BRANCH  44  45
ATOM     45  C   UNL A   1      43.314  26.415  27.926  1.00  0.00     0.031 A 
ATOM     46  C   UNL A   1      44.327  27.456  27.604  1.00  0.00     0.074 A 
ATOM     47  C   UNL A   1      42.175  26.703  28.596  1.00  0.00     0.049 A 
ATOM     48  N   UNL A   1      45.285  27.879  28.361  1.00  0.00    -0.248 NA
ATOM     49  C   UNL A   1      44.421  27.930  26.210  1.00  0.00     0.031 C 
ATOM     50  C   UNL A   1      40.973  25.865  28.710  1.00  0.00     0.029 A 
ATOM     51  N   UNL A   1      41.787  27.857  29.214  1.00  0.00    -0.354 N 
ATOM     52  C   UNL A   1      45.905  28.890  27.635  1.00  0.00     0.074 A 
ATOM     53  C   UNL A   1      45.514  28.695  26.263  1.00  0.00     0.031 C 
ATOM     54  C   UNL A   1      39.929  26.618  29.119  1.00  0.00     0.029 A 
ATOM     55  C   UNL A   1      40.416  27.940  29.465  1.00  0.00     0.049 A 
ATOM     56  H   UNL A   1      42.420  28.569  29.461  1.00  0.00     0.167 HD
ATOM     57  C   UNL A   1      46.376  30.005  28.263  1.00  0.00     0.031 A 
ATOM     58  C   UNL A   1      39.724  29.023  29.906  1.00  0.00     0.031 A 
ATOM     59  C   UNL A   1      46.429  29.812  29.691  1.00  0.00     0.049 A 
ATOM     60  C   UNL A   1      40.701  29.914  30.564  1.00  0.00     0.074 A 
ATOM     61  C   UNL A   1      47.083  28.964  30.560  1.00  0.00     0.029 A 
ATOM     62  N   UNL A   1      45.362  30.340  30.374  1.00  0.00    -0.354 N 
ATOM     63  N   UNL A   1      41.340  29.596  31.654  1.00  0.00    -0.248 NA
ATOM     64  C   UNL A   1      41.273  31.013  29.802  1.00  0.00     0.031 C 
ATOM     65  C   UNL A   1      46.174  28.754  31.640  1.00  0.00     0.029 A 
ATOM     66  C   UNL A   1      45.036  29.536  31.430  1.00  0.00     0.049 A 
ATOM     67  H   UNL A   1      44.897  31.174  30.136  1.00  0.00     0.167 HD
ATOM     68  C   UNL A   1      42.610  30.119  31.476  1.00  0.00     0.074 A 
ATOM     69  C   UNL A   1      42.460  31.105  30.410  1.00  0.00     0.031 C 
ATOM     70  C   UNL A   1      43.702  29.485  31.998  1.00  0.00     0.031 A 
BRANCH  57  71
ATOM     71  C   UNL A   1      46.251  31.403  27.678  1.00  0.00    -0.014 A 
ATOM     72  C   UNL A   1      47.401  32.005  27.122  1.00  0.00     0.010 A 
ATOM     73  C   UNL A   1      45.155  32.254  27.932  1.00  0.00     0.010 A 
ATOM     74  C   UNL A   1      47.468  33.388  26.900  1.00  0.00     0.020 A 
ATOM     75  C   UNL A   1      45.194  33.625  27.674  1.00  0.00     0.020 A 
ATOM     76  C   UNL A   1      46.363  34.189  27.185  1.00  0.00     0.054 A 
BRANCH  76  77
ATOM     77  S   UNL A   1      46.476  35.980  26.953  1.00  0.00     0.124 S 
ATOM     78  O   UNL A   1      47.340  36.076  25.781  1.00  0.00    -0.237 OA
ATOM     79  O   UNL A   1      45.079  36.349  26.746  1.00  0.00    -0.237 OA
ATOM     80  O   UNL A   1      47.060  36.448  28.207  1.00  0.00    -0.744 OA
ENDBRANCH  76  77
ENDBRANCH  57  71
BRANCH  58  81
ATOM     81  C   UNL A   1      38.344  29.464  29.566  1.00  0.00    -0.014 A 
ATOM     82  C   UNL A   1      37.556  30.164  30.503  1.00  0.00     0.010 A 
ATOM     83  C   UNL A   1      37.916  29.471  28.224  1.00  0.00     0.010 A 
ATOM     84  C   UNL A   1      36.432  30.909  30.098  1.00  0.00     0.020 A 
ATOM     85  C   UNL A   1      36.794  30.205  27.815  1.00  0.00     0.020 A 
ATOM     86  C   UNL A   1      36.073  30.945  28.749  1.00  0.00     0.054 A 
BRANCH  86  87
ATOM     87  S   UNL A   1      34.746  32.064  28.203  1.00  0.00     0.124 S 
ATOM     88  O   UNL A   1      34.005  31.233  27.259  1.00  0.00    -0.237 OA
ATOM     89  O   UNL A   1      34.054  32.372  29.451  1.00  0.00    -0.237 OA
ATOM     90  O   UNL A   1      35.467  33.187  27.606  1.00  0.00    -0.744 OA
ENDBRANCH  86  87
ENDBRANCH  58  81
BRANCH  70  91
ATOM     91  C   UNL A   1      43.489  28.540  33.156  1.00  0.00    -0.014 A 
ATOM     92  C   UNL A   1      43.264  28.930  34.490  1.00  0.00     0.010 A 
ATOM     93  C   UNL A   1      43.435  27.171  32.841  1.00  0.00     0.010 A 
ATOM     94  C   UNL A   1      43.030  27.966  35.486  1.00  0.00     0.020 A 
ATOM     95  C   UNL A   1      43.181  26.211  33.819  1.00  0.00     0.020 A 
ATOM     96  C   UNL A   1      42.996  26.610  35.141  1.00  0.00     0.054 A 
BRANCH  96  97
ATOM     97  S   UNL A   1      42.691  25.363  36.423  1.00  0.00     0.124 S 
ATOM     98  O   UNL A   1      42.298  26.175  37.571  1.00  0.00    -0.237 OA
ATOM     99  O   UNL A   1      41.632  24.545  35.837  1.00  0.00    -0.237 OA
ATOM    100  O   UNL A   1      43.980  24.684  36.562  1.00  0.00    -0.744 OA
ENDBRANCH  96  97
ENDBRANCH  70  91
ENDBRANCH  44  45
ENDBRANCH  36  39
ENDBRANCH  34  35
ENDBRANCH  33  34
ENDBRANCH   1  33
TORSDOF 18
ENDMDL
MODEL 2
REMARK VINA RESULT:     -11.7      1.839      2.612
REMARK SMILES Cc1c(-c2nn(-c3ccccc3)cc2/C=N/O)nnn1-c1ccc(C(=O)NCCCNC(=O)c2ccc(-c3c4nc(c(-c5ccc(S(=O)(=O)[O-])cc5)c5ccc([nH]5)c(-c5ccc(S(=O)(=O)[O-])cc5)c5nc(c(-c6ccc(S(=O)(=O)[O-])cc6)c6ccc3[nH]6)C=C5)C=C4)cc2)cc1
REMARK SMILES IDX 28 1 27 2 25 3 26 4 24 6 21 7 22 8 95 9 23 10 94 11 20 12
REMARK SMILES IDX 1 13 2 14 3 15 18 16 19 17 4 18 5 19 14 20 6 21 13 22 15 23
REMARK SMILES IDX 16 24 17 25 7 27 8 28 12 29 9 30 11 31 10 32 29 33 30 34
REMARK SMILES IDX 31 35 32 36 33 38 34 39 35 40 93 41 36 42 92 43 37 44 38 45
REMARK SMILES IDX 39 46 86 47 40 48 91 49 85 50 87 51 41 52 90 53 84 54 83 55
REMARK SMILES IDX 42 57 72 58 53 59 71 60 54 61 57 62 70 63 88 64 55 65 56 66
REMARK SMILES IDX 69 68 89 69 58 70 43 71 44 72 52 73 45 74 51 75 46 76 47 77
REMARK SMILES IDX 48 78 49 79 50 80 73 81 74 82 82 83 75 84 81 85 76 86 77 87
REMARK SMILES IDX 78 88 79 89 80 90 59 91 60 92 68 93 61 94 67 95 62 96 63 97
REMARK SMILES IDX 64 98 65 99 66 100
REMARK H PARENT 27 5 17 26 31 37 87 56 57 67
REMARK Flexibility Score: inf
ROOT
ATOM      1  C   UNL A   1      40.769  22.201  26.548  1.00  0.00     0.118 C 
ENDROOT
BRANCH   1   2
ATOM      2  N   UNL A   1      40.337  20.855  26.209  1.00  0.00    -0.352 N 
ATOM      3  C   UNL A   1      39.184  20.350  25.658  1.00  0.00     0.251 C 
ATOM      4  O   UNL A   1      39.160  19.144  25.415  1.00  0.00    -0.269 OA
ATOM      5  H   UNL A   1      41.008  20.164  26.415  1.00  0.00     0.163 HD
BRANCH   3   6
ATOM      6  C   UNL A   1      38.000  21.182  25.292  1.00  0.00     0.039 A 
ATOM      7  C   UNL A   1      35.717  22.577  24.434  1.00  0.00     0.067 A 
ATOM      8  C   UNL A   1      35.632  21.206  24.676  1.00  0.00     0.029 A 
ATOM      9  C   UNL A   1      36.900  23.267  24.707  1.00  0.00     0.029 A 
ATOM     10  C   UNL A   1      36.782  20.511  25.072  1.00  0.00     0.016 A 
ATOM     11  C   UNL A   1      38.016  22.573  25.177  1.00  0.00     0.016 A 
BRANCH   7  12
ATOM     12  N   UNL A   1      34.602  23.277  23.934  1.00  0.00    -0.217 N 
ATOM     13  C   UNL A   1      33.777  24.408  26.055  1.00  0.00     0.069 C 
ATOM     14  C   UNL A   1      33.648  23.986  24.640  1.00  0.00     0.071 A 
ATOM     15  C   UNL A   1      32.714  24.297  23.672  1.00  0.00     0.137 A 
ATOM     16  N   UNL A   1      33.148  23.887  22.446  1.00  0.00    -0.128 NA
ATOM     17  N   UNL A   1      34.344  23.332  22.607  1.00  0.00    -0.061 NA
BRANCH  15  18
ATOM     18  C   UNL A   1      31.496  25.082  23.822  1.00  0.00     0.124 A 
ATOM     19  N   UNL A   1      31.251  26.146  23.052  1.00  0.00    -0.165 NA
ATOM     20  C   UNL A   1      30.490  24.874  24.796  1.00  0.00     0.044 A 
ATOM     21  N   UNL A   1      30.151  26.706  23.591  1.00  0.00    -0.240 N 
ATOM     22  C   UNL A   1      29.668  25.977  24.652  1.00  0.00     0.125 A 
BRANCH  20  23
ATOM     23  C   UNL A   1      30.284  23.814  25.749  1.00  0.00     0.166 C 
ATOM     24  N   UNL A   1      30.408  24.043  27.014  1.00  0.00    -0.097 NA
BRANCH  24  25
ATOM     25  O   UNL A   1      30.205  22.851  27.720  1.00  0.00    -0.411 OA
ATOM     26  H   UNL A   1      29.868  22.876  28.595  1.00  0.00     0.330 HD
ENDBRANCH  24  25
ENDBRANCH  20  23
BRANCH  21  27
ATOM     27  C   UNL A   1      29.641  27.920  23.083  1.00  0.00     0.065 A 
ATOM     28  C   UNL A   1      28.272  28.186  23.205  1.00  0.00     0.028 A 
ATOM     29  C   UNL A   1      30.489  28.829  22.440  1.00  0.00     0.028 A 
ATOM     30  C   UNL A   1      27.755  29.382  22.709  1.00  0.00     0.002 A 
ATOM     31  C   UNL A   1      29.950  29.995  21.895  1.00  0.00     0.002 A 
ATOM     32  C   UNL A   1      28.590  30.277  22.041  1.00  0.00     0.000 A 
ENDBRANCH  21  27
ENDBRANCH  15  18
ENDBRANCH   7  12
ENDBRANCH   3   6
ENDBRANCH   1   2
BRANCH   1  33
ATOM     33  C   UNL A   1      42.181  22.493  26.025  1.00  0.00     0.042 C 
BRANCH  33  34
ATOM     34  C   UNL A   1      43.259  21.892  26.915  1.00  0.00     0.118 C 
BRANCH  34  35
ATOM     35  N   UNL A   1      44.572  21.906  26.267  1.00  0.00    -0.352 N 
ATOM     36  C   UNL A   1      45.320  22.992  25.876  1.00  0.00     0.251 C 
ATOM     37  H   UNL A   1      44.971  21.023  26.087  1.00  0.00     0.163 HD
ATOM     38  O   UNL A   1      46.204  22.856  25.025  1.00  0.00    -0.269 OA
BRANCH  36  39
ATOM     39  C   UNL A   1      45.054  24.310  26.473  1.00  0.00     0.039 A 
ATOM     40  C   UNL A   1      44.398  25.306  25.746  1.00  0.00     0.014 A 
ATOM     41  C   UNL A   1      45.448  24.533  27.790  1.00  0.00     0.014 A 
ATOM     42  C   UNL A   1      44.062  26.495  26.389  1.00  0.00     0.010 A 
ATOM     43  C   UNL A   1      44.998  25.647  28.461  1.00  0.00     0.010 A 
ATOM     44  C   UNL A   1      44.335  26.648  27.759  1.00  0.00    -0.014 A 
BRANCH  44  45
ATOM     45  C   UNL A   1      43.751  27.760  28.510  1.00  0.00     0.031 A 
ATOM     46  C   UNL A   1      44.625  28.964  28.530  1.00  0.00     0.074 A 
ATOM     47  C   UNL A   1      42.468  27.794  28.936  1.00  0.00     0.049 A 
ATOM     48  N   UNL A   1      45.326  29.407  29.521  1.00  0.00    -0.248 NA
ATOM     49  C   UNL A   1      44.922  29.632  27.249  1.00  0.00     0.031 C 
ATOM     50  C   UNL A   1      41.422  26.792  28.692  1.00  0.00     0.029 A 
ATOM     51  N   UNL A   1      41.780  28.788  29.568  1.00  0.00    -0.354 N 
ATOM     52  C   UNL A   1      45.907  30.584  29.061  1.00  0.00     0.074 A 
ATOM     53  C   UNL A   1      45.841  30.525  27.624  1.00  0.00     0.031 C 
ATOM     54  C   UNL A   1      40.208  27.331  28.934  1.00  0.00     0.029 A 
ATOM     55  C   UNL A   1      40.392  28.647  29.516  1.00  0.00     0.049 A 
ATOM     56  H   UNL A   1      42.224  29.541  30.023  1.00  0.00     0.167 HD
ATOM     57  C   UNL A   1      46.051  31.656  29.889  1.00  0.00     0.031 A 
ATOM     58  C   UNL A   1      39.456  29.554  29.901  1.00  0.00     0.031 A 
ATOM     59  C   UNL A   1      45.844  31.279  31.266  1.00  0.00     0.049 A 
ATOM     60  C   UNL A   1      40.120  30.474  30.849  1.00  0.00     0.074 A 
ATOM     61  C   UNL A   1      46.436  30.418  32.166  1.00  0.00     0.029 A 
ATOM     62  N   UNL A   1      44.588  31.557  31.745  1.00  0.00    -0.354 N 
ATOM     63  N   UNL A   1      40.567  30.100  32.016  1.00  0.00    -0.248 NA
ATOM     64  C   UNL A   1      40.648  31.734  30.352  1.00  0.00     0.031 C 
ATOM     65  C   UNL A   1      45.373  29.939  32.989  1.00  0.00     0.029 A 
ATOM     66  C   UNL A   1      44.189  30.580  32.613  1.00  0.00     0.049 A 
ATOM     67  H   UNL A   1      44.051  32.344  31.498  1.00  0.00     0.167 HD
ATOM     68  C   UNL A   1      41.743  30.811  32.180  1.00  0.00     0.074 A 
ATOM     69  C   UNL A   1      41.655  31.905  31.215  1.00  0.00     0.031 C 
ATOM     70  C   UNL A   1      42.794  30.268  32.862  1.00  0.00     0.031 A 
BRANCH  57  71
ATOM     71  C   UNL A   1      45.822  33.090  29.440  1.00  0.00    -0.014 A 
ATOM     72  C   UNL A   1      46.736  34.081  29.859  1.00  0.00     0.010 A 
ATOM     73  C   UNL A   1      44.600  33.547  28.902  1.00  0.00     0.010 A 
ATOM     74  C   UNL A   1      46.414  35.444  29.803  1.00  0.00     0.020 A 
ATOM     75  C   UNL A   1      44.286  34.903  28.801  1.00  0.00     0.020 A 
ATOM     76  C   UNL A   1      45.186  35.845  29.279  1.00  0.00     0.054 A 
BRANCH  76  77
ATOM     77  S   UNL A   1      44.751  37.601  29.265  1.00  0.00     0.124 S 
ATOM     78  O   UNL A   1      43.308  37.554  29.466  1.00  0.00    -0.237 OA
ATOM     79  O   UNL A   1      45.534  38.117  30.385  1.00  0.00    -0.237 OA
ATOM     80  O   UNL A   1      45.191  38.048  27.946  1.00  0.00    -0.744 OA
ENDBRANCH  76  77
ENDBRANCH  57  71
BRANCH  58  81
ATOM     81  C   UNL A   1      38.122  29.845  29.312  1.00  0.00    -0.014 A 
ATOM     82  C   UNL A   1      37.993  30.209  27.955  1.00  0.00     0.010 A 
ATOM     83  C   UNL A   1      36.950  29.465  29.996  1.00  0.00     0.010 A 
ATOM     84  C   UNL A   1      36.755  30.117  27.291  1.00  0.00     0.020 A 
ATOM     85  C   UNL A   1      35.713  29.378  29.342  1.00  0.00     0.020 A 
ATOM     86  C   UNL A   1      35.626  29.676  27.985  1.00  0.00     0.054 A 
BRANCH  86  87
ATOM     87  S   UNL A   1      34.078  29.368  27.078  1.00  0.00     0.124 S 
ATOM     88  O   UNL A   1      33.595  30.720  26.816  1.00  0.00    -0.237 OA
ATOM     89  O   UNL A   1      34.537  28.624  25.907  1.00  0.00    -0.237 OA
ATOM     90  O   UNL A   1      33.275  28.594  28.023  1.00  0.00    -0.744 OA
ENDBRANCH  86  87
ENDBRANCH  58  81
BRANCH  70  91
ATOM     91  C   UNL A   1      42.507  29.154  33.840  1.00  0.00    -0.014 A 
ATOM     92  C   UNL A   1      42.529  27.781  33.534  1.00  0.00     0.010 A 
ATOM     93  C   UNL A   1      42.282  29.540  35.174  1.00  0.00     0.010 A 
ATOM     94  C   UNL A   1      42.292  26.823  34.535  1.00  0.00     0.020 A 
ATOM     95  C   UNL A   1      42.069  28.595  36.176  1.00  0.00     0.020 A 
ATOM     96  C   UNL A   1      42.057  27.240  35.850  1.00  0.00     0.054 A 
BRANCH  96  97
ATOM     97  S   UNL A   1      41.754  26.006  37.146  1.00  0.00     0.124 S 
ATOM     98  O   UNL A   1      42.785  26.318  38.130  1.00  0.00    -0.237 OA
ATOM     99  O   UNL A   1      40.382  26.296  37.556  1.00  0.00    -0.237 OA
ATOM    100  O   UNL A   1      41.926  24.727  36.456  1.00  0.00    -0.744 OA
ENDBRANCH  96  97
ENDBRANCH  70  91
ENDBRANCH  44  45
ENDBRANCH  36  39
ENDBRANCH  34  35
ENDBRANCH  33  34
ENDBRANCH   1  33
TORSDOF 18
ENDMDL
MODEL 3
REMARK VINA RESULT:     -11.7      2.865      9.736
REMARK SMILES Cc1c(-c2nn(-c3ccccc3)cc2/C=N/O)nnn1-c1ccc(C(=O)NCCCNC(=O)c2ccc(-c3c4nc(c(-c5ccc(S(=O)(=O)[O-])cc5)c5ccc([nH]5)c(-c5ccc(S(=O)(=O)[O-])cc5)c5nc(c(-c6ccc(S(=O)(=O)[O-])cc6)c6ccc3[nH]6)C=C5)C=C4)cc2)cc1
REMARK SMILES IDX 28 1 27 2 25 3 26 4 24 6 21 7 22 8 95 9 23 10 94 11 20 12
REMARK SMILES IDX 1 13 2 14 3 15 18 16 19 17 4 18 5 19 14 20 6 21 13 22 15 23
REMARK SMILES IDX 16 24 17 25 7 27 8 28 12 29 9 30 11 31 10 32 29 33 30 34
REMARK SMILES IDX 31 35 32 36 33 38 34 39 35 40 93 41 36 42 92 43 37 44 38 45
REMARK SMILES IDX 39 46 86 47 40 48 91 49 85 50 87 51 41 52 90 53 84 54 83 55
REMARK SMILES IDX 42 57 72 58 53 59 71 60 54 61 57 62 70 63 88 64 55 65 56 66
REMARK SMILES IDX 69 68 89 69 58 70 43 71 44 72 52 73 45 74 51 75 46 76 47 77
REMARK SMILES IDX 48 78 49 79 50 80 73 81 74 82 82 83 75 84 81 85 76 86 77 87
REMARK SMILES IDX 78 88 79 89 80 90 59 91 60 92 68 93 61 94 67 95 62 96 63 97
REMARK SMILES IDX 64 98 65 99 66 100
REMARK H PARENT 27 5 17 26 31 37 87 56 57 67
REMARK Flexibility Score: inf
ROOT
ATOM      1  C   UNL A   1      33.965  30.574  27.649  1.00  0.00     0.118 C 
ENDROOT
BRANCH   1   2
ATOM      2  N   UNL A   1      32.798  31.056  26.929  1.00  0.00    -0.352 N 
ATOM      3  C   UNL A   1      31.984  30.492  25.978  1.00  0.00     0.251 C 
ATOM      4  O   UNL A   1      31.004  31.146  25.618  1.00  0.00    -0.269 OA
ATOM      5  H   UNL A   1      32.538  31.974  27.174  1.00  0.00     0.163 HD
BRANCH   3   6
ATOM      6  C   UNL A   1      32.186  29.127  25.408  1.00  0.00     0.039 A 
ATOM      7  C   UNL A   1      32.567  26.475  24.565  1.00  0.00     0.067 A 
ATOM      8  C   UNL A   1      31.592  26.757  25.522  1.00  0.00     0.029 A 
ATOM      9  C   UNL A   1      33.282  27.511  23.962  1.00  0.00     0.029 A 
ATOM     10  C   UNL A   1      31.431  28.076  25.961  1.00  0.00     0.016 A 
ATOM     11  C   UNL A   1      33.053  28.831  24.354  1.00  0.00     0.016 A 
BRANCH   7  12
ATOM     12  N   UNL A   1      32.821  25.142  24.186  1.00  0.00    -0.217 N 
ATOM     13  C   UNL A   1      33.852  24.243  26.328  1.00  0.00     0.069 C 
ATOM     14  C   UNL A   1      33.505  24.167  24.888  1.00  0.00     0.071 A 
ATOM     15  C   UNL A   1      33.600  23.136  23.975  1.00  0.00     0.137 A 
ATOM     16  N   UNL A   1      32.917  23.447  22.837  1.00  0.00    -0.128 NA
ATOM     17  N   UNL A   1      32.377  24.649  23.007  1.00  0.00    -0.061 NA
BRANCH  15  18
ATOM     18  C   UNL A   1      34.188  21.818  24.171  1.00  0.00     0.124 A 
ATOM     19  N   UNL A   1      33.440  20.710  24.148  1.00  0.00    -0.165 NA
ATOM     20  C   UNL A   1      35.546  21.549  24.462  1.00  0.00     0.044 A 
ATOM     21  N   UNL A   1      34.279  19.731  24.539  1.00  0.00    -0.240 N 
ATOM     22  C   UNL A   1      35.555  20.196  24.750  1.00  0.00     0.125 A 
BRANCH  20  23
ATOM     23  C   UNL A   1      36.708  22.402  24.483  1.00  0.00     0.166 C 
ATOM     24  N   UNL A   1      36.954  23.139  25.514  1.00  0.00    -0.097 NA
BRANCH  24  25
ATOM     25  O   UNL A   1      38.103  23.902  25.271  1.00  0.00    -0.411 OA
ATOM     26  H   UNL A   1      38.704  23.644  24.600  1.00  0.00     0.330 HD
ENDBRANCH  24  25
ENDBRANCH  20  23
BRANCH  21  27
ATOM     27  C   UNL A   1      33.808  18.412  24.717  1.00  0.00     0.065 A 
ATOM     28  C   UNL A   1      34.385  17.377  23.971  1.00  0.00     0.028 A 
ATOM     29  C   UNL A   1      32.759  18.150  25.605  1.00  0.00     0.028 A 
ATOM     30  C   UNL A   1      33.930  16.069  24.139  1.00  0.00     0.002 A 
ATOM     31  C   UNL A   1      32.272  16.847  25.721  1.00  0.00     0.002 A 
ATOM     32  C   UNL A   1      32.866  15.808  25.000  1.00  0.00     0.000 A 
ENDBRANCH  21  27
ENDBRANCH  15  18
ENDBRANCH   7  12
ENDBRANCH   3   6
ENDBRANCH   1   2
BRANCH   1  33
ATOM     33  C   UNL A   1      34.474  31.606  28.663  1.00  0.00     0.042 C 
BRANCH  33  34
ATOM     34  C   UNL A   1      34.281  33.035  28.175  1.00  0.00     0.118 C 
BRANCH  34  35
ATOM     35  N   UNL A   1      33.921  33.941  29.268  1.00  0.00    -0.352 N 
ATOM     36  C   UNL A   1      34.384  33.942  30.562  1.00  0.00     0.251 C 
ATOM     37  H   UNL A   1      33.262  34.638  29.047  1.00  0.00     0.163 HD
ATOM     38  O   UNL A   1      33.732  34.503  31.449  1.00  0.00    -0.269 OA
BRANCH  36  39
ATOM     39  C   UNL A   1      35.652  33.268  30.882  1.00  0.00     0.039 A 
ATOM     40  C   UNL A   1      35.663  32.014  31.496  1.00  0.00     0.014 A 
ATOM     41  C   UNL A   1      36.845  33.899  30.533  1.00  0.00     0.014 A 
ATOM     42  C   UNL A   1      36.881  31.362  31.670  1.00  0.00     0.010 A 
ATOM     43  C   UNL A   1      38.029  33.201  30.580  1.00  0.00     0.010 A 
ATOM     44  C   UNL A   1      38.061  31.947  31.180  1.00  0.00    -0.014 A 
BRANCH  44  45
ATOM     45  C   UNL A   1      39.297  31.167  31.105  1.00  0.00     0.031 A 
ATOM     46  C   UNL A   1      39.939  30.974  32.433  1.00  0.00     0.074 A 
ATOM     47  C   UNL A   1      39.697  30.486  30.007  1.00  0.00     0.049 A 
ATOM     48  N   UNL A   1      41.003  31.555  32.882  1.00  0.00    -0.248 NA
ATOM     49  C   UNL A   1      39.203  30.212  33.460  1.00  0.00     0.031 C 
ATOM     50  C   UNL A   1      38.976  30.346  28.735  1.00  0.00     0.029 A 
ATOM     51  N   UNL A   1      40.772  29.665  29.827  1.00  0.00    -0.354 N 
ATOM     52  C   UNL A   1      41.226  30.992  34.134  1.00  0.00     0.074 A 
ATOM     53  C   UNL A   1      39.979  30.394  34.531  1.00  0.00     0.031 C 
ATOM     54  C   UNL A   1      39.487  29.312  28.032  1.00  0.00     0.029 A 
ATOM     55  C   UNL A   1      40.675  28.831  28.711  1.00  0.00     0.049 A 
ATOM     56  H   UNL A   1      41.549  29.660  30.431  1.00  0.00     0.167 HD
ATOM     57  C   UNL A   1      42.496  30.742  34.564  1.00  0.00     0.031 A 
ATOM     58  C   UNL A   1      41.498  27.803  28.377  1.00  0.00     0.031 A 
ATOM     59  C   UNL A   1      43.466  31.416  33.735  1.00  0.00     0.049 A 
ATOM     60  C   UNL A   1      42.779  28.038  29.076  1.00  0.00     0.074 A 
ATOM     61  C   UNL A   1      43.762  32.721  33.404  1.00  0.00     0.029 A 
ATOM     62  N   UNL A   1      44.040  30.619  32.776  1.00  0.00    -0.354 N 
ATOM     63  N   UNL A   1      43.562  29.048  28.818  1.00  0.00    -0.248 NA
ATOM     64  C   UNL A   1      43.017  27.372  30.347  1.00  0.00     0.031 C 
ATOM     65  C   UNL A   1      44.223  32.675  32.054  1.00  0.00     0.029 A 
ATOM     66  C   UNL A   1      44.264  31.342  31.638  1.00  0.00     0.049 A 
ATOM     67  H   UNL A   1      44.257  29.666  32.890  1.00  0.00     0.167 HD
ATOM     68  C   UNL A   1      44.059  29.426  30.054  1.00  0.00     0.074 A 
ATOM     69  C   UNL A   1      43.822  28.272  30.918  1.00  0.00     0.031 C 
ATOM     70  C   UNL A   1      44.332  30.737  30.321  1.00  0.00     0.031 A 
BRANCH  57  71
ATOM     71  C   UNL A   1      42.879  29.492  35.339  1.00  0.00    -0.014 A 
ATOM     72  C   UNL A   1      44.105  28.860  35.033  1.00  0.00     0.010 A 
ATOM     73  C   UNL A   1      41.964  28.750  36.114  1.00  0.00     0.010 A 
ATOM     74  C   UNL A   1      44.364  27.539  35.424  1.00  0.00     0.020 A 
ATOM     75  C   UNL A   1      42.229  27.449  36.546  1.00  0.00     0.020 A 
ATOM     76  C   UNL A   1      43.419  26.841  36.174  1.00  0.00     0.054 A 
BRANCH  76  77
ATOM     77  S   UNL A   1      43.734  25.117  36.624  1.00  0.00     0.124 S 
ATOM     78  O   UNL A   1      44.047  25.231  38.044  1.00  0.00    -0.237 OA
ATOM     79  O   UNL A   1      42.459  24.480  36.302  1.00  0.00    -0.237 OA
ATOM     80  O   UNL A   1      44.849  24.740  35.759  1.00  0.00    -0.744 OA
ENDBRANCH  76  77
ENDBRANCH  57  71
BRANCH  58  81
ATOM     81  C   UNL A   1      41.174  26.507  27.722  1.00  0.00    -0.014 A 
ATOM     82  C   UNL A   1      41.969  26.009  26.668  1.00  0.00     0.010 A 
ATOM     83  C   UNL A   1      40.272  25.614  28.333  1.00  0.00     0.010 A 
ATOM     84  C   UNL A   1      41.920  24.651  26.299  1.00  0.00     0.020 A 
ATOM     85  C   UNL A   1      40.214  24.262  27.966  1.00  0.00     0.020 A 
ATOM     86  C   UNL A   1      41.060  23.780  26.969  1.00  0.00     0.054 A 
BRANCH  86  87
ATOM     87  S   UNL A   1      41.144  21.994  26.627  1.00  0.00     0.124 S 
ATOM     88  O   UNL A   1      42.090  21.933  25.517  1.00  0.00    -0.237 OA
ATOM     89  O   UNL A   1      41.622  21.448  27.895  1.00  0.00    -0.237 OA
ATOM     90  O   UNL A   1      39.766  21.644  26.287  1.00  0.00    -0.744 OA
ENDBRANCH  86  87
ENDBRANCH  58  81
BRANCH  70  91
ATOM     91  C   UNL A   1      44.574  31.664  29.155  1.00  0.00    -0.014 A 
ATOM     92  C   UNL A   1      43.598  32.474  28.546  1.00  0.00     0.010 A 
ATOM     93  C   UNL A   1      45.905  31.772  28.712  1.00  0.00     0.010 A 
ATOM     94  C   UNL A   1      43.943  33.339  27.493  1.00  0.00     0.020 A 
ATOM     95  C   UNL A   1      46.258  32.645  27.684  1.00  0.00     0.020 A 
ATOM     96  C   UNL A   1      45.274  33.413  27.066  1.00  0.00     0.054 A 
BRANCH  96  97
ATOM     97  S   UNL A   1      45.724  34.530  25.709  1.00  0.00     0.124 S 
ATOM     98  O   UNL A   1      45.408  35.845  26.261  1.00  0.00    -0.237 OA
ATOM     99  O   UNL A   1      47.145  34.252  25.516  1.00  0.00    -0.237 OA
ATOM    100  O   UNL A   1      44.863  34.103  24.606  1.00  0.00    -0.744 OA
ENDBRANCH  96  97
ENDBRANCH  70  91
ENDBRANCH  44  45
ENDBRANCH  36  39
ENDBRANCH  34  35
ENDBRANCH  33  34
ENDBRANCH   1  33
TORSDOF 18
ENDMDL
