MODEL 1
REMARK VINA RESULT:     -10.1      0.000      0.000
REMARK SMILES CSCc1ccc(C(=O)Nc2cc(C)c(C(=O)NCCCNC(=O)c3ccc(-c4c5nc(c(-c6ccc(S(=O)(=O)[O-])cc6)c6ccc([nH]6)c(-c6ccc(S(=O)(=O)[O-])cc6)c6nc(c(-c7ccc(S(=O)(=O)[O-])cc7)c7ccc4[nH]7)C=C6)C=C5)cc3)s2)cc1
REMARK SMILES IDX 19 1 18 2 16 3 17 4 15 6 11 7 12 8 85 9 13 10 14 11 10 12
REMARK SMILES IDX 8 13 9 14 7 16 4 17 5 18 87 19 6 20 86 21 3 22 2 23 1 24
REMARK SMILES IDX 20 25 21 26 22 27 23 28 24 30 25 31 26 32 84 33 27 34 83 35
REMARK SMILES IDX 28 36 29 37 30 38 77 39 31 40 82 41 76 42 78 43 32 44 81 45
REMARK SMILES IDX 75 46 74 47 33 49 63 50 44 51 62 52 45 53 48 54 61 55 79 56
REMARK SMILES IDX 46 57 47 58 60 60 80 61 49 62 34 63 35 64 43 65 36 66 42 67
REMARK SMILES IDX 37 68 38 69 39 70 40 71 41 72 64 73 65 74 73 75 66 76 72 77
REMARK SMILES IDX 67 78 68 79 69 80 70 81 71 82 50 83 51 84 59 85 52 86 58 87
REMARK SMILES IDX 53 88 54 89 55 90 56 91 57 92
REMARK H PARENT 18 5 10 15 22 29 78 48 48 59
REMARK Flexibility Score: inf
ROOT
ATOM      1  C   UNL A   1      42.810  21.496  25.734  1.00  0.00     0.118 C 
ENDROOT
BRANCH   1   2
ATOM      2  N   UNL A   1      44.156  20.987  25.612  1.00  0.00    -0.351 N 
ATOM      3  C   UNL A   1      45.397  21.534  25.797  1.00  0.00     0.261 C 
ATOM      4  O   UNL A   1      46.308  20.710  25.646  1.00  0.00    -0.268 OA
ATOM      5  H   UNL A   1      44.188  20.043  25.337  1.00  0.00     0.163 HD
BRANCH   3   6
ATOM      6  C   UNL A   1      45.667  22.935  26.135  1.00  0.00     0.097 A 
ATOM      7  C   UNL A   1      45.704  25.338  25.582  1.00  0.00     0.096 A 
ATOM      8  C   UNL A   1      45.812  25.143  26.929  1.00  0.00     0.042 A 
ATOM      9  S   UNL A   1      46.053  23.926  24.732  1.00  0.00    -0.112 S 
ATOM     10  C   UNL A   1      45.622  23.754  27.271  1.00  0.00    -0.025 A 
ATOM     11  C   UNL A   1      45.293  23.442  28.691  1.00  0.00     0.046 C 
BRANCH   7  12
ATOM     12  N   UNL A   1      45.532  26.525  24.936  1.00  0.00    -0.314 N 
ATOM     13  C   UNL A   1      46.484  27.446  24.545  1.00  0.00     0.256 C 
ATOM     14  O   UNL A   1      46.054  28.425  23.922  1.00  0.00    -0.269 OA
ATOM     15  H   UNL A   1      44.601  26.761  24.720  1.00  0.00     0.171 HD
BRANCH  13  16
ATOM     16  C   UNL A   1      47.975  27.334  24.725  1.00  0.00     0.040 A 
ATOM     17  C   UNL A   1      50.823  27.199  24.772  1.00  0.00    -0.038 A 
ATOM     18  C   UNL A   1      50.113  26.958  23.594  1.00  0.00     0.005 A 
ATOM     19  C   UNL A   1      50.091  27.405  25.943  1.00  0.00     0.005 A 
ATOM     20  C   UNL A   1      48.717  27.058  23.565  1.00  0.00     0.014 A 
ATOM     21  C   UNL A   1      48.688  27.410  25.923  1.00  0.00     0.014 A 
BRANCH  17  22
ATOM     22  C   UNL A   1      52.330  27.216  24.794  1.00  0.00     0.104 C 
BRANCH  22  23
ATOM     23  S   UNL A   1      53.074  25.679  25.439  1.00  0.00    -0.161 SA
ATOM     24  C   UNL A   1      52.411  25.684  27.123  1.00  0.00     0.085 C 
ENDBRANCH  22  23
ENDBRANCH  17  22
ENDBRANCH  13  16
ENDBRANCH   7  12
ENDBRANCH   3   6
ENDBRANCH   1   2
BRANCH   1  25
ATOM     25  C   UNL A   1      42.490  21.832  27.192  1.00  0.00     0.042 C 
BRANCH  25  26
ATOM     26  C   UNL A   1      42.008  23.259  27.414  1.00  0.00     0.118 C 
BRANCH  26  27
ATOM     27  N   UNL A   1      42.224  24.083  26.237  1.00  0.00    -0.352 N 
ATOM     28  C   UNL A   1      41.993  25.423  26.039  1.00  0.00     0.251 C 
ATOM     29  H   UNL A   1      42.594  23.606  25.459  1.00  0.00     0.163 HD
ATOM     30  O   UNL A   1      41.975  25.855  24.889  1.00  0.00    -0.269 OA
BRANCH  28  31
ATOM     31  C   UNL A   1      41.767  26.340  27.180  1.00  0.00     0.039 A 
ATOM     32  C   UNL A   1      40.668  26.116  28.015  1.00  0.00     0.014 A 
ATOM     33  C   UNL A   1      42.581  27.455  27.394  1.00  0.00     0.014 A 
ATOM     34  C   UNL A   1      40.412  26.981  29.083  1.00  0.00     0.010 A 
ATOM     35  C   UNL A   1      42.375  28.269  28.505  1.00  0.00     0.010 A 
ATOM     36  C   UNL A   1      41.278  28.052  29.352  1.00  0.00    -0.014 A 
BRANCH  36  37
ATOM     37  C   UNL A   1      41.048  28.963  30.501  1.00  0.00     0.031 A 
ATOM     38  C   UNL A   1      41.864  28.818  31.759  1.00  0.00     0.074 A 
ATOM     39  C   UNL A   1      40.054  29.870  30.443  1.00  0.00     0.049 A 
ATOM     40  N   UNL A   1      41.762  29.471  32.889  1.00  0.00    -0.248 NA
ATOM     41  C   UNL A   1      42.907  27.779  31.759  1.00  0.00     0.031 C 
ATOM     42  C   UNL A   1      39.158  30.070  29.301  1.00  0.00     0.029 A 
ATOM     43  N   UNL A   1      39.619  30.784  31.369  1.00  0.00    -0.354 N 
ATOM     44  C   UNL A   1      42.703  28.902  33.740  1.00  0.00     0.074 A 
ATOM     45  C   UNL A   1      43.335  27.825  33.011  1.00  0.00     0.031 C 
ATOM     46  C   UNL A   1      38.291  31.052  29.590  1.00  0.00     0.029 A 
ATOM     47  C   UNL A   1      38.542  31.527  30.948  1.00  0.00     0.049 A 
ATOM     48  H   UNL A   1      40.038  30.896  32.253  1.00  0.00     0.167 HD
ATOM     49  C   UNL A   1      43.022  29.254  35.009  1.00  0.00     0.031 A 
ATOM     50  C   UNL A   1      37.827  32.475  31.582  1.00  0.00     0.031 A 
ATOM     51  C   UNL A   1      42.401  30.340  35.721  1.00  0.00     0.049 A 
ATOM     52  C   UNL A   1      38.217  32.875  32.977  1.00  0.00     0.074 A 
ATOM     53  C   UNL A   1      42.707  30.833  36.977  1.00  0.00     0.029 A 
ATOM     54  N   UNL A   1      41.343  31.097  35.242  1.00  0.00    -0.354 N 
ATOM     55  N   UNL A   1      39.168  32.384  33.735  1.00  0.00    -0.248 NA
ATOM     56  C   UNL A   1      37.451  33.964  33.595  1.00  0.00     0.031 C 
ATOM     57  C   UNL A   1      41.799  31.854  37.279  1.00  0.00     0.029 A 
ATOM     58  C   UNL A   1      40.964  32.036  36.187  1.00  0.00     0.049 A 
ATOM     59  H   UNL A   1      40.921  30.985  34.359  1.00  0.00     0.167 HD
ATOM     60  C   UNL A   1      39.129  33.118  34.915  1.00  0.00     0.074 A 
ATOM     61  C   UNL A   1      38.069  34.096  34.762  1.00  0.00     0.031 C 
ATOM     62  C   UNL A   1      39.901  32.995  36.023  1.00  0.00     0.031 A 
BRANCH  49  63
ATOM     63  C   UNL A   1      44.076  28.439  35.714  1.00  0.00    -0.014 A 
ATOM     64  C   UNL A   1      45.442  28.762  35.614  1.00  0.00     0.010 A 
ATOM     65  C   UNL A   1      43.693  27.336  36.500  1.00  0.00     0.010 A 
ATOM     66  C   UNL A   1      46.407  27.965  36.236  1.00  0.00     0.020 A 
ATOM     67  C   UNL A   1      44.653  26.553  37.149  1.00  0.00     0.020 A 
ATOM     68  C   UNL A   1      46.007  26.860  36.992  1.00  0.00     0.054 A 
BRANCH  68  69
ATOM     69  S   UNL A   1      47.279  25.838  37.783  1.00  0.00     0.124 S 
ATOM     70  O   UNL A   1      47.958  25.257  36.627  1.00  0.00    -0.237 OA
ATOM     71  O   UNL A   1      48.055  26.818  38.539  1.00  0.00    -0.237 OA
ATOM     72  O   UNL A   1      46.513  24.896  38.594  1.00  0.00    -0.744 OA
ENDBRANCH  68  69
ENDBRANCH  49  63
BRANCH  50  73
ATOM     73  C   UNL A   1      36.680  33.114  30.882  1.00  0.00    -0.014 A 
ATOM     74  C   UNL A   1      35.380  33.025  31.409  1.00  0.00     0.010 A 
ATOM     75  C   UNL A   1      36.896  33.870  29.715  1.00  0.00     0.010 A 
ATOM     76  C   UNL A   1      34.317  33.683  30.783  1.00  0.00     0.020 A 
ATOM     77  C   UNL A   1      35.841  34.549  29.101  1.00  0.00     0.020 A 
ATOM     78  C   UNL A   1      34.556  34.449  29.638  1.00  0.00     0.054 A 
BRANCH  78  79
ATOM     79  S   UNL A   1      33.179  35.370  28.897  1.00  0.00     0.124 S 
ATOM     80  O   UNL A   1      32.548  34.355  28.061  1.00  0.00    -0.237 OA
ATOM     81  O   UNL A   1      32.415  35.791  30.069  1.00  0.00    -0.237 OA
ATOM     82  O   UNL A   1      33.842  36.454  28.176  1.00  0.00    -0.744 OA
ENDBRANCH  78  79
ENDBRANCH  50  73
BRANCH  62  83
ATOM     83  C   UNL A   1      39.644  33.955  37.155  1.00  0.00    -0.014 A 
ATOM     84  C   UNL A   1      38.987  33.540  38.326  1.00  0.00     0.010 A 
ATOM     85  C   UNL A   1      40.123  35.274  37.066  1.00  0.00     0.010 A 
ATOM     86  C   UNL A   1      38.786  34.438  39.378  1.00  0.00     0.020 A 
ATOM     87  C   UNL A   1      39.949  36.166  38.126  1.00  0.00     0.020 A 
ATOM     88  C   UNL A   1      39.269  35.746  39.270  1.00  0.00     0.054 A 
BRANCH  88  89
ATOM     89  S   UNL A   1      39.037  36.879  40.667  1.00  0.00     0.124 S 
ATOM     90  O   UNL A   1      38.270  37.961  40.056  1.00  0.00    -0.237 OA
ATOM     91  O   UNL A   1      38.308  36.058  41.630  1.00  0.00    -0.237 OA
ATOM     92  O   UNL A   1      40.400  37.227  41.061  1.00  0.00    -0.744 OA
ENDBRANCH  88  89
ENDBRANCH  62  83
ENDBRANCH  36  37
ENDBRANCH  28  31
ENDBRANCH  26  27
ENDBRANCH  25  26
ENDBRANCH   1  25
TORSDOF 17
ENDMDL
MODEL 2
REMARK VINA RESULT:      -9.8      5.050     11.580
REMARK SMILES CSCc1ccc(C(=O)Nc2cc(C)c(C(=O)NCCCNC(=O)c3ccc(-c4c5nc(c(-c6ccc(S(=O)(=O)[O-])cc6)c6ccc([nH]6)c(-c6ccc(S(=O)(=O)[O-])cc6)c6nc(c(-c7ccc(S(=O)(=O)[O-])cc7)c7ccc4[nH]7)C=C6)C=C5)cc3)s2)cc1
REMARK SMILES IDX 19 1 18 2 16 3 17 4 15 6 11 7 12 8 85 9 13 10 14 11 10 12
REMARK SMILES IDX 8 13 9 14 7 16 4 17 5 18 87 19 6 20 86 21 3 22 2 23 1 24
REMARK SMILES IDX 20 25 21 26 22 27 23 28 24 30 25 31 26 32 84 33 27 34 83 35
REMARK SMILES IDX 28 36 29 37 30 38 77 39 31 40 82 41 76 42 78 43 32 44 81 45
REMARK SMILES IDX 75 46 74 47 33 49 63 50 44 51 62 52 45 53 48 54 61 55 79 56
REMARK SMILES IDX 46 57 47 58 60 60 80 61 49 62 34 63 35 64 43 65 36 66 42 67
REMARK SMILES IDX 37 68 38 69 39 70 40 71 41 72 64 73 65 74 73 75 66 76 72 77
REMARK SMILES IDX 67 78 68 79 69 80 70 81 71 82 50 83 51 84 59 85 52 86 58 87
REMARK SMILES IDX 53 88 54 89 55 90 56 91 57 92
REMARK H PARENT 18 5 10 15 22 29 78 48 48 59
REMARK Flexibility Score: inf
ROOT
ATOM      1  C   UNL A   1      48.565  22.794  36.218  1.00  0.00     0.118 C 
ENDROOT
BRANCH   1   2
ATOM      2  N   UNL A   1      48.500  21.704  35.273  1.00  0.00    -0.351 N 
ATOM      3  C   UNL A   1      47.880  20.483  35.275  1.00  0.00     0.261 C 
ATOM      4  O   UNL A   1      48.033  19.871  34.210  1.00  0.00    -0.268 OA
ATOM      5  H   UNL A   1      49.011  21.876  34.449  1.00  0.00     0.163 HD
BRANCH   3   6
ATOM      6  C   UNL A   1      47.112  19.922  36.389  1.00  0.00     0.097 A 
ATOM      7  C   UNL A   1      45.470  18.333  37.318  1.00  0.00     0.096 A 
ATOM      8  C   UNL A   1      46.217  18.901  38.308  1.00  0.00     0.042 A 
ATOM      9  S   UNL A   1      45.575  19.221  35.890  1.00  0.00    -0.112 S 
ATOM     10  C   UNL A   1      47.287  19.700  37.762  1.00  0.00    -0.025 A 
ATOM     11  C   UNL A   1      48.420  20.034  38.670  1.00  0.00     0.046 C 
BRANCH   7  12
ATOM     12  N   UNL A   1      44.585  17.304  37.444  1.00  0.00    -0.314 N 
ATOM     13  C   UNL A   1      44.298  16.538  38.556  1.00  0.00     0.256 C 
ATOM     14  O   UNL A   1      43.404  15.695  38.406  1.00  0.00    -0.269 OA
ATOM     15  H   UNL A   1      44.082  17.074  36.629  1.00  0.00     0.171 HD
BRANCH  13  16
ATOM     16  C   UNL A   1      44.894  16.685  39.931  1.00  0.00     0.040 A 
ATOM     17  C   UNL A   1      46.296  16.953  42.400  1.00  0.00    -0.038 A 
ATOM     18  C   UNL A   1      46.869  16.278  41.320  1.00  0.00     0.005 A 
ATOM     19  C   UNL A   1      44.980  17.399  42.266  1.00  0.00     0.005 A 
ATOM     20  C   UNL A   1      46.192  16.177  40.099  1.00  0.00     0.014 A 
ATOM     21  C   UNL A   1      44.275  17.210  41.067  1.00  0.00     0.014 A 
BRANCH  17  22
ATOM     22  C   UNL A   1      47.057  17.176  43.682  1.00  0.00     0.104 C 
BRANCH  22  23
ATOM     23  S   UNL A   1      46.321  16.344  45.130  1.00  0.00    -0.161 SA
ATOM     24  C   UNL A   1      47.209  14.767  45.079  1.00  0.00     0.085 C 
ENDBRANCH  22  23
ENDBRANCH  17  22
ENDBRANCH  13  16
ENDBRANCH   7  12
ENDBRANCH   3   6
ENDBRANCH   1   2
BRANCH   1  25
ATOM     25  C   UNL A   1      47.335  23.695  36.089  1.00  0.00     0.042 C 
BRANCH  25  26
ATOM     26  C   UNL A   1      47.653  25.184  36.045  1.00  0.00     0.118 C 
BRANCH  26  27
ATOM     27  N   UNL A   1      47.725  25.753  37.380  1.00  0.00    -0.352 N 
ATOM     28  C   UNL A   1      47.126  26.875  37.899  1.00  0.00     0.251 C 
ATOM     29  H   UNL A   1      48.293  25.256  38.013  1.00  0.00     0.163 HD
ATOM     30  O   UNL A   1      47.546  27.333  38.959  1.00  0.00    -0.269 OA
BRANCH  28  31
ATOM     31  C   UNL A   1      45.996  27.533  37.203  1.00  0.00     0.039 A 
ATOM     32  C   UNL A   1      46.259  28.641  36.390  1.00  0.00     0.014 A 
ATOM     33  C   UNL A   1      44.676  27.117  37.398  1.00  0.00     0.014 A 
ATOM     34  C   UNL A   1      45.209  29.300  35.743  1.00  0.00     0.010 A 
ATOM     35  C   UNL A   1      43.640  27.722  36.690  1.00  0.00     0.010 A 
ATOM     36  C   UNL A   1      43.893  28.831  35.869  1.00  0.00    -0.014 A 
BRANCH  36  37
ATOM     37  C   UNL A   1      42.766  29.492  35.164  1.00  0.00     0.031 A 
ATOM     38  C   UNL A   1      42.353  29.027  33.792  1.00  0.00     0.074 A 
ATOM     39  C   UNL A   1      42.165  30.559  35.724  1.00  0.00     0.049 A 
ATOM     40  N   UNL A   1      41.444  29.522  32.992  1.00  0.00    -0.248 NA
ATOM     41  C   UNL A   1      43.083  27.878  33.231  1.00  0.00     0.031 C 
ATOM     42  C   UNL A   1      42.512  31.139  37.024  1.00  0.00     0.029 A 
ATOM     43  N   UNL A   1      41.147  31.357  35.266  1.00  0.00    -0.354 N 
ATOM     44  C   UNL A   1      41.513  28.767  31.826  1.00  0.00     0.074 A 
ATOM     45  C   UNL A   1      42.582  27.810  32.007  1.00  0.00     0.031 C 
ATOM     46  C   UNL A   1      41.712  32.189  37.264  1.00  0.00     0.029 A 
ATOM     47  C   UNL A   1      40.822  32.382  36.123  1.00  0.00     0.049 A 
ATOM     48  H   UNL A   1      40.692  31.209  34.406  1.00  0.00     0.167 HD
ATOM     49  C   UNL A   1      40.747  28.854  30.711  1.00  0.00     0.031 A 
ATOM     50  C   UNL A   1      39.919  33.373  36.002  1.00  0.00     0.031 A 
ATOM     51  C   UNL A   1      39.673  29.797  30.547  1.00  0.00     0.049 A 
ATOM     52  C   UNL A   1      39.057  33.433  34.774  1.00  0.00     0.074 A 
ATOM     53  C   UNL A   1      38.783  29.913  29.494  1.00  0.00     0.029 A 
ATOM     54  N   UNL A   1      39.347  30.791  31.457  1.00  0.00    -0.354 N 
ATOM     55  N   UNL A   1      39.078  32.655  33.717  1.00  0.00    -0.248 NA
ATOM     56  C   UNL A   1      38.038  34.490  34.726  1.00  0.00     0.031 C 
ATOM     57  C   UNL A   1      37.952  31.011  29.743  1.00  0.00     0.029 A 
ATOM     58  C   UNL A   1      38.287  31.543  30.980  1.00  0.00     0.049 A 
ATOM     59  H   UNL A   1      39.802  30.941  32.318  1.00  0.00     0.167 HD
ATOM     60  C   UNL A   1      38.064  33.116  32.887  1.00  0.00     0.074 A 
ATOM     61  C   UNL A   1      37.439  34.231  33.571  1.00  0.00     0.031 C 
ATOM     62  C   UNL A   1      37.684  32.657  31.668  1.00  0.00     0.031 A 
BRANCH  49  63
ATOM     63  C   UNL A   1      41.063  27.914  29.576  1.00  0.00    -0.014 A 
ATOM     64  C   UNL A   1      40.315  26.742  29.363  1.00  0.00     0.010 A 
ATOM     65  C   UNL A   1      42.120  28.216  28.697  1.00  0.00     0.010 A 
ATOM     66  C   UNL A   1      40.654  25.860  28.333  1.00  0.00     0.020 A 
ATOM     67  C   UNL A   1      42.444  27.352  27.646  1.00  0.00     0.020 A 
ATOM     68  C   UNL A   1      41.723  26.167  27.486  1.00  0.00     0.054 A 
BRANCH  68  69
ATOM     69  S   UNL A   1      42.147  25.003  26.162  1.00  0.00     0.124 S 
ATOM     70  O   UNL A   1      43.477  24.556  26.570  1.00  0.00    -0.237 OA
ATOM     71  O   UNL A   1      41.090  24.000  26.264  1.00  0.00    -0.237 OA
ATOM     72  O   UNL A   1      42.109  25.823  24.954  1.00  0.00    -0.744 OA
ENDBRANCH  68  69
ENDBRANCH  49  63
BRANCH  50  73
ATOM     73  C   UNL A   1      39.787  34.376  37.094  1.00  0.00    -0.014 A 
ATOM     74  C   UNL A   1      39.000  34.102  38.226  1.00  0.00     0.010 A 
ATOM     75  C   UNL A   1      40.500  35.587  37.032  1.00  0.00     0.010 A 
ATOM     76  C   UNL A   1      38.933  35.018  39.279  1.00  0.00     0.020 A 
ATOM     77  C   UNL A   1      40.455  36.495  38.094  1.00  0.00     0.020 A 
ATOM     78  C   UNL A   1      39.668  36.206  39.211  1.00  0.00     0.054 A 
BRANCH  78  79
ATOM     79  S   UNL A   1      39.640  37.337  40.629  1.00  0.00     0.124 S 
ATOM     80  O   UNL A   1      41.041  37.348  41.037  1.00  0.00    -0.237 OA
ATOM     81  O   UNL A   1      39.145  38.576  40.034  1.00  0.00    -0.237 OA
ATOM     82  O   UNL A   1      38.718  36.693  41.562  1.00  0.00    -0.744 OA
ENDBRANCH  78  79
ENDBRANCH  50  73
BRANCH  62  83
ATOM     83  C   UNL A   1      36.523  33.346  31.001  1.00  0.00    -0.014 A 
ATOM     84  C   UNL A   1      35.313  33.559  31.684  1.00  0.00     0.010 A 
ATOM     85  C   UNL A   1      36.670  33.840  29.693  1.00  0.00     0.010 A 
ATOM     86  C   UNL A   1      34.259  34.228  31.057  1.00  0.00     0.020 A 
ATOM     87  C   UNL A   1      35.628  34.534  29.073  1.00  0.00     0.020 A 
ATOM     88  C   UNL A   1      34.423  34.712  29.755  1.00  0.00     0.054 A 
BRANCH  88  89
ATOM     89  S   UNL A   1      33.057  35.618  28.981  1.00  0.00     0.124 S 
ATOM     90  O   UNL A   1      33.758  36.708  28.309  1.00  0.00    -0.237 OA
ATOM     91  O   UNL A   1      32.464  34.614  28.100  1.00  0.00    -0.237 OA
ATOM     92  O   UNL A   1      32.221  36.017  30.111  1.00  0.00    -0.744 OA
ENDBRANCH  88  89
ENDBRANCH  62  83
ENDBRANCH  36  37
ENDBRANCH  28  31
ENDBRANCH  26  27
ENDBRANCH  25  26
ENDBRANCH   1  25
TORSDOF 17
ENDMDL
MODEL 3
REMARK VINA RESULT:      -9.5      2.492      4.352
REMARK SMILES CSCc1ccc(C(=O)Nc2cc(C)c(C(=O)NCCCNC(=O)c3ccc(-c4c5nc(c(-c6ccc(S(=O)(=O)[O-])cc6)c6ccc([nH]6)c(-c6ccc(S(=O)(=O)[O-])cc6)c6nc(c(-c7ccc(S(=O)(=O)[O-])cc7)c7ccc4[nH]7)C=C6)C=C5)cc3)s2)cc1
REMARK SMILES IDX 19 1 18 2 16 3 17 4 15 6 11 7 12 8 85 9 13 10 14 11 10 12
REMARK SMILES IDX 8 13 9 14 7 16 4 17 5 18 87 19 6 20 86 21 3 22 2 23 1 24
REMARK SMILES IDX 20 25 21 26 22 27 23 28 24 30 25 31 26 32 84 33 27 34 83 35
REMARK SMILES IDX 28 36 29 37 30 38 77 39 31 40 82 41 76 42 78 43 32 44 81 45
REMARK SMILES IDX 75 46 74 47 33 49 63 50 44 51 62 52 45 53 48 54 61 55 79 56
REMARK SMILES IDX 46 57 47 58 60 60 80 61 49 62 34 63 35 64 43 65 36 66 42 67
REMARK SMILES IDX 37 68 38 69 39 70 40 71 41 72 64 73 65 74 73 75 66 76 72 77
REMARK SMILES IDX 67 78 68 79 69 80 70 81 71 82 50 83 51 84 59 85 52 86 58 87
REMARK SMILES IDX 53 88 54 89 55 90 56 91 57 92
REMARK H PARENT 18 5 10 15 22 29 78 48 48 59
REMARK Flexibility Score: inf
ROOT
ATOM      1  C   UNL A   1      44.905  26.995  25.713  1.00  0.00     0.118 C 
ENDROOT
BRANCH   1   2
ATOM      2  N   UNL A   1      43.997  28.117  25.689  1.00  0.00    -0.351 N 
ATOM      3  C   UNL A   1      43.685  29.104  26.586  1.00  0.00     0.261 C 
ATOM      4  O   UNL A   1      42.882  29.926  26.127  1.00  0.00    -0.268 OA
ATOM      5  H   UNL A   1      43.494  28.189  24.846  1.00  0.00     0.163 HD
BRANCH   3   6
ATOM      6  C   UNL A   1      44.216  29.214  27.947  1.00  0.00     0.097 A 
ATOM      7  C   UNL A   1      46.068  29.120  29.574  1.00  0.00     0.096 A 
ATOM      8  C   UNL A   1      44.985  29.762  30.100  1.00  0.00     0.042 A 
ATOM      9  S   UNL A   1      45.640  28.213  28.220  1.00  0.00    -0.112 S 
ATOM     10  C   UNL A   1      43.964  29.968  29.101  1.00  0.00    -0.025 A 
ATOM     11  C   UNL A   1      42.927  31.000  29.389  1.00  0.00     0.046 C 
BRANCH   7  12
ATOM     12  N   UNL A   1      47.311  29.022  30.124  1.00  0.00    -0.314 N 
ATOM     13  C   UNL A   1      47.764  28.150  31.094  1.00  0.00     0.256 C 
ATOM     14  O   UNL A   1      48.966  28.244  31.375  1.00  0.00    -0.269 OA
ATOM     15  H   UNL A   1      47.977  29.661  29.783  1.00  0.00     0.171 HD
BRANCH  13  16
ATOM     16  C   UNL A   1      46.973  27.061  31.769  1.00  0.00     0.040 A 
ATOM     17  C   UNL A   1      45.469  24.857  32.777  1.00  0.00    -0.038 A 
ATOM     18  C   UNL A   1      45.373  25.238  31.436  1.00  0.00     0.005 A 
ATOM     19  C   UNL A   1      46.243  25.651  33.625  1.00  0.00     0.005 A 
ATOM     20  C   UNL A   1      46.137  26.299  30.937  1.00  0.00     0.014 A 
ATOM     21  C   UNL A   1      46.933  26.770  33.134  1.00  0.00     0.014 A 
BRANCH  17  22
ATOM     22  C   UNL A   1      44.747  23.644  33.304  1.00  0.00     0.104 C 
BRANCH  22  23
ATOM     23  S   UNL A   1      44.132  23.838  35.011  1.00  0.00    -0.161 SA
ATOM     24  C   UNL A   1      44.964  22.443  35.812  1.00  0.00     0.085 C 
ENDBRANCH  22  23
ENDBRANCH  17  22
ENDBRANCH  13  16
ENDBRANCH   7  12
ENDBRANCH   3   6
ENDBRANCH   1   2
BRANCH   1  25
ATOM     25  C   UNL A   1      44.170  25.698  25.367  1.00  0.00     0.042 C 
BRANCH  25  26
ATOM     26  C   UNL A   1      42.668  25.861  25.178  1.00  0.00     0.118 C 
BRANCH  26  27
ATOM     27  N   UNL A   1      41.943  24.692  25.646  1.00  0.00    -0.352 N 
ATOM     28  C   UNL A   1      41.449  24.396  26.894  1.00  0.00     0.251 C 
ATOM     29  H   UNL A   1      41.779  24.004  24.961  1.00  0.00     0.163 HD
ATOM     30  O   UNL A   1      41.124  23.238  27.141  1.00  0.00    -0.269 OA
BRANCH  28  31
ATOM     31  C   UNL A   1      41.308  25.444  27.932  1.00  0.00     0.039 A 
ATOM     32  C   UNL A   1      40.026  25.897  28.260  1.00  0.00     0.014 A 
ATOM     33  C   UNL A   1      42.424  26.033  28.533  1.00  0.00     0.014 A 
ATOM     34  C   UNL A   1      39.863  26.905  29.215  1.00  0.00     0.010 A 
ATOM     35  C   UNL A   1      42.258  26.977  29.543  1.00  0.00     0.010 A 
ATOM     36  C   UNL A   1      40.977  27.437  29.882  1.00  0.00    -0.014 A 
BRANCH  36  37
ATOM     37  C   UNL A   1      40.827  28.482  30.926  1.00  0.00     0.031 A 
ATOM     38  C   UNL A   1      41.657  28.425  32.181  1.00  0.00     0.074 A 
ATOM     39  C   UNL A   1      39.889  29.438  30.780  1.00  0.00     0.049 A 
ATOM     40  N   UNL A   1      41.619  29.203  33.233  1.00  0.00    -0.248 NA
ATOM     41  C   UNL A   1      42.635  27.328  32.283  1.00  0.00     0.031 C 
ATOM     42  C   UNL A   1      38.984  29.567  29.636  1.00  0.00     0.029 A 
ATOM     43  N   UNL A   1      39.530  30.474  31.605  1.00  0.00    -0.354 N 
ATOM     44  C   UNL A   1      42.540  28.674  34.130  1.00  0.00     0.074 A 
ATOM     45  C   UNL A   1      43.090  27.485  33.517  1.00  0.00     0.031 C 
ATOM     46  C   UNL A   1      38.185  30.628  29.825  1.00  0.00     0.029 A 
ATOM     47  C   UNL A   1      38.492  31.232  31.118  1.00  0.00     0.049 A 
ATOM     48  H   UNL A   1      39.973  30.656  32.465  1.00  0.00     0.167 HD
ATOM     49  C   UNL A   1      42.906  29.142  35.347  1.00  0.00     0.031 A 
ATOM     50  C   UNL A   1      37.850  32.288  31.653  1.00  0.00     0.031 A 
ATOM     51  C   UNL A   1      42.367  30.338  35.942  1.00  0.00     0.049 A 
ATOM     52  C   UNL A   1      38.291  32.813  32.989  1.00  0.00     0.074 A 
ATOM     53  C   UNL A   1      42.729  30.945  37.132  1.00  0.00     0.029 A 
ATOM     54  N   UNL A   1      41.348  31.102  35.396  1.00  0.00    -0.354 N 
ATOM     55  N   UNL A   1      39.226  32.350  33.785  1.00  0.00    -0.248 NA
ATOM     56  C   UNL A   1      37.607  34.011  33.492  1.00  0.00     0.031 C 
ATOM     57  C   UNL A   1      41.891  32.048  37.330  1.00  0.00     0.029 A 
ATOM     58  C   UNL A   1      41.047  32.161  36.235  1.00  0.00     0.049 A 
ATOM     59  H   UNL A   1      40.902  30.920  34.536  1.00  0.00     0.167 HD
ATOM     60  C   UNL A   1      39.256  33.211  34.876  1.00  0.00     0.074 A 
ATOM     61  C   UNL A   1      38.255  34.231  34.629  1.00  0.00     0.031 C 
ATOM     62  C   UNL A   1      40.041  33.162  35.981  1.00  0.00     0.031 A 
BRANCH  49  63
ATOM     63  C   UNL A   1      43.922  28.345  36.124  1.00  0.00    -0.014 A 
ATOM     64  C   UNL A   1      43.538  27.273  36.951  1.00  0.00     0.010 A 
ATOM     65  C   UNL A   1      45.288  28.664  36.014  1.00  0.00     0.010 A 
ATOM     66  C   UNL A   1      44.491  26.577  37.700  1.00  0.00     0.020 A 
ATOM     67  C   UNL A   1      46.249  27.951  36.738  1.00  0.00     0.020 A 
ATOM     68  C   UNL A   1      45.840  26.926  37.595  1.00  0.00     0.054 A 
BRANCH  68  69
ATOM     69  S   UNL A   1      47.056  26.012  38.582  1.00  0.00     0.124 S 
ATOM     70  O   UNL A   1      48.267  26.801  38.371  1.00  0.00    -0.237 OA
ATOM     71  O   UNL A   1      46.491  26.075  39.928  1.00  0.00    -0.237 OA
ATOM     72  O   UNL A   1      47.065  24.683  37.976  1.00  0.00    -0.744 OA
ENDBRANCH  68  69
ENDBRANCH  49  63
BRANCH  50  73
ATOM     73  C   UNL A   1      36.730  32.917  30.902  1.00  0.00    -0.014 A 
ATOM     74  C   UNL A   1      35.396  32.576  31.185  1.00  0.00     0.010 A 
ATOM     75  C   UNL A   1      36.994  33.910  29.940  1.00  0.00     0.010 A 
ATOM     76  C   UNL A   1      34.346  33.218  30.522  1.00  0.00     0.020 A 
ATOM     77  C   UNL A   1      35.946  34.572  29.294  1.00  0.00     0.020 A 
ATOM     78  C   UNL A   1      34.627  34.219  29.588  1.00  0.00     0.054 A 
BRANCH  78  79
ATOM     79  S   UNL A   1      33.248  35.105  28.810  1.00  0.00     0.124 S 
ATOM     80  O   UNL A   1      33.942  36.101  28.002  1.00  0.00    -0.237 OA
ATOM     81  O   UNL A   1      32.572  34.044  28.065  1.00  0.00    -0.237 OA
ATOM     82  O   UNL A   1      32.495  35.631  29.947  1.00  0.00    -0.744 OA
ENDBRANCH  78  79
ENDBRANCH  50  73
BRANCH  62  83
ATOM     83  C   UNL A   1      39.866  34.255  37.002  1.00  0.00    -0.014 A 
ATOM     84  C   UNL A   1      39.093  34.053  38.158  1.00  0.00     0.010 A 
ATOM     85  C   UNL A   1      40.538  35.478  36.828  1.00  0.00     0.010 A 
ATOM     86  C   UNL A   1      38.969  35.070  39.109  1.00  0.00     0.020 A 
ATOM     87  C   UNL A   1      40.439  36.486  37.790  1.00  0.00     0.020 A 
ATOM     88  C   UNL A   1      39.644  36.280  38.918  1.00  0.00     0.054 A 
BRANCH  88  89
ATOM     89  S   UNL A   1      39.505  37.566  40.189  1.00  0.00     0.124 S 
ATOM     90  O   UNL A   1      38.549  38.489  39.583  1.00  0.00    -0.237 OA
ATOM     91  O   UNL A   1      39.014  36.823  41.347  1.00  0.00    -0.237 OA
ATOM     92  O   UNL A   1      40.868  38.076  40.316  1.00  0.00    -0.744 OA
ENDBRANCH  88  89
ENDBRANCH  62  83
ENDBRANCH  36  37
ENDBRANCH  28  31
ENDBRANCH  26  27
ENDBRANCH  25  26
ENDBRANCH   1  25
TORSDOF 17
ENDMDL
