MODEL 1
REMARK VINA RESULT:     -11.9      0.000      0.000
REMARK SMILES O=C(NCCCNC(=O)c1cccnc1C(=O)Nc1ccc([N+](=O)[O-])cc1)c1ccc(-c2c3nc(c(-c4ccc(S(=O)(=O)[O-])cc4)c4ccc([nH]4)c(-c4ccc(S(=O)(=O)[O-])cc4)c4nc(c(-c5ccc(S(=O)(=O)[O-])cc5)c5ccc2[nH]5)C=C4)C=C3)cc1
REMARK SMILES IDX 5 1 4 2 3 3 1 4 2 5 28 7 29 8 87 9 30 10 86 11 31 12 32 13
REMARK SMILES IDX 33 14 80 15 34 16 85 17 79 18 81 19 35 20 84 21 78 22 77 23
REMARK SMILES IDX 36 25 66 26 47 27 65 28 48 29 51 30 64 31 82 32 49 33 50 34
REMARK SMILES IDX 63 36 83 37 52 38 37 39 38 40 46 41 39 42 45 43 40 44 41 45
REMARK SMILES IDX 42 46 43 47 44 48 67 49 68 50 76 51 69 52 75 53 70 54 71 55
REMARK SMILES IDX 72 56 73 57 74 58 53 59 54 60 62 61 55 62 61 63 56 64 57 65
REMARK SMILES IDX 58 66 59 67 60 68 6 69 7 70 8 71 9 73 10 74 11 75 15 76
REMARK SMILES IDX 12 77 14 78 13 79 16 80 17 81 18 82 19 84 20 85 27 86 21 87
REMARK SMILES IDX 26 88 22 89 23 90 24 91 25 92
REMARK H PARENT 3 6 81 24 51 35 7 72 18 83
REMARK Flexibility Score: inf
ROOT
ATOM      1  C   UNL A   1      32.925  27.258  26.920  1.00  0.00     0.042 C 
ENDROOT
BRANCH   1   2
ATOM      2  C   UNL A   1      33.832  28.382  26.402  1.00  0.00     0.118 C 
BRANCH   2   3
ATOM      3  N   UNL A   1      33.547  29.729  26.848  1.00  0.00    -0.352 N 
ATOM      4  O   UNL A   1      33.924  31.607  28.052  1.00  0.00    -0.269 OA
ATOM      5  C   UNL A   1      34.337  30.529  27.648  1.00  0.00     0.251 C 
ATOM      6  H   UNL A   1      32.694  30.118  26.549  1.00  0.00     0.163 HD
BRANCH   5   7
ATOM      7  C   UNL A   1      35.686  30.059  28.031  1.00  0.00     0.039 A 
ATOM      8  C   UNL A   1      35.943  29.606  29.330  1.00  0.00     0.014 A 
ATOM      9  C   UNL A   1      36.697  30.054  27.069  1.00  0.00     0.014 A 
ATOM     10  C   UNL A   1      37.238  29.228  29.692  1.00  0.00     0.010 A 
ATOM     11  C   UNL A   1      37.986  29.645  27.425  1.00  0.00     0.010 A 
ATOM     12  C   UNL A   1      38.273  29.253  28.744  1.00  0.00    -0.014 A 
BRANCH  12  13
ATOM     13  C   UNL A   1      39.658  28.863  29.109  1.00  0.00     0.031 A 
ATOM     14  C   UNL A   1      40.597  29.873  29.708  1.00  0.00     0.074 A 
ATOM     15  C   UNL A   1      40.096  27.618  28.846  1.00  0.00     0.049 A 
ATOM     16  N   UNL A   1      41.872  29.759  29.978  1.00  0.00    -0.248 NA
ATOM     17  C   UNL A   1      40.025  31.188  30.038  1.00  0.00     0.031 C 
ATOM     18  C   UNL A   1      39.285  26.542  28.275  1.00  0.00     0.029 A 
ATOM     19  N   UNL A   1      41.339  27.056  29.000  1.00  0.00    -0.354 N 
ATOM     20  C   UNL A   1      42.265  30.993  30.482  1.00  0.00     0.074 A 
ATOM     21  C   UNL A   1      41.093  31.845  30.469  1.00  0.00     0.031 C 
ATOM     22  C   UNL A   1      40.055  25.456  28.112  1.00  0.00     0.029 A 
ATOM     23  C   UNL A   1      41.421  25.771  28.519  1.00  0.00     0.049 A 
ATOM     24  H   UNL A   1      42.097  27.528  29.414  1.00  0.00     0.167 HD
ATOM     25  C   UNL A   1      43.490  31.384  30.913  1.00  0.00     0.031 A 
ATOM     26  C   UNL A   1      42.481  24.950  28.382  1.00  0.00     0.031 A 
ATOM     27  C   UNL A   1      44.656  30.539  30.910  1.00  0.00     0.049 A 
ATOM     28  C   UNL A   1      43.840  25.411  28.825  1.00  0.00     0.074 A 
ATOM     29  C   UNL A   1      45.932  30.835  31.356  1.00  0.00     0.029 A 
ATOM     30  N   UNL A   1      44.692  29.241  30.426  1.00  0.00    -0.354 N 
ATOM     31  N   UNL A   1      44.187  26.568  29.336  1.00  0.00    -0.248 NA
ATOM     32  C   UNL A   1      44.949  24.457  28.681  1.00  0.00     0.031 C 
ATOM     33  C   UNL A   1      46.752  29.731  31.096  1.00  0.00     0.029 A 
ATOM     34  C   UNL A   1      45.974  28.729  30.538  1.00  0.00     0.049 A 
ATOM     35  H   UNL A   1      43.920  28.754  30.056  1.00  0.00     0.167 HD
ATOM     36  C   UNL A   1      45.549  26.474  29.596  1.00  0.00     0.074 A 
ATOM     37  C   UNL A   1      45.964  25.147  29.188  1.00  0.00     0.031 C 
ATOM     38  C   UNL A   1      46.376  27.404  30.133  1.00  0.00     0.031 A 
BRANCH  25  39
ATOM     39  C   UNL A   1      43.634  32.810  31.375  1.00  0.00    -0.014 A 
ATOM     40  C   UNL A   1      43.985  33.837  30.482  1.00  0.00     0.010 A 
ATOM     41  C   UNL A   1      43.412  33.124  32.729  1.00  0.00     0.010 A 
ATOM     42  C   UNL A   1      44.178  35.142  30.947  1.00  0.00     0.020 A 
ATOM     43  C   UNL A   1      43.580  34.432  33.192  1.00  0.00     0.020 A 
ATOM     44  C   UNL A   1      43.990  35.427  32.303  1.00  0.00     0.054 A 
BRANCH  44  45
ATOM     45  S   UNL A   1      44.286  37.117  32.890  1.00  0.00     0.124 S 
ATOM     46  O   UNL A   1      44.194  37.884  31.648  1.00  0.00    -0.237 OA
ATOM     47  O   UNL A   1      43.194  37.327  33.836  1.00  0.00    -0.237 OA
ATOM     48  O   UNL A   1      45.618  37.050  33.484  1.00  0.00    -0.744 OA
ENDBRANCH  44  45
ENDBRANCH  25  39
BRANCH  26  49
ATOM     49  C   UNL A   1      42.275  23.607  27.776  1.00  0.00    -0.014 A 
ATOM     50  C   UNL A   1      42.416  23.419  26.392  1.00  0.00     0.010 A 
ATOM     51  C   UNL A   1      42.024  22.494  28.600  1.00  0.00     0.010 A 
ATOM     52  C   UNL A   1      42.328  22.137  25.842  1.00  0.00     0.020 A 
ATOM     53  C   UNL A   1      41.957  21.208  28.057  1.00  0.00     0.020 A 
ATOM     54  C   UNL A   1      42.110  21.038  26.680  1.00  0.00     0.054 A 
BRANCH  54  55
ATOM     55  S   UNL A   1      42.114  19.373  25.958  1.00  0.00     0.124 S 
ATOM     56  O   UNL A   1      42.663  18.571  27.047  1.00  0.00    -0.237 OA
ATOM     57  O   UNL A   1      40.700  19.155  25.663  1.00  0.00    -0.237 OA
ATOM     58  O   UNL A   1      42.973  19.511  24.785  1.00  0.00    -0.744 OA
ENDBRANCH  54  55
ENDBRANCH  26  49
BRANCH  38  59
ATOM     59  C   UNL A   1      47.815  27.021  30.356  1.00  0.00    -0.014 A 
ATOM     60  C   UNL A   1      48.819  27.398  29.447  1.00  0.00     0.010 A 
ATOM     61  C   UNL A   1      48.176  26.364  31.548  1.00  0.00     0.010 A 
ATOM     62  C   UNL A   1      50.161  27.121  29.727  1.00  0.00     0.020 A 
ATOM     63  C   UNL A   1      49.517  26.104  31.839  1.00  0.00     0.020 A 
ATOM     64  C   UNL A   1      50.502  26.481  30.924  1.00  0.00     0.054 A 
BRANCH  64  65
ATOM     65  S   UNL A   1      52.255  26.215  31.306  1.00  0.00     0.124 S 
ATOM     66  O   UNL A   1      52.226  24.921  31.983  1.00  0.00    -0.237 OA
ATOM     67  O   UNL A   1      52.878  26.218  29.985  1.00  0.00    -0.237 OA
ATOM     68  O   UNL A   1      52.602  27.354  32.154  1.00  0.00    -0.744 OA
ENDBRANCH  64  65
ENDBRANCH  38  59
ENDBRANCH  12  13
ENDBRANCH   5   7
ENDBRANCH   2   3
ENDBRANCH   1   2
BRANCH   1  69
ATOM     69  C   UNL A   1      32.478  26.148  25.974  1.00  0.00     0.118 C 
BRANCH  69  70
ATOM     70  N   UNL A   1      31.775  25.016  26.580  1.00  0.00    -0.352 N 
ATOM     71  C   UNL A   1      32.128  23.679  26.688  1.00  0.00     0.253 C 
ATOM     72  H   UNL A   1      30.904  25.242  26.976  1.00  0.00     0.163 HD
ATOM     73  O   UNL A   1      31.522  22.934  27.451  1.00  0.00    -0.269 OA
BRANCH  71  74
ATOM     74  C   UNL A   1      33.307  23.164  25.985  1.00  0.00     0.071 A 
ATOM     75  C   UNL A   1      34.502  23.300  26.727  1.00  0.00     0.018 A 
ATOM     76  C   UNL A   1      33.353  22.469  24.775  1.00  0.00     0.141 A 
ATOM     77  C   UNL A   1      35.717  22.859  26.227  1.00  0.00     0.021 A 
ATOM     78  N   UNL A   1      34.580  22.087  24.272  1.00  0.00    -0.250 NA
ATOM     79  C   UNL A   1      35.707  22.279  24.985  1.00  0.00     0.112 A 
BRANCH  76  80
ATOM     80  C   UNL A   1      32.262  21.827  23.914  1.00  0.00     0.275 C 
ATOM     81  O   UNL A   1      31.379  22.571  23.456  1.00  0.00    -0.267 OA
ATOM     82  N   UNL A   1      32.202  20.553  23.410  1.00  0.00    -0.321 N 
ATOM     83  H   UNL A   1      31.736  20.506  22.543  1.00  0.00     0.170 HD
BRANCH  82  84
ATOM     84  C   UNL A   1      32.648  19.316  23.847  1.00  0.00     0.042 A 
ATOM     85  C   UNL A   1      32.676  19.108  25.234  1.00  0.00     0.033 A 
ATOM     86  C   UNL A   1      33.040  18.311  22.970  1.00  0.00     0.033 A 
ATOM     87  C   UNL A   1      32.850  17.823  25.741  1.00  0.00     0.088 A 
ATOM     88  C   UNL A   1      33.272  17.035  23.478  1.00  0.00     0.088 A 
ATOM     89  C   UNL A   1      33.078  16.786  24.840  1.00  0.00     0.269 A 
BRANCH  89  90
ATOM     90  N   UNL A   1      32.924  15.408  25.286  1.00  0.00     0.062 N 
ATOM     91  O   UNL A   1      33.928  14.686  25.287  1.00  0.00    -0.258 OA
ATOM     92  O   UNL A   1      31.795  15.080  25.686  1.00  0.00    -0.258 OA
ENDBRANCH  89  90
ENDBRANCH  82  84
ENDBRANCH  76  80
ENDBRANCH  71  74
ENDBRANCH  69  70
ENDBRANCH   1  69
TORSDOF 16
ENDMDL
MODEL 2
REMARK VINA RESULT:     -11.8      3.140      9.528
REMARK SMILES O=C(NCCCNC(=O)c1cccnc1C(=O)Nc1ccc([N+](=O)[O-])cc1)c1ccc(-c2c3nc(c(-c4ccc(S(=O)(=O)[O-])cc4)c4ccc([nH]4)c(-c4ccc(S(=O)(=O)[O-])cc4)c4nc(c(-c5ccc(S(=O)(=O)[O-])cc5)c5ccc2[nH]5)C=C4)C=C3)cc1
REMARK SMILES IDX 5 1 4 2 3 3 1 4 2 5 28 7 29 8 87 9 30 10 86 11 31 12 32 13
REMARK SMILES IDX 33 14 80 15 34 16 85 17 79 18 81 19 35 20 84 21 78 22 77 23
REMARK SMILES IDX 36 25 66 26 47 27 65 28 48 29 51 30 64 31 82 32 49 33 50 34
REMARK SMILES IDX 63 36 83 37 52 38 37 39 38 40 46 41 39 42 45 43 40 44 41 45
REMARK SMILES IDX 42 46 43 47 44 48 67 49 68 50 76 51 69 52 75 53 70 54 71 55
REMARK SMILES IDX 72 56 73 57 74 58 53 59 54 60 62 61 55 62 61 63 56 64 57 65
REMARK SMILES IDX 58 66 59 67 60 68 6 69 7 70 8 71 9 73 10 74 11 75 15 76
REMARK SMILES IDX 12 77 14 78 13 79 16 80 17 81 18 82 19 84 20 85 27 86 21 87
REMARK SMILES IDX 26 88 22 89 23 90 24 91 25 92
REMARK H PARENT 3 6 81 24 51 35 7 72 18 83
REMARK Flexibility Score: inf
ROOT
ATOM      1  C   UNL A   1      35.656  23.872  25.862  1.00  0.00     0.042 C 
ENDROOT
BRANCH   1   2
ATOM      2  C   UNL A   1      36.922  23.808  24.998  1.00  0.00     0.118 C 
BRANCH   2   3
ATOM      3  N   UNL A   1      37.843  22.718  25.242  1.00  0.00    -0.352 N 
ATOM      4  O   UNL A   1      39.778  21.801  25.969  1.00  0.00    -0.269 OA
ATOM      5  C   UNL A   1      39.033  22.770  25.937  1.00  0.00     0.251 C 
ATOM      6  H   UNL A   1      37.592  21.842  24.871  1.00  0.00     0.163 HD
BRANCH   5   7
ATOM      7  C   UNL A   1      39.412  24.022  26.629  1.00  0.00     0.039 A 
ATOM      8  C   UNL A   1      40.202  24.982  25.988  1.00  0.00     0.014 A 
ATOM      9  C   UNL A   1      38.950  24.241  27.927  1.00  0.00     0.014 A 
ATOM     10  C   UNL A   1      40.604  26.127  26.679  1.00  0.00     0.010 A 
ATOM     11  C   UNL A   1      39.327  25.402  28.607  1.00  0.00     0.010 A 
ATOM     12  C   UNL A   1      40.177  26.343  27.999  1.00  0.00    -0.014 A 
BRANCH  12  13
ATOM     13  C   UNL A   1      40.598  27.549  28.756  1.00  0.00     0.031 A 
ATOM     14  C   UNL A   1      41.892  27.548  29.522  1.00  0.00     0.074 A 
ATOM     15  C   UNL A   1      39.791  28.624  28.807  1.00  0.00     0.049 A 
ATOM     16  N   UNL A   1      42.370  28.454  30.337  1.00  0.00    -0.248 NA
ATOM     17  C   UNL A   1      42.756  26.369  29.354  1.00  0.00     0.031 C 
ATOM     18  C   UNL A   1      38.515  28.755  28.103  1.00  0.00     0.029 A 
ATOM     19  N   UNL A   1      39.913  29.801  29.503  1.00  0.00    -0.354 N 
ATOM     20  C   UNL A   1      43.576  27.944  30.803  1.00  0.00     0.074 A 
ATOM     21  C   UNL A   1      43.750  26.644  30.188  1.00  0.00     0.031 C 
ATOM     22  C   UNL A   1      37.964  29.938  28.416  1.00  0.00     0.029 A 
ATOM     23  C   UNL A   1      38.821  30.626  29.378  1.00  0.00     0.049 A 
ATOM     24  H   UNL A   1      40.705  30.030  30.040  1.00  0.00     0.167 HD
ATOM     25  C   UNL A   1      44.457  28.505  31.668  1.00  0.00     0.031 A 
ATOM     26  C   UNL A   1      38.520  31.785  29.994  1.00  0.00     0.031 A 
ATOM     27  C   UNL A   1      44.274  29.791  32.289  1.00  0.00     0.049 A 
ATOM     28  C   UNL A   1      39.487  32.375  30.981  1.00  0.00     0.074 A 
ATOM     29  C   UNL A   1      45.126  30.456  33.154  1.00  0.00     0.029 A 
ATOM     30  N   UNL A   1      43.160  30.598  32.125  1.00  0.00    -0.354 N 
ATOM     31  N   UNL A   1      40.641  31.899  31.383  1.00  0.00    -0.248 NA
ATOM     32  C   UNL A   1      39.116  33.658  31.595  1.00  0.00     0.031 C 
ATOM     33  C   UNL A   1      44.503  31.645  33.551  1.00  0.00     0.029 A 
ATOM     34  C   UNL A   1      43.288  31.745  32.891  1.00  0.00     0.049 A 
ATOM     35  H   UNL A   1      42.390  30.388  31.549  1.00  0.00     0.167 HD
ATOM     36  C   UNL A   1      41.146  32.835  32.277  1.00  0.00     0.074 A 
ATOM     37  C   UNL A   1      40.174  33.906  32.358  1.00  0.00     0.031 C 
ATOM     38  C   UNL A   1      42.317  32.809  32.961  1.00  0.00     0.031 A 
BRANCH  25  39
ATOM     39  C   UNL A   1      45.676  27.697  32.028  1.00  0.00    -0.014 A 
ATOM     40  C   UNL A   1      45.669  26.805  33.115  1.00  0.00     0.010 A 
ATOM     41  C   UNL A   1      46.849  27.835  31.263  1.00  0.00     0.010 A 
ATOM     42  C   UNL A   1      46.831  26.116  33.472  1.00  0.00     0.020 A 
ATOM     43  C   UNL A   1      48.006  27.128  31.602  1.00  0.00     0.020 A 
ATOM     44  C   UNL A   1      47.998  26.295  32.722  1.00  0.00     0.054 A 
BRANCH  44  45
ATOM     45  S   UNL A   1      49.505  25.423  33.227  1.00  0.00     0.124 S 
ATOM     46  O   UNL A   1      50.110  25.100  31.936  1.00  0.00    -0.237 OA
ATOM     47  O   UNL A   1      50.212  26.429  34.015  1.00  0.00    -0.237 OA
ATOM     48  O   UNL A   1      49.007  24.278  33.985  1.00  0.00    -0.744 OA
ENDBRANCH  44  45
ENDBRANCH  25  39
BRANCH  26  49
ATOM     49  C   UNL A   1      37.222  32.444  29.689  1.00  0.00    -0.014 A 
ATOM     50  C   UNL A   1      36.070  32.128  30.426  1.00  0.00     0.010 A 
ATOM     51  C   UNL A   1      37.159  33.459  28.715  1.00  0.00     0.010 A 
ATOM     52  C   UNL A   1      34.879  32.828  30.207  1.00  0.00     0.020 A 
ATOM     53  C   UNL A   1      35.978  34.175  28.509  1.00  0.00     0.020 A 
ATOM     54  C   UNL A   1      34.844  33.855  29.258  1.00  0.00     0.054 A 
BRANCH  54  55
ATOM     55  S   UNL A   1      33.320  34.824  29.074  1.00  0.00     0.124 S 
ATOM     56  O   UNL A   1      33.827  36.090  28.555  1.00  0.00    -0.237 OA
ATOM     57  O   UNL A   1      32.547  34.019  28.131  1.00  0.00    -0.237 OA
ATOM     58  O   UNL A   1      32.779  34.871  30.430  1.00  0.00    -0.744 OA
ENDBRANCH  54  55
ENDBRANCH  26  49
BRANCH  38  59
ATOM     59  C   UNL A   1      42.646  33.989  33.836  1.00  0.00    -0.014 A 
ATOM     60  C   UNL A   1      42.314  33.999  35.201  1.00  0.00     0.010 A 
ATOM     61  C   UNL A   1      43.392  35.055  33.300  1.00  0.00     0.010 A 
ATOM     62  C   UNL A   1      42.722  35.060  36.017  1.00  0.00     0.020 A 
ATOM     63  C   UNL A   1      43.818  36.107  34.116  1.00  0.00     0.020 A 
ATOM     64  C   UNL A   1      43.476  36.104  35.469  1.00  0.00     0.054 A 
BRANCH  64  65
ATOM     65  S   UNL A   1      44.071  37.423  36.565  1.00  0.00     0.124 S 
ATOM     66  O   UNL A   1      43.075  37.403  37.633  1.00  0.00    -0.237 OA
ATOM     67  O   UNL A   1      45.403  36.955  36.940  1.00  0.00    -0.237 OA
ATOM     68  O   UNL A   1      44.052  38.612  35.716  1.00  0.00    -0.744 OA
ENDBRANCH  64  65
ENDBRANCH  38  59
ENDBRANCH  12  13
ENDBRANCH   5   7
ENDBRANCH   2   3
ENDBRANCH   1   2
BRANCH   1  69
ATOM     69  C   UNL A   1      34.772  25.115  25.823  1.00  0.00     0.118 C 
BRANCH  69  70
ATOM     70  N   UNL A   1      34.161  25.443  24.534  1.00  0.00    -0.352 N 
ATOM     71  C   UNL A   1      33.172  24.798  23.807  1.00  0.00     0.253 C 
ATOM     72  H   UNL A   1      34.514  26.259  24.112  1.00  0.00     0.163 HD
ATOM     73  O   UNL A   1      32.618  25.364  22.870  1.00  0.00    -0.269 OA
BRANCH  71  74
ATOM     74  C   UNL A   1      32.687  23.478  24.222  1.00  0.00     0.071 A 
ATOM     75  C   UNL A   1      33.263  22.417  23.486  1.00  0.00     0.018 A 
ATOM     76  C   UNL A   1      31.857  23.164  25.299  1.00  0.00     0.141 A 
ATOM     77  C   UNL A   1      32.932  21.096  23.745  1.00  0.00     0.021 A 
ATOM     78  N   UNL A   1      31.500  21.848  25.503  1.00  0.00    -0.250 NA
ATOM     79  C   UNL A   1      32.029  20.864  24.749  1.00  0.00     0.112 A 
BRANCH  76  80
ATOM     80  C   UNL A   1      31.372  23.984  26.498  1.00  0.00     0.275 C 
ATOM     81  O   UNL A   1      31.315  23.413  27.599  1.00  0.00    -0.267 OA
ATOM     82  N   UNL A   1      31.152  25.335  26.584  1.00  0.00    -0.321 N 
ATOM     83  H   UNL A   1      31.335  25.696  27.483  1.00  0.00     0.170 HD
BRANCH  82  84
ATOM     84  C   UNL A   1      30.730  26.307  25.692  1.00  0.00     0.042 A 
ATOM     85  C   UNL A   1      31.371  27.553  25.764  1.00  0.00     0.033 A 
ATOM     86  C   UNL A   1      29.733  26.075  24.751  1.00  0.00     0.033 A 
ATOM     87  C   UNL A   1      31.200  28.484  24.743  1.00  0.00     0.088 A 
ATOM     88  C   UNL A   1      29.517  27.028  23.758  1.00  0.00     0.088 A 
ATOM     89  C   UNL A   1      30.319  28.172  23.711  1.00  0.00     0.269 A 
BRANCH  89  90
ATOM     90  N   UNL A   1      30.368  28.942  22.475  1.00  0.00     0.062 N 
ATOM     91  O   UNL A   1      31.471  29.353  22.094  1.00  0.00    -0.258 OA
ATOM     92  O   UNL A   1      29.294  29.078  21.867  1.00  0.00    -0.258 OA
ENDBRANCH  89  90
ENDBRANCH  82  84
ENDBRANCH  76  80
ENDBRANCH  71  74
ENDBRANCH  69  70
ENDBRANCH   1  69
TORSDOF 16
ENDMDL
MODEL 3
REMARK VINA RESULT:     -11.7      1.429      2.273
REMARK SMILES O=C(NCCCNC(=O)c1cccnc1C(=O)Nc1ccc([N+](=O)[O-])cc1)c1ccc(-c2c3nc(c(-c4ccc(S(=O)(=O)[O-])cc4)c4ccc([nH]4)c(-c4ccc(S(=O)(=O)[O-])cc4)c4nc(c(-c5ccc(S(=O)(=O)[O-])cc5)c5ccc2[nH]5)C=C4)C=C3)cc1
REMARK SMILES IDX 5 1 4 2 3 3 1 4 2 5 28 7 29 8 87 9 30 10 86 11 31 12 32 13
REMARK SMILES IDX 33 14 80 15 34 16 85 17 79 18 81 19 35 20 84 21 78 22 77 23
REMARK SMILES IDX 36 25 66 26 47 27 65 28 48 29 51 30 64 31 82 32 49 33 50 34
REMARK SMILES IDX 63 36 83 37 52 38 37 39 38 40 46 41 39 42 45 43 40 44 41 45
REMARK SMILES IDX 42 46 43 47 44 48 67 49 68 50 76 51 69 52 75 53 70 54 71 55
REMARK SMILES IDX 72 56 73 57 74 58 53 59 54 60 62 61 55 62 61 63 56 64 57 65
REMARK SMILES IDX 58 66 59 67 60 68 6 69 7 70 8 71 9 73 10 74 11 75 15 76
REMARK SMILES IDX 12 77 14 78 13 79 16 80 17 81 18 82 19 84 20 85 27 86 21 87
REMARK SMILES IDX 26 88 22 89 23 90 24 91 25 92
REMARK H PARENT 3 6 81 24 51 35 7 72 18 83
REMARK Flexibility Score: inf
ROOT
ATOM      1  C   UNL A   1      33.321  27.476  26.713  1.00  0.00     0.042 C 
ENDROOT
BRANCH   1   2
ATOM      2  C   UNL A   1      34.120  28.715  26.290  1.00  0.00     0.118 C 
BRANCH   2   3
ATOM      3  N   UNL A   1      33.785  29.974  26.922  1.00  0.00    -0.352 N 
ATOM      4  O   UNL A   1      34.067  31.652  28.411  1.00  0.00    -0.269 OA
ATOM      5  C   UNL A   1      34.522  30.656  27.868  1.00  0.00     0.251 C 
ATOM      6  H   UNL A   1      32.936  30.389  26.647  1.00  0.00     0.163 HD
BRANCH   5   7
ATOM      7  C   UNL A   1      35.865  30.157  28.235  1.00  0.00     0.039 A 
ATOM      8  C   UNL A   1      36.108  29.631  29.509  1.00  0.00     0.014 A 
ATOM      9  C   UNL A   1      36.883  30.197  27.282  1.00  0.00     0.014 A 
ATOM     10  C   UNL A   1      37.398  29.225  29.859  1.00  0.00     0.010 A 
ATOM     11  C   UNL A   1      38.166  29.762  27.624  1.00  0.00     0.010 A 
ATOM     12  C   UNL A   1      38.440  29.295  28.923  1.00  0.00    -0.014 A 
BRANCH  12  13
ATOM     13  C   UNL A   1      39.821  28.877  29.276  1.00  0.00     0.031 A 
ATOM     14  C   UNL A   1      40.774  29.859  29.898  1.00  0.00     0.074 A 
ATOM     15  C   UNL A   1      40.240  27.633  28.981  1.00  0.00     0.049 A 
ATOM     16  N   UNL A   1      42.048  29.719  30.164  1.00  0.00    -0.248 NA
ATOM     17  C   UNL A   1      40.221  31.173  30.262  1.00  0.00     0.031 C 
ATOM     18  C   UNL A   1      39.413  26.583  28.385  1.00  0.00     0.029 A 
ATOM     19  N   UNL A   1      41.475  27.049  29.120  1.00  0.00    -0.354 N 
ATOM     20  C   UNL A   1      42.458  30.935  30.698  1.00  0.00     0.074 A 
ATOM     21  C   UNL A   1      41.299  31.803  30.708  1.00  0.00     0.031 C 
ATOM     22  C   UNL A   1      40.167  25.490  28.194  1.00  0.00     0.029 A 
ATOM     23  C   UNL A   1      41.538  25.775  28.608  1.00  0.00     0.049 A 
ATOM     24  H   UNL A   1      42.240  27.500  29.545  1.00  0.00     0.167 HD
ATOM     25  C   UNL A   1      43.690  31.297  31.137  1.00  0.00     0.031 A 
ATOM     26  C   UNL A   1      42.586  24.943  28.449  1.00  0.00     0.031 A 
ATOM     27  C   UNL A   1      44.843  30.436  31.112  1.00  0.00     0.049 A 
ATOM     28  C   UNL A   1      43.952  25.373  28.902  1.00  0.00     0.074 A 
ATOM     29  C   UNL A   1      46.124  30.703  31.564  1.00  0.00     0.029 A 
ATOM     30  N   UNL A   1      44.860  29.150  30.596  1.00  0.00    -0.354 N 
ATOM     31  N   UNL A   1      44.316  26.512  29.441  1.00  0.00    -0.248 NA
ATOM     32  C   UNL A   1      45.047  24.408  28.733  1.00  0.00     0.031 C 
ATOM     33  C   UNL A   1      46.928  29.594  31.275  1.00  0.00     0.029 A 
ATOM     34  C   UNL A   1      46.135  28.617  30.694  1.00  0.00     0.049 A 
ATOM     35  H   UNL A   1      44.081  28.684  30.215  1.00  0.00     0.167 HD
ATOM     36  C   UNL A   1      45.677  26.392  29.697  1.00  0.00     0.074 A 
ATOM     37  C   UNL A   1      46.072  25.070  29.256  1.00  0.00     0.031 C 
ATOM     38  C   UNL A   1      46.517  27.297  30.256  1.00  0.00     0.031 A 
BRANCH  25  39
ATOM     39  C   UNL A   1      43.854  32.709  31.635  1.00  0.00    -0.014 A 
ATOM     40  C   UNL A   1      44.241  33.749  30.772  1.00  0.00     0.010 A 
ATOM     41  C   UNL A   1      43.615  32.997  32.991  1.00  0.00     0.010 A 
ATOM     42  C   UNL A   1      44.453  35.038  31.269  1.00  0.00     0.020 A 
ATOM     43  C   UNL A   1      43.801  34.291  33.487  1.00  0.00     0.020 A 
ATOM     44  C   UNL A   1      44.247  35.297  32.628  1.00  0.00     0.054 A 
BRANCH  44  45
ATOM     45  S   UNL A   1      44.567  36.967  33.258  1.00  0.00     0.124 S 
ATOM     46  O   UNL A   1      43.792  37.789  32.331  1.00  0.00    -0.237 OA
ATOM     47  O   UNL A   1      44.047  36.902  34.622  1.00  0.00    -0.237 OA
ATOM     48  O   UNL A   1      46.017  37.106  33.153  1.00  0.00    -0.744 OA
ENDBRANCH  44  45
ENDBRANCH  25  39
BRANCH  26  49
ATOM     49  C   UNL A   1      42.360  23.619  27.810  1.00  0.00    -0.014 A 
ATOM     50  C   UNL A   1      42.698  23.409  26.464  1.00  0.00     0.010 A 
ATOM     51  C   UNL A   1      41.888  22.538  28.579  1.00  0.00     0.010 A 
ATOM     52  C   UNL A   1      42.584  22.135  25.899  1.00  0.00     0.020 A 
ATOM     53  C   UNL A   1      41.794  21.259  28.024  1.00  0.00     0.020 A 
ATOM     54  C   UNL A   1      42.144  21.066  26.687  1.00  0.00     0.054 A 
BRANCH  54  55
ATOM     55  S   UNL A   1      42.114  19.401  25.964  1.00  0.00     0.124 S 
ATOM     56  O   UNL A   1      43.002  19.552  24.816  1.00  0.00    -0.237 OA
ATOM     57  O   UNL A   1      42.625  18.574  27.055  1.00  0.00    -0.237 OA
ATOM     58  O   UNL A   1      40.704  19.193  25.644  1.00  0.00    -0.744 OA
ENDBRANCH  54  55
ENDBRANCH  26  49
BRANCH  38  59
ATOM     59  C   UNL A   1      47.951  26.888  30.468  1.00  0.00    -0.014 A 
ATOM     60  C   UNL A   1      48.946  27.208  29.529  1.00  0.00     0.010 A 
ATOM     61  C   UNL A   1      48.318  26.266  31.676  1.00  0.00     0.010 A 
ATOM     62  C   UNL A   1      50.287  26.909  29.795  1.00  0.00     0.020 A 
ATOM     63  C   UNL A   1      49.658  25.984  31.953  1.00  0.00     0.020 A 
ATOM     64  C   UNL A   1      50.634  26.305  31.008  1.00  0.00     0.054 A 
BRANCH  64  65
ATOM     65  S   UNL A   1      52.388  26.010  31.369  1.00  0.00     0.124 S 
ATOM     66  O   UNL A   1      52.361  24.661  31.928  1.00  0.00    -0.237 OA
ATOM     67  O   UNL A   1      53.014  26.134  30.055  1.00  0.00    -0.237 OA
ATOM     68  O   UNL A   1      52.729  27.070  32.317  1.00  0.00    -0.744 OA
ENDBRANCH  64  65
ENDBRANCH  38  59
ENDBRANCH  12  13
ENDBRANCH   5   7
ENDBRANCH   2   3
ENDBRANCH   1   2
BRANCH   1  69
ATOM     69  C   UNL A   1      33.620  26.125  26.071  1.00  0.00     0.118 C 
BRANCH  69  70
ATOM     70  N   UNL A   1      32.566  25.114  26.152  1.00  0.00    -0.352 N 
ATOM     71  C   UNL A   1      31.512  24.829  25.297  1.00  0.00     0.253 C 
ATOM     72  H   UNL A   1      32.613  24.539  26.950  1.00  0.00     0.163 HD
ATOM     73  O   UNL A   1      30.883  23.781  25.410  1.00  0.00    -0.269 OA
BRANCH  71  74
ATOM     74  C   UNL A   1      31.210  25.716  24.170  1.00  0.00     0.071 A 
ATOM     75  C   UNL A   1      30.231  26.690  24.475  1.00  0.00     0.018 A 
ATOM     76  C   UNL A   1      31.849  25.783  22.930  1.00  0.00     0.141 A 
ATOM     77  C   UNL A   1      29.824  27.623  23.534  1.00  0.00     0.021 A 
ATOM     78  N   UNL A   1      31.390  26.685  21.993  1.00  0.00    -0.250 NA
ATOM     79  C   UNL A   1      30.418  27.566  22.300  1.00  0.00     0.112 A 
BRANCH  76  80
ATOM     80  C   UNL A   1      33.150  25.169  22.409  1.00  0.00     0.275 C 
ATOM     81  O   UNL A   1      33.817  25.836  21.601  1.00  0.00    -0.267 OA
ATOM     82  N   UNL A   1      33.805  24.043  22.840  1.00  0.00    -0.321 N 
ATOM     83  H   UNL A   1      34.783  24.108  22.744  1.00  0.00     0.170 HD
BRANCH  82  84
ATOM     84  C   UNL A   1      33.398  22.834  23.380  1.00  0.00     0.042 A 
ATOM     85  C   UNL A   1      32.375  22.152  22.704  1.00  0.00     0.033 A 
ATOM     86  C   UNL A   1      33.973  22.297  24.526  1.00  0.00     0.033 A 
ATOM     87  C   UNL A   1      32.098  20.824  23.019  1.00  0.00     0.088 A 
ATOM     88  C   UNL A   1      33.657  20.987  24.881  1.00  0.00     0.088 A 
ATOM     89  C   UNL A   1      32.801  20.237  24.068  1.00  0.00     0.269 A 
BRANCH  89  90
ATOM     90  N   UNL A   1      32.795  18.788  24.206  1.00  0.00     0.062 N 
ATOM     91  O   UNL A   1      33.615  18.141  23.543  1.00  0.00    -0.258 OA
ATOM     92  O   UNL A   1      31.996  18.314  25.030  1.00  0.00    -0.258 OA
ENDBRANCH  89  90
ENDBRANCH  82  84
ENDBRANCH  76  80
ENDBRANCH  71  74
ENDBRANCH  69  70
ENDBRANCH   1  69
TORSDOF 16
ENDMDL
