MODEL 1
REMARK VINA RESULT:     -11.9      0.000      0.000
REMARK SMILES Cc1cc([C@H](C)NC(=O)N2CC[C@H](C(=O)NCCCNC(=O)c3ccc(-c4c5nc(c(-c6ccc(S(=O)(=O)[O-])cc6)c6ccc([nH]6)c(-c6ccc(S(=O)(=O)[O-])cc6)c6nc(c(-c7ccc(S(=O)(=O)[O-])cc7)c7ccc4[nH]7)C=C6)C=C5)cc3)[C@@H]2C)c(C)s1
REMARK SMILES IDX 18 1 17 2 16 3 14 4 15 5 13 7 10 8 11 9 83 10 12 11 84 12
REMARK SMILES IDX 8 13 7 14 9 16 5 17 6 18 4 19 1 20 2 21 3 22 87 23 85 24
REMARK SMILES IDX 86 25 19 26 20 27 21 28 22 30 23 31 24 32 82 33 25 34 81 35
REMARK SMILES IDX 26 36 27 37 28 38 75 39 29 40 80 41 74 42 76 43 30 44 79 45
REMARK SMILES IDX 73 46 72 47 31 49 61 50 42 51 60 52 43 53 46 54 59 55 77 56
REMARK SMILES IDX 44 57 45 58 58 60 78 61 47 62 32 63 33 64 41 65 34 66 40 67
REMARK SMILES IDX 35 68 36 69 37 70 38 71 39 72 62 73 63 74 71 75 64 76 70 77
REMARK SMILES IDX 65 78 66 79 67 80 68 81 69 82 48 83 49 84 57 85 50 86 56 87
REMARK SMILES IDX 51 88 52 89 53 90 54 91 55 92
REMARK H PARENT 16 6 7 15 20 29 76 48 46 59
REMARK Flexibility Score: inf
ROOT
ATOM      1  C   UNL A   1      34.211  28.444  25.934  1.00  0.00     0.042 C 
ENDROOT
BRANCH   1   2
ATOM      2  C   UNL A   1      33.353  28.390  24.675  1.00  0.00     0.117 C 
BRANCH   2   3
ATOM      3  N   UNL A   1      33.623  27.246  23.820  1.00  0.00    -0.356 N 
ATOM      4  C   UNL A   1      32.804  26.229  23.422  1.00  0.00     0.225 C 
ATOM      5  O   UNL A   1      33.133  25.588  22.424  1.00  0.00    -0.275 OA
ATOM      6  H   UNL A   1      34.542  27.197  23.472  1.00  0.00     0.163 HD
BRANCH   4   7
ATOM      7  C   UNL A   1      31.552  25.894  24.215  1.00  0.00     0.102 C 
ATOM      8  N   UNL A   1      31.036  23.887  25.422  1.00  0.00    -0.321 N 
ATOM      9  C   UNL A   1      30.782  23.607  24.025  1.00  0.00     0.122 C 
ATOM     10  C   UNL A   1      31.813  25.124  25.534  1.00  0.00     0.096 C 
ATOM     11  C   UNL A   1      30.614  24.983  23.407  1.00  0.00     0.037 C 
ATOM     12  C   UNL A   1      33.278  24.819  25.854  1.00  0.00     0.032 C 
BRANCH   8  13
ATOM     13  C   UNL A   1      30.894  22.901  26.359  1.00  0.00     0.318 C 
ATOM     14  N   UNL A   1      31.358  21.652  26.096  1.00  0.00    -0.331 N 
ATOM     15  H   UNL A   1      30.735  20.905  26.244  1.00  0.00     0.165 HD
ATOM     16  O   UNL A   1      30.345  23.099  27.444  1.00  0.00    -0.249 OA
BRANCH  14  17
ATOM     17  C   UNL A   1      32.693  21.317  25.617  1.00  0.00     0.112 C 
ATOM     18  C   UNL A   1      33.682  21.323  26.790  1.00  0.00     0.036 C 
BRANCH  17  19
ATOM     19  C   UNL A   1      32.617  19.984  24.887  1.00  0.00    -0.012 A 
ATOM     20  C   UNL A   1      32.956  16.187  24.871  1.00  0.00     0.056 C 
ATOM     21  C   UNL A   1      32.746  17.640  24.620  1.00  0.00     0.002 A 
ATOM     22  C   UNL A   1      32.791  18.691  25.509  1.00  0.00     0.021 A 
ATOM     23  S   UNL A   1      32.406  18.173  23.044  1.00  0.00    -0.146 S 
ATOM     24  C   UNL A   1      32.406  19.818  23.520  1.00  0.00     0.007 A 
ATOM     25  C   UNL A   1      32.183  20.831  22.448  1.00  0.00     0.057 C 
ENDBRANCH  17  19
ENDBRANCH  14  17
ENDBRANCH   8  13
ENDBRANCH   4   7
ENDBRANCH   2   3
ENDBRANCH   1   2
BRANCH   1  26
ATOM     26  C   UNL A   1      33.452  28.632  27.247  1.00  0.00     0.118 C 
BRANCH  26  27
ATOM     27  N   UNL A   1      33.432  30.007  27.729  1.00  0.00    -0.352 N 
ATOM     28  C   UNL A   1      34.415  30.758  28.327  1.00  0.00     0.251 C 
ATOM     29  H   UNL A   1      32.574  30.473  27.607  1.00  0.00     0.163 HD
ATOM     30  O   UNL A   1      34.144  31.889  28.729  1.00  0.00    -0.269 OA
BRANCH  28  31
ATOM     31  C   UNL A   1      35.778  30.214  28.529  1.00  0.00     0.039 A 
ATOM     32  C   UNL A   1      36.697  30.295  27.475  1.00  0.00     0.014 A 
ATOM     33  C   UNL A   1      36.158  29.620  29.734  1.00  0.00     0.014 A 
ATOM     34  C   UNL A   1      38.016  29.867  27.662  1.00  0.00     0.010 A 
ATOM     35  C   UNL A   1      37.488  29.255  29.940  1.00  0.00     0.010 A 
ATOM     36  C   UNL A   1      38.435  29.388  28.912  1.00  0.00    -0.014 A 
BRANCH  36  37
ATOM     37  C   UNL A   1      39.855  29.042  29.185  1.00  0.00     0.031 A 
ATOM     38  C   UNL A   1      40.801  30.090  29.710  1.00  0.00     0.074 A 
ATOM     39  C   UNL A   1      40.322  27.818  28.867  1.00  0.00     0.049 A 
ATOM     40  N   UNL A   1      42.099  30.029  29.855  1.00  0.00    -0.248 NA
ATOM     41  C   UNL A   1      40.210  31.380  30.096  1.00  0.00     0.031 C 
ATOM     42  C   UNL A   1      39.519  26.715  28.333  1.00  0.00     0.029 A 
ATOM     43  N   UNL A   1      41.593  27.301  28.927  1.00  0.00    -0.354 N 
ATOM     44  C   UNL A   1      42.486  31.282  30.321  1.00  0.00     0.074 A 
ATOM     45  C   UNL A   1      41.288  32.089  30.403  1.00  0.00     0.031 C 
ATOM     46  C   UNL A   1      40.314  25.653  28.122  1.00  0.00     0.029 A 
ATOM     47  C   UNL A   1      41.688  26.011  28.459  1.00  0.00     0.049 A 
ATOM     48  H   UNL A   1      42.364  27.806  29.273  1.00  0.00     0.167 HD
ATOM     49  C   UNL A   1      43.724  31.717  30.657  1.00  0.00     0.031 A 
ATOM     50  C   UNL A   1      42.761  25.210  28.294  1.00  0.00     0.031 A 
ATOM     51  C   UNL A   1      44.912  30.909  30.593  1.00  0.00     0.049 A 
ATOM     52  C   UNL A   1      44.127  25.720  28.662  1.00  0.00     0.074 A 
ATOM     53  C   UNL A   1      46.204  31.249  30.959  1.00  0.00     0.029 A 
ATOM     54  N   UNL A   1      44.958  29.601  30.137  1.00  0.00    -0.354 N 
ATOM     55  N   UNL A   1      44.466  26.895  29.135  1.00  0.00    -0.248 NA
ATOM     56  C   UNL A   1      45.255  24.794  28.480  1.00  0.00     0.031 C 
ATOM     57  C   UNL A   1      47.037  30.160  30.686  1.00  0.00     0.029 A 
ATOM     58  C   UNL A   1      46.256  29.124  30.199  1.00  0.00     0.049 A 
ATOM     59  H   UNL A   1      44.181  29.086  29.817  1.00  0.00     0.167 HD
ATOM     60  C   UNL A   1      45.841  26.838  29.336  1.00  0.00     0.074 A 
ATOM     61  C   UNL A   1      46.271  25.515  28.937  1.00  0.00     0.031 C 
ATOM     62  C   UNL A   1      46.670  27.799  29.812  1.00  0.00     0.031 A 
BRANCH  49  63
ATOM     63  C   UNL A   1      43.857  33.144  31.117  1.00  0.00    -0.014 A 
ATOM     64  C   UNL A   1      44.148  34.177  30.207  1.00  0.00     0.010 A 
ATOM     65  C   UNL A   1      43.654  33.462  32.472  1.00  0.00     0.010 A 
ATOM     66  C   UNL A   1      44.277  35.495  30.652  1.00  0.00     0.020 A 
ATOM     67  C   UNL A   1      43.756  34.784  32.917  1.00  0.00     0.020 A 
ATOM     68  C   UNL A   1      44.087  35.789  32.005  1.00  0.00     0.054 A 
BRANCH  68  69
ATOM     69  S   UNL A   1      44.250  37.509  32.554  1.00  0.00     0.124 S 
ATOM     70  O   UNL A   1      43.232  37.588  33.599  1.00  0.00    -0.237 OA
ATOM     71  O   UNL A   1      45.633  37.570  33.020  1.00  0.00    -0.237 OA
ATOM     72  O   UNL A   1      43.967  38.286  31.350  1.00  0.00    -0.744 OA
ENDBRANCH  68  69
ENDBRANCH  49  63
BRANCH  50  73
ATOM     73  C   UNL A   1      42.583  23.835  27.754  1.00  0.00    -0.014 A 
ATOM     74  C   UNL A   1      42.390  22.749  28.624  1.00  0.00     0.010 A 
ATOM     75  C   UNL A   1      42.590  23.608  26.365  1.00  0.00     0.010 A 
ATOM     76  C   UNL A   1      42.222  21.457  28.118  1.00  0.00     0.020 A 
ATOM     77  C   UNL A   1      42.396  22.320  25.854  1.00  0.00     0.020 A 
ATOM     78  C   UNL A   1      42.224  21.252  26.736  1.00  0.00     0.054 A 
BRANCH  78  79
ATOM     79  S   UNL A   1      41.944  19.575  26.098  1.00  0.00     0.124 S 
ATOM     80  O   UNL A   1      42.388  18.749  27.217  1.00  0.00    -0.237 OA
ATOM     81  O   UNL A   1      40.508  19.571  25.839  1.00  0.00    -0.237 OA
ATOM     82  O   UNL A   1      42.785  19.521  24.904  1.00  0.00    -0.744 OA
ENDBRANCH  78  79
ENDBRANCH  50  73
BRANCH  62  83
ATOM     83  C   UNL A   1      48.123  27.449  29.981  1.00  0.00    -0.014 A 
ATOM     84  C   UNL A   1      49.077  27.811  29.014  1.00  0.00     0.010 A 
ATOM     85  C   UNL A   1      48.549  26.828  31.169  1.00  0.00     0.010 A 
ATOM     86  C   UNL A   1      50.433  27.545  29.229  1.00  0.00     0.020 A 
ATOM     87  C   UNL A   1      49.905  26.580  31.396  1.00  0.00     0.020 A 
ATOM     88  C   UNL A   1      50.839  26.935  30.420  1.00  0.00     0.054 A 
BRANCH  88  89
ATOM     89  S   UNL A   1      52.610  26.670  30.709  1.00  0.00     0.124 S 
ATOM     90  O   UNL A   1      53.073  28.019  31.021  1.00  0.00    -0.237 OA
ATOM     91  O   UNL A   1      52.616  25.728  31.827  1.00  0.00    -0.237 OA
ATOM     92  O   UNL A   1      53.090  26.125  29.442  1.00  0.00    -0.744 OA
ENDBRANCH  88  89
ENDBRANCH  62  83
ENDBRANCH  36  37
ENDBRANCH  28  31
ENDBRANCH  26  27
ENDBRANCH   1  26
TORSDOF 16
ENDMDL
MODEL 2
REMARK VINA RESULT:     -11.1      2.629      3.198
REMARK SMILES Cc1cc([C@H](C)NC(=O)N2CC[C@H](C(=O)NCCCNC(=O)c3ccc(-c4c5nc(c(-c6ccc(S(=O)(=O)[O-])cc6)c6ccc([nH]6)c(-c6ccc(S(=O)(=O)[O-])cc6)c6nc(c(-c7ccc(S(=O)(=O)[O-])cc7)c7ccc4[nH]7)C=C6)C=C5)cc3)[C@@H]2C)c(C)s1
REMARK SMILES IDX 18 1 17 2 16 3 14 4 15 5 13 7 10 8 11 9 83 10 12 11 84 12
REMARK SMILES IDX 8 13 7 14 9 16 5 17 6 18 4 19 1 20 2 21 3 22 87 23 85 24
REMARK SMILES IDX 86 25 19 26 20 27 21 28 22 30 23 31 24 32 82 33 25 34 81 35
REMARK SMILES IDX 26 36 27 37 28 38 75 39 29 40 80 41 74 42 76 43 30 44 79 45
REMARK SMILES IDX 73 46 72 47 31 49 61 50 42 51 60 52 43 53 46 54 59 55 77 56
REMARK SMILES IDX 44 57 45 58 58 60 78 61 47 62 32 63 33 64 41 65 34 66 40 67
REMARK SMILES IDX 35 68 36 69 37 70 38 71 39 72 62 73 63 74 71 75 64 76 70 77
REMARK SMILES IDX 65 78 66 79 67 80 68 81 69 82 48 83 49 84 57 85 50 86 56 87
REMARK SMILES IDX 51 88 52 89 53 90 54 91 55 92
REMARK H PARENT 16 6 7 15 20 29 76 48 46 59
REMARK Flexibility Score: inf
ROOT
ATOM      1  C   UNL A   1      34.313  28.541  25.760  1.00  0.00     0.042 C 
ENDROOT
BRANCH   1   2
ATOM      2  C   UNL A   1      33.615  28.462  24.407  1.00  0.00     0.117 C 
BRANCH   2   3
ATOM      3  N   UNL A   1      33.913  27.255  23.655  1.00  0.00    -0.356 N 
ATOM      4  C   UNL A   1      33.107  26.210  23.307  1.00  0.00     0.225 C 
ATOM      5  O   UNL A   1      33.470  25.493  22.375  1.00  0.00    -0.275 OA
ATOM      6  H   UNL A   1      34.844  27.178  23.347  1.00  0.00     0.163 HD
BRANCH   4   7
ATOM      7  C   UNL A   1      31.824  25.939  24.076  1.00  0.00     0.102 C 
ATOM      8  N   UNL A   1      31.204  23.975  25.306  1.00  0.00    -0.321 N 
ATOM      9  C   UNL A   1      30.970  23.679  23.909  1.00  0.00     0.122 C 
ATOM     10  C   UNL A   1      32.026  25.183  25.415  1.00  0.00     0.096 C 
ATOM     11  C   UNL A   1      30.871  25.049  23.263  1.00  0.00     0.037 C 
ATOM     12  C   UNL A   1      33.470  24.828  25.774  1.00  0.00     0.032 C 
BRANCH   8  13
ATOM     13  C   UNL A   1      31.002  23.014  26.257  1.00  0.00     0.318 C 
ATOM     14  N   UNL A   1      31.422  21.742  26.026  1.00  0.00    -0.331 N 
ATOM     15  H   UNL A   1      30.766  21.023  26.174  1.00  0.00     0.165 HD
ATOM     16  O   UNL A   1      30.439  23.253  27.326  1.00  0.00    -0.249 OA
BRANCH  14  17
ATOM     17  C   UNL A   1      32.752  21.345  25.583  1.00  0.00     0.112 C 
ATOM     18  C   UNL A   1      33.712  21.320  26.780  1.00  0.00     0.036 C 
BRANCH  17  19
ATOM     19  C   UNL A   1      32.636  20.010  24.862  1.00  0.00    -0.012 A 
ATOM     20  C   UNL A   1      32.939  16.211  24.851  1.00  0.00     0.056 C 
ATOM     21  C   UNL A   1      32.733  17.664  24.601  1.00  0.00     0.002 A 
ATOM     22  C   UNL A   1      32.821  18.719  25.483  1.00  0.00     0.021 A 
ATOM     23  S   UNL A   1      32.339  18.194  23.037  1.00  0.00    -0.146 S 
ATOM     24  C   UNL A   1      32.372  19.841  23.505  1.00  0.00     0.007 A 
ATOM     25  C   UNL A   1      32.119  20.852  22.437  1.00  0.00     0.057 C 
ENDBRANCH  17  19
ENDBRANCH  14  17
ENDBRANCH   8  13
ENDBRANCH   4   7
ENDBRANCH   2   3
ENDBRANCH   1   2
BRANCH   1  26
ATOM     26  C   UNL A   1      33.442  28.999  26.930  1.00  0.00     0.118 C 
BRANCH  26  27
ATOM     27  N   UNL A   1      33.470  30.436  27.165  1.00  0.00    -0.352 N 
ATOM     28  C   UNL A   1      34.392  31.216  27.822  1.00  0.00     0.251 C 
ATOM     29  H   UNL A   1      32.704  30.929  26.793  1.00  0.00     0.163 HD
ATOM     30  O   UNL A   1      34.166  32.416  27.969  1.00  0.00    -0.269 OA
BRANCH  28  31
ATOM     31  C   UNL A   1      35.627  30.627  28.390  1.00  0.00     0.039 A 
ATOM     32  C   UNL A   1      36.854  30.931  27.788  1.00  0.00     0.014 A 
ATOM     33  C   UNL A   1      35.591  29.775  29.496  1.00  0.00     0.014 A 
ATOM     34  C   UNL A   1      38.046  30.459  28.349  1.00  0.00     0.010 A 
ATOM     35  C   UNL A   1      36.782  29.361  30.092  1.00  0.00     0.010 A 
ATOM     36  C   UNL A   1      38.022  29.710  29.535  1.00  0.00    -0.014 A 
BRANCH  36  37
ATOM     37  C   UNL A   1      39.271  29.298  30.230  1.00  0.00     0.031 A 
ATOM     38  C   UNL A   1      39.756  30.066  31.429  1.00  0.00     0.074 A 
ATOM     39  C   UNL A   1      40.023  28.300  29.724  1.00  0.00     0.049 A 
ATOM     40  N   UNL A   1      40.894  29.966  32.067  1.00  0.00    -0.248 NA
ATOM     41  C   UNL A   1      38.855  31.098  31.965  1.00  0.00     0.031 C 
ATOM     42  C   UNL A   1      39.680  27.486  28.555  1.00  0.00     0.029 A 
ATOM     43  N   UNL A   1      41.245  27.812  30.117  1.00  0.00    -0.354 N 
ATOM     44  C   UNL A   1      40.859  30.940  33.059  1.00  0.00     0.074 A 
ATOM     45  C   UNL A   1      39.600  31.640  32.917  1.00  0.00     0.031 C 
ATOM     46  C   UNL A   1      40.663  26.599  28.332  1.00  0.00     0.029 A 
ATOM     47  C   UNL A   1      41.727  26.809  29.309  1.00  0.00     0.049 A 
ATOM     48  H   UNL A   1      41.731  28.149  30.904  1.00  0.00     0.167 HD
ATOM     49  C   UNL A   1      41.786  31.221  34.006  1.00  0.00     0.031 A 
ATOM     50  C   UNL A   1      42.901  26.147  29.331  1.00  0.00     0.031 A 
ATOM     51  C   UNL A   1      43.028  30.514  34.159  1.00  0.00     0.049 A 
ATOM     52  C   UNL A   1      43.920  26.484  30.385  1.00  0.00     0.074 A 
ATOM     53  C   UNL A   1      44.009  30.696  35.120  1.00  0.00     0.029 A 
ATOM     54  N   UNL A   1      43.464  29.488  33.334  1.00  0.00    -0.354 N 
ATOM     55  N   UNL A   1      43.852  27.384  31.336  1.00  0.00    -0.248 NA
ATOM     56  C   UNL A   1      45.173  25.714  30.372  1.00  0.00     0.031 C 
ATOM     57  C   UNL A   1      45.055  29.807  34.852  1.00  0.00     0.029 A 
ATOM     58  C   UNL A   1      44.703  29.037  33.754  1.00  0.00     0.049 A 
ATOM     59  H   UNL A   1      42.964  29.132  32.563  1.00  0.00     0.167 HD
ATOM     60  C   UNL A   1      45.037  27.267  32.053  1.00  0.00     0.074 A 
ATOM     61  C   UNL A   1      45.803  26.208  31.430  1.00  0.00     0.031 C 
ATOM     62  C   UNL A   1      45.450  27.972  33.134  1.00  0.00     0.031 A 
BRANCH  49  63
ATOM     63  C   UNL A   1      41.491  32.356  34.950  1.00  0.00    -0.014 A 
ATOM     64  C   UNL A   1      41.907  33.668  34.661  1.00  0.00     0.010 A 
ATOM     65  C   UNL A   1      40.758  32.113  36.126  1.00  0.00     0.010 A 
ATOM     66  C   UNL A   1      41.635  34.709  35.553  1.00  0.00     0.020 A 
ATOM     67  C   UNL A   1      40.460  33.157  37.008  1.00  0.00     0.020 A 
ATOM     68  C   UNL A   1      40.919  34.445  36.724  1.00  0.00     0.054 A 
BRANCH  68  69
ATOM     69  S   UNL A   1      40.569  35.816  37.858  1.00  0.00     0.124 S 
ATOM     70  O   UNL A   1      39.752  36.694  37.023  1.00  0.00    -0.237 OA
ATOM     71  O   UNL A   1      39.862  35.157  38.953  1.00  0.00    -0.237 OA
ATOM     72  O   UNL A   1      41.892  36.333  38.197  1.00  0.00    -0.744 OA
ENDBRANCH  68  69
ENDBRANCH  49  63
BRANCH  50  73
ATOM     73  C   UNL A   1      43.176  25.090  28.320  1.00  0.00    -0.014 A 
ATOM     74  C   UNL A   1      42.761  23.767  28.544  1.00  0.00     0.010 A 
ATOM     75  C   UNL A   1      43.840  25.407  27.120  1.00  0.00     0.010 A 
ATOM     76  C   UNL A   1      43.018  22.774  27.595  1.00  0.00     0.020 A 
ATOM     77  C   UNL A   1      44.075  24.421  26.156  1.00  0.00     0.020 A 
ATOM     78  C   UNL A   1      43.672  23.108  26.406  1.00  0.00     0.054 A 
BRANCH  78  79
ATOM     79  S   UNL A   1      43.941  21.816  25.160  1.00  0.00     0.124 S 
ATOM     80  O   UNL A   1      42.870  20.873  25.466  1.00  0.00    -0.237 OA
ATOM     81  O   UNL A   1      43.800  22.550  23.906  1.00  0.00    -0.237 OA
ATOM     82  O   UNL A   1      45.294  21.345  25.447  1.00  0.00    -0.744 OA
ENDBRANCH  78  79
ENDBRANCH  50  73
BRANCH  62  83
ATOM     83  C   UNL A   1      46.769  27.598  33.753  1.00  0.00    -0.014 A 
ATOM     84  C   UNL A   1      46.863  26.560  34.697  1.00  0.00     0.010 A 
ATOM     85  C   UNL A   1      47.942  28.237  33.315  1.00  0.00     0.010 A 
ATOM     86  C   UNL A   1      48.110  26.176  35.200  1.00  0.00     0.020 A 
ATOM     87  C   UNL A   1      49.191  27.843  33.799  1.00  0.00     0.020 A 
ATOM     88  C   UNL A   1      49.267  26.818  34.745  1.00  0.00     0.054 A 
BRANCH  88  89
ATOM     89  S   UNL A   1      50.879  26.251  35.355  1.00  0.00     0.124 S 
ATOM     90  O   UNL A   1      51.320  25.372  34.276  1.00  0.00    -0.237 OA
ATOM     91  O   UNL A   1      51.626  27.500  35.494  1.00  0.00    -0.237 OA
ATOM     92  O   UNL A   1      50.557  25.582  36.613  1.00  0.00    -0.744 OA
ENDBRANCH  88  89
ENDBRANCH  62  83
ENDBRANCH  36  37
ENDBRANCH  28  31
ENDBRANCH  26  27
ENDBRANCH   1  26
TORSDOF 16
ENDMDL
MODEL 3
REMARK VINA RESULT:     -11.1      2.859      3.668
REMARK SMILES Cc1cc([C@H](C)NC(=O)N2CC[C@H](C(=O)NCCCNC(=O)c3ccc(-c4c5nc(c(-c6ccc(S(=O)(=O)[O-])cc6)c6ccc([nH]6)c(-c6ccc(S(=O)(=O)[O-])cc6)c6nc(c(-c7ccc(S(=O)(=O)[O-])cc7)c7ccc4[nH]7)C=C6)C=C5)cc3)[C@@H]2C)c(C)s1
REMARK SMILES IDX 18 1 17 2 16 3 14 4 15 5 13 7 10 8 11 9 83 10 12 11 84 12
REMARK SMILES IDX 8 13 7 14 9 16 5 17 6 18 4 19 1 20 2 21 3 22 87 23 85 24
REMARK SMILES IDX 86 25 19 26 20 27 21 28 22 30 23 31 24 32 82 33 25 34 81 35
REMARK SMILES IDX 26 36 27 37 28 38 75 39 29 40 80 41 74 42 76 43 30 44 79 45
REMARK SMILES IDX 73 46 72 47 31 49 61 50 42 51 60 52 43 53 46 54 59 55 77 56
REMARK SMILES IDX 44 57 45 58 58 60 78 61 47 62 32 63 33 64 41 65 34 66 40 67
REMARK SMILES IDX 35 68 36 69 37 70 38 71 39 72 62 73 63 74 71 75 64 76 70 77
REMARK SMILES IDX 65 78 66 79 67 80 68 81 69 82 48 83 49 84 57 85 50 86 56 87
REMARK SMILES IDX 51 88 52 89 53 90 54 91 55 92
REMARK H PARENT 16 6 7 15 20 29 76 48 46 59
REMARK Flexibility Score: inf
ROOT
ATOM      1  C   UNL A   1      33.988  30.906  27.365  1.00  0.00     0.042 C 
ENDROOT
BRANCH   1   2
ATOM      2  C   UNL A   1      32.812  29.963  27.139  1.00  0.00     0.117 C 
BRANCH   2   3
ATOM      3  N   UNL A   1      32.088  30.202  25.902  1.00  0.00    -0.356 N 
ATOM      4  C   UNL A   1      31.453  29.328  25.068  1.00  0.00     0.225 C 
ATOM      5  O   UNL A   1      30.610  29.785  24.295  1.00  0.00    -0.275 OA
ATOM      6  H   UNL A   1      32.049  31.144  25.620  1.00  0.00     0.163 HD
BRANCH   4   7
ATOM      7  C   UNL A   1      31.808  27.851  25.085  1.00  0.00     0.102 C 
ATOM      8  N   UNL A   1      32.561  26.471  23.273  1.00  0.00    -0.321 N 
ATOM      9  C   UNL A   1      31.127  26.594  23.131  1.00  0.00     0.122 C 
ATOM     10  C   UNL A   1      33.042  27.477  24.224  1.00  0.00     0.096 C 
ATOM     11  C   UNL A   1      30.661  27.000  24.517  1.00  0.00     0.037 C 
ATOM     12  C   UNL A   1      33.726  28.634  23.493  1.00  0.00     0.032 C 
BRANCH   8  13
ATOM     13  C   UNL A   1      33.290  25.790  22.339  1.00  0.00     0.318 C 
ATOM     14  N   UNL A   1      33.879  24.612  22.674  1.00  0.00    -0.331 N 
ATOM     15  H   UNL A   1      34.835  24.515  22.460  1.00  0.00     0.165 HD
ATOM     16  O   UNL A   1      33.447  26.210  21.192  1.00  0.00    -0.249 OA
BRANCH  14  17
ATOM     17  C   UNL A   1      33.227  23.481  23.320  1.00  0.00     0.112 C 
ATOM     18  C   UNL A   1      32.689  22.515  22.256  1.00  0.00     0.036 C 
BRANCH  17  19
ATOM     19  C   UNL A   1      34.220  22.841  24.280  1.00  0.00    -0.012 A 
ATOM     20  C   UNL A   1      37.425  20.878  24.916  1.00  0.00     0.056 C 
ATOM     21  C   UNL A   1      36.156  21.657  24.937  1.00  0.00     0.002 A 
ATOM     22  C   UNL A   1      35.467  22.227  23.888  1.00  0.00     0.021 A 
ATOM     23  S   UNL A   1      35.367  21.926  26.417  1.00  0.00    -0.146 S 
ATOM     24  C   UNL A   1      34.056  22.725  25.659  1.00  0.00     0.007 A 
ATOM     25  C   UNL A   1      32.944  23.185  26.540  1.00  0.00     0.057 C 
ENDBRANCH  17  19
ENDBRANCH  14  17
ENDBRANCH   8  13
ENDBRANCH   4   7
ENDBRANCH   2   3
ENDBRANCH   1   2
BRANCH   1  26
ATOM     26  C   UNL A   1      35.117  30.360  28.239  1.00  0.00     0.118 C 
BRANCH  26  27
ATOM     27  N   UNL A   1      35.281  31.062  29.505  1.00  0.00    -0.352 N 
ATOM     28  C   UNL A   1      36.369  31.156  30.340  1.00  0.00     0.251 C 
ATOM     29  H   UNL A   1      34.483  31.548  29.812  1.00  0.00     0.163 HD
ATOM     30  O   UNL A   1      36.252  31.746  31.412  1.00  0.00    -0.269 OA
BRANCH  28  31
ATOM     31  C   UNL A   1      37.662  30.523  29.987  1.00  0.00     0.039 A 
ATOM     32  C   UNL A   1      38.056  30.506  28.644  1.00  0.00     0.014 A 
ATOM     33  C   UNL A   1      38.481  29.942  30.957  1.00  0.00     0.014 A 
ATOM     34  C   UNL A   1      39.309  29.992  28.289  1.00  0.00     0.010 A 
ATOM     35  C   UNL A   1      39.754  29.491  30.611  1.00  0.00     0.010 A 
ATOM     36  C   UNL A   1      40.189  29.524  29.276  1.00  0.00    -0.014 A 
BRANCH  36  37
ATOM     37  C   UNL A   1      41.573  29.089  28.953  1.00  0.00     0.031 A 
ATOM     38  C   UNL A   1      42.692  30.094  28.915  1.00  0.00     0.074 A 
ATOM     39  C   UNL A   1      41.808  27.811  28.593  1.00  0.00     0.049 A 
ATOM     40  N   UNL A   1      43.923  29.941  28.499  1.00  0.00    -0.248 NA
ATOM     41  C   UNL A   1      42.378  31.453  29.381  1.00  0.00     0.031 C 
ATOM     42  C   UNL A   1      40.810  26.738  28.567  1.00  0.00     0.029 A 
ATOM     43  N   UNL A   1      42.959  27.200  28.159  1.00  0.00    -0.354 N 
ATOM     44  C   UNL A   1      44.522  31.191  28.625  1.00  0.00     0.074 A 
ATOM     45  C   UNL A   1      43.509  32.094  29.126  1.00  0.00     0.031 C 
ATOM     46  C   UNL A   1      41.394  25.603  28.148  1.00  0.00     0.029 A 
ATOM     47  C   UNL A   1      42.792  25.875  27.829  1.00  0.00     0.049 A 
ATOM     48  H   UNL A   1      43.823  27.666  28.090  1.00  0.00     0.167 HD
ATOM     49  C   UNL A   1      45.801  31.550  28.356  1.00  0.00     0.031 A 
ATOM     50  C   UNL A   1      43.656  24.981  27.306  1.00  0.00     0.031 A 
ATOM     51  C   UNL A   1      46.812  30.648  27.875  1.00  0.00     0.049 A 
ATOM     52  C   UNL A   1      45.067  25.407  27.004  1.00  0.00     0.074 A 
ATOM     53  C   UNL A   1      48.147  30.910  27.620  1.00  0.00     0.029 A 
ATOM     54  N   UNL A   1      46.605  29.309  27.580  1.00  0.00    -0.354 N 
ATOM     55  N   UNL A   1      45.623  26.583  27.164  1.00  0.00    -0.248 NA
ATOM     56  C   UNL A   1      45.968  24.383  26.455  1.00  0.00     0.031 C 
ATOM     57  C   UNL A   1      48.738  29.741  27.131  1.00  0.00     0.029 A 
ATOM     58  C   UNL A   1      47.783  28.737  27.131  1.00  0.00     0.049 A 
ATOM     59  H   UNL A   1      45.747  28.835  27.675  1.00  0.00     0.167 HD
ATOM     60  C   UNL A   1      46.946  26.433  26.766  1.00  0.00     0.074 A 
ATOM     61  C   UNL A   1      47.109  25.053  26.360  1.00  0.00     0.031 C 
ATOM     62  C   UNL A   1      47.937  27.357  26.743  1.00  0.00     0.031 A 
BRANCH  49  63
ATOM     63  C   UNL A   1      46.175  32.993  28.567  1.00  0.00    -0.014 A 
ATOM     64  C   UNL A   1      46.024  33.941  27.539  1.00  0.00     0.010 A 
ATOM     65  C   UNL A   1      46.651  33.413  29.822  1.00  0.00     0.010 A 
ATOM     66  C   UNL A   1      46.386  35.274  27.748  1.00  0.00     0.020 A 
ATOM     67  C   UNL A   1      46.989  34.752  30.044  1.00  0.00     0.020 A 
ATOM     68  C   UNL A   1      46.872  35.669  28.998  1.00  0.00     0.054 A 
BRANCH  68  69
ATOM     69  S   UNL A   1      47.323  37.408  29.245  1.00  0.00     0.124 S 
ATOM     70  O   UNL A   1      46.804  37.663  30.587  1.00  0.00    -0.237 OA
ATOM     71  O   UNL A   1      48.779  37.383  29.131  1.00  0.00    -0.237 OA
ATOM     72  O   UNL A   1      46.628  38.105  28.166  1.00  0.00    -0.744 OA
ENDBRANCH  68  69
ENDBRANCH  49  63
BRANCH  50  73
ATOM     73  C   UNL A   1      43.208  23.588  27.037  1.00  0.00    -0.014 A 
ATOM     74  C   UNL A   1      42.853  23.194  25.736  1.00  0.00     0.010 A 
ATOM     75  C   UNL A   1      43.151  22.643  28.079  1.00  0.00     0.010 A 
ATOM     76  C   UNL A   1      42.433  21.886  25.482  1.00  0.00     0.020 A 
ATOM     77  C   UNL A   1      42.756  21.326  27.823  1.00  0.00     0.020 A 
ATOM     78  C   UNL A   1      42.390  20.959  26.528  1.00  0.00     0.054 A 
BRANCH  78  79
ATOM     79  S   UNL A   1      41.899  19.250  26.165  1.00  0.00     0.124 S 
ATOM     80  O   UNL A   1      42.680  18.960  24.966  1.00  0.00    -0.237 OA
ATOM     81  O   UNL A   1      42.307  18.540  27.373  1.00  0.00    -0.237 OA
ATOM     82  O   UNL A   1      40.455  19.345  25.966  1.00  0.00    -0.744 OA
ENDBRANCH  78  79
ENDBRANCH  50  73
BRANCH  62  83
ATOM     83  C   UNL A   1      49.306  26.907  26.312  1.00  0.00    -0.014 A 
ATOM     84  C   UNL A   1      49.770  27.133  25.004  1.00  0.00     0.010 A 
ATOM     85  C   UNL A   1      50.171  26.329  27.258  1.00  0.00     0.010 A 
ATOM     86  C   UNL A   1      51.074  26.776  24.649  1.00  0.00     0.020 A 
ATOM     87  C   UNL A   1      51.481  25.991  26.912  1.00  0.00     0.020 A 
ATOM     88  C   UNL A   1      51.922  26.211  25.606  1.00  0.00     0.054 A 
BRANCH  88  89
ATOM     89  S   UNL A   1      53.634  25.828  25.141  1.00  0.00     0.124 S 
ATOM     90  O   UNL A   1      53.877  24.588  25.872  1.00  0.00    -0.237 OA
ATOM     91  O   UNL A   1      53.550  25.695  23.688  1.00  0.00    -0.237 OA
ATOM     92  O   UNL A   1      54.388  26.987  25.611  1.00  0.00    -0.744 OA
ENDBRANCH  88  89
ENDBRANCH  62  83
ENDBRANCH  36  37
ENDBRANCH  28  31
ENDBRANCH  26  27
ENDBRANCH   1  26
TORSDOF 16
ENDMDL
