MODEL 1
REMARK VINA RESULT:     -11.1      0.000      0.000
REMARK SMILES CN(C)S(=O)(=O)c1ccc(-n2c(CCC(=O)NCCCNC(=O)c3ccc(-c4c5nc(c(-c6ccc(S(=O)(=O)[O-])cc6)c6ccc([nH]6)c(-c6ccc(S(=O)(=O)[O-])cc6)c6nc(c(-c7ccc(S(=O)(=O)[O-])cc7)c7ccc4[nH]7)C=C6)C=C5)cc3)ccc2-c2ccc(F)cc2)cc1
REMARK SMILES IDX 18 1 17 2 15 3 16 4 14 6 13 7 12 8 11 9 86 10 84 11 85 12
REMARK SMILES IDX 10 13 7 14 8 15 95 16 9 17 94 18 4 19 5 20 6 21 2 22 1 23
REMARK SMILES IDX 3 24 87 25 88 26 93 27 89 28 92 29 90 30 91 31 19 32 20 33
REMARK SMILES IDX 21 34 22 35 23 37 24 38 25 39 83 40 26 41 82 42 27 43 28 44
REMARK SMILES IDX 29 45 76 46 30 47 81 48 75 49 77 50 31 51 80 52 74 53 73 54
REMARK SMILES IDX 32 56 62 57 43 58 61 59 44 60 47 61 60 62 78 63 45 64 46 65
REMARK SMILES IDX 59 67 79 68 48 69 33 70 34 71 42 72 35 73 41 74 36 75 37 76
REMARK SMILES IDX 38 77 39 78 40 79 63 80 64 81 72 82 65 83 71 84 66 85 67 86
REMARK SMILES IDX 68 87 69 88 70 89 49 90 50 91 58 92 51 93 57 94 52 95 53 96
REMARK SMILES IDX 54 97 55 98 56 99
REMARK H PARENT 17 5 21 36 77 55 47 66
REMARK Flexibility Score: inf
ROOT
ATOM      1  C   UNL A   1      34.575  34.809  31.490  1.00  0.00     0.117 C 
ENDROOT
BRANCH   1   2
ATOM      2  N   UNL A   1      33.571  35.559  30.758  1.00  0.00    -0.356 N 
ATOM      3  C   UNL A   1      33.389  35.723  29.408  1.00  0.00     0.220 C 
ATOM      4  O   UNL A   1      32.320  36.217  29.036  1.00  0.00    -0.275 OA
ATOM      5  H   UNL A   1      32.914  36.028  31.322  1.00  0.00     0.163 HD
BRANCH   3   6
ATOM      6  C   UNL A   1      34.475  35.414  28.380  1.00  0.00     0.106 C 
BRANCH   6   7
ATOM      7  C   UNL A   1      34.427  34.016  27.717  1.00  0.00     0.064 C 
BRANCH   7   8
ATOM      8  C   UNL A   1      35.500  33.078  28.217  1.00  0.00     0.024 A 
ATOM      9  N   UNL A   1      35.492  31.659  28.265  1.00  0.00    -0.314 N 
ATOM     10  C   UNL A   1      36.750  31.313  28.847  1.00  0.00     0.053 A 
ATOM     11  C   UNL A   1      36.681  33.545  28.773  1.00  0.00     0.024 A 
ATOM     12  C   UNL A   1      37.456  32.456  29.159  1.00  0.00     0.029 A 
BRANCH   9  13
ATOM     13  C   UNL A   1      34.480  30.753  27.675  1.00  0.00     0.046 A 
ATOM     14  C   UNL A   1      32.648  28.728  26.716  1.00  0.00     0.082 A 
ATOM     15  C   UNL A   1      32.213  30.038  26.925  1.00  0.00     0.024 A 
ATOM     16  C   UNL A   1      33.978  28.448  26.938  1.00  0.00     0.024 A 
ATOM     17  C   UNL A   1      33.132  31.039  27.403  1.00  0.00     0.028 A 
ATOM     18  C   UNL A   1      34.840  29.448  27.371  1.00  0.00     0.028 A 
BRANCH  14  19
ATOM     19  S   UNL A   1      31.730  27.431  25.899  1.00  0.00     0.242 S 
ATOM     20  O   UNL A   1      30.980  28.080  24.832  1.00  0.00    -0.207 OA
ATOM     21  O   UNL A   1      31.055  26.724  26.956  1.00  0.00    -0.207 OA
BRANCH  19  22
ATOM     22  N   UNL A   1      32.840  26.401  25.111  1.00  0.00    -0.204 NA
ATOM     23  C   UNL A   1      32.686  25.001  25.648  1.00  0.00     0.124 C 
ATOM     24  C   UNL A   1      32.750  26.341  23.644  1.00  0.00     0.124 C 
ENDBRANCH  19  22
ENDBRANCH  14  19
ENDBRANCH   9  13
BRANCH  10  25
ATOM     25  C   UNL A   1      37.380  30.015  28.703  1.00  0.00    -0.001 A 
ATOM     26  C   UNL A   1      38.387  29.774  27.772  1.00  0.00     0.013 A 
ATOM     27  C   UNL A   1      37.146  29.143  29.758  1.00  0.00     0.013 A 
ATOM     28  C   UNL A   1      39.396  28.903  28.139  1.00  0.00     0.040 A 
ATOM     29  C   UNL A   1      38.195  28.379  30.182  1.00  0.00     0.040 A 
ATOM     30  C   UNL A   1      39.335  28.350  29.407  1.00  0.00     0.123 A 
ATOM     31  F   UNL A   1      40.462  27.968  29.976  1.00  0.00    -0.207 F 
ENDBRANCH  10  25
ENDBRANCH   7   8
ENDBRANCH   6   7
ENDBRANCH   3   6
ENDBRANCH   1   2
BRANCH   1  32
ATOM     32  C   UNL A   1      34.250  33.338  31.799  1.00  0.00     0.042 C 
BRANCH  32  33
ATOM     33  C   UNL A   1      35.402  32.360  32.114  1.00  0.00     0.118 C 
BRANCH  33  34
ATOM     34  N   UNL A   1      35.888  32.555  33.500  1.00  0.00    -0.352 N 
ATOM     35  C   UNL A   1      37.023  32.368  34.258  1.00  0.00     0.251 C 
ATOM     36  H   UNL A   1      35.172  32.941  34.055  1.00  0.00     0.163 HD
ATOM     37  O   UNL A   1      36.941  32.748  35.432  1.00  0.00    -0.269 OA
BRANCH  35  38
ATOM     38  C   UNL A   1      38.306  31.745  33.817  1.00  0.00     0.039 A 
ATOM     39  C   UNL A   1      39.499  32.085  34.496  1.00  0.00     0.014 A 
ATOM     40  C   UNL A   1      38.384  30.775  32.826  1.00  0.00     0.014 A 
ATOM     41  C   UNL A   1      40.731  31.499  34.156  1.00  0.00     0.010 A 
ATOM     42  C   UNL A   1      39.604  30.211  32.470  1.00  0.00     0.010 A 
ATOM     43  C   UNL A   1      40.786  30.567  33.117  1.00  0.00    -0.014 A 
BRANCH  43  44
ATOM     44  C   UNL A   1      42.042  29.945  32.608  1.00  0.00     0.031 A 
ATOM     45  C   UNL A   1      42.455  28.602  33.267  1.00  0.00     0.074 A 
ATOM     46  C   UNL A   1      42.576  30.587  31.528  1.00  0.00     0.049 A 
ATOM     47  N   UNL A   1      43.519  27.864  33.179  1.00  0.00    -0.248 NA
ATOM     48  C   UNL A   1      41.496  27.971  34.188  1.00  0.00     0.031 C 
ATOM     49  C   UNL A   1      42.014  31.810  30.902  1.00  0.00     0.029 A 
ATOM     50  N   UNL A   1      43.669  30.354  30.733  1.00  0.00    -0.354 N 
ATOM     51  C   UNL A   1      43.300  26.667  33.931  1.00  0.00     0.074 A 
ATOM     52  C   UNL A   1      41.996  26.775  34.496  1.00  0.00     0.031 C 
ATOM     53  C   UNL A   1      42.826  32.266  29.927  1.00  0.00     0.029 A 
ATOM     54  C   UNL A   1      43.973  31.392  29.820  1.00  0.00     0.049 A 
ATOM     55  H   UNL A   1      44.202  29.528  30.793  1.00  0.00     0.167 HD
ATOM     56  C   UNL A   1      44.213  25.656  34.056  1.00  0.00     0.031 A 
ATOM     57  C   UNL A   1      45.115  31.580  29.099  1.00  0.00     0.031 A 
ATOM     58  C   UNL A   1      45.456  26.072  33.509  1.00  0.00     0.049 A 
ATOM     59  C   UNL A   1      45.956  30.411  29.390  1.00  0.00     0.074 A 
ATOM     60  C   UNL A   1      46.393  26.966  33.955  1.00  0.00     0.029 A 
ATOM     61  N   UNL A   1      45.686  25.801  32.187  1.00  0.00    -0.354 N 
ATOM     62  N   UNL A   1      45.756  29.215  28.934  1.00  0.00    -0.248 NA
ATOM     63  C   UNL A   1      47.045  30.565  30.360  1.00  0.00     0.031 C 
ATOM     64  C   UNL A   1      46.776  27.624  32.769  1.00  0.00     0.029 A 
ATOM     65  C   UNL A   1      46.224  26.955  31.669  1.00  0.00     0.049 A 
ATOM     66  H   UNL A   1      45.503  24.959  31.709  1.00  0.00     0.167 HD
ATOM     67  C   UNL A   1      46.457  28.433  29.819  1.00  0.00     0.074 A 
ATOM     68  C   UNL A   1      47.428  29.297  30.455  1.00  0.00     0.031 C 
ATOM     69  C   UNL A   1      45.926  27.281  30.296  1.00  0.00     0.031 A 
BRANCH  56  70
ATOM     70  C   UNL A   1      44.151  24.234  34.563  1.00  0.00    -0.014 A 
ATOM     71  C   UNL A   1      44.697  23.995  35.853  1.00  0.00     0.010 A 
ATOM     72  C   UNL A   1      43.945  23.116  33.741  1.00  0.00     0.010 A 
ATOM     73  C   UNL A   1      45.170  22.744  36.246  1.00  0.00     0.020 A 
ATOM     74  C   UNL A   1      44.385  21.836  34.147  1.00  0.00     0.020 A 
ATOM     75  C   UNL A   1      45.048  21.673  35.371  1.00  0.00     0.054 A 
BRANCH  75  76
ATOM     76  S   UNL A   1      45.841  20.107  35.837  1.00  0.00     0.124 S 
ATOM     77  O   UNL A   1      44.941  19.117  35.250  1.00  0.00    -0.237 OA
ATOM     78  O   UNL A   1      47.151  20.212  35.197  1.00  0.00    -0.237 OA
ATOM     79  O   UNL A   1      45.864  20.153  37.296  1.00  0.00    -0.744 OA
ENDBRANCH  75  76
ENDBRANCH  56  70
BRANCH  57  80
ATOM     80  C   UNL A   1      45.758  32.710  28.343  1.00  0.00    -0.014 A 
ATOM     81  C   UNL A   1      46.100  33.962  28.868  1.00  0.00     0.010 A 
ATOM     82  C   UNL A   1      46.213  32.443  27.023  1.00  0.00     0.010 A 
ATOM     83  C   UNL A   1      46.999  34.811  28.188  1.00  0.00     0.020 A 
ATOM     84  C   UNL A   1      47.141  33.246  26.362  1.00  0.00     0.020 A 
ATOM     85  C   UNL A   1      47.562  34.417  26.970  1.00  0.00     0.054 A 
BRANCH  85  86
ATOM     86  S   UNL A   1      48.953  35.335  26.254  1.00  0.00     0.124 S 
ATOM     87  O   UNL A   1      49.876  35.428  27.379  1.00  0.00    -0.237 OA
ATOM     88  O   UNL A   1      49.377  34.471  25.155  1.00  0.00    -0.237 OA
ATOM     89  O   UNL A   1      48.345  36.598  25.835  1.00  0.00    -0.744 OA
ENDBRANCH  85  86
ENDBRANCH  57  80
BRANCH  69  90
ATOM     90  C   UNL A   1      44.834  26.647  29.441  1.00  0.00    -0.014 A 
ATOM     91  C   UNL A   1      45.215  25.995  28.252  1.00  0.00     0.010 A 
ATOM     92  C   UNL A   1      43.454  26.676  29.742  1.00  0.00     0.010 A 
ATOM     93  C   UNL A   1      44.281  25.402  27.398  1.00  0.00     0.020 A 
ATOM     94  C   UNL A   1      42.509  26.038  28.911  1.00  0.00     0.020 A 
ATOM     95  C   UNL A   1      42.931  25.415  27.735  1.00  0.00     0.054 A 
BRANCH  95  96
ATOM     96  S   UNL A   1      41.775  24.573  26.616  1.00  0.00     0.124 S 
ATOM     97  O   UNL A   1      41.002  25.690  26.075  1.00  0.00    -0.237 OA
ATOM     98  O   UNL A   1      42.661  23.902  25.668  1.00  0.00    -0.237 OA
ATOM     99  O   UNL A   1      41.028  23.679  27.495  1.00  0.00    -0.744 OA
ENDBRANCH  95  96
ENDBRANCH  69  90
ENDBRANCH  43  44
ENDBRANCH  35  38
ENDBRANCH  33  34
ENDBRANCH  32  33
ENDBRANCH   1  32
TORSDOF 19
ENDMDL
MODEL 2
REMARK VINA RESULT:     -10.8      4.035     11.061
REMARK SMILES CN(C)S(=O)(=O)c1ccc(-n2c(CCC(=O)NCCCNC(=O)c3ccc(-c4c5nc(c(-c6ccc(S(=O)(=O)[O-])cc6)c6ccc([nH]6)c(-c6ccc(S(=O)(=O)[O-])cc6)c6nc(c(-c7ccc(S(=O)(=O)[O-])cc7)c7ccc4[nH]7)C=C6)C=C5)cc3)ccc2-c2ccc(F)cc2)cc1
REMARK SMILES IDX 18 1 17 2 15 3 16 4 14 6 13 7 12 8 11 9 86 10 84 11 85 12
REMARK SMILES IDX 10 13 7 14 8 15 95 16 9 17 94 18 4 19 5 20 6 21 2 22 1 23
REMARK SMILES IDX 3 24 87 25 88 26 93 27 89 28 92 29 90 30 91 31 19 32 20 33
REMARK SMILES IDX 21 34 22 35 23 37 24 38 25 39 83 40 26 41 82 42 27 43 28 44
REMARK SMILES IDX 29 45 76 46 30 47 81 48 75 49 77 50 31 51 80 52 74 53 73 54
REMARK SMILES IDX 32 56 62 57 43 58 61 59 44 60 47 61 60 62 78 63 45 64 46 65
REMARK SMILES IDX 59 67 79 68 48 69 33 70 34 71 42 72 35 73 41 74 36 75 37 76
REMARK SMILES IDX 38 77 39 78 40 79 63 80 64 81 72 82 65 83 71 84 66 85 67 86
REMARK SMILES IDX 68 87 69 88 70 89 49 90 50 91 58 92 51 93 57 94 52 95 53 96
REMARK SMILES IDX 54 97 55 98 56 99
REMARK H PARENT 17 5 21 36 77 55 47 66
REMARK Flexibility Score: inf
ROOT
ATOM      1  C   UNL A   1      40.350  21.723  26.144  1.00  0.00     0.117 C 
ENDROOT
BRANCH   1   2
ATOM      2  N   UNL A   1      40.432  23.172  26.201  1.00  0.00    -0.356 N 
ATOM      3  C   UNL A   1      39.469  24.108  26.478  1.00  0.00     0.220 C 
ATOM      4  O   UNL A   1      39.847  25.263  26.695  1.00  0.00    -0.275 OA
ATOM      5  H   UNL A   1      41.323  23.542  26.007  1.00  0.00     0.163 HD
BRANCH   3   6
ATOM      6  C   UNL A   1      37.973  23.800  26.433  1.00  0.00     0.106 C 
BRANCH   6   7
ATOM      7  C   UNL A   1      37.354  23.568  25.033  1.00  0.00     0.064 C 
BRANCH   7   8
ATOM      8  C   UNL A   1      36.439  22.368  24.974  1.00  0.00     0.024 A 
ATOM      9  N   UNL A   1      35.019  22.327  24.992  1.00  0.00    -0.314 N 
ATOM     10  C   UNL A   1      34.700  20.936  24.933  1.00  0.00     0.053 A 
ATOM     11  C   UNL A   1      36.931  21.072  24.943  1.00  0.00     0.024 A 
ATOM     12  C   UNL A   1      35.858  20.187  24.913  1.00  0.00     0.029 A 
BRANCH   9  13
ATOM     13  C   UNL A   1      34.093  23.480  24.908  1.00  0.00     0.046 A 
ATOM     14  C   UNL A   1      32.478  25.880  24.999  1.00  0.00     0.082 A 
ATOM     15  C   UNL A   1      32.716  25.228  23.787  1.00  0.00     0.024 A 
ATOM     16  C   UNL A   1      32.998  25.318  26.144  1.00  0.00     0.024 A 
ATOM     17  C   UNL A   1      33.522  24.035  23.751  1.00  0.00     0.028 A 
ATOM     18  C   UNL A   1      33.745  24.149  26.073  1.00  0.00     0.028 A 
BRANCH  14  19
ATOM     19  S   UNL A   1      31.313  27.207  25.271  1.00  0.00     0.242 S 
ATOM     20  O   UNL A   1      30.743  26.976  26.592  1.00  0.00    -0.207 OA
ATOM     21  O   UNL A   1      30.480  27.223  24.097  1.00  0.00    -0.207 OA
BRANCH  19  22
ATOM     22  N   UNL A   1      32.183  28.669  25.401  1.00  0.00    -0.204 NA
ATOM     23  C   UNL A   1      33.185  28.751  24.278  1.00  0.00     0.124 C 
ATOM     24  C   UNL A   1      31.388  29.906  25.398  1.00  0.00     0.124 C 
ENDBRANCH  19  22
ENDBRANCH  14  19
ENDBRANCH   9  13
BRANCH  10  25
ATOM     25  C   UNL A   1      33.420  20.416  24.494  1.00  0.00    -0.001 A 
ATOM     26  C   UNL A   1      32.768  20.899  23.362  1.00  0.00     0.013 A 
ATOM     27  C   UNL A   1      33.061  19.208  25.077  1.00  0.00     0.013 A 
ATOM     28  C   UNL A   1      32.062  19.988  22.599  1.00  0.00     0.040 A 
ATOM     29  C   UNL A   1      32.473  18.276  24.270  1.00  0.00     0.040 A 
ATOM     30  C   UNL A   1      32.069  18.665  23.010  1.00  0.00     0.123 A 
ATOM     31  F   UNL A   1      31.884  17.727  22.101  1.00  0.00    -0.207 F 
ENDBRANCH  10  25
ENDBRANCH   7   8
ENDBRANCH   6   7
ENDBRANCH   3   6
ENDBRANCH   1   2
BRANCH   1  32
ATOM     32  C   UNL A   1      41.341  20.940  27.020  1.00  0.00     0.042 C 
BRANCH  32  33
ATOM     33  C   UNL A   1      42.522  20.204  26.352  1.00  0.00     0.118 C 
BRANCH  33  34
ATOM     34  N   UNL A   1      43.238  21.106  25.419  1.00  0.00    -0.352 N 
ATOM     35  C   UNL A   1      43.914  22.306  25.419  1.00  0.00     0.251 C 
ATOM     36  H   UNL A   1      43.226  20.726  24.511  1.00  0.00     0.163 HD
ATOM     37  O   UNL A   1      44.396  22.639  24.331  1.00  0.00    -0.269 OA
BRANCH  35  38
ATOM     38  C   UNL A   1      44.098  23.234  26.575  1.00  0.00     0.039 A 
ATOM     39  C   UNL A   1      45.387  23.375  27.138  1.00  0.00     0.014 A 
ATOM     40  C   UNL A   1      43.084  24.041  27.076  1.00  0.00     0.014 A 
ATOM     41  C   UNL A   1      45.633  24.265  28.199  1.00  0.00     0.010 A 
ATOM     42  C   UNL A   1      43.318  24.905  28.141  1.00  0.00     0.010 A 
ATOM     43  C   UNL A   1      44.580  25.023  28.719  1.00  0.00    -0.014 A 
BRANCH  43  44
ATOM     44  C   UNL A   1      44.697  25.932  29.894  1.00  0.00     0.031 A 
ATOM     45  C   UNL A   1      44.883  27.439  29.577  1.00  0.00     0.074 A 
ATOM     46  C   UNL A   1      44.481  25.314  31.092  1.00  0.00     0.049 A 
ATOM     47  N   UNL A   1      45.145  28.473  30.316  1.00  0.00    -0.248 NA
ATOM     48  C   UNL A   1      44.744  27.863  28.175  1.00  0.00     0.031 C 
ATOM     49  C   UNL A   1      44.186  23.869  31.263  1.00  0.00     0.029 A 
ATOM     50  N   UNL A   1      44.451  25.751  32.392  1.00  0.00    -0.354 N 
ATOM     51  C   UNL A   1      45.091  29.642  29.492  1.00  0.00     0.074 A 
ATOM     52  C   UNL A   1      44.786  29.195  28.173  1.00  0.00     0.031 C 
ATOM     53  C   UNL A   1      44.132  23.541  32.570  1.00  0.00     0.029 A 
ATOM     54  C   UNL A   1      44.376  24.724  33.363  1.00  0.00     0.049 A 
ATOM     55  H   UNL A   1      44.478  26.706  32.631  1.00  0.00     0.167 HD
ATOM     56  C   UNL A   1      45.312  30.915  29.942  1.00  0.00     0.031 A 
ATOM     57  C   UNL A   1      44.591  24.811  34.708  1.00  0.00     0.031 A 
ATOM     58  C   UNL A   1      45.800  30.867  31.275  1.00  0.00     0.049 A 
ATOM     59  C   UNL A   1      44.828  26.237  34.972  1.00  0.00     0.074 A 
ATOM     60  C   UNL A   1      47.010  30.481  31.788  1.00  0.00     0.029 A 
ATOM     61  N   UNL A   1      44.878  30.919  32.286  1.00  0.00    -0.354 N 
ATOM     62  N   UNL A   1      43.919  27.160  34.966  1.00  0.00    -0.248 NA
ATOM     63  C   UNL A   1      46.213  26.688  35.148  1.00  0.00     0.031 C 
ATOM     64  C   UNL A   1      46.637  29.771  32.948  1.00  0.00     0.029 A 
ATOM     65  C   UNL A   1      45.267  29.954  33.183  1.00  0.00     0.049 A 
ATOM     66  H   UNL A   1      44.101  31.521  32.355  1.00  0.00     0.167 HD
ATOM     67  C   UNL A   1      44.652  28.306  34.786  1.00  0.00     0.074 A 
ATOM     68  C   UNL A   1      46.006  28.000  35.193  1.00  0.00     0.031 C 
ATOM     69  C   UNL A   1      44.238  29.264  33.921  1.00  0.00     0.031 A 
BRANCH  56  70
ATOM     70  C   UNL A   1      45.084  32.292  29.365  1.00  0.00    -0.014 A 
ATOM     71  C   UNL A   1      43.899  32.963  29.773  1.00  0.00     0.010 A 
ATOM     72  C   UNL A   1      45.732  32.782  28.222  1.00  0.00     0.010 A 
ATOM     73  C   UNL A   1      43.296  33.954  29.000  1.00  0.00     0.020 A 
ATOM     74  C   UNL A   1      45.149  33.814  27.453  1.00  0.00     0.020 A 
ATOM     75  C   UNL A   1      43.906  34.349  27.817  1.00  0.00     0.054 A 
BRANCH  75  76
ATOM     76  S   UNL A   1      43.001  35.502  26.744  1.00  0.00     0.124 S 
ATOM     77  O   UNL A   1      43.849  36.692  26.784  1.00  0.00    -0.237 OA
ATOM     78  O   UNL A   1      42.981  34.796  25.464  1.00  0.00    -0.237 OA
ATOM     79  O   UNL A   1      41.701  35.631  27.396  1.00  0.00    -0.744 OA
ENDBRANCH  75  76
ENDBRANCH  56  70
BRANCH  57  80
ATOM     80  C   UNL A   1      44.862  23.855  35.836  1.00  0.00    -0.014 A 
ATOM     81  C   UNL A   1      45.502  22.615  35.729  1.00  0.00     0.010 A 
ATOM     82  C   UNL A   1      44.594  24.307  37.158  1.00  0.00     0.010 A 
ATOM     83  C   UNL A   1      46.013  21.964  36.872  1.00  0.00     0.020 A 
ATOM     84  C   UNL A   1      45.137  23.702  38.291  1.00  0.00     0.020 A 
ATOM     85  C   UNL A   1      45.881  22.545  38.138  1.00  0.00     0.054 A 
BRANCH  85  86
ATOM     86  S   UNL A   1      46.807  21.893  39.555  1.00  0.00     0.124 S 
ATOM     87  O   UNL A   1      47.420  20.691  39.001  1.00  0.00    -0.237 OA
ATOM     88  O   UNL A   1      47.726  22.986  39.868  1.00  0.00    -0.237 OA
ATOM     89  O   UNL A   1      45.771  21.663  40.560  1.00  0.00    -0.744 OA
ENDBRANCH  85  86
ENDBRANCH  57  80
BRANCH  69  90
ATOM     90  C   UNL A   1      42.747  29.273  33.601  1.00  0.00    -0.014 A 
ATOM     91  C   UNL A   1      41.885  29.970  34.470  1.00  0.00     0.010 A 
ATOM     92  C   UNL A   1      42.154  28.616  32.500  1.00  0.00     0.010 A 
ATOM     93  C   UNL A   1      40.504  30.017  34.265  1.00  0.00     0.020 A 
ATOM     94  C   UNL A   1      40.766  28.699  32.258  1.00  0.00     0.020 A 
ATOM     95  C   UNL A   1      39.948  29.390  33.153  1.00  0.00     0.054 A 
BRANCH  95  96
ATOM     96  S   UNL A   1      38.155  29.540  32.909  1.00  0.00     0.124 S 
ATOM     97  O   UNL A   1      38.069  29.947  31.507  1.00  0.00    -0.237 OA
ATOM     98  O   UNL A   1      37.667  28.196  33.206  1.00  0.00    -0.237 OA
ATOM     99  O   UNL A   1      37.757  30.563  33.869  1.00  0.00    -0.744 OA
ENDBRANCH  95  96
ENDBRANCH  69  90
ENDBRANCH  43  44
ENDBRANCH  35  38
ENDBRANCH  33  34
ENDBRANCH  32  33
ENDBRANCH   1  32
TORSDOF 19
ENDMDL
MODEL 3
REMARK VINA RESULT:     -10.6      4.611     10.071
REMARK SMILES CN(C)S(=O)(=O)c1ccc(-n2c(CCC(=O)NCCCNC(=O)c3ccc(-c4c5nc(c(-c6ccc(S(=O)(=O)[O-])cc6)c6ccc([nH]6)c(-c6ccc(S(=O)(=O)[O-])cc6)c6nc(c(-c7ccc(S(=O)(=O)[O-])cc7)c7ccc4[nH]7)C=C6)C=C5)cc3)ccc2-c2ccc(F)cc2)cc1
REMARK SMILES IDX 18 1 17 2 15 3 16 4 14 6 13 7 12 8 11 9 86 10 84 11 85 12
REMARK SMILES IDX 10 13 7 14 8 15 95 16 9 17 94 18 4 19 5 20 6 21 2 22 1 23
REMARK SMILES IDX 3 24 87 25 88 26 93 27 89 28 92 29 90 30 91 31 19 32 20 33
REMARK SMILES IDX 21 34 22 35 23 37 24 38 25 39 83 40 26 41 82 42 27 43 28 44
REMARK SMILES IDX 29 45 76 46 30 47 81 48 75 49 77 50 31 51 80 52 74 53 73 54
REMARK SMILES IDX 32 56 62 57 43 58 61 59 44 60 47 61 60 62 78 63 45 64 46 65
REMARK SMILES IDX 59 67 79 68 48 69 33 70 34 71 42 72 35 73 41 74 36 75 37 76
REMARK SMILES IDX 38 77 39 78 40 79 63 80 64 81 72 82 65 83 71 84 66 85 67 86
REMARK SMILES IDX 68 87 69 88 70 89 49 90 50 91 58 92 51 93 57 94 52 95 53 96
REMARK SMILES IDX 54 97 55 98 56 99
REMARK H PARENT 17 5 21 36 77 55 47 66
REMARK Flexibility Score: inf
ROOT
ATOM      1  C   UNL A   1      39.825  21.656  26.442  1.00  0.00     0.117 C 
ENDROOT
BRANCH   1   2
ATOM      2  N   UNL A   1      39.880  23.106  26.384  1.00  0.00    -0.356 N 
ATOM      3  C   UNL A   1      38.873  24.036  26.379  1.00  0.00     0.220 C 
ATOM      4  O   UNL A   1      39.189  25.216  26.563  1.00  0.00    -0.275 OA
ATOM      5  H   UNL A   1      40.789  23.483  26.341  1.00  0.00     0.163 HD
BRANCH   3   6
ATOM      6  C   UNL A   1      37.420  23.686  26.063  1.00  0.00     0.106 C 
BRANCH   6   7
ATOM      7  C   UNL A   1      37.145  23.041  24.683  1.00  0.00     0.064 C 
BRANCH   7   8
ATOM      8  C   UNL A   1      36.468  21.694  24.775  1.00  0.00     0.024 A 
ATOM      9  N   UNL A   1      35.084  21.397  24.890  1.00  0.00    -0.314 N 
ATOM     10  C   UNL A   1      35.028  19.971  24.957  1.00  0.00     0.053 A 
ATOM     11  C   UNL A   1      37.191  20.511  24.808  1.00  0.00     0.024 A 
ATOM     12  C   UNL A   1      36.303  19.447  24.916  1.00  0.00     0.029 A 
BRANCH   9  13
ATOM     13  C   UNL A   1      33.957  22.351  24.782  1.00  0.00     0.046 A 
ATOM     14  C   UNL A   1      31.957  24.443  24.744  1.00  0.00     0.082 A 
ATOM     15  C   UNL A   1      32.099  23.575  23.658  1.00  0.00     0.024 A 
ATOM     16  C   UNL A   1      32.765  24.240  25.840  1.00  0.00     0.024 A 
ATOM     17  C   UNL A   1      33.097  22.538  23.686  1.00  0.00     0.028 A 
ATOM     18  C   UNL A   1      33.697  23.208  25.840  1.00  0.00     0.028 A 
BRANCH  14  19
ATOM     19  S   UNL A   1      30.627  25.610  24.993  1.00  0.00     0.242 S 
ATOM     20  O   UNL A   1      30.180  25.422  26.367  1.00  0.00    -0.207 OA
ATOM     21  O   UNL A   1      29.731  25.402  23.885  1.00  0.00    -0.207 OA
BRANCH  19  22
ATOM     22  N   UNL A   1      31.278  27.187  24.940  1.00  0.00    -0.204 NA
ATOM     23  C   UNL A   1      30.394  28.061  24.088  1.00  0.00     0.124 C 
ATOM     24  C   UNL A   1      31.475  27.857  26.235  1.00  0.00     0.124 C 
ENDBRANCH  19  22
ENDBRANCH  14  19
ENDBRANCH   9  13
BRANCH  10  25
ATOM     25  C   UNL A   1      33.846  19.192  24.644  1.00  0.00    -0.001 A 
ATOM     26  C   UNL A   1      33.684  18.541  23.424  1.00  0.00     0.013 A 
ATOM     27  C   UNL A   1      33.059  18.876  25.744  1.00  0.00     0.013 A 
ATOM     28  C   UNL A   1      33.037  17.319  23.437  1.00  0.00     0.040 A 
ATOM     29  C   UNL A   1      32.529  17.619  25.792  1.00  0.00     0.040 A 
ATOM     30  C   UNL A   1      32.613  16.832  24.662  1.00  0.00     0.123 A 
ATOM     31  F   UNL A   1      32.485  15.527  24.805  1.00  0.00    -0.207 F 
ENDBRANCH  10  25
ENDBRANCH   7   8
ENDBRANCH   6   7
ENDBRANCH   3   6
ENDBRANCH   1   2
BRANCH   1  32
ATOM     32  C   UNL A   1      40.765  20.968  27.444  1.00  0.00     0.042 C 
BRANCH  32  33
ATOM     33  C   UNL A   1      42.071  20.322  26.935  1.00  0.00     0.118 C 
BRANCH  33  34
ATOM     34  N   UNL A   1      42.625  21.093  25.797  1.00  0.00    -0.352 N 
ATOM     35  C   UNL A   1      43.157  22.333  25.520  1.00  0.00     0.251 C 
ATOM     36  H   UNL A   1      42.606  20.545  24.980  1.00  0.00     0.163 HD
ATOM     37  O   UNL A   1      43.535  22.496  24.355  1.00  0.00    -0.269 OA
BRANCH  35  38
ATOM     38  C   UNL A   1      43.298  23.482  26.464  1.00  0.00     0.039 A 
ATOM     39  C   UNL A   1      43.198  23.239  27.853  1.00  0.00     0.014 A 
ATOM     40  C   UNL A   1      43.614  24.772  26.057  1.00  0.00     0.014 A 
ATOM     41  C   UNL A   1      43.366  24.272  28.794  1.00  0.00     0.010 A 
ATOM     42  C   UNL A   1      43.757  25.801  26.982  1.00  0.00     0.010 A 
ATOM     43  C   UNL A   1      43.628  25.570  28.351  1.00  0.00    -0.014 A 
BRANCH  43  44
ATOM     44  C   UNL A   1      43.737  26.759  29.243  1.00  0.00     0.031 A 
ATOM     45  C   UNL A   1      42.446  27.604  29.417  1.00  0.00     0.074 A 
ATOM     46  C   UNL A   1      44.933  26.853  29.893  1.00  0.00     0.049 A 
ATOM     47  N   UNL A   1      42.205  28.743  29.989  1.00  0.00    -0.248 NA
ATOM     48  C   UNL A   1      41.199  27.067  28.850  1.00  0.00     0.031 C 
ATOM     49  C   UNL A   1      46.063  25.903  29.736  1.00  0.00     0.029 A 
ATOM     50  N   UNL A   1      45.446  27.734  30.811  1.00  0.00    -0.354 N 
ATOM     51  C   UNL A   1      40.795  28.983  29.939  1.00  0.00     0.074 A 
ATOM     52  C   UNL A   1      40.219  27.872  29.257  1.00  0.00     0.031 C 
ATOM     53  C   UNL A   1      47.144  26.325  30.423  1.00  0.00     0.029 A 
ATOM     54  C   UNL A   1      46.824  27.567  31.090  1.00  0.00     0.049 A 
ATOM     55  H   UNL A   1      44.899  28.429  31.243  1.00  0.00     0.167 HD
ATOM     56  C   UNL A   1      40.182  30.093  30.453  1.00  0.00     0.031 A 
ATOM     57  C   UNL A   1      47.668  28.422  31.735  1.00  0.00     0.031 A 
ATOM     58  C   UNL A   1      41.167  31.038  30.844  1.00  0.00     0.049 A 
ATOM     59  C   UNL A   1      46.825  29.539  32.181  1.00  0.00     0.074 A 
ATOM     60  C   UNL A   1      41.997  31.844  30.110  1.00  0.00     0.029 A 
ATOM     61  N   UNL A   1      41.622  30.978  32.133  1.00  0.00    -0.354 N 
ATOM     62  N   UNL A   1      45.978  29.492  33.160  1.00  0.00    -0.248 NA
ATOM     63  C   UNL A   1      46.847  30.779  31.398  1.00  0.00     0.031 C 
ATOM     64  C   UNL A   1      43.210  31.764  30.825  1.00  0.00     0.029 A 
ATOM     65  C   UNL A   1      42.987  31.108  32.043  1.00  0.00     0.049 A 
ATOM     66  H   UNL A   1      41.085  30.866  32.951  1.00  0.00     0.167 HD
ATOM     67  C   UNL A   1      45.140  30.544  32.886  1.00  0.00     0.074 A 
ATOM     68  C   UNL A   1      45.868  31.436  32.010  1.00  0.00     0.031 C 
ATOM     69  C   UNL A   1      43.797  30.410  33.011  1.00  0.00     0.031 A 
BRANCH  56  70
ATOM     70  C   UNL A   1      38.748  30.467  30.743  1.00  0.00    -0.014 A 
ATOM     71  C   UNL A   1      38.225  31.582  30.033  1.00  0.00     0.010 A 
ATOM     72  C   UNL A   1      38.044  30.050  31.883  1.00  0.00     0.010 A 
ATOM     73  C   UNL A   1      37.164  32.347  30.516  1.00  0.00     0.020 A 
ATOM     74  C   UNL A   1      36.940  30.796  32.357  1.00  0.00     0.020 A 
ATOM     75  C   UNL A   1      36.550  31.971  31.703  1.00  0.00     0.054 A 
BRANCH  75  76
ATOM     76  S   UNL A   1      35.300  33.091  32.397  1.00  0.00     0.124 S 
ATOM     77  O   UNL A   1      35.833  34.405  32.048  1.00  0.00    -0.237 OA
ATOM     78  O   UNL A   1      34.088  32.700  31.678  1.00  0.00    -0.237 OA
ATOM     79  O   UNL A   1      35.300  32.767  33.821  1.00  0.00    -0.744 OA
ENDBRANCH  75  76
ENDBRANCH  56  70
BRANCH  57  80
ATOM     80  C   UNL A   1      49.156  28.596  31.870  1.00  0.00    -0.014 A 
ATOM     81  C   UNL A   1      49.839  28.972  33.033  1.00  0.00     0.010 A 
ATOM     82  C   UNL A   1      49.967  28.191  30.775  1.00  0.00     0.010 A 
ATOM     83  C   UNL A   1      51.231  28.771  33.151  1.00  0.00     0.020 A 
ATOM     84  C   UNL A   1      51.333  27.938  30.894  1.00  0.00     0.020 A 
ATOM     85  C   UNL A   1      51.956  28.195  32.103  1.00  0.00     0.054 A 
BRANCH  85  86
ATOM     86  S   UNL A   1      53.661  27.632  32.358  1.00  0.00     0.124 S 
ATOM     87  O   UNL A   1      53.485  26.512  33.275  1.00  0.00    -0.237 OA
ATOM     88  O   UNL A   1      54.089  27.282  31.005  1.00  0.00    -0.237 OA
ATOM     89  O   UNL A   1      54.326  28.807  32.921  1.00  0.00    -0.744 OA
ENDBRANCH  85  86
ENDBRANCH  57  80
BRANCH  69  90
ATOM     90  C   UNL A   1      43.322  29.300  33.942  1.00  0.00    -0.014 A 
ATOM     91  C   UNL A   1      43.138  29.607  35.305  1.00  0.00     0.010 A 
ATOM     92  C   UNL A   1      43.066  27.968  33.545  1.00  0.00     0.010 A 
ATOM     93  C   UNL A   1      42.723  28.648  36.232  1.00  0.00     0.020 A 
ATOM     94  C   UNL A   1      42.599  27.006  34.466  1.00  0.00     0.020 A 
ATOM     95  C   UNL A   1      42.444  27.352  35.810  1.00  0.00     0.054 A 
BRANCH  95  96
ATOM     96  S   UNL A   1      41.848  26.170  37.052  1.00  0.00     0.124 S 
ATOM     97  O   UNL A   1      42.905  26.227  38.062  1.00  0.00    -0.237 OA
ATOM     98  O   UNL A   1      40.561  26.733  37.454  1.00  0.00    -0.237 OA
ATOM     99  O   UNL A   1      41.765  24.910  36.322  1.00  0.00    -0.744 OA
ENDBRANCH  95  96
ENDBRANCH  69  90
ENDBRANCH  43  44
ENDBRANCH  35  38
ENDBRANCH  33  34
ENDBRANCH  32  33
ENDBRANCH   1  32
TORSDOF 19
ENDMDL
