MODEL 1
REMARK VINA RESULT:     -11.8      0.000      0.000
REMARK SMILES CCOC(=O)C1=NN(c2ccc(Cl)cc2F)[C@@H](C(=O)NCCCNC(=O)c2ccc(-c3c4nc(c(-c5ccc(S(=O)(=O)[O-])cc5)c5ccc([nH]5)c(-c5ccc(S(=O)(=O)[O-])cc5)c5nc(c(-c6ccc(S(=O)(=O)[O-])cc6)c6ccc3[nH]6)C=C5)C=C4)cc2)C1
REMARK SMILES IDX 22 1 21 2 20 3 18 4 19 5 17 7 6 8 7 9 87 10 8 11 4 12 5 13
REMARK SMILES IDX 3 14 2 15 1 16 9 17 10 18 15 19 11 20 14 21 16 22 12 23
REMARK SMILES IDX 13 24 23 25 24 26 25 27 26 29 27 30 28 31 86 32 29 33 85 34
REMARK SMILES IDX 30 35 31 36 32 37 79 38 33 39 84 40 78 41 80 42 34 43 83 44
REMARK SMILES IDX 77 45 76 46 35 48 65 49 46 50 64 51 47 52 50 53 63 54 81 55
REMARK SMILES IDX 48 56 49 57 62 59 82 60 51 61 36 62 37 63 45 64 38 65 44 66
REMARK SMILES IDX 39 67 40 68 41 69 42 70 43 71 66 72 67 73 75 74 68 75 74 76
REMARK SMILES IDX 69 77 70 78 71 79 72 80 73 81 52 82 53 83 61 84 54 85 60 86
REMARK SMILES IDX 55 87 56 88 57 89 58 90 59 91
REMARK H PARENT 20 6 24 28 80 47 50 58
REMARK Flexibility Score: inf
ROOT
ATOM      1  C   UNL A   1      38.105  23.682  25.975  1.00  0.00     0.042 C 
ENDROOT
BRANCH   1   2
ATOM      2  C   UNL A   1      37.202  22.534  25.526  1.00  0.00     0.117 C 
BRANCH   2   3
ATOM      3  N   UNL A   1      36.225  22.179  26.533  1.00  0.00    -0.354 N 
ATOM      4  C   UNL A   1      34.870  22.044  26.442  1.00  0.00     0.245 C 
ATOM      5  O   UNL A   1      34.295  21.756  27.501  1.00  0.00    -0.273 OA
ATOM      6  H   UNL A   1      36.598  22.006  27.427  1.00  0.00     0.163 HD
BRANCH   4   7
ATOM      7  C   UNL A   1      34.094  22.113  25.101  1.00  0.00     0.203 C 
ATOM      8  C   UNL A   1      33.037  20.107  24.806  1.00  0.00     0.148 C 
ATOM      9  N   UNL A   1      32.104  20.874  25.280  1.00  0.00    -0.169 NA
ATOM     10  C   UNL A   1      34.281  20.789  24.344  1.00  0.00     0.103 C 
ATOM     11  N   UNL A   1      32.631  22.146  25.268  1.00  0.00    -0.249 N 
BRANCH   8  12
ATOM     12  C   UNL A   1      32.893  18.630  24.618  1.00  0.00     0.354 C 
ATOM     13  O   UNL A   1      31.822  18.068  24.770  1.00  0.00    -0.245 OA
BRANCH  12  14
ATOM     14  O   UNL A   1      34.062  18.117  24.193  1.00  0.00    -0.461 OA
BRANCH  14  15
ATOM     15  C   UNL A   1      34.059  16.711  23.912  1.00  0.00     0.230 C 
ATOM     16  C   UNL A   1      34.139  15.925  25.205  1.00  0.00     0.049 C 
ENDBRANCH  14  15
ENDBRANCH  12  14
ENDBRANCH   8  12
BRANCH  11  17
ATOM     17  C   UNL A   1      31.764  23.205  24.983  1.00  0.00     0.096 A 
ATOM     18  C   UNL A   1      31.289  23.376  23.666  1.00  0.00     0.032 A 
ATOM     19  C   UNL A   1      31.293  24.131  25.932  1.00  0.00     0.149 A 
ATOM     20  C   UNL A   1      30.376  24.383  23.328  1.00  0.00     0.023 A 
ATOM     21  C   UNL A   1      30.391  25.145  25.608  1.00  0.00     0.062 A 
ATOM     22  F   UNL A   1      31.693  24.072  27.211  1.00  0.00    -0.205 F 
ATOM     23  C   UNL A   1      29.929  25.262  24.305  1.00  0.00     0.044 A 
ATOM     24  Cl  UNL A   1      28.798  26.495  23.907  1.00  0.00    -0.084 Cl
ENDBRANCH  11  17
ENDBRANCH   4   7
ENDBRANCH   2   3
ENDBRANCH   1   2
BRANCH   1  25
ATOM     25  C   UNL A   1      39.278  23.243  26.849  1.00  0.00     0.118 C 
BRANCH  25  26
ATOM     26  N   UNL A   1      40.556  23.474  26.196  1.00  0.00    -0.352 N 
ATOM     27  C   UNL A   1      41.402  24.554  26.284  1.00  0.00     0.251 C 
ATOM     28  H   UNL A   1      40.861  22.751  25.604  1.00  0.00     0.163 HD
ATOM     29  O   UNL A   1      42.328  24.649  25.482  1.00  0.00    -0.269 OA
BRANCH  27  30
ATOM     30  C   UNL A   1      41.216  25.599  27.320  1.00  0.00     0.039 A 
ATOM     31  C   UNL A   1      42.032  26.737  27.277  1.00  0.00     0.014 A 
ATOM     32  C   UNL A   1      40.314  25.436  28.376  1.00  0.00     0.014 A 
ATOM     33  C   UNL A   1      41.923  27.721  28.265  1.00  0.00     0.010 A 
ATOM     34  C   UNL A   1      40.178  26.436  29.342  1.00  0.00     0.010 A 
ATOM     35  C   UNL A   1      40.988  27.582  29.301  1.00  0.00    -0.014 A 
BRANCH  35  36
ATOM     36  C   UNL A   1      40.870  28.600  30.376  1.00  0.00     0.031 A 
ATOM     37  C   UNL A   1      41.787  28.547  31.566  1.00  0.00     0.074 A 
ATOM     38  C   UNL A   1      39.907  29.540  30.319  1.00  0.00     0.049 A 
ATOM     39  N   UNL A   1      41.749  29.251  32.669  1.00  0.00    -0.248 NA
ATOM     40  C   UNL A   1      42.878  27.561  31.516  1.00  0.00     0.031 C 
ATOM     41  C   UNL A   1      38.942  29.703  29.232  1.00  0.00     0.029 A 
ATOM     42  N   UNL A   1      39.578  30.529  31.211  1.00  0.00    -0.354 N 
ATOM     43  C   UNL A   1      42.777  28.761  33.465  1.00  0.00     0.074 A 
ATOM     44  C   UNL A   1      43.427  27.707  32.714  1.00  0.00     0.031 C 
ATOM     45  C   UNL A   1      38.134  30.738  29.517  1.00  0.00     0.029 A 
ATOM     46  C   UNL A   1      38.505  31.290  30.817  1.00  0.00     0.049 A 
ATOM     47  H   UNL A   1      40.065  30.679  32.054  1.00  0.00     0.167 HD
ATOM     48  C   UNL A   1      43.142  29.143  34.712  1.00  0.00     0.031 A 
ATOM     49  C   UNL A   1      37.880  32.309  31.436  1.00  0.00     0.031 A 
ATOM     50  C   UNL A   1      42.530  30.209  35.455  1.00  0.00     0.049 A 
ATOM     51  C   UNL A   1      38.345  32.763  32.789  1.00  0.00     0.074 A 
ATOM     52  C   UNL A   1      42.843  30.671  36.722  1.00  0.00     0.029 A 
ATOM     53  N   UNL A   1      41.488  30.995  34.989  1.00  0.00    -0.354 N 
ATOM     54  N   UNL A   1      39.306  32.273  33.534  1.00  0.00    -0.248 NA
ATOM     55  C   UNL A   1      37.640  33.908  33.385  1.00  0.00     0.031 C 
ATOM     56  C   UNL A   1      41.987  31.739  37.023  1.00  0.00     0.029 A 
ATOM     57  C   UNL A   1      41.151  31.945  35.938  1.00  0.00     0.049 A 
ATOM     58  H   UNL A   1      41.052  30.893  34.113  1.00  0.00     0.167 HD
ATOM     59  C   UNL A   1      39.323  33.050  34.685  1.00  0.00     0.074 A 
ATOM     60  C   UNL A   1      38.285  34.050  34.535  1.00  0.00     0.031 C 
ATOM     61  C   UNL A   1      40.124  32.939  35.772  1.00  0.00     0.031 A 
BRANCH  48  62
ATOM     62  C   UNL A   1      44.249  28.362  35.358  1.00  0.00    -0.014 A 
ATOM     63  C   UNL A   1      45.593  28.738  35.191  1.00  0.00     0.010 A 
ATOM     64  C   UNL A   1      43.940  27.225  36.125  1.00  0.00     0.010 A 
ATOM     65  C   UNL A   1      46.615  27.962  35.744  1.00  0.00     0.020 A 
ATOM     66  C   UNL A   1      44.958  26.453  36.689  1.00  0.00     0.020 A 
ATOM     67  C   UNL A   1      46.291  26.815  36.474  1.00  0.00     0.054 A 
BRANCH  67  68
ATOM     68  S   UNL A   1      47.619  25.794  37.172  1.00  0.00     0.124 S 
ATOM     69  O   UNL A   1      48.809  26.434  36.617  1.00  0.00    -0.237 OA
ATOM     70  O   UNL A   1      47.438  25.949  38.613  1.00  0.00    -0.237 OA
ATOM     71  O   UNL A   1      47.327  24.460  36.653  1.00  0.00    -0.744 OA
ENDBRANCH  67  68
ENDBRANCH  48  62
BRANCH  49  72
ATOM     72  C   UNL A   1      36.735  32.975  30.767  1.00  0.00    -0.014 A 
ATOM     73  C   UNL A   1      35.423  32.723  31.200  1.00  0.00     0.010 A 
ATOM     74  C   UNL A   1      36.958  33.890  29.724  1.00  0.00     0.010 A 
ATOM     75  C   UNL A   1      34.346  33.381  30.602  1.00  0.00     0.020 A 
ATOM     76  C   UNL A   1      35.883  34.558  29.131  1.00  0.00     0.020 A 
ATOM     77  C   UNL A   1      34.583  34.295  29.571  1.00  0.00     0.054 A 
BRANCH  77  78
ATOM     78  S   UNL A   1      33.191  35.212  28.853  1.00  0.00     0.124 S 
ATOM     79  O   UNL A   1      33.872  36.298  28.156  1.00  0.00    -0.237 OA
ATOM     80  O   UNL A   1      32.547  34.217  27.999  1.00  0.00    -0.237 OA
ATOM     81  O   UNL A   1      32.414  35.606  30.027  1.00  0.00    -0.744 OA
ENDBRANCH  77  78
ENDBRANCH  49  72
BRANCH  61  82
ATOM     82  C   UNL A   1      39.923  33.935  36.875  1.00  0.00    -0.014 A 
ATOM     83  C   UNL A   1      40.552  35.191  36.828  1.00  0.00     0.010 A 
ATOM     84  C   UNL A   1      39.067  33.630  37.947  1.00  0.00     0.010 A 
ATOM     85  C   UNL A   1      40.342  36.123  37.848  1.00  0.00     0.020 A 
ATOM     86  C   UNL A   1      38.849  34.563  38.964  1.00  0.00     0.020 A 
ATOM     87  C   UNL A   1      39.497  35.800  38.915  1.00  0.00     0.054 A 
BRANCH  87  88
ATOM     88  S   UNL A   1      39.193  37.029  40.214  1.00  0.00     0.124 S 
ATOM     89  O   UNL A   1      38.335  36.289  41.136  1.00  0.00    -0.237 OA
ATOM     90  O   UNL A   1      40.535  37.327  40.710  1.00  0.00    -0.237 OA
ATOM     91  O   UNL A   1      38.545  38.125  39.499  1.00  0.00    -0.744 OA
ENDBRANCH  87  88
ENDBRANCH  61  82
ENDBRANCH  35  36
ENDBRANCH  27  30
ENDBRANCH  25  26
ENDBRANCH   1  25
TORSDOF 17
ENDMDL
MODEL 2
REMARK VINA RESULT:     -11.7      4.728     10.267
REMARK SMILES CCOC(=O)C1=NN(c2ccc(Cl)cc2F)[C@@H](C(=O)NCCCNC(=O)c2ccc(-c3c4nc(c(-c5ccc(S(=O)(=O)[O-])cc5)c5ccc([nH]5)c(-c5ccc(S(=O)(=O)[O-])cc5)c5nc(c(-c6ccc(S(=O)(=O)[O-])cc6)c6ccc3[nH]6)C=C5)C=C4)cc2)C1
REMARK SMILES IDX 22 1 21 2 20 3 18 4 19 5 17 7 6 8 7 9 87 10 8 11 4 12 5 13
REMARK SMILES IDX 3 14 2 15 1 16 9 17 10 18 15 19 11 20 14 21 16 22 12 23
REMARK SMILES IDX 13 24 23 25 24 26 25 27 26 29 27 30 28 31 86 32 29 33 85 34
REMARK SMILES IDX 30 35 31 36 32 37 79 38 33 39 84 40 78 41 80 42 34 43 83 44
REMARK SMILES IDX 77 45 76 46 35 48 65 49 46 50 64 51 47 52 50 53 63 54 81 55
REMARK SMILES IDX 48 56 49 57 62 59 82 60 51 61 36 62 37 63 45 64 38 65 44 66
REMARK SMILES IDX 39 67 40 68 41 69 42 70 43 71 66 72 67 73 75 74 68 75 74 76
REMARK SMILES IDX 69 77 70 78 71 79 72 80 73 81 52 82 53 83 61 84 54 85 60 86
REMARK SMILES IDX 55 87 56 88 57 89 58 90 59 91
REMARK H PARENT 20 6 24 28 80 47 50 58
REMARK Flexibility Score: inf
ROOT
ATOM      1  C   UNL A   1      31.984  27.677  27.141  1.00  0.00     0.042 C 
ENDROOT
BRANCH   1   2
ATOM      2  C   UNL A   1      31.928  26.318  26.443  1.00  0.00     0.117 C 
BRANCH   2   3
ATOM      3  N   UNL A   1      33.230  25.693  26.354  1.00  0.00    -0.354 N 
ATOM      4  C   UNL A   1      33.625  24.560  25.705  1.00  0.00     0.245 C 
ATOM      5  O   UNL A   1      34.819  24.260  25.843  1.00  0.00    -0.273 OA
ATOM      6  H   UNL A   1      33.947  26.161  26.841  1.00  0.00     0.163 HD
BRANCH   4   7
ATOM      7  C   UNL A   1      32.701  23.757  24.752  1.00  0.00     0.203 C 
ATOM      8  C   UNL A   1      33.150  24.435  22.616  1.00  0.00     0.148 C 
ATOM      9  N   UNL A   1      33.830  23.336  22.733  1.00  0.00    -0.169 NA
ATOM     10  C   UNL A   1      32.140  24.704  23.681  1.00  0.00     0.103 C 
ATOM     11  N   UNL A   1      33.420  22.775  23.923  1.00  0.00    -0.249 N 
BRANCH   8  12
ATOM     12  C   UNL A   1      33.258  25.367  21.450  1.00  0.00     0.354 C 
ATOM     13  O   UNL A   1      32.705  25.131  20.390  1.00  0.00    -0.245 OA
BRANCH  12  14
ATOM     14  O   UNL A   1      33.950  26.461  21.815  1.00  0.00    -0.461 OA
BRANCH  14  15
ATOM     15  C   UNL A   1      33.168  27.557  22.307  1.00  0.00     0.230 C 
ATOM     16  C   UNL A   1      33.917  28.271  23.414  1.00  0.00     0.049 C 
ENDBRANCH  14  15
ENDBRANCH  12  14
ENDBRANCH   8  12
BRANCH  11  17
ATOM     17  C   UNL A   1      33.342  21.382  23.990  1.00  0.00     0.096 A 
ATOM     18  C   UNL A   1      32.352  20.707  23.246  1.00  0.00     0.032 A 
ATOM     19  C   UNL A   1      34.207  20.567  24.743  1.00  0.00     0.149 A 
ATOM     20  C   UNL A   1      32.255  19.309  23.228  1.00  0.00     0.023 A 
ATOM     21  C   UNL A   1      34.118  19.174  24.742  1.00  0.00     0.062 A 
ATOM     22  F   UNL A   1      35.175  21.103  25.501  1.00  0.00    -0.205 F 
ATOM     23  C   UNL A   1      33.144  18.549  23.976  1.00  0.00     0.044 A 
ATOM     24  Cl  UNL A   1      33.046  16.833  23.953  1.00  0.00    -0.084 Cl
ENDBRANCH  11  17
ENDBRANCH   4   7
ENDBRANCH   2   3
ENDBRANCH   1   2
BRANCH   1  25
ATOM     25  C   UNL A   1      33.368  28.322  27.133  1.00  0.00     0.118 C 
BRANCH  25  26
ATOM     26  N   UNL A   1      33.299  29.756  27.355  1.00  0.00    -0.352 N 
ATOM     27  C   UNL A   1      34.221  30.600  27.927  1.00  0.00     0.251 C 
ATOM     28  H   UNL A   1      32.469  30.188  27.051  1.00  0.00     0.163 HD
ATOM     29  O   UNL A   1      33.878  31.743  28.220  1.00  0.00    -0.269 OA
BRANCH  27  30
ATOM     30  C   UNL A   1      35.611  30.157  28.198  1.00  0.00     0.039 A 
ATOM     31  C   UNL A   1      35.929  29.703  29.485  1.00  0.00     0.014 A 
ATOM     32  C   UNL A   1      36.617  30.261  27.234  1.00  0.00     0.014 A 
ATOM     33  C   UNL A   1      37.240  29.326  29.795  1.00  0.00     0.010 A 
ATOM     34  C   UNL A   1      37.919  29.849  27.532  1.00  0.00     0.010 A 
ATOM     35  C   UNL A   1      38.244  29.387  28.818  1.00  0.00    -0.014 A 
BRANCH  35  36
ATOM     36  C   UNL A   1      39.648  29.015  29.128  1.00  0.00     0.031 A 
ATOM     37  C   UNL A   1      40.568  30.020  29.763  1.00  0.00     0.074 A 
ATOM     38  C   UNL A   1      40.119  27.800  28.793  1.00  0.00     0.049 A 
ATOM     39  N   UNL A   1      41.857  29.938  29.979  1.00  0.00    -0.248 NA
ATOM     40  C   UNL A   1      39.964  31.290  30.196  1.00  0.00     0.031 C 
ATOM     41  C   UNL A   1      39.343  26.732  28.162  1.00  0.00     0.029 A 
ATOM     42  N   UNL A   1      41.376  27.267  28.927  1.00  0.00    -0.354 N 
ATOM     43  C   UNL A   1      42.227  31.161  30.524  1.00  0.00     0.074 A 
ATOM     44  C   UNL A   1      41.025  31.963  30.617  1.00  0.00     0.031 C 
ATOM     45  C   UNL A   1      40.139  25.666  27.973  1.00  0.00     0.029 A 
ATOM     46  C   UNL A   1      41.486  25.987  28.441  1.00  0.00     0.049 A 
ATOM     47  H   UNL A   1      42.128  27.755  29.334  1.00  0.00     0.167 HD
ATOM     48  C   UNL A   1      43.456  31.584  30.905  1.00  0.00     0.031 A 
ATOM     49  C   UNL A   1      42.551  25.167  28.365  1.00  0.00     0.031 A 
ATOM     50  C   UNL A   1      44.650  30.788  30.853  1.00  0.00     0.049 A 
ATOM     51  C   UNL A   1      43.890  25.632  28.857  1.00  0.00     0.074 A 
ATOM     52  C   UNL A   1      45.938  31.133  31.228  1.00  0.00     0.029 A 
ATOM     53  N   UNL A   1      44.701  29.475  30.413  1.00  0.00    -0.354 N 
ATOM     54  N   UNL A   1      44.224  26.799  29.351  1.00  0.00    -0.248 NA
ATOM     55  C   UNL A   1      44.998  24.667  28.780  1.00  0.00     0.031 C 
ATOM     56  C   UNL A   1      46.769  30.026  31.013  1.00  0.00     0.029 A 
ATOM     57  C   UNL A   1      45.994  28.991  30.515  1.00  0.00     0.049 A 
ATOM     58  H   UNL A   1      43.932  28.961  30.077  1.00  0.00     0.167 HD
ATOM     59  C   UNL A   1      45.578  26.710  29.646  1.00  0.00     0.074 A 
ATOM     60  C   UNL A   1      46.001  25.371  29.287  1.00  0.00     0.031 C 
ATOM     61  C   UNL A   1      46.399  27.656  30.163  1.00  0.00     0.031 A 
BRANCH  48  62
ATOM     62  C   UNL A   1      43.559  33.002  31.386  1.00  0.00    -0.014 A 
ATOM     63  C   UNL A   1      43.880  34.045  30.499  1.00  0.00     0.010 A 
ATOM     64  C   UNL A   1      43.352  33.290  32.746  1.00  0.00     0.010 A 
ATOM     65  C   UNL A   1      44.037  35.350  30.975  1.00  0.00     0.020 A 
ATOM     66  C   UNL A   1      43.496  34.595  33.223  1.00  0.00     0.020 A 
ATOM     67  C   UNL A   1      43.861  35.612  32.338  1.00  0.00     0.054 A 
BRANCH  67  68
ATOM     68  S   UNL A   1      44.088  37.301  32.959  1.00  0.00     0.124 S 
ATOM     69  O   UNL A   1      43.845  38.096  31.758  1.00  0.00    -0.237 OA
ATOM     70  O   UNL A   1      43.073  37.414  34.003  1.00  0.00    -0.237 OA
ATOM     71  O   UNL A   1      45.469  37.301  33.439  1.00  0.00    -0.744 OA
ENDBRANCH  67  68
ENDBRANCH  48  62
BRANCH  49  72
ATOM     72  C   UNL A   1      42.383  23.807  27.796  1.00  0.00    -0.014 A 
ATOM     73  C   UNL A   1      42.602  23.585  26.427  1.00  0.00     0.010 A 
ATOM     74  C   UNL A   1      42.044  22.727  28.629  1.00  0.00     0.010 A 
ATOM     75  C   UNL A   1      42.489  22.298  25.895  1.00  0.00     0.020 A 
ATOM     76  C   UNL A   1      41.941  21.437  28.102  1.00  0.00     0.020 A 
ATOM     77  C   UNL A   1      42.159  21.232  26.737  1.00  0.00     0.054 A 
BRANCH  77  78
ATOM     78  S   UNL A   1      42.096  19.548  26.062  1.00  0.00     0.124 S 
ATOM     79  O   UNL A   1      42.572  18.753  27.188  1.00  0.00    -0.237 OA
ATOM     80  O   UNL A   1      40.684  19.383  25.723  1.00  0.00    -0.237 OA
ATOM     81  O   UNL A   1      42.997  19.619  24.913  1.00  0.00    -0.744 OA
ENDBRANCH  77  78
ENDBRANCH  49  72
BRANCH  61  82
ATOM     82  C   UNL A   1      47.830  27.271  30.389  1.00  0.00    -0.014 A 
ATOM     83  C   UNL A   1      48.797  27.492  29.392  1.00  0.00     0.010 A 
ATOM     84  C   UNL A   1      48.222  26.720  31.621  1.00  0.00     0.010 A 
ATOM     85  C   UNL A   1      50.132  27.152  29.617  1.00  0.00     0.020 A 
ATOM     86  C   UNL A   1      49.559  26.386  31.851  1.00  0.00     0.020 A 
ATOM     87  C   UNL A   1      50.505  26.593  30.844  1.00  0.00     0.054 A 
BRANCH  87  88
ATOM     88  S   UNL A   1      52.248  26.192  31.148  1.00  0.00     0.124 S 
ATOM     89  O   UNL A   1      52.147  24.922  31.861  1.00  0.00    -0.237 OA
ATOM     90  O   UNL A   1      52.810  26.113  29.802  1.00  0.00    -0.237 OA
ATOM     91  O   UNL A   1      52.721  27.321  31.946  1.00  0.00    -0.744 OA
ENDBRANCH  87  88
ENDBRANCH  61  82
ENDBRANCH  35  36
ENDBRANCH  27  30
ENDBRANCH  25  26
ENDBRANCH   1  25
TORSDOF 17
ENDMDL
MODEL 3
REMARK VINA RESULT:     -11.7      6.511     12.164
REMARK SMILES CCOC(=O)C1=NN(c2ccc(Cl)cc2F)[C@@H](C(=O)NCCCNC(=O)c2ccc(-c3c4nc(c(-c5ccc(S(=O)(=O)[O-])cc5)c5ccc([nH]5)c(-c5ccc(S(=O)(=O)[O-])cc5)c5nc(c(-c6ccc(S(=O)(=O)[O-])cc6)c6ccc3[nH]6)C=C5)C=C4)cc2)C1
REMARK SMILES IDX 22 1 21 2 20 3 18 4 19 5 17 7 6 8 7 9 87 10 8 11 4 12 5 13
REMARK SMILES IDX 3 14 2 15 1 16 9 17 10 18 15 19 11 20 14 21 16 22 12 23
REMARK SMILES IDX 13 24 23 25 24 26 25 27 26 29 27 30 28 31 86 32 29 33 85 34
REMARK SMILES IDX 30 35 31 36 32 37 79 38 33 39 84 40 78 41 80 42 34 43 83 44
REMARK SMILES IDX 77 45 76 46 35 48 65 49 46 50 64 51 47 52 50 53 63 54 81 55
REMARK SMILES IDX 48 56 49 57 62 59 82 60 51 61 36 62 37 63 45 64 38 65 44 66
REMARK SMILES IDX 39 67 40 68 41 69 42 70 43 71 66 72 67 73 75 74 68 75 74 76
REMARK SMILES IDX 69 77 70 78 71 79 72 80 73 81 52 82 53 83 61 84 54 85 60 86
REMARK SMILES IDX 55 87 56 88 57 89 58 90 59 91
REMARK H PARENT 20 6 24 28 80 47 50 58
REMARK Flexibility Score: inf
ROOT
ATOM      1  C   UNL A   1      33.823  31.033  27.366  1.00  0.00     0.042 C 
ENDROOT
BRANCH   1   2
ATOM      2  C   UNL A   1      33.138  29.885  26.626  1.00  0.00     0.117 C 
BRANCH   2   3
ATOM      3  N   UNL A   1      33.620  29.740  25.269  1.00  0.00    -0.354 N 
ATOM      4  C   UNL A   1      33.224  28.894  24.276  1.00  0.00     0.245 C 
ATOM      5  O   UNL A   1      33.859  28.988  23.216  1.00  0.00    -0.273 OA
ATOM      6  H   UNL A   1      34.351  30.352  25.024  1.00  0.00     0.163 HD
BRANCH   4   7
ATOM      7  C   UNL A   1      31.990  27.960  24.391  1.00  0.00     0.203 C 
ATOM      8  C   UNL A   1      30.368  28.781  23.007  1.00  0.00     0.148 C 
ATOM      9  N   UNL A   1      30.907  27.829  22.309  1.00  0.00    -0.169 NA
ATOM     10  C   UNL A   1      30.717  28.817  24.457  1.00  0.00     0.103 C 
ATOM     11  N   UNL A   1      31.740  27.161  23.179  1.00  0.00    -0.249 N 
BRANCH   8  12
ATOM     12  C   UNL A   1      29.367  29.753  22.465  1.00  0.00     0.354 C 
ATOM     13  O   UNL A   1      28.653  29.475  21.517  1.00  0.00    -0.245 OA
BRANCH  12  14
ATOM     14  O   UNL A   1      29.358  30.859  23.232  1.00  0.00    -0.461 OA
BRANCH  14  15
ATOM     15  C   UNL A   1      28.251  31.746  23.032  1.00  0.00     0.230 C 
ATOM     16  C   UNL A   1      28.755  33.144  22.734  1.00  0.00     0.049 C 
ENDBRANCH  14  15
ENDBRANCH  12  14
ENDBRANCH   8  12
BRANCH  11  17
ATOM     17  C   UNL A   1      31.860  25.777  23.031  1.00  0.00     0.096 A 
ATOM     18  C   UNL A   1      30.816  24.940  23.477  1.00  0.00     0.032 A 
ATOM     19  C   UNL A   1      32.957  25.128  22.435  1.00  0.00     0.149 A 
ATOM     20  C   UNL A   1      30.850  23.550  23.307  1.00  0.00     0.023 A 
ATOM     21  C   UNL A   1      33.009  23.743  22.267  1.00  0.00     0.062 A 
ATOM     22  F   UNL A   1      34.013  25.825  21.990  1.00  0.00    -0.205 F 
ATOM     23  C   UNL A   1      31.949  22.959  22.698  1.00  0.00     0.044 A 
ATOM     24  Cl  UNL A   1      32.000  21.255  22.471  1.00  0.00    -0.084 Cl
ENDBRANCH  11  17
ENDBRANCH   4   7
ENDBRANCH   2   3
ENDBRANCH   1   2
BRANCH   1  25
ATOM     25  C   UNL A   1      35.159  30.653  28.001  1.00  0.00     0.118 C 
BRANCH  25  26
ATOM     26  N   UNL A   1      35.223  31.039  29.401  1.00  0.00    -0.352 N 
ATOM     27  C   UNL A   1      36.210  30.811  30.329  1.00  0.00     0.251 C 
ATOM     28  H   UNL A   1      34.443  31.538  29.733  1.00  0.00     0.163 HD
ATOM     29  O   UNL A   1      35.972  31.029  31.515  1.00  0.00    -0.269 OA
BRANCH  27  30
ATOM     30  C   UNL A   1      37.546  30.306  29.927  1.00  0.00     0.039 A 
ATOM     31  C   UNL A   1      38.421  29.858  30.926  1.00  0.00     0.014 A 
ATOM     32  C   UNL A   1      37.979  30.348  28.598  1.00  0.00     0.014 A 
ATOM     33  C   UNL A   1      39.708  29.423  30.592  1.00  0.00     0.010 A 
ATOM     34  C   UNL A   1      39.251  29.878  28.260  1.00  0.00     0.010 A 
ATOM     35  C   UNL A   1      40.130  29.421  29.255  1.00  0.00    -0.014 A 
BRANCH  35  36
ATOM     36  C   UNL A   1      41.500  28.988  28.878  1.00  0.00     0.031 A 
ATOM     37  C   UNL A   1      42.627  29.983  28.871  1.00  0.00     0.074 A 
ATOM     38  C   UNL A   1      41.728  27.720  28.489  1.00  0.00     0.049 A 
ATOM     39  N   UNL A   1      43.854  29.836  28.437  1.00  0.00    -0.248 NA
ATOM     40  C   UNL A   1      42.331  31.321  29.404  1.00  0.00     0.031 C 
ATOM     41  C   UNL A   1      40.728  26.653  28.437  1.00  0.00     0.029 A 
ATOM     42  N   UNL A   1      42.881  27.121  28.048  1.00  0.00    -0.354 N 
ATOM     43  C   UNL A   1      44.461  31.075  28.597  1.00  0.00     0.074 A 
ATOM     44  C   UNL A   1      43.471  31.959  29.178  1.00  0.00     0.031 C 
ATOM     45  C   UNL A   1      41.313  25.527  27.998  1.00  0.00     0.029 A 
ATOM     46  C   UNL A   1      42.720  25.799  27.711  1.00  0.00     0.049 A 
ATOM     47  H   UNL A   1      43.742  27.593  27.980  1.00  0.00     0.167 HD
ATOM     48  C   UNL A   1      45.724  31.450  28.281  1.00  0.00     0.031 A 
ATOM     49  C   UNL A   1      43.598  24.909  27.214  1.00  0.00     0.031 A 
ATOM     50  C   UNL A   1      46.727  30.576  27.738  1.00  0.00     0.049 A 
ATOM     51  C   UNL A   1      45.013  25.326  26.936  1.00  0.00     0.074 A 
ATOM     52  C   UNL A   1      48.036  30.869  27.397  1.00  0.00     0.029 A 
ATOM     53  N   UNL A   1      46.536  29.230  27.474  1.00  0.00    -0.354 N 
ATOM     54  N   UNL A   1      45.562  26.508  27.074  1.00  0.00    -0.248 NA
ATOM     55  C   UNL A   1      45.925  24.289  26.432  1.00  0.00     0.031 C 
ATOM     56  C   UNL A   1      48.639  29.696  26.924  1.00  0.00     0.029 A 
ATOM     57  C   UNL A   1      47.705  28.674  26.982  1.00  0.00     0.049 A 
ATOM     58  H   UNL A   1      45.694  28.740  27.613  1.00  0.00     0.167 HD
ATOM     59  C   UNL A   1      46.885  26.357  26.679  1.00  0.00     0.074 A 
ATOM     60  C   UNL A   1      47.058  24.968  26.305  1.00  0.00     0.031 C 
ATOM     61  C   UNL A   1      47.866  27.290  26.624  1.00  0.00     0.031 A 
BRANCH  48  62
ATOM     62  C   UNL A   1      46.070  32.895  28.494  1.00  0.00    -0.014 A 
ATOM     63  C   UNL A   1      46.710  33.320  29.671  1.00  0.00     0.010 A 
ATOM     64  C   UNL A   1      45.731  33.841  27.510  1.00  0.00     0.010 A 
ATOM     65  C   UNL A   1      46.965  34.678  29.882  1.00  0.00     0.020 A 
ATOM     66  C   UNL A   1      45.995  35.197  27.713  1.00  0.00     0.020 A 
ATOM     67  C   UNL A   1      46.590  35.609  28.908  1.00  0.00     0.054 A 
BRANCH  67  68
ATOM     68  S   UNL A   1      46.900  37.374  29.193  1.00  0.00     0.124 S 
ATOM     69  O   UNL A   1      47.557  37.765  27.948  1.00  0.00    -0.237 OA
ATOM     70  O   UNL A   1      45.561  37.921  29.395  1.00  0.00    -0.237 OA
ATOM     71  O   UNL A   1      47.754  37.379  30.379  1.00  0.00    -0.744 OA
ENDBRANCH  67  68
ENDBRANCH  48  62
BRANCH  49  72
ATOM     72  C   UNL A   1      43.154  23.518  26.950  1.00  0.00    -0.014 A 
ATOM     73  C   UNL A   1      42.953  23.082  25.629  1.00  0.00     0.010 A 
ATOM     74  C   UNL A   1      42.970  22.618  28.013  1.00  0.00     0.010 A 
ATOM     75  C   UNL A   1      42.578  21.761  25.373  1.00  0.00     0.020 A 
ATOM     76  C   UNL A   1      42.605  21.293  27.760  1.00  0.00     0.020 A 
ATOM     77  C   UNL A   1      42.406  20.875  26.441  1.00  0.00     0.054 A 
BRANCH  77  78
ATOM     78  S   UNL A   1      42.002  19.138  26.103  1.00  0.00     0.124 S 
ATOM     79  O   UNL A   1      40.572  19.208  25.825  1.00  0.00    -0.237 OA
ATOM     80  O   UNL A   1      42.854  18.819  24.959  1.00  0.00    -0.237 OA
ATOM     81  O   UNL A   1      42.371  18.464  27.347  1.00  0.00    -0.744 OA
ENDBRANCH  77  78
ENDBRANCH  49  72
BRANCH  61  82
ATOM     82  C   UNL A   1      49.218  26.834  26.161  1.00  0.00    -0.014 A 
ATOM     83  C   UNL A   1      49.704  27.205  24.895  1.00  0.00     0.010 A 
ATOM     84  C   UNL A   1      50.026  26.062  27.013  1.00  0.00     0.010 A 
ATOM     85  C   UNL A   1      50.973  26.796  24.480  1.00  0.00     0.020 A 
ATOM     86  C   UNL A   1      51.299  25.657  26.602  1.00  0.00     0.020 A 
ATOM     87  C   UNL A   1      51.761  26.017  25.334  1.00  0.00     0.054 A 
BRANCH  87  88
ATOM     88  S   UNL A   1      53.426  25.524  24.807  1.00  0.00     0.124 S 
ATOM     89  O   UNL A   1      53.385  25.805  23.374  1.00  0.00    -0.237 OA
ATOM     90  O   UNL A   1      54.295  26.398  25.593  1.00  0.00    -0.237 OA
ATOM     91  O   UNL A   1      53.490  24.110  25.166  1.00  0.00    -0.744 OA
ENDBRANCH  87  88
ENDBRANCH  61  82
ENDBRANCH  35  36
ENDBRANCH  27  30
ENDBRANCH  25  26
ENDBRANCH   1  25
TORSDOF 17
ENDMDL
