MODEL 1
REMARK VINA RESULT:     -12.7      0.000      0.000
REMARK SMILES COc1ccc(-c2ncn(CC(=O)NCCCNC(=O)c3ccc(-c4c5nc(c(-c6ccc(S(=O)(=O)[O-])cc6)c6ccc([nH]6)c(-c6ccc(S(=O)(=O)[O-])cc6)c6nc(c(-c7ccc(S(=O)(=O)[O-])cc7)c7ccc4[nH]7)C=C6)C=C5)cc3)c2-c2ccc(OC)cc2)cc1
REMARK SMILES IDX 16 1 15 2 14 3 12 4 13 5 11 7 10 8 7 9 8 10 81 11 9 12 6 13
REMARK SMILES IDX 3 14 4 15 91 16 5 17 90 18 2 19 1 20 82 21 83 22 89 23 84 24
REMARK SMILES IDX 88 25 85 26 86 27 87 28 17 29 18 30 19 31 20 33 21 34 22 35
REMARK SMILES IDX 80 36 23 37 79 38 24 39 25 40 26 41 73 42 27 43 78 44 72 45
REMARK SMILES IDX 74 46 28 47 77 48 71 49 70 50 29 52 59 53 40 54 58 55 41 56
REMARK SMILES IDX 44 57 57 58 75 59 42 60 43 61 56 63 76 64 45 65 30 66 31 67
REMARK SMILES IDX 39 68 32 69 38 70 33 71 34 72 35 73 36 74 37 75 60 76 61 77
REMARK SMILES IDX 69 78 62 79 68 80 63 81 64 82 65 83 66 84 67 85 46 86 47 87
REMARK SMILES IDX 55 88 48 89 54 90 49 91 50 92 51 93 52 94 53 95
REMARK H PARENT 14 6 18 32 74 51 44 62
REMARK Flexibility Score: inf
ROOT
ATOM      1  C   UNL A   1      37.184  21.562  25.279  1.00  0.00     0.042 C 
ENDROOT
BRANCH   1   2
ATOM      2  C   UNL A   1      35.773  22.157  25.284  1.00  0.00     0.117 C 
BRANCH   2   3
ATOM      3  N   UNL A   1      35.382  22.782  24.031  1.00  0.00    -0.354 N 
ATOM      4  C   UNL A   1      34.318  23.591  23.754  1.00  0.00     0.239 C 
ATOM      5  O   UNL A   1      34.335  24.207  22.685  1.00  0.00    -0.273 OA
ATOM      6  H   UNL A   1      35.974  22.594  23.268  1.00  0.00     0.163 HD
BRANCH   4   7
ATOM      7  C   UNL A   1      33.193  23.794  24.747  1.00  0.00     0.223 C 
BRANCH   7   8
ATOM      8  N   UNL A   1      32.013  24.434  24.192  1.00  0.00    -0.321 N 
ATOM      9  C   UNL A   1      30.454  25.817  23.556  1.00  0.00     0.096 A 
ATOM     10  N   UNL A   1      30.074  24.571  23.115  1.00  0.00    -0.236 NA
ATOM     11  C   UNL A   1      31.630  25.755  24.295  1.00  0.00     0.076 A 
ATOM     12  C   UNL A   1      31.016  23.761  23.536  1.00  0.00     0.201 A 
BRANCH   9  13
ATOM     13  C   UNL A   1      29.673  27.017  23.328  1.00  0.00     0.003 A 
ATOM     14  C   UNL A   1      28.139  29.296  22.764  1.00  0.00     0.118 A 
ATOM     15  C   UNL A   1      27.585  28.239  23.487  1.00  0.00     0.047 A 
ATOM     16  C   UNL A   1      29.473  29.231  22.357  1.00  0.00     0.047 A 
ATOM     17  C   UNL A   1      28.345  27.100  23.762  1.00  0.00     0.014 A 
ATOM     18  C   UNL A   1      30.240  28.097  22.645  1.00  0.00     0.014 A 
BRANCH  14  19
ATOM     19  O   UNL A   1      27.313  30.367  22.567  1.00  0.00    -0.497 OA
ATOM     20  C   UNL A   1      27.461  31.428  23.503  1.00  0.00     0.278 C 
ENDBRANCH  14  19
ENDBRANCH   9  13
BRANCH  11  21
ATOM     21  C   UNL A   1      32.284  26.774  25.110  1.00  0.00     0.001 A 
ATOM     22  C   UNL A   1      33.367  27.515  24.634  1.00  0.00     0.014 A 
ATOM     23  C   UNL A   1      31.785  27.049  26.389  1.00  0.00     0.014 A 
ATOM     24  C   UNL A   1      33.972  28.473  25.449  1.00  0.00     0.047 A 
ATOM     25  C   UNL A   1      32.378  28.026  27.196  1.00  0.00     0.047 A 
ATOM     26  C   UNL A   1      33.482  28.734  26.730  1.00  0.00     0.118 A 
BRANCH  26  27
ATOM     27  O   UNL A   1      34.175  29.685  27.423  1.00  0.00    -0.497 OA
ATOM     28  C   UNL A   1      35.498  29.353  27.826  1.00  0.00     0.278 C 
ENDBRANCH  26  27
ENDBRANCH  11  21
ENDBRANCH   7   8
ENDBRANCH   4   7
ENDBRANCH   2   3
ENDBRANCH   1   2
BRANCH   1  29
ATOM     29  C   UNL A   1      38.211  22.430  25.984  1.00  0.00     0.118 C 
BRANCH  29  30
ATOM     30  N   UNL A   1      39.341  21.676  26.523  1.00  0.00    -0.352 N 
ATOM     31  C   UNL A   1      40.546  22.165  27.000  1.00  0.00     0.251 C 
ATOM     32  H   UNL A   1      39.233  20.698  26.550  1.00  0.00     0.163 HD
ATOM     33  O   UNL A   1      41.510  21.424  27.109  1.00  0.00    -0.269 OA
BRANCH  31  34
ATOM     34  C   UNL A   1      40.648  23.597  27.355  1.00  0.00     0.039 A 
ATOM     35  C   UNL A   1      39.507  24.397  27.453  1.00  0.00     0.014 A 
ATOM     36  C   UNL A   1      41.905  24.132  27.622  1.00  0.00     0.014 A 
ATOM     37  C   UNL A   1      39.643  25.707  27.912  1.00  0.00     0.010 A 
ATOM     38  C   UNL A   1      42.018  25.359  28.227  1.00  0.00     0.010 A 
ATOM     39  C   UNL A   1      40.899  26.175  28.332  1.00  0.00    -0.014 A 
BRANCH  39  40
ATOM     40  C   UNL A   1      41.028  27.459  29.020  1.00  0.00     0.031 A 
ATOM     41  C   UNL A   1      42.114  28.322  28.482  1.00  0.00     0.074 A 
ATOM     42  C   UNL A   1      40.140  27.940  29.920  1.00  0.00     0.049 A 
ATOM     43  N   UNL A   1      43.237  28.604  29.051  1.00  0.00    -0.248 NA
ATOM     44  C   UNL A   1      42.014  28.787  27.087  1.00  0.00     0.031 C 
ATOM     45  C   UNL A   1      38.865  27.345  30.343  1.00  0.00     0.029 A 
ATOM     46  N   UNL A   1      40.135  29.137  30.573  1.00  0.00    -0.354 N 
ATOM     47  C   UNL A   1      43.877  29.489  28.194  1.00  0.00     0.074 A 
ATOM     48  C   UNL A   1      43.190  29.396  26.930  1.00  0.00     0.031 C 
ATOM     49  C   UNL A   1      38.114  28.274  30.974  1.00  0.00     0.029 A 
ATOM     50  C   UNL A   1      38.918  29.466  31.166  1.00  0.00     0.049 A 
ATOM     51  H   UNL A   1      40.926  29.721  30.620  1.00  0.00     0.167 HD
ATOM     52  C   UNL A   1      44.731  30.439  28.670  1.00  0.00     0.031 A 
ATOM     53  C   UNL A   1      38.586  30.635  31.771  1.00  0.00     0.031 A 
ATOM     54  C   UNL A   1      45.131  30.164  30.028  1.00  0.00     0.049 A 
ATOM     55  C   UNL A   1      39.856  31.284  32.168  1.00  0.00     0.074 A 
ATOM     56  C   UNL A   1      45.750  29.106  30.664  1.00  0.00     0.029 A 
ATOM     57  N   UNL A   1      44.503  30.885  31.015  1.00  0.00    -0.354 N 
ATOM     58  N   UNL A   1      40.661  30.790  33.066  1.00  0.00    -0.248 NA
ATOM     59  C   UNL A   1      40.448  32.256  31.267  1.00  0.00     0.031 C 
ATOM     60  C   UNL A   1      45.078  28.983  31.917  1.00  0.00     0.029 A 
ATOM     61  C   UNL A   1      44.147  30.020  32.018  1.00  0.00     0.049 A 
ATOM     62  H   UNL A   1      44.338  31.857  31.005  1.00  0.00     0.167 HD
ATOM     63  C   UNL A   1      41.932  31.024  32.562  1.00  0.00     0.074 A 
ATOM     64  C   UNL A   1      41.740  32.032  31.521  1.00  0.00     0.031 C 
ATOM     65  C   UNL A   1      42.966  30.177  32.846  1.00  0.00     0.031 A 
BRANCH  52  66
ATOM     66  C   UNL A   1      44.839  31.816  28.060  1.00  0.00    -0.014 A 
ATOM     67  C   UNL A   1      46.063  32.231  27.501  1.00  0.00     0.010 A 
ATOM     68  C   UNL A   1      43.855  32.810  28.254  1.00  0.00     0.010 A 
ATOM     69  C   UNL A   1      46.296  33.578  27.184  1.00  0.00     0.020 A 
ATOM     70  C   UNL A   1      44.060  34.144  27.900  1.00  0.00     0.020 A 
ATOM     71  C   UNL A   1      45.291  34.525  27.388  1.00  0.00     0.054 A 
BRANCH  71  72
ATOM     72  S   UNL A   1      45.618  36.267  27.025  1.00  0.00     0.124 S 
ATOM     73  O   UNL A   1      46.246  36.719  28.263  1.00  0.00    -0.237 OA
ATOM     74  O   UNL A   1      46.496  36.179  25.862  1.00  0.00    -0.237 OA
ATOM     75  O   UNL A   1      44.291  36.816  26.757  1.00  0.00    -0.744 OA
ENDBRANCH  71  72
ENDBRANCH  52  66
BRANCH  53  76
ATOM     76  C   UNL A   1      37.287  31.354  31.776  1.00  0.00    -0.014 A 
ATOM     77  C   UNL A   1      36.627  31.642  32.987  1.00  0.00     0.010 A 
ATOM     78  C   UNL A   1      36.853  32.030  30.618  1.00  0.00     0.010 A 
ATOM     79  C   UNL A   1      35.626  32.628  33.051  1.00  0.00     0.020 A 
ATOM     80  C   UNL A   1      35.852  33.011  30.675  1.00  0.00     0.020 A 
ATOM     81  C   UNL A   1      35.263  33.326  31.898  1.00  0.00     0.054 A 
BRANCH  81  82
ATOM     82  S   UNL A   1      34.122  34.738  32.026  1.00  0.00     0.124 S 
ATOM     83  O   UNL A   1      33.812  35.017  30.627  1.00  0.00    -0.237 OA
ATOM     84  O   UNL A   1      33.024  34.190  32.817  1.00  0.00    -0.237 OA
ATOM     85  O   UNL A   1      34.914  35.764  32.702  1.00  0.00    -0.744 OA
ENDBRANCH  81  82
ENDBRANCH  53  76
BRANCH  65  86
ATOM     86  C   UNL A   1      42.791  29.191  33.986  1.00  0.00    -0.014 A 
ATOM     87  C   UNL A   1      43.084  29.468  35.338  1.00  0.00     0.010 A 
ATOM     88  C   UNL A   1      42.208  27.950  33.678  1.00  0.00     0.010 A 
ATOM     89  C   UNL A   1      42.843  28.512  36.339  1.00  0.00     0.020 A 
ATOM     90  C   UNL A   1      41.945  27.002  34.670  1.00  0.00     0.020 A 
ATOM     91  C   UNL A   1      42.281  27.279  35.995  1.00  0.00     0.054 A 
BRANCH  91  92
ATOM     92  S   UNL A   1      41.969  26.041  37.286  1.00  0.00     0.124 S 
ATOM     93  O   UNL A   1      40.568  26.278  37.623  1.00  0.00    -0.237 OA
ATOM     94  O   UNL A   1      42.249  24.780  36.603  1.00  0.00    -0.237 OA
ATOM     95  O   UNL A   1      42.923  26.388  38.340  1.00  0.00    -0.744 OA
ENDBRANCH  91  92
ENDBRANCH  65  86
ENDBRANCH  39  40
ENDBRANCH  31  34
ENDBRANCH  29  30
ENDBRANCH   1  29
TORSDOF 18
ENDMDL
MODEL 2
REMARK VINA RESULT:     -12.5      3.030      9.688
REMARK SMILES COc1ccc(-c2ncn(CC(=O)NCCCNC(=O)c3ccc(-c4c5nc(c(-c6ccc(S(=O)(=O)[O-])cc6)c6ccc([nH]6)c(-c6ccc(S(=O)(=O)[O-])cc6)c6nc(c(-c7ccc(S(=O)(=O)[O-])cc7)c7ccc4[nH]7)C=C6)C=C5)cc3)c2-c2ccc(OC)cc2)cc1
REMARK SMILES IDX 16 1 15 2 14 3 12 4 13 5 11 7 10 8 7 9 8 10 81 11 9 12 6 13
REMARK SMILES IDX 3 14 4 15 91 16 5 17 90 18 2 19 1 20 82 21 83 22 89 23 84 24
REMARK SMILES IDX 88 25 85 26 86 27 87 28 17 29 18 30 19 31 20 33 21 34 22 35
REMARK SMILES IDX 80 36 23 37 79 38 24 39 25 40 26 41 73 42 27 43 78 44 72 45
REMARK SMILES IDX 74 46 28 47 77 48 71 49 70 50 29 52 59 53 40 54 58 55 41 56
REMARK SMILES IDX 44 57 57 58 75 59 42 60 43 61 56 63 76 64 45 65 30 66 31 67
REMARK SMILES IDX 39 68 32 69 38 70 33 71 34 72 35 73 36 74 37 75 60 76 61 77
REMARK SMILES IDX 69 78 62 79 68 80 63 81 64 82 65 83 66 84 67 85 46 86 47 87
REMARK SMILES IDX 55 88 48 89 54 90 49 91 50 92 51 93 52 94 53 95
REMARK H PARENT 14 6 18 32 74 51 44 62
REMARK Flexibility Score: inf
ROOT
ATOM      1  C   UNL A   1      33.417  28.961  25.861  1.00  0.00     0.042 C 
ENDROOT
BRANCH   1   2
ATOM      2  C   UNL A   1      31.967  28.546  25.599  1.00  0.00     0.117 C 
BRANCH   2   3
ATOM      3  N   UNL A   1      31.554  27.336  26.290  1.00  0.00    -0.354 N 
ATOM      4  C   UNL A   1      31.789  26.028  25.978  1.00  0.00     0.239 C 
ATOM      5  O   UNL A   1      31.560  25.185  26.849  1.00  0.00    -0.273 OA
ATOM      6  H   UNL A   1      31.027  27.482  27.108  1.00  0.00     0.163 HD
BRANCH   4   7
ATOM      7  C   UNL A   1      32.383  25.623  24.645  1.00  0.00     0.223 C 
BRANCH   7   8
ATOM      8  N   UNL A   1      32.125  24.243  24.270  1.00  0.00    -0.321 N 
ATOM      9  C   UNL A   1      32.210  22.098  23.896  1.00  0.00     0.096 A 
ATOM     10  N   UNL A   1      30.982  22.525  23.446  1.00  0.00    -0.236 NA
ATOM     11  C   UNL A   1      32.978  23.163  24.355  1.00  0.00     0.076 A 
ATOM     12  C   UNL A   1      30.975  23.819  23.659  1.00  0.00     0.201 A 
BRANCH   9  13
ATOM     13  C   UNL A   1      32.651  20.719  23.825  1.00  0.00     0.003 A 
ATOM     14  C   UNL A   1      33.419  18.023  23.784  1.00  0.00     0.118 A 
ATOM     15  C   UNL A   1      32.532  18.514  22.825  1.00  0.00     0.047 A 
ATOM     16  C   UNL A   1      33.953  18.887  24.740  1.00  0.00     0.047 A 
ATOM     17  C   UNL A   1      32.143  19.854  22.849  1.00  0.00     0.014 A 
ATOM     18  C   UNL A   1      33.575  20.234  24.756  1.00  0.00     0.014 A 
BRANCH  14  19
ATOM     19  O   UNL A   1      33.745  16.701  23.657  1.00  0.00    -0.497 OA
ATOM     20  C   UNL A   1      33.126  15.831  24.598  1.00  0.00     0.278 C 
ENDBRANCH  14  19
ENDBRANCH   9  13
BRANCH  11  21
ATOM     21  C   UNL A   1      34.387  23.212  24.730  1.00  0.00     0.001 A 
ATOM     22  C   UNL A   1      34.795  23.223  26.065  1.00  0.00     0.014 A 
ATOM     23  C   UNL A   1      35.362  23.204  23.724  1.00  0.00     0.014 A 
ATOM     24  C   UNL A   1      36.154  23.283  26.382  1.00  0.00     0.047 A 
ATOM     25  C   UNL A   1      36.723  23.240  24.044  1.00  0.00     0.047 A 
ATOM     26  C   UNL A   1      37.122  23.290  25.377  1.00  0.00     0.118 A 
BRANCH  26  27
ATOM     27  O   UNL A   1      38.410  23.363  25.825  1.00  0.00    -0.497 OA
ATOM     28  C   UNL A   1      39.053  22.134  26.140  1.00  0.00     0.278 C 
ENDBRANCH  26  27
ENDBRANCH  11  21
ENDBRANCH   7   8
ENDBRANCH   4   7
ENDBRANCH   2   3
ENDBRANCH   1   2
BRANCH   1  29
ATOM     29  C   UNL A   1      33.632  29.585  27.229  1.00  0.00     0.118 C 
BRANCH  29  30
ATOM     30  N   UNL A   1      33.862  31.027  27.182  1.00  0.00    -0.352 N 
ATOM     31  C   UNL A   1      34.871  31.753  27.796  1.00  0.00     0.251 C 
ATOM     32  H   UNL A   1      33.221  31.549  26.648  1.00  0.00     0.163 HD
ATOM     33  O   UNL A   1      34.757  32.958  27.944  1.00  0.00    -0.269 OA
BRANCH  31  34
ATOM     34  C   UNL A   1      36.072  31.040  28.281  1.00  0.00     0.039 A 
ATOM     35  C   UNL A   1      36.238  29.671  28.056  1.00  0.00     0.014 A 
ATOM     36  C   UNL A   1      37.057  31.766  28.946  1.00  0.00     0.014 A 
ATOM     37  C   UNL A   1      37.442  29.071  28.422  1.00  0.00     0.010 A 
ATOM     38  C   UNL A   1      38.296  31.214  29.154  1.00  0.00     0.010 A 
ATOM     39  C   UNL A   1      38.485  29.856  28.941  1.00  0.00    -0.014 A 
BRANCH  39  40
ATOM     40  C   UNL A   1      39.824  29.295  29.124  1.00  0.00     0.031 A 
ATOM     41  C   UNL A   1      40.189  29.066  30.547  1.00  0.00     0.074 A 
ATOM     42  C   UNL A   1      40.602  28.823  28.123  1.00  0.00     0.049 A 
ATOM     43  N   UNL A   1      41.044  29.731  31.248  1.00  0.00    -0.248 NA
ATOM     44  C   UNL A   1      39.397  28.099  31.328  1.00  0.00     0.031 C 
ATOM     45  C   UNL A   1      40.272  28.707  26.696  1.00  0.00     0.029 A 
ATOM     46  N   UNL A   1      41.830  28.235  28.187  1.00  0.00    -0.354 N 
ATOM     47  C   UNL A   1      41.082  29.103  32.486  1.00  0.00     0.074 A 
ATOM     48  C   UNL A   1      39.915  28.260  32.547  1.00  0.00     0.031 C 
ATOM     49  C   UNL A   1      41.152  27.881  26.088  1.00  0.00     0.029 A 
ATOM     50  C   UNL A   1      42.209  27.560  27.029  1.00  0.00     0.049 A 
ATOM     51  H   UNL A   1      42.401  28.282  28.987  1.00  0.00     0.167 HD
ATOM     52  C   UNL A   1      42.217  29.101  33.241  1.00  0.00     0.031 A 
ATOM     53  C   UNL A   1      43.311  26.788  26.848  1.00  0.00     0.031 A 
ATOM     54  C   UNL A   1      43.165  30.086  32.781  1.00  0.00     0.049 A 
ATOM     55  C   UNL A   1      44.294  27.203  27.874  1.00  0.00     0.074 A 
ATOM     56  C   UNL A   1      43.134  31.455  32.600  1.00  0.00     0.029 A 
ATOM     57  N   UNL A   1      44.215  29.626  32.023  1.00  0.00    -0.354 N 
ATOM     58  N   UNL A   1      44.850  28.381  27.897  1.00  0.00    -0.248 NA
ATOM     59  C   UNL A   1      44.341  26.468  29.125  1.00  0.00     0.031 C 
ATOM     60  C   UNL A   1      43.857  31.684  31.390  1.00  0.00     0.029 A 
ATOM     61  C   UNL A   1      44.362  30.460  30.944  1.00  0.00     0.049 A 
ATOM     62  H   UNL A   1      44.767  28.834  32.221  1.00  0.00     0.167 HD
ATOM     63  C   UNL A   1      44.896  28.721  29.241  1.00  0.00     0.074 A 
ATOM     64  C   UNL A   1      44.684  27.460  29.951  1.00  0.00     0.031 C 
ATOM     65  C   UNL A   1      44.822  30.027  29.638  1.00  0.00     0.031 A 
BRANCH  52  66
ATOM     66  C   UNL A   1      42.625  27.925  34.094  1.00  0.00    -0.014 A 
ATOM     67  C   UNL A   1      42.891  28.122  35.463  1.00  0.00     0.010 A 
ATOM     68  C   UNL A   1      43.010  26.685  33.540  1.00  0.00     0.010 A 
ATOM     69  C   UNL A   1      43.537  27.138  36.226  1.00  0.00     0.020 A 
ATOM     70  C   UNL A   1      43.613  25.682  34.300  1.00  0.00     0.020 A 
ATOM     71  C   UNL A   1      43.895  25.923  35.635  1.00  0.00     0.054 A 
BRANCH  71  72
ATOM     72  S   UNL A   1      44.775  24.681  36.612  1.00  0.00     0.124 S 
ATOM     73  O   UNL A   1      44.211  24.890  37.943  1.00  0.00    -0.237 OA
ATOM     74  O   UNL A   1      44.390  23.438  35.948  1.00  0.00    -0.237 OA
ATOM     75  O   UNL A   1      46.178  25.054  36.458  1.00  0.00    -0.744 OA
ENDBRANCH  71  72
ENDBRANCH  52  66
BRANCH  53  76
ATOM     76  C   UNL A   1      43.466  25.545  26.052  1.00  0.00    -0.014 A 
ATOM     77  C   UNL A   1      44.672  25.264  25.380  1.00  0.00     0.010 A 
ATOM     78  C   UNL A   1      42.544  24.490  26.207  1.00  0.00     0.010 A 
ATOM     79  C   UNL A   1      44.979  23.960  24.954  1.00  0.00     0.020 A 
ATOM     80  C   UNL A   1      42.842  23.189  25.779  1.00  0.00     0.020 A 
ATOM     81  C   UNL A   1      44.072  22.923  25.180  1.00  0.00     0.054 A 
BRANCH  81  82
ATOM     82  S   UNL A   1      44.560  21.209  24.815  1.00  0.00     0.124 S 
ATOM     83  O   UNL A   1      44.527  21.178  23.356  1.00  0.00    -0.237 OA
ATOM     84  O   UNL A   1      45.887  21.120  25.417  1.00  0.00    -0.237 OA
ATOM     85  O   UNL A   1      43.531  20.407  25.474  1.00  0.00    -0.744 OA
ENDBRANCH  81  82
ENDBRANCH  53  76
BRANCH  65  86
ATOM     86  C   UNL A   1      45.040  31.105  28.594  1.00  0.00    -0.014 A 
ATOM     87  C   UNL A   1      44.024  31.658  27.788  1.00  0.00     0.010 A 
ATOM     88  C   UNL A   1      46.332  31.651  28.496  1.00  0.00     0.010 A 
ATOM     89  C   UNL A   1      44.306  32.693  26.879  1.00  0.00     0.020 A 
ATOM     90  C   UNL A   1      46.617  32.694  27.611  1.00  0.00     0.020 A 
ATOM     91  C   UNL A   1      45.606  33.199  26.792  1.00  0.00     0.054 A 
BRANCH  91  92
ATOM     92  S   UNL A   1      45.974  34.535  25.618  1.00  0.00     0.124 S 
ATOM     93  O   UNL A   1      45.122  34.202  24.480  1.00  0.00    -0.237 OA
ATOM     94  O   UNL A   1      45.594  35.735  26.361  1.00  0.00    -0.237 OA
ATOM     95  O   UNL A   1      47.409  34.399  25.373  1.00  0.00    -0.744 OA
ENDBRANCH  91  92
ENDBRANCH  65  86
ENDBRANCH  39  40
ENDBRANCH  31  34
ENDBRANCH  29  30
ENDBRANCH   1  29
TORSDOF 18
ENDMDL
MODEL 3
REMARK VINA RESULT:     -12.4      3.160      7.316
REMARK SMILES COc1ccc(-c2ncn(CC(=O)NCCCNC(=O)c3ccc(-c4c5nc(c(-c6ccc(S(=O)(=O)[O-])cc6)c6ccc([nH]6)c(-c6ccc(S(=O)(=O)[O-])cc6)c6nc(c(-c7ccc(S(=O)(=O)[O-])cc7)c7ccc4[nH]7)C=C6)C=C5)cc3)c2-c2ccc(OC)cc2)cc1
REMARK SMILES IDX 16 1 15 2 14 3 12 4 13 5 11 7 10 8 7 9 8 10 81 11 9 12 6 13
REMARK SMILES IDX 3 14 4 15 91 16 5 17 90 18 2 19 1 20 82 21 83 22 89 23 84 24
REMARK SMILES IDX 88 25 85 26 86 27 87 28 17 29 18 30 19 31 20 33 21 34 22 35
REMARK SMILES IDX 80 36 23 37 79 38 24 39 25 40 26 41 73 42 27 43 78 44 72 45
REMARK SMILES IDX 74 46 28 47 77 48 71 49 70 50 29 52 59 53 40 54 58 55 41 56
REMARK SMILES IDX 44 57 57 58 75 59 42 60 43 61 56 63 76 64 45 65 30 66 31 67
REMARK SMILES IDX 39 68 32 69 38 70 33 71 34 72 35 73 36 74 37 75 60 76 61 77
REMARK SMILES IDX 69 78 62 79 68 80 63 81 64 82 65 83 66 84 67 85 46 86 47 87
REMARK SMILES IDX 55 88 48 89 54 90 49 91 50 92 51 93 52 94 53 95
REMARK H PARENT 14 6 18 32 74 51 44 62
REMARK Flexibility Score: inf
ROOT
ATOM      1  C   UNL A   1      36.741  20.702  25.016  1.00  0.00     0.042 C 
ENDROOT
BRANCH   1   2
ATOM      2  C   UNL A   1      35.850  21.929  25.224  1.00  0.00     0.117 C 
BRANCH   2   3
ATOM      3  N   UNL A   1      34.780  21.737  26.190  1.00  0.00    -0.354 N 
ATOM      4  C   UNL A   1      33.791  22.592  26.579  1.00  0.00     0.239 C 
ATOM      5  O   UNL A   1      32.849  22.119  27.220  1.00  0.00    -0.273 OA
ATOM      6  H   UNL A   1      34.768  20.856  26.628  1.00  0.00     0.163 HD
BRANCH   4   7
ATOM      7  C   UNL A   1      33.798  24.052  26.176  1.00  0.00     0.223 C 
BRANCH   7   8
ATOM      8  N   UNL A   1      32.684  24.445  25.330  1.00  0.00    -0.321 N 
ATOM      9  C   UNL A   1      31.146  25.506  24.210  1.00  0.00     0.096 A 
ATOM     10  N   UNL A   1      30.967  24.168  23.947  1.00  0.00    -0.236 NA
ATOM     11  C   UNL A   1      32.169  25.708  25.129  1.00  0.00     0.076 A 
ATOM     12  C   UNL A   1      31.887  23.558  24.655  1.00  0.00     0.201 A 
BRANCH   9  13
ATOM     13  C   UNL A   1      30.313  26.549  23.645  1.00  0.00     0.003 A 
ATOM     14  C   UNL A   1      28.710  28.632  22.666  1.00  0.00     0.118 A 
ATOM     15  C   UNL A   1      30.065  28.578  22.341  1.00  0.00     0.047 A 
ATOM     16  C   UNL A   1      28.146  27.623  23.449  1.00  0.00     0.047 A 
ATOM     17  C   UNL A   1      30.866  27.546  22.832  1.00  0.00     0.014 A 
ATOM     18  C   UNL A   1      28.945  26.581  23.931  1.00  0.00     0.014 A 
BRANCH  14  19
ATOM     19  O   UNL A   1      28.016  29.674  22.117  1.00  0.00    -0.497 OA
ATOM     20  C   UNL A   1      27.602  30.678  23.036  1.00  0.00     0.278 C 
ENDBRANCH  14  19
ENDBRANCH   9  13
BRANCH  11  21
ATOM     21  C   UNL A   1      32.570  26.918  25.840  1.00  0.00     0.001 A 
ATOM     22  C   UNL A   1      31.788  27.470  26.855  1.00  0.00     0.014 A 
ATOM     23  C   UNL A   1      33.796  27.519  25.527  1.00  0.00     0.014 A 
ATOM     24  C   UNL A   1      32.202  28.636  27.503  1.00  0.00     0.047 A 
ATOM     25  C   UNL A   1      34.220  28.673  26.193  1.00  0.00     0.047 A 
ATOM     26  C   UNL A   1      33.417  29.242  27.178  1.00  0.00     0.118 A 
BRANCH  26  27
ATOM     27  O   UNL A   1      33.692  30.380  27.878  1.00  0.00    -0.497 OA
ATOM     28  C   UNL A   1      33.067  31.578  27.433  1.00  0.00     0.278 C 
ENDBRANCH  26  27
ENDBRANCH  11  21
ENDBRANCH   7   8
ENDBRANCH   4   7
ENDBRANCH   2   3
ENDBRANCH   1   2
BRANCH   1  29
ATOM     29  C   UNL A   1      38.210  20.963  25.301  1.00  0.00     0.118 C 
BRANCH  29  30
ATOM     30  N   UNL A   1      38.998  19.744  25.467  1.00  0.00    -0.352 N 
ATOM     31  C   UNL A   1      40.328  19.628  25.839  1.00  0.00     0.251 C 
ATOM     32  H   UNL A   1      38.525  18.898  25.291  1.00  0.00     0.163 HD
ATOM     33  O   UNL A   1      40.939  18.595  25.621  1.00  0.00    -0.269 OA
BRANCH  31  34
ATOM     34  C   UNL A   1      40.993  20.780  26.485  1.00  0.00     0.039 A 
ATOM     35  C   UNL A   1      41.735  21.696  25.734  1.00  0.00     0.014 A 
ATOM     36  C   UNL A   1      40.843  20.956  27.857  1.00  0.00     0.014 A 
ATOM     37  C   UNL A   1      42.238  22.832  26.368  1.00  0.00     0.010 A 
ATOM     38  C   UNL A   1      41.194  22.147  28.442  1.00  0.00     0.010 A 
ATOM     39  C   UNL A   1      41.935  23.072  27.719  1.00  0.00    -0.014 A 
BRANCH  39  40
ATOM     40  C   UNL A   1      42.260  24.355  28.342  1.00  0.00     0.031 A 
ATOM     41  C   UNL A   1      41.259  25.422  28.075  1.00  0.00     0.074 A 
ATOM     42  C   UNL A   1      43.248  24.541  29.246  1.00  0.00     0.049 A 
ATOM     43  N   UNL A   1      41.406  26.454  27.315  1.00  0.00    -0.248 NA
ATOM     44  C   UNL A   1      39.885  25.235  28.573  1.00  0.00     0.031 C 
ATOM     45  C   UNL A   1      44.139  23.532  29.837  1.00  0.00     0.029 A 
ATOM     46  N   UNL A   1      43.597  25.671  29.923  1.00  0.00    -0.354 N 
ATOM     47  C   UNL A   1      40.230  27.181  27.440  1.00  0.00     0.074 A 
ATOM     48  C   UNL A   1      39.268  26.292  28.042  1.00  0.00     0.031 C 
ATOM     49  C   UNL A   1      44.739  24.039  30.936  1.00  0.00     0.029 A 
ATOM     50  C   UNL A   1      44.427  25.453  31.022  1.00  0.00     0.049 A 
ATOM     51  H   UNL A   1      43.288  26.567  29.659  1.00  0.00     0.167 HD
ATOM     52  C   UNL A   1      40.222  28.538  27.311  1.00  0.00     0.031 A 
ATOM     53  C   UNL A   1      44.831  26.366  31.942  1.00  0.00     0.031 A 
ATOM     54  C   UNL A   1      41.434  29.022  26.698  1.00  0.00     0.049 A 
ATOM     55  C   UNL A   1      44.697  27.697  31.310  1.00  0.00     0.074 A 
ATOM     56  C   UNL A   1      42.082  28.783  25.502  1.00  0.00     0.029 A 
ATOM     57  N   UNL A   1      42.378  29.564  27.538  1.00  0.00    -0.354 N 
ATOM     58  N   UNL A   1      45.412  28.080  30.289  1.00  0.00    -0.248 NA
ATOM     59  C   UNL A   1      43.474  28.448  31.530  1.00  0.00     0.031 C 
ATOM     60  C   UNL A   1      43.470  28.754  25.832  1.00  0.00     0.029 A 
ATOM     61  C   UNL A   1      43.604  29.059  27.189  1.00  0.00     0.049 A 
ATOM     62  H   UNL A   1      42.203  30.205  28.266  1.00  0.00     0.167 HD
ATOM     63  C   UNL A   1      44.527  28.784  29.487  1.00  0.00     0.074 A 
ATOM     64  C   UNL A   1      43.390  29.081  30.357  1.00  0.00     0.031 C 
ATOM     65  C   UNL A   1      44.681  28.813  28.129  1.00  0.00     0.031 A 
BRANCH  52  66
ATOM     66  C   UNL A   1      39.322  29.429  28.132  1.00  0.00    -0.014 A 
ATOM     67  C   UNL A   1      39.773  29.911  29.376  1.00  0.00     0.010 A 
ATOM     68  C   UNL A   1      37.950  29.593  27.843  1.00  0.00     0.010 A 
ATOM     69  C   UNL A   1      38.887  30.498  30.293  1.00  0.00     0.020 A 
ATOM     70  C   UNL A   1      37.069  30.215  28.728  1.00  0.00     0.020 A 
ATOM     71  C   UNL A   1      37.538  30.644  29.960  1.00  0.00     0.054 A 
BRANCH  71  72
ATOM     72  S   UNL A   1      36.393  31.353  31.166  1.00  0.00     0.124 S 
ATOM     73  O   UNL A   1      36.018  30.180  31.951  1.00  0.00    -0.237 OA
ATOM     74  O   UNL A   1      37.233  32.332  31.850  1.00  0.00    -0.237 OA
ATOM     75  O   UNL A   1      35.331  31.920  30.339  1.00  0.00    -0.744 OA
ENDBRANCH  71  72
ENDBRANCH  52  66
BRANCH  53  76
ATOM     76  C   UNL A   1      45.051  26.194  33.400  1.00  0.00    -0.014 A 
ATOM     77  C   UNL A   1      45.645  27.217  34.166  1.00  0.00     0.010 A 
ATOM     78  C   UNL A   1      44.396  25.156  34.093  1.00  0.00     0.010 A 
ATOM     79  C   UNL A   1      45.516  27.243  35.566  1.00  0.00     0.020 A 
ATOM     80  C   UNL A   1      44.269  25.174  35.490  1.00  0.00     0.020 A 
ATOM     81  C   UNL A   1      44.805  26.234  36.218  1.00  0.00     0.054 A 
BRANCH  81  82
ATOM     82  S   UNL A   1      44.466  26.384  38.000  1.00  0.00     0.124 S 
ATOM     83  O   UNL A   1      43.064  26.791  38.018  1.00  0.00    -0.237 OA
ATOM     84  O   UNL A   1      44.737  25.036  38.490  1.00  0.00    -0.237 OA
ATOM     85  O   UNL A   1      45.413  27.403  38.448  1.00  0.00    -0.744 OA
ENDBRANCH  81  82
ENDBRANCH  53  76
BRANCH  65  86
ATOM     86  C   UNL A   1      46.010  28.366  27.551  1.00  0.00    -0.014 A 
ATOM     87  C   UNL A   1      46.303  27.048  27.141  1.00  0.00     0.010 A 
ATOM     88  C   UNL A   1      46.978  29.359  27.323  1.00  0.00     0.010 A 
ATOM     89  C   UNL A   1      47.546  26.731  26.567  1.00  0.00     0.020 A 
ATOM     90  C   UNL A   1      48.208  29.056  26.733  1.00  0.00     0.020 A 
ATOM     91  C   UNL A   1      48.495  27.739  26.374  1.00  0.00     0.054 A 
BRANCH  91  92
ATOM     92  S   UNL A   1      50.102  27.332  25.633  1.00  0.00     0.124 S 
ATOM     93  O   UNL A   1      50.976  27.240  26.799  1.00  0.00    -0.237 OA
ATOM     94  O   UNL A   1      49.833  26.071  24.946  1.00  0.00    -0.237 OA
ATOM     95  O   UNL A   1      50.374  28.463  24.747  1.00  0.00    -0.744 OA
ENDBRANCH  91  92
ENDBRANCH  65  86
ENDBRANCH  39  40
ENDBRANCH  31  34
ENDBRANCH  29  30
ENDBRANCH   1  29
TORSDOF 18
ENDMDL
