MODEL 1
REMARK VINA RESULT:     -12.3      0.000      0.000
REMARK SMILES [NH3+]Cc1c(-c2ccccc2)c(C(=O)NCCCNC(=O)c2ccc(-c3c4nc(c(-c5ccc(S(=O)(=O)[O-])cc5)c5ccc([nH]5)c(-c5ccc(S(=O)(=O)[O-])cc5)c5nc(c(-c6ccc(S(=O)(=O)[O-])cc6)c6ccc3[nH]6)C=C5)C=C4)cc2)c2ccccn12
REMARK SMILES IDX 16 1 15 2 14 3 12 4 13 5 11 7 3 8 4 9 86 10 81 11 85 12
REMARK SMILES IDX 82 13 84 14 83 15 2 16 1 17 5 21 6 22 10 23 7 24 9 25 8 26
REMARK SMILES IDX 17 27 18 28 19 29 20 31 21 32 22 33 80 34 23 35 79 36 24 37
REMARK SMILES IDX 25 38 26 39 73 40 27 41 78 42 72 43 74 44 28 45 77 46 71 47
REMARK SMILES IDX 70 48 29 50 59 51 40 52 58 53 41 54 44 55 57 56 75 57 42 58
REMARK SMILES IDX 43 59 56 61 76 62 45 63 30 64 31 65 39 66 32 67 38 68 33 69
REMARK SMILES IDX 34 70 35 71 36 72 37 73 60 74 61 75 69 76 62 77 68 78 63 79
REMARK SMILES IDX 64 80 65 81 66 82 67 83 46 84 47 85 55 86 48 87 54 88 49 89
REMARK SMILES IDX 50 90 51 91 52 92 53 93
REMARK H PARENT 14 6 1 18 1 19 1 20 18 30 74 49 44 60
REMARK Flexibility Score: inf
ROOT
ATOM      1  C   UNL A   1      33.514  29.014  27.246  1.00  0.00     0.042 C 
ENDROOT
BRANCH   1   2
ATOM      2  C   UNL A   1      32.949  29.752  26.045  1.00  0.00     0.118 C 
BRANCH   2   3
ATOM      3  N   UNL A   1      33.648  29.543  24.792  1.00  0.00    -0.352 N 
ATOM      4  C   UNL A   1      33.281  28.879  23.641  1.00  0.00     0.254 C 
ATOM      5  O   UNL A   1      34.068  28.970  22.699  1.00  0.00    -0.269 OA
ATOM      6  H   UNL A   1      34.544  29.947  24.758  1.00  0.00     0.163 HD
BRANCH   4   7
ATOM      7  C   UNL A   1      32.079  28.039  23.565  1.00  0.00     0.073 A 
ATOM      8  C   UNL A   1      30.698  26.198  23.838  1.00  0.00     0.086 A 
ATOM      9  C   UNL A   1      32.024  26.641  23.897  1.00  0.00     0.022 A 
ATOM     10  N   UNL A   1      29.939  27.305  23.480  1.00  0.00    -0.314 N 
ATOM     11  C   UNL A   1      30.812  28.324  23.072  1.00  0.00     0.059 A 
ATOM     12  C   UNL A   1      28.551  27.500  23.477  1.00  0.00     0.092 A 
ATOM     13  C   UNL A   1      30.232  29.416  22.352  1.00  0.00     0.027 A 
ATOM     14  C   UNL A   1      28.020  28.619  22.960  1.00  0.00     0.018 A 
ATOM     15  C   UNL A   1      28.898  29.579  22.329  1.00  0.00     0.004 A 
BRANCH   8  16
ATOM     16  C   UNL A   1      30.220  24.805  24.144  1.00  0.00     0.315 C 
BRANCH  16  17
ATOM     17  N   UNL A   1      30.313  23.823  23.080  1.00  0.00    -0.353 N 
ATOM     18  H   UNL A   1      29.829  22.970  23.363  1.00  0.00     0.344 HD
ATOM     19  H   UNL A   1      31.294  23.613  22.896  1.00  0.00     0.344 HD
ATOM     20  H   UNL A   1      29.880  24.194  22.235  1.00  0.00     0.344 HD
ENDBRANCH  16  17
ENDBRANCH   8  16
BRANCH   9  21
ATOM     21  C   UNL A   1      33.122  25.745  24.240  1.00  0.00    -0.016 A 
ATOM     22  C   UNL A   1      33.801  25.025  23.254  1.00  0.00     0.009 A 
ATOM     23  C   UNL A   1      33.499  25.605  25.583  1.00  0.00     0.009 A 
ATOM     24  C   UNL A   1      34.853  24.177  23.612  1.00  0.00     0.001 A 
ATOM     25  C   UNL A   1      34.556  24.766  25.936  1.00  0.00     0.001 A 
ATOM     26  C   UNL A   1      35.234  24.052  24.949  1.00  0.00     0.000 A 
ENDBRANCH   9  21
ENDBRANCH   4   7
ENDBRANCH   2   3
ENDBRANCH   1   2
BRANCH   1  27
ATOM     27  C   UNL A   1      34.966  29.307  27.585  1.00  0.00     0.118 C 
BRANCH  27  28
ATOM     28  N   UNL A   1      35.148  30.132  28.774  1.00  0.00    -0.352 N 
ATOM     29  C   UNL A   1      36.245  30.362  29.577  1.00  0.00     0.251 C 
ATOM     30  H   UNL A   1      34.338  30.614  29.054  1.00  0.00     0.163 HD
ATOM     31  O   UNL A   1      36.102  31.023  30.600  1.00  0.00    -0.269 OA
BRANCH  29  32
ATOM     32  C   UNL A   1      37.575  29.791  29.252  1.00  0.00     0.039 A 
ATOM     33  C   UNL A   1      38.004  29.783  27.919  1.00  0.00     0.014 A 
ATOM     34  C   UNL A   1      38.401  29.250  30.235  1.00  0.00     0.014 A 
ATOM     35  C   UNL A   1      39.290  29.333  27.599  1.00  0.00     0.010 A 
ATOM     36  C   UNL A   1      39.719  28.921  29.936  1.00  0.00     0.010 A 
ATOM     37  C   UNL A   1      40.181  28.951  28.614  1.00  0.00    -0.014 A 
BRANCH  37  38
ATOM     38  C   UNL A   1      41.589  28.564  28.326  1.00  0.00     0.031 A 
ATOM     39  C   UNL A   1      42.677  29.608  28.334  1.00  0.00     0.074 A 
ATOM     40  C   UNL A   1      41.879  27.293  27.978  1.00  0.00     0.049 A 
ATOM     41  N   UNL A   1      43.938  29.490  28.004  1.00  0.00    -0.248 NA
ATOM     42  C   UNL A   1      42.290  30.972  28.731  1.00  0.00     0.031 C 
ATOM     43  C   UNL A   1      40.915  26.193  27.886  1.00  0.00     0.029 A 
ATOM     44  N   UNL A   1      43.074  26.711  27.628  1.00  0.00    -0.354 N 
ATOM     45  C   UNL A   1      44.484  30.763  28.130  1.00  0.00     0.074 A 
ATOM     46  C   UNL A   1      43.404  31.649  28.503  1.00  0.00     0.031 C 
ATOM     47  C   UNL A   1      41.560  25.066  27.548  1.00  0.00     0.029 A 
ATOM     48  C   UNL A   1      42.975  25.368  27.348  1.00  0.00     0.049 A 
ATOM     49  H   UNL A   1      43.922  27.208  27.583  1.00  0.00     0.167 HD
ATOM     50  C   UNL A   1      45.770  31.157  27.979  1.00  0.00     0.031 A 
ATOM     51  C   UNL A   1      43.912  24.477  26.969  1.00  0.00     0.031 A 
ATOM     52  C   UNL A   1      46.848  30.270  27.633  1.00  0.00     0.049 A 
ATOM     53  C   UNL A   1      45.335  24.938  26.805  1.00  0.00     0.074 A 
ATOM     54  C   UNL A   1      48.194  30.562  27.503  1.00  0.00     0.029 A 
ATOM     55  N   UNL A   1      46.703  28.916  27.372  1.00  0.00    -0.354 N 
ATOM     56  N   UNL A   1      45.835  26.139  26.969  1.00  0.00    -0.248 NA
ATOM     57  C   UNL A   1      46.320  23.920  26.412  1.00  0.00     0.031 C 
ATOM     58  C   UNL A   1      48.858  29.392  27.119  1.00  0.00     0.029 A 
ATOM     59  C   UNL A   1      47.934  28.361  27.068  1.00  0.00     0.049 A 
ATOM     60  H   UNL A   1      45.852  28.423  27.399  1.00  0.00     0.167 HD
ATOM     61  C   UNL A   1      47.199  26.015  26.730  1.00  0.00     0.074 A 
ATOM     62  C   UNL A   1      47.446  24.621  26.422  1.00  0.00     0.031 C 
ATOM     63  C   UNL A   1      48.162  26.970  26.764  1.00  0.00     0.031 A 
BRANCH  50  64
ATOM     64  C   UNL A   1      46.081  32.615  28.200  1.00  0.00    -0.014 A 
ATOM     65  C   UNL A   1      46.437  33.094  29.475  1.00  0.00     0.010 A 
ATOM     66  C   UNL A   1      46.050  33.513  27.117  1.00  0.00     0.010 A 
ATOM     67  C   UNL A   1      46.713  34.449  29.671  1.00  0.00     0.020 A 
ATOM     68  C   UNL A   1      46.357  34.865  27.305  1.00  0.00     0.020 A 
ATOM     69  C   UNL A   1      46.669  35.327  28.585  1.00  0.00     0.054 A 
BRANCH  69  70
ATOM     70  S   UNL A   1      47.057  37.076  28.867  1.00  0.00     0.124 S 
ATOM     71  O   UNL A   1      46.098  37.742  27.990  1.00  0.00    -0.237 OA
ATOM     72  O   UNL A   1      46.810  37.232  30.299  1.00  0.00    -0.237 OA
ATOM     73  O   UNL A   1      48.456  37.191  28.463  1.00  0.00    -0.744 OA
ENDBRANCH  69  70
ENDBRANCH  50  64
BRANCH  51  74
ATOM     74  C   UNL A   1      43.539  23.052  26.751  1.00  0.00    -0.014 A 
ATOM     75  C   UNL A   1      43.887  22.402  25.553  1.00  0.00     0.010 A 
ATOM     76  C   UNL A   1      42.854  22.330  27.745  1.00  0.00     0.010 A 
ATOM     77  C   UNL A   1      43.547  21.062  25.348  1.00  0.00     0.020 A 
ATOM     78  C   UNL A   1      42.537  20.981  27.555  1.00  0.00     0.020 A 
ATOM     79  C   UNL A   1      42.877  20.359  26.353  1.00  0.00     0.054 A 
BRANCH  79  80
ATOM     80  S   UNL A   1      42.503  18.601  26.090  1.00  0.00     0.124 S 
ATOM     81  O   UNL A   1      41.088  18.642  25.740  1.00  0.00    -0.237 OA
ATOM     82  O   UNL A   1      43.415  18.245  25.004  1.00  0.00    -0.237 OA
ATOM     83  O   UNL A   1      42.815  17.989  27.380  1.00  0.00    -0.744 OA
ENDBRANCH  79  80
ENDBRANCH  51  74
BRANCH  63  84
ATOM     84  C   UNL A   1      49.578  26.538  26.497  1.00  0.00    -0.014 A 
ATOM     85  C   UNL A   1      50.366  25.956  27.505  1.00  0.00     0.010 A 
ATOM     86  C   UNL A   1      50.105  26.660  25.198  1.00  0.00     0.010 A 
ATOM     87  C   UNL A   1      51.668  25.533  27.227  1.00  0.00     0.020 A 
ATOM     88  C   UNL A   1      51.396  26.212  24.908  1.00  0.00     0.020 A 
ATOM     89  C   UNL A   1      52.175  25.664  25.929  1.00  0.00     0.054 A 
BRANCH  89  90
ATOM     90  S   UNL A   1      53.850  25.064  25.583  1.00  0.00     0.124 S 
ATOM     91  O   UNL A   1      54.579  25.498  26.771  1.00  0.00    -0.237 OA
ATOM     92  O   UNL A   1      53.654  23.621  25.458  1.00  0.00    -0.237 OA
ATOM     93  O   UNL A   1      54.214  25.747  24.344  1.00  0.00    -0.744 OA
ENDBRANCH  89  90
ENDBRANCH  63  84
ENDBRANCH  37  38
ENDBRANCH  29  32
ENDBRANCH  27  28
ENDBRANCH   1  27
TORSDOF 16
ENDMDL
MODEL 2
REMARK VINA RESULT:     -11.9      2.800      3.492
REMARK SMILES [NH3+]Cc1c(-c2ccccc2)c(C(=O)NCCCNC(=O)c2ccc(-c3c4nc(c(-c5ccc(S(=O)(=O)[O-])cc5)c5ccc([nH]5)c(-c5ccc(S(=O)(=O)[O-])cc5)c5nc(c(-c6ccc(S(=O)(=O)[O-])cc6)c6ccc3[nH]6)C=C5)C=C4)cc2)c2ccccn12
REMARK SMILES IDX 16 1 15 2 14 3 12 4 13 5 11 7 3 8 4 9 86 10 81 11 85 12
REMARK SMILES IDX 82 13 84 14 83 15 2 16 1 17 5 21 6 22 10 23 7 24 9 25 8 26
REMARK SMILES IDX 17 27 18 28 19 29 20 31 21 32 22 33 80 34 23 35 79 36 24 37
REMARK SMILES IDX 25 38 26 39 73 40 27 41 78 42 72 43 74 44 28 45 77 46 71 47
REMARK SMILES IDX 70 48 29 50 59 51 40 52 58 53 41 54 44 55 57 56 75 57 42 58
REMARK SMILES IDX 43 59 56 61 76 62 45 63 30 64 31 65 39 66 32 67 38 68 33 69
REMARK SMILES IDX 34 70 35 71 36 72 37 73 60 74 61 75 69 76 62 77 68 78 63 79
REMARK SMILES IDX 64 80 65 81 66 82 67 83 46 84 47 85 55 86 48 87 54 88 49 89
REMARK SMILES IDX 50 90 51 91 52 92 53 93
REMARK H PARENT 14 6 1 18 1 19 1 20 18 30 74 49 44 60
REMARK Flexibility Score: inf
ROOT
ATOM      1  C   UNL A   1      33.053  28.319  25.985  1.00  0.00     0.042 C 
ENDROOT
BRANCH   1   2
ATOM      2  C   UNL A   1      33.456  29.355  24.949  1.00  0.00     0.118 C 
BRANCH   2   3
ATOM      3  N   UNL A   1      33.971  28.829  23.702  1.00  0.00    -0.352 N 
ATOM      4  C   UNL A   1      33.483  27.866  22.844  1.00  0.00     0.254 C 
ATOM      5  O   UNL A   1      34.111  27.715  21.797  1.00  0.00    -0.269 OA
ATOM      6  H   UNL A   1      34.823  29.230  23.416  1.00  0.00     0.163 HD
BRANCH   4   7
ATOM      7  C   UNL A   1      32.342  27.009  23.191  1.00  0.00     0.073 A 
ATOM      8  C   UNL A   1      31.166  25.202  24.041  1.00  0.00     0.086 A 
ATOM      9  C   UNL A   1      32.440  25.665  23.694  1.00  0.00     0.022 A 
ATOM     10  N   UNL A   1      30.290  26.243  23.763  1.00  0.00    -0.314 N 
ATOM     11  C   UNL A   1      30.979  27.211  23.018  1.00  0.00     0.059 A 
ATOM     12  C   UNL A   1      28.941  26.418  24.102  1.00  0.00     0.092 A 
ATOM     13  C   UNL A   1      30.182  28.194  22.349  1.00  0.00     0.027 A 
ATOM     14  C   UNL A   1      28.243  27.454  23.611  1.00  0.00     0.018 A 
ATOM     15  C   UNL A   1      28.882  28.335  22.658  1.00  0.00     0.004 A 
BRANCH   8  16
ATOM     16  C   UNL A   1      30.849  23.854  24.629  1.00  0.00     0.315 C 
BRANCH  16  17
ATOM     17  N   UNL A   1      31.068  23.683  26.053  1.00  0.00    -0.353 N 
ATOM     18  H   UNL A   1      30.404  23.001  26.420  1.00  0.00     0.344 HD
ATOM     19  H   UNL A   1      30.935  24.577  26.527  1.00  0.00     0.344 HD
ATOM     20  H   UNL A   1      32.019  23.351  26.214  1.00  0.00     0.344 HD
ENDBRANCH  16  17
ENDBRANCH   8  16
BRANCH   9  21
ATOM     21  C   UNL A   1      33.629  24.835  23.841  1.00  0.00    -0.016 A 
ATOM     22  C   UNL A   1      34.448  24.940  24.968  1.00  0.00     0.009 A 
ATOM     23  C   UNL A   1      33.955  23.918  22.832  1.00  0.00     0.009 A 
ATOM     24  C   UNL A   1      35.579  24.128  25.086  1.00  0.00     0.001 A 
ATOM     25  C   UNL A   1      35.080  23.101  22.956  1.00  0.00     0.001 A 
ATOM     26  C   UNL A   1      35.892  23.207  24.084  1.00  0.00     0.000 A 
ENDBRANCH   9  21
ENDBRANCH   4   7
ENDBRANCH   2   3
ENDBRANCH   1   2
BRANCH   1  27
ATOM     27  C   UNL A   1      33.472  28.610  27.417  1.00  0.00     0.118 C 
BRANCH  27  28
ATOM     28  N   UNL A   1      33.581  30.030  27.732  1.00  0.00    -0.352 N 
ATOM     29  C   UNL A   1      34.619  30.785  28.234  1.00  0.00     0.251 C 
ATOM     30  H   UNL A   1      32.762  30.544  27.552  1.00  0.00     0.163 HD
ATOM     31  O   UNL A   1      34.414  31.960  28.518  1.00  0.00    -0.269 OA
BRANCH  29  32
ATOM     32  C   UNL A   1      35.958  30.194  28.477  1.00  0.00     0.039 A 
ATOM     33  C   UNL A   1      36.906  30.212  27.446  1.00  0.00     0.014 A 
ATOM     34  C   UNL A   1      36.291  29.611  29.697  1.00  0.00     0.014 A 
ATOM     35  C   UNL A   1      38.204  29.743  27.680  1.00  0.00     0.010 A 
ATOM     36  C   UNL A   1      37.611  29.261  29.967  1.00  0.00     0.010 A 
ATOM     37  C   UNL A   1      38.585  29.316  28.962  1.00  0.00    -0.014 A 
BRANCH  37  38
ATOM     38  C   UNL A   1      39.980  28.907  29.277  1.00  0.00     0.031 A 
ATOM     39  C   UNL A   1      40.922  29.880  29.942  1.00  0.00     0.074 A 
ATOM     40  C   UNL A   1      40.428  27.692  28.894  1.00  0.00     0.049 A 
ATOM     41  N   UNL A   1      42.199  29.749  30.198  1.00  0.00    -0.248 NA
ATOM     42  C   UNL A   1      40.363  31.183  30.339  1.00  0.00     0.031 C 
ATOM     43  C   UNL A   1      39.636  26.672  28.203  1.00  0.00     0.029 A 
ATOM     44  N   UNL A   1      41.666  27.111  29.028  1.00  0.00    -0.354 N 
ATOM     45  C   UNL A   1      42.597  30.957  30.761  1.00  0.00     0.074 A 
ATOM     46  C   UNL A   1      41.444  31.829  30.749  1.00  0.00     0.031 C 
ATOM     47  C   UNL A   1      40.392  25.579  28.012  1.00  0.00     0.029 A 
ATOM     48  C   UNL A   1      41.737  25.835  28.520  1.00  0.00     0.049 A 
ATOM     49  H   UNL A   1      42.430  27.566  29.450  1.00  0.00     0.167 HD
ATOM     50  C   UNL A   1      43.803  31.303  31.268  1.00  0.00     0.031 A 
ATOM     51  C   UNL A   1      42.767  24.968  28.462  1.00  0.00     0.031 A 
ATOM     52  C   UNL A   1      44.943  30.427  31.304  1.00  0.00     0.049 A 
ATOM     53  C   UNL A   1      44.098  25.374  29.031  1.00  0.00     0.074 A 
ATOM     54  C   UNL A   1      46.196  30.666  31.841  1.00  0.00     0.029 A 
ATOM     55  N   UNL A   1      44.965  29.140  30.790  1.00  0.00    -0.354 N 
ATOM     56  N   UNL A   1      44.441  26.508  29.595  1.00  0.00    -0.248 NA
ATOM     57  C   UNL A   1      45.180  24.382  28.962  1.00  0.00     0.031 C 
ATOM     58  C   UNL A   1      46.990  29.537  31.611  1.00  0.00     0.029 A 
ATOM     59  C   UNL A   1      46.214  28.576  30.985  1.00  0.00     0.049 A 
ATOM     60  H   UNL A   1      44.206  28.693  30.352  1.00  0.00     0.167 HD
ATOM     61  C   UNL A   1      45.769  26.353  29.976  1.00  0.00     0.074 A 
ATOM     62  C   UNL A   1      46.162  25.013  29.589  1.00  0.00     0.031 C 
ATOM     63  C   UNL A   1      46.589  27.240  30.593  1.00  0.00     0.031 A 
BRANCH  50  64
ATOM     64  C   UNL A   1      43.945  32.691  31.839  1.00  0.00    -0.014 A 
ATOM     65  C   UNL A   1      44.407  33.757  31.045  1.00  0.00     0.010 A 
ATOM     66  C   UNL A   1      43.582  32.943  33.175  1.00  0.00     0.010 A 
ATOM     67  C   UNL A   1      44.545  35.037  31.586  1.00  0.00     0.020 A 
ATOM     68  C   UNL A   1      43.689  34.230  33.712  1.00  0.00     0.020 A 
ATOM     69  C   UNL A   1      44.187  35.265  32.918  1.00  0.00     0.054 A 
BRANCH  69  70
ATOM     70  S   UNL A   1      44.354  36.943  33.586  1.00  0.00     0.124 S 
ATOM     71  O   UNL A   1      45.084  37.621  32.518  1.00  0.00    -0.237 OA
ATOM     72  O   UNL A   1      42.963  37.359  33.757  1.00  0.00    -0.237 OA
ATOM     73  O   UNL A   1      45.101  36.751  34.826  1.00  0.00    -0.744 OA
ENDBRANCH  69  70
ENDBRANCH  50  64
BRANCH  51  74
ATOM     74  C   UNL A   1      42.567  23.615  27.871  1.00  0.00    -0.014 A 
ATOM     75  C   UNL A   1      42.781  23.402  26.498  1.00  0.00     0.010 A 
ATOM     76  C   UNL A   1      42.183  22.529  28.679  1.00  0.00     0.010 A 
ATOM     77  C   UNL A   1      42.604  22.132  25.941  1.00  0.00     0.020 A 
ATOM     78  C   UNL A   1      42.032  21.252  28.131  1.00  0.00     0.020 A 
ATOM     79  C   UNL A   1      42.235  21.064  26.762  1.00  0.00     0.054 A 
BRANCH  79  80
ATOM     80  S   UNL A   1      42.074  19.411  26.028  1.00  0.00     0.124 S 
ATOM     81  O   UNL A   1      42.574  18.554  27.097  1.00  0.00    -0.237 OA
ATOM     82  O   UNL A   1      40.639  19.323  25.764  1.00  0.00    -0.237 OA
ATOM     83  O   UNL A   1      42.915  19.484  24.835  1.00  0.00    -0.744 OA
ENDBRANCH  79  80
ENDBRANCH  51  74
BRANCH  63  84
ATOM     84  C   UNL A   1      47.983  26.782  30.924  1.00  0.00    -0.014 A 
ATOM     85  C   UNL A   1      49.020  26.860  29.979  1.00  0.00     0.010 A 
ATOM     86  C   UNL A   1      48.270  26.322  32.222  1.00  0.00     0.010 A 
ATOM     87  C   UNL A   1      50.315  26.458  30.318  1.00  0.00     0.020 A 
ATOM     88  C   UNL A   1      49.569  25.946  32.574  1.00  0.00     0.020 A 
ATOM     89  C   UNL A   1      50.581  26.003  31.613  1.00  0.00     0.054 A 
BRANCH  89  90
ATOM     90  S   UNL A   1      52.279  25.532  32.041  1.00  0.00     0.124 S 
ATOM     91  O   UNL A   1      52.182  24.076  32.102  1.00  0.00    -0.237 OA
ATOM     92  O   UNL A   1      53.051  26.065  30.922  1.00  0.00    -0.237 OA
ATOM     93  O   UNL A   1      52.510  26.194  33.322  1.00  0.00    -0.744 OA
ENDBRANCH  89  90
ENDBRANCH  63  84
ENDBRANCH  37  38
ENDBRANCH  29  32
ENDBRANCH  27  28
ENDBRANCH   1  27
TORSDOF 16
ENDMDL
MODEL 3
REMARK VINA RESULT:     -11.8      1.711      2.256
REMARK SMILES [NH3+]Cc1c(-c2ccccc2)c(C(=O)NCCCNC(=O)c2ccc(-c3c4nc(c(-c5ccc(S(=O)(=O)[O-])cc5)c5ccc([nH]5)c(-c5ccc(S(=O)(=O)[O-])cc5)c5nc(c(-c6ccc(S(=O)(=O)[O-])cc6)c6ccc3[nH]6)C=C5)C=C4)cc2)c2ccccn12
REMARK SMILES IDX 16 1 15 2 14 3 12 4 13 5 11 7 3 8 4 9 86 10 81 11 85 12
REMARK SMILES IDX 82 13 84 14 83 15 2 16 1 17 5 21 6 22 10 23 7 24 9 25 8 26
REMARK SMILES IDX 17 27 18 28 19 29 20 31 21 32 22 33 80 34 23 35 79 36 24 37
REMARK SMILES IDX 25 38 26 39 73 40 27 41 78 42 72 43 74 44 28 45 77 46 71 47
REMARK SMILES IDX 70 48 29 50 59 51 40 52 58 53 41 54 44 55 57 56 75 57 42 58
REMARK SMILES IDX 43 59 56 61 76 62 45 63 30 64 31 65 39 66 32 67 38 68 33 69
REMARK SMILES IDX 34 70 35 71 36 72 37 73 60 74 61 75 69 76 62 77 68 78 63 79
REMARK SMILES IDX 64 80 65 81 66 82 67 83 46 84 47 85 55 86 48 87 54 88 49 89
REMARK SMILES IDX 50 90 51 91 52 92 53 93
REMARK H PARENT 14 6 1 18 1 19 1 20 18 30 74 49 44 60
REMARK Flexibility Score: inf
ROOT
ATOM      1  C   UNL A   1      34.814  30.340  27.294  1.00  0.00     0.042 C 
ENDROOT
BRANCH   1   2
ATOM      2  C   UNL A   1      33.988  29.226  26.675  1.00  0.00     0.118 C 
BRANCH   2   3
ATOM      3  N   UNL A   1      32.856  28.773  27.458  1.00  0.00    -0.352 N 
ATOM      4  C   UNL A   1      31.779  27.975  27.133  1.00  0.00     0.254 C 
ATOM      5  O   UNL A   1      31.029  27.685  28.065  1.00  0.00    -0.269 OA
ATOM      6  H   UNL A   1      32.855  29.093  28.389  1.00  0.00     0.163 HD
BRANCH   4   7
ATOM      7  C   UNL A   1      31.488  27.570  25.752  1.00  0.00     0.073 A 
ATOM      8  C   UNL A   1      31.250  26.201  23.898  1.00  0.00     0.086 A 
ATOM      9  C   UNL A   1      31.783  26.280  25.189  1.00  0.00     0.022 A 
ATOM     10  N   UNL A   1      30.629  27.421  23.664  1.00  0.00    -0.314 N 
ATOM     11  C   UNL A   1      31.006  28.310  24.680  1.00  0.00     0.059 A 
ATOM     12  C   UNL A   1      29.762  27.824  22.637  1.00  0.00     0.092 A 
ATOM     13  C   UNL A   1      30.752  29.698  24.447  1.00  0.00     0.027 A 
ATOM     14  C   UNL A   1      29.380  29.107  22.532  1.00  0.00     0.018 A 
ATOM     15  C   UNL A   1      29.944  30.078  23.441  1.00  0.00     0.004 A 
BRANCH   8  16
ATOM     16  C   UNL A   1      31.321  25.006  22.987  1.00  0.00     0.315 C 
BRANCH  16  17
ATOM     17  N   UNL A   1      30.316  23.974  23.165  1.00  0.00    -0.353 N 
ATOM     18  H   UNL A   1      29.797  24.152  24.026  1.00  0.00     0.344 HD
ATOM     19  H   UNL A   1      30.771  23.064  23.224  1.00  0.00     0.344 HD
ATOM     20  H   UNL A   1      29.674  23.984  22.373  1.00  0.00     0.344 HD
ENDBRANCH  16  17
ENDBRANCH   8  16
BRANCH   9  21
ATOM     21  C   UNL A   1      32.523  25.176  25.786  1.00  0.00    -0.016 A 
ATOM     22  C   UNL A   1      31.877  24.208  26.559  1.00  0.00     0.009 A 
ATOM     23  C   UNL A   1      33.907  25.087  25.582  1.00  0.00     0.009 A 
ATOM     24  C   UNL A   1      32.612  23.157  27.116  1.00  0.00     0.001 A 
ATOM     25  C   UNL A   1      34.637  24.031  26.131  1.00  0.00     0.001 A 
ATOM     26  C   UNL A   1      33.988  23.066  26.898  1.00  0.00     0.000 A 
ENDBRANCH   9  21
ENDBRANCH   4   7
ENDBRANCH   2   3
ENDBRANCH   1   2
BRANCH   1  27
ATOM     27  C   UNL A   1      36.169  29.935  27.849  1.00  0.00     0.118 C 
BRANCH  27  28
ATOM     28  N   UNL A   1      36.176  29.679  29.285  1.00  0.00    -0.352 N 
ATOM     29  C   UNL A   1      37.147  29.185  30.128  1.00  0.00     0.251 C 
ATOM     30  H   UNL A   1      35.329  29.901  29.734  1.00  0.00     0.163 HD
ATOM     31  O   UNL A   1      36.856  28.957  31.298  1.00  0.00    -0.269 OA
BRANCH  29  32
ATOM     32  C   UNL A   1      38.515  28.883  29.640  1.00  0.00     0.039 A 
ATOM     33  C   UNL A   1      38.859  29.225  28.327  1.00  0.00     0.014 A 
ATOM     34  C   UNL A   1      39.460  28.256  30.449  1.00  0.00     0.014 A 
ATOM     35  C   UNL A   1      40.169  29.033  27.872  1.00  0.00     0.010 A 
ATOM     36  C   UNL A   1      40.788  28.180  30.041  1.00  0.00     0.010 A 
ATOM     37  C   UNL A   1      41.161  28.562  28.746  1.00  0.00    -0.014 A 
BRANCH  37  38
ATOM     38  C   UNL A   1      42.585  28.439  28.332  1.00  0.00     0.031 A 
ATOM     39  C   UNL A   1      43.525  29.607  28.504  1.00  0.00     0.074 A 
ATOM     40  C   UNL A   1      43.017  27.312  27.728  1.00  0.00     0.049 A 
ATOM     41  N   UNL A   1      44.767  29.733  28.109  1.00  0.00    -0.248 NA
ATOM     42  C   UNL A   1      42.989  30.801  29.179  1.00  0.00     0.031 C 
ATOM     43  C   UNL A   1      42.201  26.126  27.458  1.00  0.00     0.029 A 
ATOM     44  N   UNL A   1      44.252  26.983  27.224  1.00  0.00    -0.354 N 
ATOM     45  C   UNL A   1      45.147  31.023  28.464  1.00  0.00     0.074 A 
ATOM     46  C   UNL A   1      43.988  31.660  29.047  1.00  0.00     0.031 C 
ATOM     47  C   UNL A   1      42.966  25.186  26.879  1.00  0.00     0.029 A 
ATOM     48  C   UNL A   1      44.312  25.718  26.688  1.00  0.00     0.049 A 
ATOM     49  H   UNL A   1      45.022  27.595  27.246  1.00  0.00     0.167 HD
ATOM     50  C   UNL A   1      46.358  31.617  28.343  1.00  0.00     0.031 A 
ATOM     51  C   UNL A   1      45.331  25.058  26.104  1.00  0.00     0.031 A 
ATOM     52  C   UNL A   1      47.518  30.974  27.788  1.00  0.00     0.049 A 
ATOM     53  C   UNL A   1      46.667  25.737  25.980  1.00  0.00     0.074 A 
ATOM     54  C   UNL A   1      48.803  31.473  27.666  1.00  0.00     0.029 A 
ATOM     55  N   UNL A   1      47.536  29.688  27.270  1.00  0.00    -0.354 N 
ATOM     56  N   UNL A   1      47.015  26.944  26.359  1.00  0.00    -0.248 NA
ATOM     57  C   UNL A   1      47.750  24.964  25.356  1.00  0.00     0.031 C 
ATOM     58  C   UNL A   1      49.588  30.503  27.033  1.00  0.00     0.029 A 
ATOM     59  C   UNL A   1      48.806  29.381  26.815  1.00  0.00     0.049 A 
ATOM     60  H   UNL A   1      46.760  29.083  27.232  1.00  0.00     0.167 HD
ATOM     61  C   UNL A   1      48.365  27.062  26.047  1.00  0.00     0.074 A 
ATOM     62  C   UNL A   1      48.771  25.802  25.460  1.00  0.00     0.031 C 
ATOM     63  C   UNL A   1      49.194  28.120  26.233  1.00  0.00     0.031 A 
BRANCH  50  64
ATOM     64  C   UNL A   1      46.489  33.035  28.837  1.00  0.00    -0.014 A 
ATOM     65  C   UNL A   1      46.218  34.125  27.988  1.00  0.00     0.010 A 
ATOM     66  C   UNL A   1      46.854  33.285  30.172  1.00  0.00     0.010 A 
ATOM     67  C   UNL A   1      46.353  35.435  28.451  1.00  0.00     0.020 A 
ATOM     68  C   UNL A   1      46.959  34.595  30.649  1.00  0.00     0.020 A 
ATOM     69  C   UNL A   1      46.725  35.663  29.779  1.00  0.00     0.054 A 
BRANCH  69  70
ATOM     70  S   UNL A   1      46.867  37.375  30.359  1.00  0.00     0.124 S 
ATOM     71  O   UNL A   1      45.829  38.044  29.580  1.00  0.00    -0.237 OA
ATOM     72  O   UNL A   1      46.596  37.252  31.790  1.00  0.00    -0.237 OA
ATOM     73  O   UNL A   1      48.238  37.745  30.017  1.00  0.00    -0.744 OA
ENDBRANCH  69  70
ENDBRANCH  50  64
BRANCH  51  74
ATOM     74  C   UNL A   1      45.135  23.662  25.623  1.00  0.00    -0.014 A 
ATOM     75  C   UNL A   1      44.730  23.418  24.299  1.00  0.00     0.010 A 
ATOM     76  C   UNL A   1      45.371  22.569  26.477  1.00  0.00     0.010 A 
ATOM     77  C   UNL A   1      44.554  22.109  23.840  1.00  0.00     0.020 A 
ATOM     78  C   UNL A   1      45.223  21.258  26.014  1.00  0.00     0.020 A 
ATOM     79  C   UNL A   1      44.805  21.037  24.700  1.00  0.00     0.054 A 
BRANCH  79  80
ATOM     80  S   UNL A   1      44.631  19.346  24.063  1.00  0.00     0.124 S 
ATOM     81  O   UNL A   1      44.532  19.572  22.626  1.00  0.00    -0.237 OA
ATOM     82  O   UNL A   1      45.864  18.709  24.521  1.00  0.00    -0.237 OA
ATOM     83  O   UNL A   1      43.413  18.862  24.708  1.00  0.00    -0.744 OA
ENDBRANCH  79  80
ENDBRANCH  51  74
BRANCH  63  84
ATOM     84  C   UNL A   1      50.634  27.951  25.831  1.00  0.00    -0.014 A 
ATOM     85  C   UNL A   1      51.078  28.299  24.544  1.00  0.00     0.010 A 
ATOM     86  C   UNL A   1      51.567  27.493  26.780  1.00  0.00     0.010 A 
ATOM     87  C   UNL A   1      52.427  28.163  24.203  1.00  0.00     0.020 A 
ATOM     88  C   UNL A   1      52.920  27.382  26.452  1.00  0.00     0.020 A 
ATOM     89  C   UNL A   1      53.339  27.705  25.159  1.00  0.00     0.054 A 
BRANCH  89  90
ATOM     90  S   UNL A   1      55.091  27.582  24.706  1.00  0.00     0.124 S 
ATOM     91  O   UNL A   1      55.033  26.767  23.495  1.00  0.00    -0.237 OA
ATOM     92  O   UNL A   1      55.469  28.979  24.506  1.00  0.00    -0.237 OA
ATOM     93  O   UNL A   1      55.704  26.936  25.863  1.00  0.00    -0.744 OA
ENDBRANCH  89  90
ENDBRANCH  63  84
ENDBRANCH  37  38
ENDBRANCH  29  32
ENDBRANCH  27  28
ENDBRANCH   1  27
TORSDOF 16
ENDMDL
