MODEL 1
REMARK VINA RESULT:     -12.2      0.000      0.000
REMARK SMILES Cc1cc(NC(=O)CCC(=O)NCCCNC(=O)c2ccc(-c3c4nc(c(-c5ccc(S(=O)(=O)[O-])cc5)c5ccc([nH]5)c(-c5ccc(S(=O)(=O)[O-])cc5)c5nc(c(-c6ccc(S(=O)(=O)[O-])cc6)c6ccc3[nH]6)C=C5)C=C4)cc2)ccc1S(=O)(=O)[O-]
REMARK SMILES IDX 13 1 12 2 10 3 11 4 9 6 8 7 6 8 5 9 7 11 4 12 1 13 2 14 3 15
REMARK SMILES IDX 81 16 80 17 79 18 82 19 83 20 84 21 85 22 14 23 15 24 16 25
REMARK SMILES IDX 17 26 18 28 19 29 20 30 78 31 21 32 77 33 22 34 23 35 24 36
REMARK SMILES IDX 71 37 25 38 76 39 70 40 72 41 26 42 75 43 69 44 68 45 27 47
REMARK SMILES IDX 57 48 38 49 56 50 39 51 42 52 55 53 73 54 40 55 41 56 54 58
REMARK SMILES IDX 74 59 43 60 28 61 29 62 37 63 30 64 36 65 31 66 32 67 33 68
REMARK SMILES IDX 34 69 35 70 58 71 59 72 67 73 60 74 66 75 61 76 62 77 63 78
REMARK SMILES IDX 64 79 65 80 44 81 45 82 53 83 46 84 52 85 47 86 48 87 49 88
REMARK SMILES IDX 50 89 51 90
REMARK H PARENT 12 5 5 10 16 27 72 46 42 57
REMARK Flexibility Score: inf
ROOT
ATOM      1  C   UNL A   1      33.454  29.430  25.152  1.00  0.00     0.117 C 
ENDROOT
BRANCH   1   2
ATOM      2  N   UNL A   1      33.514  28.344  24.181  1.00  0.00    -0.356 N 
ATOM      3  C   UNL A   1      32.564  27.873  23.328  1.00  0.00     0.220 C 
ATOM      4  O   UNL A   1      32.914  27.207  22.353  1.00  0.00    -0.275 OA
ATOM      5  H   UNL A   1      34.380  27.878  24.136  1.00  0.00     0.163 HD
BRANCH   3   6
ATOM      6  C   UNL A   1      31.100  28.164  23.557  1.00  0.00     0.110 C 
BRANCH   6   7
ATOM      7  C   UNL A   1      30.089  27.219  22.913  1.00  0.00     0.110 C 
BRANCH   7   8
ATOM      8  C   UNL A   1      29.193  26.410  23.829  1.00  0.00     0.224 C 
ATOM      9  N   UNL A   1      29.603  25.297  24.502  1.00  0.00    -0.326 N 
ATOM     10  H   UNL A   1      28.935  24.945  25.133  1.00  0.00     0.169 HD
ATOM     11  O   UNL A   1      28.034  26.798  24.020  1.00  0.00    -0.275 OA
BRANCH   9  12
ATOM     12  C   UNL A   1      30.796  24.559  24.466  1.00  0.00     0.041 A 
ATOM     13  C   UNL A   1      32.389  21.834  22.394  1.00  0.00     0.046 C 
ATOM     14  C   UNL A   1      32.279  22.873  23.471  1.00  0.00    -0.032 A 
ATOM     15  C   UNL A   1      31.005  23.458  23.639  1.00  0.00     0.030 A 
ATOM     16  C   UNL A   1      33.344  23.398  24.219  1.00  0.00     0.057 A 
ATOM     17  C   UNL A   1      33.107  24.422  25.154  1.00  0.00     0.021 A 
ATOM     18  C   UNL A   1      31.839  24.989  25.284  1.00  0.00     0.027 A 
BRANCH  16  19
ATOM     19  S   UNL A   1      35.050  22.910  24.069  1.00  0.00     0.124 S 
ATOM     20  O   UNL A   1      35.156  21.530  24.428  1.00  0.00    -0.237 OA
ATOM     21  O   UNL A   1      35.519  23.416  22.782  1.00  0.00    -0.237 OA
ATOM     22  O   UNL A   1      35.922  23.744  25.137  1.00  0.00    -0.744 OA
ENDBRANCH  16  19
ENDBRANCH   9  12
ENDBRANCH   7   8
ENDBRANCH   6   7
ENDBRANCH   3   6
ENDBRANCH   1   2
BRANCH   1  23
ATOM     23  C   UNL A   1      33.186  28.995  26.586  1.00  0.00     0.042 C 
BRANCH  23  24
ATOM     24  C   UNL A   1      34.209  29.471  27.603  1.00  0.00     0.118 C 
BRANCH  24  25
ATOM     25  N   UNL A   1      35.204  30.413  27.102  1.00  0.00    -0.352 N 
ATOM     26  C   UNL A   1      36.309  30.755  27.879  1.00  0.00     0.251 C 
ATOM     27  H   UNL A   1      35.093  30.812  26.208  1.00  0.00     0.163 HD
ATOM     28  O   UNL A   1      36.526  31.866  28.338  1.00  0.00    -0.269 OA
BRANCH  26  29
ATOM     29  C   UNL A   1      37.225  29.624  28.140  1.00  0.00     0.039 A 
ATOM     30  C   UNL A   1      37.196  28.956  29.365  1.00  0.00     0.014 A 
ATOM     31  C   UNL A   1      38.273  29.434  27.243  1.00  0.00     0.014 A 
ATOM     32  C   UNL A   1      38.320  28.236  29.770  1.00  0.00     0.010 A 
ATOM     33  C   UNL A   1      39.420  28.836  27.689  1.00  0.00     0.010 A 
ATOM     34  C   UNL A   1      39.455  28.268  28.965  1.00  0.00    -0.014 A 
BRANCH  34  35
ATOM     35  C   UNL A   1      40.740  27.676  29.276  1.00  0.00     0.031 A 
ATOM     36  C   UNL A   1      40.993  26.296  28.806  1.00  0.00     0.074 A 
ATOM     37  C   UNL A   1      41.739  28.451  29.750  1.00  0.00     0.049 A 
ATOM     38  N   UNL A   1      41.994  25.583  29.181  1.00  0.00    -0.248 NA
ATOM     39  C   UNL A   1      40.100  25.585  27.890  1.00  0.00     0.031 C 
ATOM     40  C   UNL A   1      43.175  28.184  29.677  1.00  0.00     0.029 A 
ATOM     41  N   UNL A   1      41.700  29.624  30.483  1.00  0.00    -0.354 N 
ATOM     42  C   UNL A   1      42.060  24.491  28.345  1.00  0.00     0.074 A 
ATOM     43  C   UNL A   1      40.803  24.476  27.640  1.00  0.00     0.031 C 
ATOM     44  C   UNL A   1      43.806  28.968  30.570  1.00  0.00     0.029 A 
ATOM     45  C   UNL A   1      42.779  29.605  31.373  1.00  0.00     0.049 A 
ATOM     46  H   UNL A   1      41.033  30.343  30.394  1.00  0.00     0.167 HD
ATOM     47  C   UNL A   1      43.235  23.810  28.257  1.00  0.00     0.031 A 
ATOM     48  C   UNL A   1      42.638  29.420  32.728  1.00  0.00     0.031 A 
ATOM     49  C   UNL A   1      44.226  24.347  29.187  1.00  0.00     0.049 A 
ATOM     50  C   UNL A   1      43.317  28.159  33.262  1.00  0.00     0.074 A 
ATOM     51  C   UNL A   1      45.324  25.179  29.051  1.00  0.00     0.029 A 
ATOM     52  N   UNL A   1      43.957  24.282  30.540  1.00  0.00    -0.354 N 
ATOM     53  N   UNL A   1      43.859  27.242  32.510  1.00  0.00    -0.248 NA
ATOM     54  C   UNL A   1      43.359  27.789  34.679  1.00  0.00     0.031 C 
ATOM     55  C   UNL A   1      45.716  25.604  30.354  1.00  0.00     0.029 A 
ATOM     56  C   UNL A   1      44.871  25.007  31.273  1.00  0.00     0.049 A 
ATOM     57  H   UNL A   1      43.205  23.781  30.932  1.00  0.00     0.167 HD
ATOM     58  C   UNL A   1      44.240  26.170  33.273  1.00  0.00     0.074 A 
ATOM     59  C   UNL A   1      43.917  26.564  34.630  1.00  0.00     0.031 C 
ATOM     60  C   UNL A   1      44.741  25.024  32.720  1.00  0.00     0.031 A 
BRANCH  47  61
ATOM     61  C   UNL A   1      43.589  22.791  27.201  1.00  0.00    -0.014 A 
ATOM     62  C   UNL A   1      42.770  21.649  27.069  1.00  0.00     0.010 A 
ATOM     63  C   UNL A   1      44.704  22.855  26.346  1.00  0.00     0.010 A 
ATOM     64  C   UNL A   1      43.086  20.599  26.199  1.00  0.00     0.020 A 
ATOM     65  C   UNL A   1      45.042  21.804  25.478  1.00  0.00     0.020 A 
ATOM     66  C   UNL A   1      44.237  20.672  25.423  1.00  0.00     0.054 A 
BRANCH  66  67
ATOM     67  S   UNL A   1      44.661  19.277  24.352  1.00  0.00     0.124 S 
ATOM     68  O   UNL A   1      46.064  19.042  24.688  1.00  0.00    -0.237 OA
ATOM     69  O   UNL A   1      43.726  18.245  24.792  1.00  0.00    -0.237 OA
ATOM     70  O   UNL A   1      44.429  19.789  23.004  1.00  0.00    -0.744 OA
ENDBRANCH  66  67
ENDBRANCH  47  61
BRANCH  48  71
ATOM     71  C   UNL A   1      41.359  29.978  33.265  1.00  0.00    -0.014 A 
ATOM     72  C   UNL A   1      41.283  31.377  33.433  1.00  0.00     0.010 A 
ATOM     73  C   UNL A   1      40.169  29.245  33.110  1.00  0.00     0.010 A 
ATOM     74  C   UNL A   1      40.081  32.050  33.196  1.00  0.00     0.020 A 
ATOM     75  C   UNL A   1      38.959  29.919  32.893  1.00  0.00     0.020 A 
ATOM     76  C   UNL A   1      38.949  31.316  32.838  1.00  0.00     0.054 A 
BRANCH  76  77
ATOM     77  S   UNL A   1      37.541  32.208  32.105  1.00  0.00     0.124 S 
ATOM     78  O   UNL A   1      37.187  33.157  33.154  1.00  0.00    -0.237 OA
ATOM     79  O   UNL A   1      38.134  32.796  30.899  1.00  0.00    -0.237 OA
ATOM     80  O   UNL A   1      36.564  31.154  31.858  1.00  0.00    -0.744 OA
ENDBRANCH  76  77
ENDBRANCH  48  71
BRANCH  60  81
ATOM     81  C   UNL A   1      45.107  23.778  33.488  1.00  0.00    -0.014 A 
ATOM     82  C   UNL A   1      44.160  22.848  33.936  1.00  0.00     0.010 A 
ATOM     83  C   UNL A   1      46.449  23.568  33.889  1.00  0.00     0.010 A 
ATOM     84  C   UNL A   1      44.548  21.727  34.689  1.00  0.00     0.020 A 
ATOM     85  C   UNL A   1      46.845  22.470  34.653  1.00  0.00     0.020 A 
ATOM     86  C   UNL A   1      45.890  21.542  35.034  1.00  0.00     0.054 A 
BRANCH  86  87
ATOM     87  S   UNL A   1      46.367  20.100  36.016  1.00  0.00     0.124 S 
ATOM     88  O   UNL A   1      45.672  20.332  37.279  1.00  0.00    -0.237 OA
ATOM     89  O   UNL A   1      45.848  18.999  35.207  1.00  0.00    -0.237 OA
ATOM     90  O   UNL A   1      47.824  20.187  36.085  1.00  0.00    -0.744 OA
ENDBRANCH  86  87
ENDBRANCH  60  81
ENDBRANCH  34  35
ENDBRANCH  26  29
ENDBRANCH  24  25
ENDBRANCH  23  24
ENDBRANCH   1  23
TORSDOF 17
ENDMDL
MODEL 2
REMARK VINA RESULT:     -12.0      1.543      2.864
REMARK SMILES Cc1cc(NC(=O)CCC(=O)NCCCNC(=O)c2ccc(-c3c4nc(c(-c5ccc(S(=O)(=O)[O-])cc5)c5ccc([nH]5)c(-c5ccc(S(=O)(=O)[O-])cc5)c5nc(c(-c6ccc(S(=O)(=O)[O-])cc6)c6ccc3[nH]6)C=C5)C=C4)cc2)ccc1S(=O)(=O)[O-]
REMARK SMILES IDX 13 1 12 2 10 3 11 4 9 6 8 7 6 8 5 9 7 11 4 12 1 13 2 14 3 15
REMARK SMILES IDX 81 16 80 17 79 18 82 19 83 20 84 21 85 22 14 23 15 24 16 25
REMARK SMILES IDX 17 26 18 28 19 29 20 30 78 31 21 32 77 33 22 34 23 35 24 36
REMARK SMILES IDX 71 37 25 38 76 39 70 40 72 41 26 42 75 43 69 44 68 45 27 47
REMARK SMILES IDX 57 48 38 49 56 50 39 51 42 52 55 53 73 54 40 55 41 56 54 58
REMARK SMILES IDX 74 59 43 60 28 61 29 62 37 63 30 64 36 65 31 66 32 67 33 68
REMARK SMILES IDX 34 69 35 70 58 71 59 72 67 73 60 74 66 75 61 76 62 77 63 78
REMARK SMILES IDX 64 79 65 80 44 81 45 82 53 83 46 84 52 85 47 86 48 87 49 88
REMARK SMILES IDX 50 89 51 90
REMARK H PARENT 12 5 5 10 16 27 72 46 42 57
REMARK Flexibility Score: inf
ROOT
ATOM      1  C   UNL A   1      33.303  27.685  25.593  1.00  0.00     0.117 C 
ENDROOT
BRANCH   1   2
ATOM      2  N   UNL A   1      32.250  26.723  25.895  1.00  0.00    -0.356 N 
ATOM      3  C   UNL A   1      32.332  25.430  26.310  1.00  0.00     0.220 C 
ATOM      4  O   UNL A   1      31.354  24.913  26.852  1.00  0.00    -0.275 OA
ATOM      5  H   UNL A   1      31.333  27.064  25.780  1.00  0.00     0.163 HD
BRANCH   3   6
ATOM      6  C   UNL A   1      33.602  24.633  26.126  1.00  0.00     0.110 C 
BRANCH   6   7
ATOM      7  C   UNL A   1      34.109  24.444  24.698  1.00  0.00     0.110 C 
BRANCH   7   8
ATOM      8  C   UNL A   1      33.410  23.421  23.828  1.00  0.00     0.224 C 
ATOM      9  N   UNL A   1      32.337  23.706  23.034  1.00  0.00    -0.326 N 
ATOM     10  H   UNL A   1      32.061  22.961  22.454  1.00  0.00     0.169 HD
ATOM     11  O   UNL A   1      33.856  22.268  23.790  1.00  0.00    -0.275 OA
BRANCH   9  12
ATOM     12  C   UNL A   1      31.553  24.860  22.889  1.00  0.00     0.041 A 
ATOM     13  C   UNL A   1      28.378  26.335  24.302  1.00  0.00     0.046 C 
ATOM     14  C   UNL A   1      29.626  26.267  23.472  1.00  0.00    -0.032 A 
ATOM     15  C   UNL A   1      30.292  25.022  23.459  1.00  0.00     0.030 A 
ATOM     16  C   UNL A   1      30.247  27.349  22.830  1.00  0.00     0.057 A 
ATOM     17  C   UNL A   1      31.456  27.155  22.138  1.00  0.00     0.021 A 
ATOM     18  C   UNL A   1      32.097  25.915  22.158  1.00  0.00     0.027 A 
BRANCH  16  19
ATOM     19  S   UNL A   1      29.658  29.030  22.837  1.00  0.00     0.124 S 
ATOM     20  O   UNL A   1      28.239  29.010  22.663  1.00  0.00    -0.237 OA
ATOM     21  O   UNL A   1      30.292  29.691  23.975  1.00  0.00    -0.237 OA
ATOM     22  O   UNL A   1      30.278  29.800  21.566  1.00  0.00    -0.744 OA
ENDBRANCH  16  19
ENDBRANCH   9  12
ENDBRANCH   7   8
ENDBRANCH   6   7
ENDBRANCH   3   6
ENDBRANCH   1   2
BRANCH   1  23
ATOM     23  C   UNL A   1      34.053  28.217  26.806  1.00  0.00     0.042 C 
BRANCH  23  24
ATOM     24  C   UNL A   1      33.692  29.636  27.212  1.00  0.00     0.118 C 
BRANCH  24  25
ATOM     25  N   UNL A   1      34.679  30.657  26.878  1.00  0.00    -0.352 N 
ATOM     26  C   UNL A   1      35.668  31.011  27.795  1.00  0.00     0.251 C 
ATOM     27  H   UNL A   1      34.646  31.100  25.999  1.00  0.00     0.163 HD
ATOM     28  O   UNL A   1      35.765  32.104  28.332  1.00  0.00    -0.269 OA
BRANCH  26  29
ATOM     29  C   UNL A   1      36.614  29.917  28.102  1.00  0.00     0.039 A 
ATOM     30  C   UNL A   1      36.633  29.330  29.368  1.00  0.00     0.014 A 
ATOM     31  C   UNL A   1      37.639  29.689  27.188  1.00  0.00     0.014 A 
ATOM     32  C   UNL A   1      37.782  28.659  29.785  1.00  0.00     0.010 A 
ATOM     33  C   UNL A   1      38.811  29.144  27.639  1.00  0.00     0.010 A 
ATOM     34  C   UNL A   1      38.893  28.661  28.947  1.00  0.00    -0.014 A 
BRANCH  34  35
ATOM     35  C   UNL A   1      40.198  28.114  29.258  1.00  0.00     0.031 A 
ATOM     36  C   UNL A   1      40.490  26.734  28.813  1.00  0.00     0.074 A 
ATOM     37  C   UNL A   1      41.177  28.929  29.707  1.00  0.00     0.049 A 
ATOM     38  N   UNL A   1      41.516  26.059  29.192  1.00  0.00    -0.248 NA
ATOM     39  C   UNL A   1      39.612  25.978  27.919  1.00  0.00     0.031 C 
ATOM     40  C   UNL A   1      42.620  28.705  29.627  1.00  0.00     0.029 A 
ATOM     41  N   UNL A   1      41.108  30.115  30.418  1.00  0.00    -0.354 N 
ATOM     42  C   UNL A   1      41.608  24.954  28.377  1.00  0.00     0.074 A 
ATOM     43  C   UNL A   1      40.346  24.886  27.684  1.00  0.00     0.031 C 
ATOM     44  C   UNL A   1      43.234  29.526  30.498  1.00  0.00     0.029 A 
ATOM     45  C   UNL A   1      42.195  30.146  31.299  1.00  0.00     0.049 A 
ATOM     46  H   UNL A   1      40.418  30.811  30.321  1.00  0.00     0.167 HD
ATOM     47  C   UNL A   1      42.803  24.307  28.292  1.00  0.00     0.031 A 
ATOM     48  C   UNL A   1      42.071  29.984  32.658  1.00  0.00     0.031 A 
ATOM     49  C   UNL A   1      43.785  24.893  29.203  1.00  0.00     0.049 A 
ATOM     50  C   UNL A   1      42.793  28.755  33.210  1.00  0.00     0.074 A 
ATOM     51  C   UNL A   1      44.856  25.755  29.040  1.00  0.00     0.029 A 
ATOM     52  N   UNL A   1      43.529  24.847  30.559  1.00  0.00    -0.354 N 
ATOM     53  N   UNL A   1      43.357  27.840  32.472  1.00  0.00    -0.248 NA
ATOM     54  C   UNL A   1      42.858  28.415  34.634  1.00  0.00     0.031 C 
ATOM     55  C   UNL A   1      45.245  26.217  30.332  1.00  0.00     0.029 A 
ATOM     56  C   UNL A   1      44.426  25.614  31.269  1.00  0.00     0.049 A 
ATOM     57  H   UNL A   1      42.796  24.331  30.968  1.00  0.00     0.167 HD
ATOM     58  C   UNL A   1      43.777  26.796  33.252  1.00  0.00     0.074 A 
ATOM     59  C   UNL A   1      43.453  27.207  34.604  1.00  0.00     0.031 C 
ATOM     60  C   UNL A   1      44.308  25.655  32.717  1.00  0.00     0.031 A 
BRANCH  47  61
ATOM     61  C   UNL A   1      43.179  23.279  27.253  1.00  0.00    -0.014 A 
ATOM     62  C   UNL A   1      42.490  22.047  27.247  1.00  0.00     0.010 A 
ATOM     63  C   UNL A   1      44.200  23.421  26.296  1.00  0.00     0.010 A 
ATOM     64  C   UNL A   1      42.849  20.994  26.399  1.00  0.00     0.020 A 
ATOM     65  C   UNL A   1      44.581  22.370  25.447  1.00  0.00     0.020 A 
ATOM     66  C   UNL A   1      43.911  21.154  25.516  1.00  0.00     0.054 A 
BRANCH  66  67
ATOM     67  S   UNL A   1      44.400  19.759  24.473  1.00  0.00     0.124 S 
ATOM     68  O   UNL A   1      45.653  19.332  25.091  1.00  0.00    -0.237 OA
ATOM     69  O   UNL A   1      43.276  18.840  24.626  1.00  0.00    -0.237 OA
ATOM     70  O   UNL A   1      44.539  20.350  23.144  1.00  0.00    -0.744 OA
ENDBRANCH  66  67
ENDBRANCH  47  61
BRANCH  48  71
ATOM     71  C   UNL A   1      40.779  30.512  33.196  1.00  0.00    -0.014 A 
ATOM     72  C   UNL A   1      40.655  31.913  33.320  1.00  0.00     0.010 A 
ATOM     73  C   UNL A   1      39.615  29.733  33.081  1.00  0.00     0.010 A 
ATOM     74  C   UNL A   1      39.427  32.534  33.079  1.00  0.00     0.020 A 
ATOM     75  C   UNL A   1      38.378  30.356  32.860  1.00  0.00     0.020 A 
ATOM     76  C   UNL A   1      38.318  31.749  32.761  1.00  0.00     0.054 A 
BRANCH  76  77
ATOM     77  S   UNL A   1      36.869  32.567  32.021  1.00  0.00     0.124 S 
ATOM     78  O   UNL A   1      36.401  33.425  33.104  1.00  0.00    -0.237 OA
ATOM     79  O   UNL A   1      37.455  33.267  30.872  1.00  0.00    -0.237 OA
ATOM     80  O   UNL A   1      35.990  31.454  31.679  1.00  0.00    -0.744 OA
ENDBRANCH  76  77
ENDBRANCH  48  71
BRANCH  60  81
ATOM     81  C   UNL A   1      44.719  24.437  33.506  1.00  0.00    -0.014 A 
ATOM     82  C   UNL A   1      43.799  23.561  34.098  1.00  0.00     0.010 A 
ATOM     83  C   UNL A   1      46.090  24.202  33.774  1.00  0.00     0.010 A 
ATOM     84  C   UNL A   1      44.233  22.466  34.863  1.00  0.00     0.020 A 
ATOM     85  C   UNL A   1      46.533  23.130  34.549  1.00  0.00     0.020 A 
ATOM     86  C   UNL A   1      45.599  22.253  35.075  1.00  0.00     0.054 A 
BRANCH  86  87
ATOM     87  S   UNL A   1      46.137  20.846  36.075  1.00  0.00     0.124 S 
ATOM     88  O   UNL A   1      45.467  19.721  35.427  1.00  0.00    -0.237 OA
ATOM     89  O   UNL A   1      47.588  20.894  35.907  1.00  0.00    -0.237 OA
ATOM     90  O   UNL A   1      45.656  21.162  37.417  1.00  0.00    -0.744 OA
ENDBRANCH  86  87
ENDBRANCH  60  81
ENDBRANCH  34  35
ENDBRANCH  26  29
ENDBRANCH  24  25
ENDBRANCH  23  24
ENDBRANCH   1  23
TORSDOF 17
ENDMDL
MODEL 3
REMARK VINA RESULT:     -12.0      4.556     10.761
REMARK SMILES Cc1cc(NC(=O)CCC(=O)NCCCNC(=O)c2ccc(-c3c4nc(c(-c5ccc(S(=O)(=O)[O-])cc5)c5ccc([nH]5)c(-c5ccc(S(=O)(=O)[O-])cc5)c5nc(c(-c6ccc(S(=O)(=O)[O-])cc6)c6ccc3[nH]6)C=C5)C=C4)cc2)ccc1S(=O)(=O)[O-]
REMARK SMILES IDX 13 1 12 2 10 3 11 4 9 6 8 7 6 8 5 9 7 11 4 12 1 13 2 14 3 15
REMARK SMILES IDX 81 16 80 17 79 18 82 19 83 20 84 21 85 22 14 23 15 24 16 25
REMARK SMILES IDX 17 26 18 28 19 29 20 30 78 31 21 32 77 33 22 34 23 35 24 36
REMARK SMILES IDX 71 37 25 38 76 39 70 40 72 41 26 42 75 43 69 44 68 45 27 47
REMARK SMILES IDX 57 48 38 49 56 50 39 51 42 52 55 53 73 54 40 55 41 56 54 58
REMARK SMILES IDX 74 59 43 60 28 61 29 62 37 63 30 64 36 65 31 66 32 67 33 68
REMARK SMILES IDX 34 69 35 70 58 71 59 72 67 73 60 74 66 75 61 76 62 77 63 78
REMARK SMILES IDX 64 79 65 80 44 81 45 82 53 83 46 84 52 85 47 86 48 87 49 88
REMARK SMILES IDX 50 89 51 90
REMARK H PARENT 12 5 5 10 16 27 72 46 42 57
REMARK Flexibility Score: inf
ROOT
ATOM      1  C   UNL A   1      35.148  22.927  26.445  1.00  0.00     0.117 C 
ENDROOT
BRANCH   1   2
ATOM      2  N   UNL A   1      34.982  21.532  26.056  1.00  0.00    -0.356 N 
ATOM      3  C   UNL A   1      34.208  20.976  25.084  1.00  0.00     0.220 C 
ATOM      4  O   UNL A   1      34.479  19.844  24.679  1.00  0.00    -0.275 OA
ATOM      5  H   UNL A   1      35.515  20.890  26.579  1.00  0.00     0.163 HD
BRANCH   3   6
ATOM      6  C   UNL A   1      33.038  21.728  24.495  1.00  0.00     0.110 C 
BRANCH   6   7
ATOM      7  C   UNL A   1      33.207  22.294  23.088  1.00  0.00     0.110 C 
BRANCH   7   8
ATOM      8  C   UNL A   1      34.303  23.314  22.862  1.00  0.00     0.224 C 
ATOM      9  N   UNL A   1      34.108  24.663  22.918  1.00  0.00    -0.326 N 
ATOM     10  H   UNL A   1      34.936  25.190  22.850  1.00  0.00     0.169 HD
ATOM     11  O   UNL A   1      35.456  22.913  22.658  1.00  0.00    -0.275 OA
BRANCH   9  12
ATOM     12  C   UNL A   1      32.949  25.442  23.055  1.00  0.00     0.041 A 
ATOM     13  C   UNL A   1      31.037  27.237  25.771  1.00  0.00     0.046 C 
ATOM     14  C   UNL A   1      31.371  26.776  24.383  1.00  0.00    -0.032 A 
ATOM     15  C   UNL A   1      32.407  25.822  24.280  1.00  0.00     0.030 A 
ATOM     16  C   UNL A   1      30.846  27.303  23.193  1.00  0.00     0.057 A 
ATOM     17  C   UNL A   1      31.300  26.821  21.952  1.00  0.00     0.021 A 
ATOM     18  C   UNL A   1      32.336  25.888  21.885  1.00  0.00     0.027 A 
BRANCH  16  19
ATOM     19  S   UNL A   1      29.639  28.608  23.085  1.00  0.00     0.124 S 
ATOM     20  O   UNL A   1      28.344  28.042  23.306  1.00  0.00    -0.237 OA
ATOM     21  O   UNL A   1      30.149  29.717  23.887  1.00  0.00    -0.237 OA
ATOM     22  O   UNL A   1      29.646  29.197  21.586  1.00  0.00    -0.744 OA
ENDBRANCH  16  19
ENDBRANCH   9  12
ENDBRANCH   7   8
ENDBRANCH   6   7
ENDBRANCH   3   6
ENDBRANCH   1   2
BRANCH   1  23
ATOM     23  C   UNL A   1      36.394  23.604  25.890  1.00  0.00     0.042 C 
BRANCH  23  24
ATOM     24  C   UNL A   1      37.486  22.656  25.427  1.00  0.00     0.118 C 
BRANCH  24  25
ATOM     25  N   UNL A   1      38.452  22.261  26.446  1.00  0.00    -0.352 N 
ATOM     26  C   UNL A   1      39.701  22.876  26.512  1.00  0.00     0.251 C 
ATOM     27  H   UNL A   1      38.220  21.555  27.092  1.00  0.00     0.163 HD
ATOM     28  O   UNL A   1      40.768  22.319  26.299  1.00  0.00    -0.269 OA
BRANCH  26  29
ATOM     29  C   UNL A   1      39.640  24.315  26.847  1.00  0.00     0.039 A 
ATOM     30  C   UNL A   1      40.314  25.255  26.065  1.00  0.00     0.014 A 
ATOM     31  C   UNL A   1      39.122  24.656  28.093  1.00  0.00     0.014 A 
ATOM     32  C   UNL A   1      40.631  26.494  26.621  1.00  0.00     0.010 A 
ATOM     33  C   UNL A   1      39.541  25.818  28.683  1.00  0.00     0.010 A 
ATOM     34  C   UNL A   1      40.324  26.720  27.959  1.00  0.00    -0.014 A 
BRANCH  34  35
ATOM     35  C   UNL A   1      40.674  27.896  28.729  1.00  0.00     0.031 A 
ATOM     36  C   UNL A   1      39.682  28.990  28.805  1.00  0.00     0.074 A 
ATOM     37  C   UNL A   1      41.753  27.869  29.541  1.00  0.00     0.049 A 
ATOM     38  N   UNL A   1      39.936  30.159  29.275  1.00  0.00    -0.248 NA
ATOM     39  C   UNL A   1      38.309  28.863  28.311  1.00  0.00     0.031 C 
ATOM     40  C   UNL A   1      42.003  28.715  30.707  1.00  0.00     0.029 A 
ATOM     41  N   UNL A   1      42.922  27.131  29.464  1.00  0.00    -0.354 N 
ATOM     42  C   UNL A   1      38.733  30.807  29.445  1.00  0.00     0.074 A 
ATOM     43  C   UNL A   1      37.768  30.011  28.728  1.00  0.00     0.031 C 
ATOM     44  C   UNL A   1      43.312  28.656  31.012  1.00  0.00     0.029 A 
ATOM     45  C   UNL A   1      43.964  27.938  29.934  1.00  0.00     0.049 A 
ATOM     46  H   UNL A   1      43.004  26.206  29.138  1.00  0.00     0.167 HD
ATOM     47  C   UNL A   1      38.682  31.871  30.291  1.00  0.00     0.031 A 
ATOM     48  C   UNL A   1      44.925  28.484  29.116  1.00  0.00     0.031 A 
ATOM     49  C   UNL A   1      40.009  32.191  30.815  1.00  0.00     0.049 A 
ATOM     50  C   UNL A   1      44.935  30.012  29.097  1.00  0.00     0.074 A 
ATOM     51  C   UNL A   1      40.653  31.957  32.018  1.00  0.00     0.029 A 
ATOM     52  N   UNL A   1      40.989  32.580  29.922  1.00  0.00    -0.354 N 
ATOM     53  N   UNL A   1      44.034  30.761  29.671  1.00  0.00    -0.248 NA
ATOM     54  C   UNL A   1      45.909  30.815  28.353  1.00  0.00     0.031 C 
ATOM     55  C   UNL A   1      42.041  32.224  31.830  1.00  0.00     0.029 A 
ATOM     56  C   UNL A   1      42.226  32.644  30.525  1.00  0.00     0.049 A 
ATOM     57  H   UNL A   1      40.824  32.785  28.973  1.00  0.00     0.167 HD
ATOM     58  C   UNL A   1      44.232  32.075  29.341  1.00  0.00     0.074 A 
ATOM     59  C   UNL A   1      45.428  32.062  28.522  1.00  0.00     0.031 C 
ATOM     60  C   UNL A   1      43.365  33.060  29.725  1.00  0.00     0.031 A 
BRANCH  47  61
ATOM     61  C   UNL A   1      37.426  32.515  30.827  1.00  0.00    -0.014 A 
ATOM     62  C   UNL A   1      36.517  33.080  29.909  1.00  0.00     0.010 A 
ATOM     63  C   UNL A   1      37.092  32.643  32.187  1.00  0.00     0.010 A 
ATOM     64  C   UNL A   1      35.388  33.798  30.319  1.00  0.00     0.020 A 
ATOM     65  C   UNL A   1      35.970  33.371  32.616  1.00  0.00     0.020 A 
ATOM     66  C   UNL A   1      35.133  33.959  31.676  1.00  0.00     0.054 A 
BRANCH  66  67
ATOM     67  S   UNL A   1      33.703  34.944  32.186  1.00  0.00     0.124 S 
ATOM     68  O   UNL A   1      34.332  36.090  32.840  1.00  0.00    -0.237 OA
ATOM     69  O   UNL A   1      33.043  35.227  30.915  1.00  0.00    -0.237 OA
ATOM     70  O   UNL A   1      32.968  34.053  33.081  1.00  0.00    -0.744 OA
ENDBRANCH  66  67
ENDBRANCH  47  61
BRANCH  48  71
ATOM     71  C   UNL A   1      45.245  27.626  27.934  1.00  0.00    -0.014 A 
ATOM     72  C   UNL A   1      44.687  28.002  26.693  1.00  0.00     0.010 A 
ATOM     73  C   UNL A   1      46.411  26.842  27.946  1.00  0.00     0.010 A 
ATOM     74  C   UNL A   1      45.411  27.819  25.512  1.00  0.00     0.020 A 
ATOM     75  C   UNL A   1      47.128  26.640  26.758  1.00  0.00     0.020 A 
ATOM     76  C   UNL A   1      46.669  27.219  25.571  1.00  0.00     0.054 A 
BRANCH  76  77
ATOM     77  S   UNL A   1      47.774  27.391  24.133  1.00  0.00     0.124 S 
ATOM     78  O   UNL A   1      48.920  28.094  24.697  1.00  0.00    -0.237 OA
ATOM     79  O   UNL A   1      48.016  25.995  23.752  1.00  0.00    -0.237 OA
ATOM     80  O   UNL A   1      46.975  28.158  23.183  1.00  0.00    -0.744 OA
ENDBRANCH  76  77
ENDBRANCH  48  71
BRANCH  60  81
ATOM     81  C   UNL A   1      43.476  34.513  29.335  1.00  0.00    -0.014 A 
ATOM     82  C   UNL A   1      43.690  35.541  30.263  1.00  0.00     0.010 A 
ATOM     83  C   UNL A   1      43.242  34.901  27.993  1.00  0.00     0.010 A 
ATOM     84  C   UNL A   1      43.738  36.884  29.856  1.00  0.00     0.020 A 
ATOM     85  C   UNL A   1      43.266  36.233  27.579  1.00  0.00     0.020 A 
ATOM     86  C   UNL A   1      43.535  37.220  28.513  1.00  0.00     0.054 A 
BRANCH  86  87
ATOM     87  S   UNL A   1      43.586  38.956  28.011  1.00  0.00     0.124 S 
ATOM     88  O   UNL A   1      44.629  39.506  28.873  1.00  0.00    -0.237 OA
ATOM     89  O   UNL A   1      43.933  38.851  26.595  1.00  0.00    -0.237 OA
ATOM     90  O   UNL A   1      42.236  39.442  28.285  1.00  0.00    -0.744 OA
ENDBRANCH  86  87
ENDBRANCH  60  81
ENDBRANCH  34  35
ENDBRANCH  26  29
ENDBRANCH  24  25
ENDBRANCH  23  24
ENDBRANCH   1  23
TORSDOF 17
ENDMDL
