MODEL 1
REMARK VINA RESULT:     -12.2      0.000      0.000
REMARK SMILES Cc1cccc(C(=O)N2CCC[C@H]2c2nnc(SCC(=O)Nc3ccc(C(=O)NCCCNC(=O)c4ccc(-c5c6nc(c(-c7ccc(S(=O)(=O)[O-])cc7)c7ccc([nH]7)c(-c7ccc(S(=O)(=O)[O-])cc7)c7nc(c(-c8ccc(S(=O)(=O)[O-])cc8)c8ccc5[nH]8)C=C7)C=C6)cc4)cc3)n2C)c1
REMARK SMILES IDX 27 1 28 2 29 3 26 5 23 6 24 7 97 8 25 9 96 10 22 11 20 12
REMARK SMILES IDX 21 13 19 15 18 16 17 17 14 18 15 19 98 20 16 21 99 22 13 23
REMARK SMILES IDX 9 24 10 25 11 26 12 27 7 28 8 29 6 30 1 31 2 32 3 33 100 34
REMARK SMILES IDX 4 35 5 36 30 37 31 38 32 39 33 40 34 41 35 43 36 44 37 45
REMARK SMILES IDX 95 46 38 47 94 48 39 49 40 50 41 51 88 52 42 53 93 54 87 55
REMARK SMILES IDX 89 56 43 57 92 58 86 59 85 60 44 62 74 63 55 64 73 65 56 66
REMARK SMILES IDX 59 67 72 68 90 69 57 70 58 71 71 73 91 74 60 75 45 76 46 77
REMARK SMILES IDX 54 78 47 79 53 80 48 81 49 82 50 83 51 84 52 85 75 86 76 87
REMARK SMILES IDX 84 88 77 89 83 90 78 91 79 92 80 93 81 94 82 95 61 96 62 97
REMARK SMILES IDX 70 98 63 99 69 100 64 101 65 102 66 103 67 104 68 105
REMARK H PARENT 29 4 22 14 33 42 89 61 59 72
REMARK Flexibility Score: inf
ROOT
ATOM      1  C   UNL A   1      30.200  27.278  23.892  1.00  0.00     0.251 C 
ATOM      2  O   UNL A   1      29.111  26.880  23.480  1.00  0.00    -0.269 OA
ATOM      3  N   UNL A   1      30.605  28.604  23.786  1.00  0.00    -0.352 N 
ATOM      4  H   UNL A   1      30.125  29.102  23.085  1.00  0.00     0.163 HD
ENDROOT
BRANCH   1   5
ATOM      5  C   UNL A   1      31.084  26.293  24.550  1.00  0.00     0.039 A 
ATOM      6  C   UNL A   1      32.274  24.145  25.817  1.00  0.00     0.041 A 
ATOM      7  C   UNL A   1      31.635  25.127  26.567  1.00  0.00     0.027 A 
ATOM      8  C   UNL A   1      32.535  24.351  24.462  1.00  0.00     0.027 A 
ATOM      9  C   UNL A   1      31.078  26.225  25.937  1.00  0.00     0.016 A 
ATOM     10  C   UNL A   1      31.911  25.425  23.816  1.00  0.00     0.016 A 
BRANCH   6  11
ATOM     11  N   UNL A   1      32.622  22.936  26.420  1.00  0.00    -0.325 N 
ATOM     12  C   UNL A   1      33.893  22.426  26.532  1.00  0.00     0.234 C 
ATOM     13  O   UNL A   1      34.034  21.282  26.978  1.00  0.00    -0.274 OA
ATOM     14  H   UNL A   1      31.888  22.400  26.799  1.00  0.00     0.169 HD
BRANCH  12  15
ATOM     15  C   UNL A   1      35.095  23.349  26.383  1.00  0.00     0.178 C 
BRANCH  15  16
ATOM     16  S   UNL A   1      36.450  22.949  25.274  1.00  0.00    -0.076 SA
BRANCH  16  17
ATOM     17  C   UNL A   1      37.928  23.463  25.983  1.00  0.00     0.191 A 
ATOM     18  C   UNL A   1      39.927  23.493  26.867  1.00  0.00     0.156 A 
ATOM     19  N   UNL A   1      39.328  24.623  27.182  1.00  0.00    -0.132 NA
ATOM     20  N   UNL A   1      39.042  22.701  26.167  1.00  0.00    -0.307 N 
ATOM     21  N   UNL A   1      38.069  24.598  26.630  1.00  0.00    -0.123 NA
ATOM     22  C   UNL A   1      39.282  21.331  25.802  1.00  0.00     0.154 C 
BRANCH  18  23
ATOM     23  C   UNL A   1      41.321  23.081  27.172  1.00  0.00     0.154 C 
ATOM     24  N   UNL A   1      42.265  24.187  27.143  1.00  0.00    -0.328 N 
ATOM     25  C   UNL A   1      42.949  24.310  28.422  1.00  0.00     0.120 C 
ATOM     26  C   UNL A   1      42.880  22.893  28.978  1.00  0.00     0.024 C 
ATOM     27  C   UNL A   1      41.478  22.454  28.561  1.00  0.00     0.035 C 
BRANCH  24  28
ATOM     28  C   UNL A   1      42.557  24.775  25.925  1.00  0.00     0.254 C 
ATOM     29  O   UNL A   1      41.787  25.540  25.348  1.00  0.00    -0.269 OA
BRANCH  28  30
ATOM     30  C   UNL A   1      43.725  24.301  25.145  1.00  0.00     0.040 A 
ATOM     31  C   UNL A   1      47.447  25.062  24.935  1.00  0.00     0.044 C 
ATOM     32  C   UNL A   1      46.127  24.375  24.759  1.00  0.00    -0.050 A 
ATOM     33  C   UNL A   1      46.043  23.140  24.107  1.00  0.00     0.003 A 
ATOM     34  C   UNL A   1      44.965  24.936  25.295  1.00  0.00     0.017 A 
ATOM     35  C   UNL A   1      44.814  22.489  23.974  1.00  0.00     0.001 A 
ATOM     36  C   UNL A   1      43.654  23.069  24.490  1.00  0.00     0.014 A 
ENDBRANCH  28  30
ENDBRANCH  24  28
ENDBRANCH  18  23
ENDBRANCH  16  17
ENDBRANCH  15  16
ENDBRANCH  12  15
ENDBRANCH   6  11
ENDBRANCH   1   5
BRANCH   3  37
ATOM     37  C   UNL A   1      31.611  29.433  24.510  1.00  0.00     0.118 C 
BRANCH  37  38
ATOM     38  C   UNL A   1      33.202  29.040  24.502  1.00  0.00     0.042 C 
BRANCH  38  39
ATOM     39  C   UNL A   1      33.819  28.782  25.962  1.00  0.00     0.118 C 
BRANCH  39  40
ATOM     40  N   UNL A   1      34.448  29.776  27.083  1.00  0.00    -0.352 N 
ATOM     41  C   UNL A   1      35.751  30.102  27.764  1.00  0.00     0.251 C 
ATOM     42  H   UNL A   1      33.739  30.359  27.436  1.00  0.00     0.163 HD
ATOM     43  O   UNL A   1      36.092  31.286  27.551  1.00  0.00    -0.269 OA
BRANCH  41  44
ATOM     44  C   UNL A   1      36.814  29.341  28.783  1.00  0.00     0.039 A 
ATOM     45  C   UNL A   1      36.520  29.116  30.177  1.00  0.00     0.014 A 
ATOM     46  C   UNL A   1      38.111  28.914  28.500  1.00  0.00     0.014 A 
ATOM     47  C   UNL A   1      37.585  29.103  31.211  1.00  0.00     0.010 A 
ATOM     48  C   UNL A   1      39.157  28.912  29.505  1.00  0.00     0.010 A 
ATOM     49  C   UNL A   1      38.937  29.297  30.838  1.00  0.00    -0.014 A 
BRANCH  49  50
ATOM     50  C   UNL A   1      39.970  30.260  31.550  1.00  0.00     0.031 A 
ATOM     51  C   UNL A   1      39.501  31.404  32.344  1.00  0.00     0.074 A 
ATOM     52  C   UNL A   1      41.329  30.128  31.791  1.00  0.00     0.049 A 
ATOM     53  N   UNL A   1      39.866  32.641  32.201  1.00  0.00    -0.248 NA
ATOM     54  C   UNL A   1      38.691  31.143  33.521  1.00  0.00     0.031 C 
ATOM     55  C   UNL A   1      42.332  30.961  32.498  1.00  0.00     0.029 A 
ATOM     56  N   UNL A   1      42.195  29.124  31.408  1.00  0.00    -0.354 N 
ATOM     57  C   UNL A   1      39.600  33.243  33.420  1.00  0.00     0.074 A 
ATOM     58  C   UNL A   1      38.691  32.343  34.105  1.00  0.00     0.031 C 
ATOM     59  C   UNL A   1      43.583  30.638  32.072  1.00  0.00     0.029 A 
ATOM     60  C   UNL A   1      43.450  29.609  31.060  1.00  0.00     0.049 A 
ATOM     61  H   UNL A   1      41.950  28.171  31.383  1.00  0.00     0.167 HD
ATOM     62  C   UNL A   1      40.375  34.253  33.933  1.00  0.00     0.031 A 
ATOM     63  C   UNL A   1      43.821  29.623  29.730  1.00  0.00     0.031 A 
ATOM     64  C   UNL A   1      41.635  34.426  33.189  1.00  0.00     0.049 A 
ATOM     65  C   UNL A   1      43.832  31.046  29.213  1.00  0.00     0.074 A 
ATOM     66  C   UNL A   1      42.965  34.214  33.537  1.00  0.00     0.029 A 
ATOM     67  N   UNL A   1      41.627  34.564  31.805  1.00  0.00    -0.354 N 
ATOM     68  N   UNL A   1      43.468  32.055  29.946  1.00  0.00    -0.248 NA
ATOM     69  C   UNL A   1      44.198  31.467  27.863  1.00  0.00     0.031 C 
ATOM     70  C   UNL A   1      43.731  34.123  32.342  1.00  0.00     0.029 A 
ATOM     71  C   UNL A   1      42.882  34.328  31.269  1.00  0.00     0.049 A 
ATOM     72  H   UNL A   1      40.832  34.800  31.274  1.00  0.00     0.167 HD
ATOM     73  C   UNL A   1      43.495  33.210  29.236  1.00  0.00     0.074 A 
ATOM     74  C   UNL A   1      43.990  32.798  27.934  1.00  0.00     0.031 C 
ATOM     75  C   UNL A   1      43.090  34.376  29.819  1.00  0.00     0.031 A 
BRANCH  62  76
ATOM     76  C   UNL A   1      40.135  34.864  35.315  1.00  0.00    -0.014 A 
ATOM     77  C   UNL A   1      40.649  36.132  35.661  1.00  0.00     0.010 A 
ATOM     78  C   UNL A   1      39.344  34.247  36.307  1.00  0.00     0.010 A 
ATOM     79  C   UNL A   1      40.455  36.699  36.938  1.00  0.00     0.020 A 
ATOM     80  C   UNL A   1      39.197  34.763  37.603  1.00  0.00     0.020 A 
ATOM     81  C   UNL A   1      39.747  35.997  37.912  1.00  0.00     0.054 A 
BRANCH  81  82
ATOM     82  S   UNL A   1      39.479  36.733  39.547  1.00  0.00     0.124 S 
ATOM     83  O   UNL A   1      40.838  37.010  40.001  1.00  0.00    -0.237 OA
ATOM     84  O   UNL A   1      38.667  37.905  39.233  1.00  0.00    -0.237 OA
ATOM     85  O   UNL A   1      38.783  35.685  40.292  1.00  0.00    -0.744 OA
ENDBRANCH  81  82
ENDBRANCH  62  76
BRANCH  63  86
ATOM     86  C   UNL A   1      43.332  28.424  28.871  1.00  0.00    -0.014 A 
ATOM     87  C   UNL A   1      42.773  28.738  27.615  1.00  0.00     0.010 A 
ATOM     88  C   UNL A   1      44.278  27.425  28.823  1.00  0.00     0.010 A 
ATOM     89  C   UNL A   1      43.567  28.714  26.449  1.00  0.00     0.020 A 
ATOM     90  C   UNL A   1      45.095  27.496  27.677  1.00  0.00     0.020 A 
ATOM     91  C   UNL A   1      44.856  28.221  26.544  1.00  0.00     0.054 A 
BRANCH  91  92
ATOM     92  S   UNL A   1      46.512  28.960  25.550  1.00  0.00     0.124 S 
ATOM     93  O   UNL A   1      47.699  28.484  26.263  1.00  0.00    -0.237 OA
ATOM     94  O   UNL A   1      46.317  28.336  24.239  1.00  0.00    -0.237 OA
ATOM     95  O   UNL A   1      46.362  30.382  25.535  1.00  0.00    -0.744 OA
ENDBRANCH  91  92
ENDBRANCH  63  86
BRANCH  75  96
ATOM     96  C   UNL A   1      42.921  35.701  29.129  1.00  0.00    -0.014 A 
ATOM     97  C   UNL A   1      42.094  35.925  28.022  1.00  0.00     0.010 A 
ATOM     98  C   UNL A   1      43.574  36.829  29.686  1.00  0.00     0.010 A 
ATOM     99  C   UNL A   1      41.981  37.201  27.456  1.00  0.00     0.020 A 
ATOM    100  C   UNL A   1      43.423  38.111  29.166  1.00  0.00     0.020 A 
ATOM    101  C   UNL A   1      42.650  38.283  28.029  1.00  0.00     0.054 A 
BRANCH 101 102
ATOM    102  S   UNL A   1      42.479  39.925  27.295  1.00  0.00     0.124 S 
ATOM    103  O   UNL A   1      41.373  39.721  26.363  1.00  0.00    -0.237 OA
ATOM    104  O   UNL A   1      42.177  40.764  28.452  1.00  0.00    -0.237 OA
ATOM    105  O   UNL A   1      43.781  40.168  26.679  1.00  0.00    -0.744 OA
ENDBRANCH 101 102
ENDBRANCH  75  96
ENDBRANCH  49  50
ENDBRANCH  41  44
ENDBRANCH  39  40
ENDBRANCH  38  39
ENDBRANCH  37  38
ENDBRANCH   3  37
TORSDOF 20
ENDMDL
MODEL 2
REMARK VINA RESULT:     -12.1      3.753      9.373
REMARK SMILES Cc1cccc(C(=O)N2CCC[C@H]2c2nnc(SCC(=O)Nc3ccc(C(=O)NCCCNC(=O)c4ccc(-c5c6nc(c(-c7ccc(S(=O)(=O)[O-])cc7)c7ccc([nH]7)c(-c7ccc(S(=O)(=O)[O-])cc7)c7nc(c(-c8ccc(S(=O)(=O)[O-])cc8)c8ccc5[nH]8)C=C7)C=C6)cc4)cc3)n2C)c1
REMARK SMILES IDX 27 1 28 2 29 3 26 5 23 6 24 7 97 8 25 9 96 10 22 11 20 12
REMARK SMILES IDX 21 13 19 15 18 16 17 17 14 18 15 19 98 20 16 21 99 22 13 23
REMARK SMILES IDX 9 24 10 25 11 26 12 27 7 28 8 29 6 30 1 31 2 32 3 33 100 34
REMARK SMILES IDX 4 35 5 36 30 37 31 38 32 39 33 40 34 41 35 43 36 44 37 45
REMARK SMILES IDX 95 46 38 47 94 48 39 49 40 50 41 51 88 52 42 53 93 54 87 55
REMARK SMILES IDX 89 56 43 57 92 58 86 59 85 60 44 62 74 63 55 64 73 65 56 66
REMARK SMILES IDX 59 67 72 68 90 69 57 70 58 71 71 73 91 74 60 75 45 76 46 77
REMARK SMILES IDX 54 78 47 79 53 80 48 81 49 82 50 83 51 84 52 85 75 86 76 87
REMARK SMILES IDX 84 88 77 89 83 90 78 91 79 92 80 93 81 94 82 95 61 96 62 97
REMARK SMILES IDX 70 98 63 99 69 100 64 101 65 102 66 103 67 104 68 105
REMARK H PARENT 29 4 22 14 33 42 89 61 59 72
REMARK Flexibility Score: inf
ROOT
ATOM      1  C   UNL A   1      40.279  25.860  27.598  1.00  0.00     0.251 C 
ATOM      2  O   UNL A   1      39.663  25.333  26.673  1.00  0.00    -0.269 OA
ATOM      3  N   UNL A   1      41.394  25.275  28.188  1.00  0.00    -0.352 N 
ATOM      4  H   UNL A   1      41.442  24.302  28.048  1.00  0.00     0.163 HD
ENDROOT
BRANCH   1   5
ATOM      5  C   UNL A   1      39.814  27.184  28.064  1.00  0.00     0.039 A 
ATOM      6  C   UNL A   1      38.518  29.567  28.590  1.00  0.00     0.041 A 
ATOM      7  C   UNL A   1      39.369  29.465  27.494  1.00  0.00     0.027 A 
ATOM      8  C   UNL A   1      38.499  28.566  29.562  1.00  0.00     0.027 A 
ATOM      9  C   UNL A   1      40.052  28.288  27.256  1.00  0.00     0.016 A 
ATOM     10  C   UNL A   1      39.135  27.349  29.283  1.00  0.00     0.016 A 
BRANCH   6  11
ATOM     11  N   UNL A   1      37.657  30.658  28.695  1.00  0.00    -0.325 N 
ATOM     12  C   UNL A   1      36.465  30.814  28.029  1.00  0.00     0.234 C 
ATOM     13  O   UNL A   1      35.870  31.893  28.124  1.00  0.00    -0.274 OA
ATOM     14  H   UNL A   1      37.928  31.384  29.303  1.00  0.00     0.169 HD
BRANCH  12  15
ATOM     15  C   UNL A   1      35.767  29.599  27.432  1.00  0.00     0.178 C 
BRANCH  15  16
ATOM     16  S   UNL A   1      33.982  29.417  27.503  1.00  0.00    -0.076 SA
BRANCH  16  17
ATOM     17  C   UNL A   1      33.410  28.873  25.977  1.00  0.00     0.191 A 
ATOM     18  C   UNL A   1      33.023  27.670  24.194  1.00  0.00     0.156 A 
ATOM     19  N   UNL A   1      32.752  28.926  23.901  1.00  0.00    -0.132 NA
ATOM     20  N   UNL A   1      33.513  27.609  25.481  1.00  0.00    -0.307 N 
ATOM     21  N   UNL A   1      33.003  29.680  25.023  1.00  0.00    -0.123 NA
ATOM     22  C   UNL A   1      34.071  26.431  26.089  1.00  0.00     0.154 C 
BRANCH  18  23
ATOM     23  C   UNL A   1      32.845  26.472  23.333  1.00  0.00     0.154 C 
ATOM     24  N   UNL A   1      31.457  26.226  22.974  1.00  0.00    -0.328 N 
ATOM     25  C   UNL A   1      31.299  26.209  21.527  1.00  0.00     0.120 C 
ATOM     26  C   UNL A   1      32.685  25.803  21.041  1.00  0.00     0.024 C 
ATOM     27  C   UNL A   1      33.595  26.565  22.001  1.00  0.00     0.035 C 
BRANCH  24  28
ATOM     28  C   UNL A   1      30.580  25.819  23.963  1.00  0.00     0.254 C 
ATOM     29  O   UNL A   1      29.671  26.530  24.387  1.00  0.00    -0.269 OA
BRANCH  28  30
ATOM     30  C   UNL A   1      30.865  24.583  24.730  1.00  0.00     0.040 A 
ATOM     31  C   UNL A   1      32.340  21.142  24.051  1.00  0.00     0.044 C 
ATOM     32  C   UNL A   1      31.832  22.350  24.778  1.00  0.00    -0.050 A 
ATOM     33  C   UNL A   1      31.895  22.426  26.173  1.00  0.00     0.003 A 
ATOM     34  C   UNL A   1      31.336  23.444  24.064  1.00  0.00     0.017 A 
ATOM     35  C   UNL A   1      31.448  23.567  26.844  1.00  0.00     0.001 A 
ATOM     36  C   UNL A   1      30.931  24.646  26.125  1.00  0.00     0.014 A 
ENDBRANCH  28  30
ENDBRANCH  24  28
ENDBRANCH  18  23
ENDBRANCH  16  17
ENDBRANCH  15  16
ENDBRANCH  12  15
ENDBRANCH   6  11
ENDBRANCH   1   5
BRANCH   3  37
ATOM     37  C   UNL A   1      42.534  25.809  28.987  1.00  0.00     0.118 C 
BRANCH  37  38
ATOM     38  C   UNL A   1      44.075  25.331  28.697  1.00  0.00     0.042 C 
BRANCH  38  39
ATOM     39  C   UNL A   1      44.758  26.058  27.438  1.00  0.00     0.118 C 
BRANCH  39  40
ATOM     40  N   UNL A   1      44.509  27.499  26.732  1.00  0.00    -0.352 N 
ATOM     41  C   UNL A   1      44.883  28.953  26.865  1.00  0.00     0.251 C 
ATOM     42  H   UNL A   1      43.914  27.385  25.957  1.00  0.00     0.163 HD
ATOM     43  O   UNL A   1      45.494  29.361  25.853  1.00  0.00    -0.269 OA
BRANCH  41  44
ATOM     44  C   UNL A   1      44.635  30.177  27.955  1.00  0.00     0.039 A 
ATOM     45  C   UNL A   1      45.183  30.144  29.289  1.00  0.00     0.014 A 
ATOM     46  C   UNL A   1      43.834  31.307  27.802  1.00  0.00     0.014 A 
ATOM     47  C   UNL A   1      44.485  30.772  30.438  1.00  0.00     0.010 A 
ATOM     48  C   UNL A   1      43.140  31.917  28.922  1.00  0.00     0.010 A 
ATOM     49  C   UNL A   1      43.255  31.444  30.239  1.00  0.00    -0.014 A 
BRANCH  49  50
ATOM     50  C   UNL A   1      41.954  31.283  31.124  1.00  0.00     0.031 A 
ATOM     51  C   UNL A   1      40.963  32.365  31.202  1.00  0.00     0.074 A 
ATOM     52  C   UNL A   1      41.386  30.169  31.722  1.00  0.00     0.049 A 
ATOM     53  N   UNL A   1      40.505  32.912  32.285  1.00  0.00    -0.248 NA
ATOM     54  C   UNL A   1      40.277  32.764  29.985  1.00  0.00     0.031 C 
ATOM     55  C   UNL A   1      40.148  29.943  32.509  1.00  0.00     0.029 A 
ATOM     56  N   UNL A   1      41.845  28.868  31.770  1.00  0.00    -0.354 N 
ATOM     57  C   UNL A   1      39.289  33.471  31.926  1.00  0.00     0.074 A 
ATOM     58  C   UNL A   1      39.309  33.538  30.477  1.00  0.00     0.031 C 
ATOM     59  C   UNL A   1      40.268  28.805  33.243  1.00  0.00     0.029 A 
ATOM     60  C   UNL A   1      41.587  28.257  32.991  1.00  0.00     0.049 A 
ATOM     61  H   UNL A   1      42.305  28.423  31.022  1.00  0.00     0.167 HD
ATOM     62  C   UNL A   1      38.221  33.540  32.786  1.00  0.00     0.031 A 
ATOM     63  C   UNL A   1      42.632  28.030  33.864  1.00  0.00     0.031 A 
ATOM     64  C   UNL A   1      38.428  32.732  34.002  1.00  0.00     0.049 A 
ATOM     65  C   UNL A   1      42.536  28.978  35.041  1.00  0.00     0.074 A 
ATOM     66  C   UNL A   1      37.806  31.583  34.478  1.00  0.00     0.029 A 
ATOM     67  N   UNL A   1      39.586  32.873  34.758  1.00  0.00    -0.354 N 
ATOM     68  N   UNL A   1      41.619  29.894  35.123  1.00  0.00    -0.248 NA
ATOM     69  C   UNL A   1      43.444  29.023  36.184  1.00  0.00     0.031 C 
ATOM     70  C   UNL A   1      38.654  30.986  35.451  1.00  0.00     0.029 A 
ATOM     71  C   UNL A   1      39.768  31.793  35.605  1.00  0.00     0.049 A 
ATOM     72  H   UNL A   1      40.198  33.643  34.699  1.00  0.00     0.167 HD
ATOM     73  C   UNL A   1      41.788  30.658  36.230  1.00  0.00     0.074 A 
ATOM     74  C   UNL A   1      42.935  30.056  36.887  1.00  0.00     0.031 C 
ATOM     75  C   UNL A   1      40.954  31.714  36.462  1.00  0.00     0.031 A 
BRANCH  62  76
ATOM     76  C   UNL A   1      36.852  34.080  32.369  1.00  0.00    -0.014 A 
ATOM     77  C   UNL A   1      36.206  33.629  31.199  1.00  0.00     0.010 A 
ATOM     78  C   UNL A   1      36.117  35.005  33.141  1.00  0.00     0.010 A 
ATOM     79  C   UNL A   1      34.954  34.133  30.789  1.00  0.00     0.020 A 
ATOM     80  C   UNL A   1      34.905  35.568  32.716  1.00  0.00     0.020 A 
ATOM     81  C   UNL A   1      34.320  35.121  31.542  1.00  0.00     0.054 A 
BRANCH  81  82
ATOM     82  S   UNL A   1      32.702  35.755  31.027  1.00  0.00     0.124 S 
ATOM     83  O   UNL A   1      32.487  35.088  29.747  1.00  0.00    -0.237 OA
ATOM     84  O   UNL A   1      31.834  35.321  32.118  1.00  0.00    -0.237 OA
ATOM     85  O   UNL A   1      32.905  37.201  30.942  1.00  0.00    -0.744 OA
ENDBRANCH  81  82
ENDBRANCH  62  76
BRANCH  63  86
ATOM     86  C   UNL A   1      43.988  27.633  33.218  1.00  0.00    -0.014 A 
ATOM     87  C   UNL A   1      45.078  27.468  34.098  1.00  0.00     0.010 A 
ATOM     88  C   UNL A   1      43.832  26.595  32.327  1.00  0.00     0.010 A 
ATOM     89  C   UNL A   1      45.414  26.190  34.594  1.00  0.00     0.020 A 
ATOM     90  C   UNL A   1      44.103  25.335  32.898  1.00  0.00     0.020 A 
ATOM     91  C   UNL A   1      44.754  25.091  34.074  1.00  0.00     0.054 A 
BRANCH  91  92
ATOM     92  S   UNL A   1      44.151  23.423  35.138  1.00  0.00     0.124 S 
ATOM     93  O   UNL A   1      45.115  23.224  36.222  1.00  0.00    -0.237 OA
ATOM     94  O   UNL A   1      42.834  23.878  35.591  1.00  0.00    -0.237 OA
ATOM     95  O   UNL A   1      44.093  22.351  34.193  1.00  0.00    -0.744 OA
ENDBRANCH  91  92
ENDBRANCH  63  86
BRANCH  75  96
ATOM     96  C   UNL A   1      41.101  32.737  37.553  1.00  0.00    -0.014 A 
ATOM     97  C   UNL A   1      42.231  33.540  37.749  1.00  0.00     0.010 A 
ATOM     98  C   UNL A   1      39.986  32.976  38.395  1.00  0.00     0.010 A 
ATOM     99  C   UNL A   1      42.271  34.485  38.782  1.00  0.00     0.020 A 
ATOM    100  C   UNL A   1      39.995  33.952  39.387  1.00  0.00     0.020 A 
ATOM    101  C   UNL A   1      41.155  34.680  39.596  1.00  0.00     0.054 A 
BRANCH 101 102
ATOM    102  S   UNL A   1      41.219  35.916  40.912  1.00  0.00     0.124 S 
ATOM    103  O   UNL A   1      39.881  36.496  40.842  1.00  0.00    -0.237 OA
ATOM    104  O   UNL A   1      41.491  35.108  42.098  1.00  0.00    -0.237 OA
ATOM    105  O   UNL A   1      42.308  36.801  40.505  1.00  0.00    -0.744 OA
ENDBRANCH 101 102
ENDBRANCH  75  96
ENDBRANCH  49  50
ENDBRANCH  41  44
ENDBRANCH  39  40
ENDBRANCH  38  39
ENDBRANCH  37  38
ENDBRANCH   3  37
TORSDOF 20
ENDMDL
MODEL 3
REMARK VINA RESULT:     -11.8      3.344      4.301
REMARK SMILES Cc1cccc(C(=O)N2CCC[C@H]2c2nnc(SCC(=O)Nc3ccc(C(=O)NCCCNC(=O)c4ccc(-c5c6nc(c(-c7ccc(S(=O)(=O)[O-])cc7)c7ccc([nH]7)c(-c7ccc(S(=O)(=O)[O-])cc7)c7nc(c(-c8ccc(S(=O)(=O)[O-])cc8)c8ccc5[nH]8)C=C7)C=C6)cc4)cc3)n2C)c1
REMARK SMILES IDX 27 1 28 2 29 3 26 5 23 6 24 7 97 8 25 9 96 10 22 11 20 12
REMARK SMILES IDX 21 13 19 15 18 16 17 17 14 18 15 19 98 20 16 21 99 22 13 23
REMARK SMILES IDX 9 24 10 25 11 26 12 27 7 28 8 29 6 30 1 31 2 32 3 33 100 34
REMARK SMILES IDX 4 35 5 36 30 37 31 38 32 39 33 40 34 41 35 43 36 44 37 45
REMARK SMILES IDX 95 46 38 47 94 48 39 49 40 50 41 51 88 52 42 53 93 54 87 55
REMARK SMILES IDX 89 56 43 57 92 58 86 59 85 60 44 62 74 63 55 64 73 65 56 66
REMARK SMILES IDX 59 67 72 68 90 69 57 70 58 71 71 73 91 74 60 75 45 76 46 77
REMARK SMILES IDX 54 78 47 79 53 80 48 81 49 82 50 83 51 84 52 85 75 86 76 87
REMARK SMILES IDX 84 88 77 89 83 90 78 91 79 92 80 93 81 94 82 95 61 96 62 97
REMARK SMILES IDX 70 98 63 99 69 100 64 101 65 102 66 103 67 104 68 105
REMARK H PARENT 29 4 22 14 33 42 89 61 59 72
REMARK Flexibility Score: inf
ROOT
ATOM      1  C   UNL A   1      30.372  25.458  25.886  1.00  0.00     0.251 C 
ATOM      2  O   UNL A   1      29.353  25.240  26.539  1.00  0.00    -0.269 OA
ATOM      3  N   UNL A   1      30.676  26.709  25.362  1.00  0.00    -0.352 N 
ATOM      4  H   UNL A   1      29.888  27.291  25.265  1.00  0.00     0.163 HD
ENDROOT
BRANCH   1   5
ATOM      5  C   UNL A   1      31.313  24.334  25.690  1.00  0.00     0.039 A 
ATOM      6  C   UNL A   1      32.621  21.918  25.397  1.00  0.00     0.041 A 
ATOM      7  C   UNL A   1      32.409  22.445  26.667  1.00  0.00     0.027 A 
ATOM      8  C   UNL A   1      32.402  22.702  24.264  1.00  0.00     0.027 A 
ATOM      9  C   UNL A   1      31.795  23.675  26.812  1.00  0.00     0.016 A 
ATOM     10  C   UNL A   1      31.718  23.915  24.411  1.00  0.00     0.016 A 
BRANCH   6  11
ATOM     11  N   UNL A   1      33.018  20.588  25.260  1.00  0.00    -0.325 N 
ATOM     12  C   UNL A   1      34.313  20.138  25.169  1.00  0.00     0.234 C 
ATOM     13  O   UNL A   1      34.509  18.943  24.923  1.00  0.00    -0.274 OA
ATOM     14  H   UNL A   1      32.305  19.911  25.226  1.00  0.00     0.169 HD
BRANCH  12  15
ATOM     15  C   UNL A   1      35.459  21.024  25.642  1.00  0.00     0.178 C 
BRANCH  15  16
ATOM     16  S   UNL A   1      36.549  21.846  24.477  1.00  0.00    -0.076 SA
BRANCH  16  17
ATOM     17  C   UNL A   1      37.845  22.577  25.337  1.00  0.00     0.191 A 
ATOM     18  C   UNL A   1      39.694  22.905  26.454  1.00  0.00     0.156 A 
ATOM     19  N   UNL A   1      38.915  23.950  26.645  1.00  0.00    -0.132 NA
ATOM     20  N   UNL A   1      39.018  21.980  25.688  1.00  0.00    -0.307 N 
ATOM     21  N   UNL A   1      37.751  23.737  25.946  1.00  0.00    -0.123 NA
ATOM     22  C   UNL A   1      39.483  20.647  25.414  1.00  0.00     0.154 C 
BRANCH  18  23
ATOM     23  C   UNL A   1      41.081  22.697  26.944  1.00  0.00     0.154 C 
ATOM     24  N   UNL A   1      41.863  23.923  26.988  1.00  0.00    -0.328 N 
ATOM     25  C   UNL A   1      42.356  24.167  28.335  1.00  0.00     0.120 C 
ATOM     26  C   UNL A   1      42.410  22.768  28.934  1.00  0.00     0.024 C 
ATOM     27  C   UNL A   1      41.144  22.129  28.366  1.00  0.00     0.035 C 
BRANCH  24  28
ATOM     28  C   UNL A   1      42.225  24.519  25.793  1.00  0.00     0.254 C 
ATOM     29  O   UNL A   1      41.452  25.199  25.121  1.00  0.00    -0.269 OA
BRANCH  28  30
ATOM     30  C   UNL A   1      43.508  24.147  25.149  1.00  0.00     0.040 A 
ATOM     31  C   UNL A   1      47.175  25.112  25.450  1.00  0.00     0.044 C 
ATOM     32  C   UNL A   1      45.931  24.367  25.077  1.00  0.00    -0.050 A 
ATOM     33  C   UNL A   1      46.001  23.164  24.366  1.00  0.00     0.003 A 
ATOM     34  C   UNL A   1      44.680  24.838  25.483  1.00  0.00     0.017 A 
ATOM     35  C   UNL A   1      44.838  22.457  24.048  1.00  0.00     0.001 A 
ATOM     36  C   UNL A   1      43.591  22.948  24.436  1.00  0.00     0.014 A 
ENDBRANCH  28  30
ENDBRANCH  24  28
ENDBRANCH  18  23
ENDBRANCH  16  17
ENDBRANCH  15  16
ENDBRANCH  12  15
ENDBRANCH   6  11
ENDBRANCH   1   5
BRANCH   3  37
ATOM     37  C   UNL A   1      31.942  27.359  24.917  1.00  0.00     0.118 C 
BRANCH  37  38
ATOM     38  C   UNL A   1      33.370  27.037  25.656  1.00  0.00     0.042 C 
BRANCH  38  39
ATOM     39  C   UNL A   1      33.954  28.264  26.511  1.00  0.00     0.118 C 
BRANCH  39  40
ATOM     40  N   UNL A   1      33.244  29.507  27.280  1.00  0.00    -0.352 N 
ATOM     41  C   UNL A   1      33.424  30.979  27.549  1.00  0.00     0.251 C 
ATOM     42  H   UNL A   1      32.421  29.193  27.718  1.00  0.00     0.163 HD
ATOM     43  O   UNL A   1      32.471  31.644  27.090  1.00  0.00    -0.269 OA
BRANCH  41  44
ATOM     44  C   UNL A   1      34.502  31.944  28.357  1.00  0.00     0.039 A 
ATOM     45  C   UNL A   1      35.900  31.999  28.006  1.00  0.00     0.014 A 
ATOM     46  C   UNL A   1      34.268  32.727  29.486  1.00  0.00     0.014 A 
ATOM     47  C   UNL A   1      36.954  32.246  29.022  1.00  0.00     0.010 A 
ATOM     48  C   UNL A   1      35.292  32.960  30.487  1.00  0.00     0.010 A 
ATOM     49  C   UNL A   1      36.598  32.454  30.376  1.00  0.00    -0.014 A 
BRANCH  49  50
ATOM     50  C   UNL A   1      37.278  31.774  31.632  1.00  0.00     0.031 A 
ATOM     51  C   UNL A   1      37.472  32.527  32.878  1.00  0.00     0.074 A 
ATOM     52  C   UNL A   1      37.558  30.445  31.912  1.00  0.00     0.049 A 
ATOM     53  N   UNL A   1      38.589  32.675  33.521  1.00  0.00    -0.248 NA
ATOM     54  C   UNL A   1      36.299  33.017  33.580  1.00  0.00     0.031 C 
ATOM     55  C   UNL A   1      38.137  29.743  33.084  1.00  0.00     0.029 A 
ATOM     56  N   UNL A   1      37.380  29.325  31.126  1.00  0.00    -0.354 N 
ATOM     57  C   UNL A   1      38.224  32.983  34.821  1.00  0.00     0.074 A 
ATOM     58  C   UNL A   1      36.833  33.389  34.745  1.00  0.00     0.031 C 
ATOM     59  C   UNL A   1      38.622  28.531  32.704  1.00  0.00     0.029 A 
ATOM     60  C   UNL A   1      38.407  28.401  31.276  1.00  0.00     0.049 A 
ATOM     61  H   UNL A   1      36.610  29.196  30.526  1.00  0.00     0.167 HD
ATOM     62  C   UNL A   1      38.954  32.582  35.912  1.00  0.00     0.031 A 
ATOM     63  C   UNL A   1      39.323  28.243  30.254  1.00  0.00     0.031 A 
ATOM     64  C   UNL A   1      39.986  31.590  35.561  1.00  0.00     0.049 A 
ATOM     65  C   UNL A   1      40.656  28.834  30.661  1.00  0.00     0.074 A 
ATOM     66  C   UNL A   1      40.136  30.244  35.879  1.00  0.00     0.029 A 
ATOM     67  N   UNL A   1      40.879  31.833  34.523  1.00  0.00    -0.354 N 
ATOM     68  N   UNL A   1      40.828  29.449  31.792  1.00  0.00    -0.248 NA
ATOM     69  C   UNL A   1      41.877  28.835  29.859  1.00  0.00     0.031 C 
ATOM     70  C   UNL A   1      41.048  29.665  34.954  1.00  0.00     0.029 A 
ATOM     71  C   UNL A   1      41.493  30.664  34.104  1.00  0.00     0.049 A 
ATOM     72  H   UNL A   1      41.053  32.721  34.136  1.00  0.00     0.167 HD
ATOM     73  C   UNL A   1      42.084  29.951  31.891  1.00  0.00     0.074 A 
ATOM     74  C   UNL A   1      42.722  29.516  30.660  1.00  0.00     0.031 C 
ATOM     75  C   UNL A   1      42.440  30.683  32.987  1.00  0.00     0.031 A 
BRANCH  62  76
ATOM     76  C   UNL A   1      38.512  32.848  37.352  1.00  0.00    -0.014 A 
ATOM     77  C   UNL A   1      38.973  33.972  38.070  1.00  0.00     0.010 A 
ATOM     78  C   UNL A   1      37.577  32.042  38.036  1.00  0.00     0.010 A 
ATOM     79  C   UNL A   1      38.591  34.219  39.406  1.00  0.00     0.020 A 
ATOM     80  C   UNL A   1      37.239  32.233  39.383  1.00  0.00     0.020 A 
ATOM     81  C   UNL A   1      37.741  33.331  40.063  1.00  0.00     0.054 A 
BRANCH  81  82
ATOM     82  S   UNL A   1      37.234  33.658  41.772  1.00  0.00     0.124 S 
ATOM     83  O   UNL A   1      37.448  32.370  42.425  1.00  0.00    -0.237 OA
ATOM     84  O   UNL A   1      38.145  34.728  42.170  1.00  0.00    -0.237 OA
ATOM     85  O   UNL A   1      35.832  34.060  41.649  1.00  0.00    -0.744 OA
ENDBRANCH  81  82
ENDBRANCH  62  76
BRANCH  63  86
ATOM     86  C   UNL A   1      38.763  28.356  28.810  1.00  0.00    -0.014 A 
ATOM     87  C   UNL A   1      39.033  29.557  28.124  1.00  0.00     0.010 A 
ATOM     88  C   UNL A   1      39.039  27.224  28.076  1.00  0.00     0.010 A 
ATOM     89  C   UNL A   1      40.143  29.656  27.256  1.00  0.00     0.020 A 
ATOM     90  C   UNL A   1      40.202  27.349  27.290  1.00  0.00     0.020 A 
ATOM     91  C   UNL A   1      40.857  28.505  26.973  1.00  0.00     0.054 A 
BRANCH  91  92
ATOM     92  S   UNL A   1      42.909  28.377  26.750  1.00  0.00     0.124 S 
ATOM     93  O   UNL A   1      43.372  27.268  27.586  1.00  0.00    -0.237 OA
ATOM     94  O   UNL A   1      42.988  28.110  25.312  1.00  0.00    -0.237 OA
ATOM     95  O   UNL A   1      43.427  29.657  27.124  1.00  0.00    -0.744 OA
ENDBRANCH  91  92
ENDBRANCH  63  86
BRANCH  75  96
ATOM     96  C   UNL A   1      43.733  31.426  33.175  1.00  0.00    -0.014 A 
ATOM     97  C   UNL A   1      43.861  32.820  33.169  1.00  0.00     0.010 A 
ATOM     98  C   UNL A   1      44.897  30.672  33.468  1.00  0.00     0.010 A 
ATOM     99  C   UNL A   1      45.106  33.429  33.375  1.00  0.00     0.020 A 
ATOM    100  C   UNL A   1      46.126  31.269  33.731  1.00  0.00     0.020 A 
ATOM    101  C   UNL A   1      46.230  32.648  33.649  1.00  0.00     0.054 A 
BRANCH 101 102
ATOM    102  S   UNL A   1      47.823  33.451  33.928  1.00  0.00     0.124 S 
ATOM    103  O   UNL A   1      48.043  33.191  35.349  1.00  0.00    -0.237 OA
ATOM    104  O   UNL A   1      48.710  32.733  33.015  1.00  0.00    -0.237 OA
ATOM    105  O   UNL A   1      47.576  34.847  33.577  1.00  0.00    -0.744 OA
ENDBRANCH 101 102
ENDBRANCH  75  96
ENDBRANCH  49  50
ENDBRANCH  41  44
ENDBRANCH  39  40
ENDBRANCH  38  39
ENDBRANCH  37  38
ENDBRANCH   3  37
TORSDOF 20
ENDMDL
