MODEL 1
REMARK VINA RESULT:     -12.7      0.000      0.000
REMARK SMILES O=C(NCCCNC(=O)c1n[nH]c2cc(Br)cc(Cl)c12)c1ccc(-c2c3nc(c(-c4ccc(S(=O)(=O)[O-])cc4)c4ccc([nH]4)c(-c4ccc(S(=O)(=O)[O-])cc4)c4nc(c(-c5ccc(S(=O)(=O)[O-])cc5)c5ccc2[nH]5)C=C4)C=C3)cc1
REMARK SMILES IDX 1 1 2 2 3 3 21 5 22 6 80 7 23 8 79 9 24 10 25 11 26 12 73 13
REMARK SMILES IDX 27 14 78 15 72 16 74 17 28 18 77 19 71 20 70 21 29 23 59 24
REMARK SMILES IDX 40 25 58 26 41 27 44 28 57 29 75 30 42 31 43 32 56 34 76 35
REMARK SMILES IDX 45 36 30 37 31 38 39 39 32 40 38 41 33 42 34 43 35 44 36 45
REMARK SMILES IDX 37 46 60 47 61 48 69 49 62 50 68 51 63 52 64 53 65 54 66 55
REMARK SMILES IDX 67 56 46 57 47 58 55 59 48 60 54 61 49 62 50 63 51 64 52 65
REMARK SMILES IDX 53 66 4 67 5 68 6 69 7 70 8 71 9 73 10 74 11 75 20 76 12 77
REMARK SMILES IDX 13 78 18 79 14 81 17 82 19 83 15 84 16 85
REMARK H PARENT 3 4 74 22 44 33 7 72 12 80
REMARK Flexibility Score: inf
ROOT
ATOM      1  O   UNL A   1      40.519  21.054  26.381  1.00  0.00    -0.269 OA
ATOM      2  C   UNL A   1      39.620  21.896  26.289  1.00  0.00     0.251 C 
ATOM      3  N   UNL A   1      38.526  21.524  25.557  1.00  0.00    -0.352 N 
ATOM      4  H   UNL A   1      38.659  20.665  25.093  1.00  0.00     0.163 HD
ENDROOT
BRANCH   2   5
ATOM      5  C   UNL A   1      39.823  23.230  26.917  1.00  0.00     0.039 A 
ATOM      6  C   UNL A   1      38.998  24.341  26.753  1.00  0.00     0.014 A 
ATOM      7  C   UNL A   1      40.953  23.352  27.750  1.00  0.00     0.014 A 
ATOM      8  C   UNL A   1      39.330  25.562  27.343  1.00  0.00     0.010 A 
ATOM      9  C   UNL A   1      41.278  24.562  28.359  1.00  0.00     0.010 A 
ATOM     10  C   UNL A   1      40.478  25.679  28.133  1.00  0.00    -0.014 A 
BRANCH  10  11
ATOM     11  C   UNL A   1      40.744  26.961  28.786  1.00  0.00     0.031 A 
ATOM     12  C   UNL A   1      41.875  27.765  28.234  1.00  0.00     0.074 A 
ATOM     13  C   UNL A   1      39.948  27.514  29.723  1.00  0.00     0.049 A 
ATOM     14  N   UNL A   1      42.950  28.164  28.836  1.00  0.00    -0.248 NA
ATOM     15  C   UNL A   1      41.814  28.133  26.812  1.00  0.00     0.031 C 
ATOM     16  C   UNL A   1      38.623  27.067  30.160  1.00  0.00     0.029 A 
ATOM     17  N   UNL A   1      40.125  28.683  30.407  1.00  0.00    -0.354 N 
ATOM     18  C   UNL A   1      43.641  28.958  27.920  1.00  0.00     0.074 A 
ATOM     19  C   UNL A   1      42.944  28.827  26.664  1.00  0.00     0.031 C 
ATOM     20  C   UNL A   1      38.028  28.065  30.852  1.00  0.00     0.029 A 
ATOM     21  C   UNL A   1      38.977  29.154  31.024  1.00  0.00     0.049 A 
ATOM     22  H   UNL A   1      40.990  29.149  30.455  1.00  0.00     0.167 HD
ATOM     23  C   UNL A   1      44.657  29.793  28.275  1.00  0.00     0.031 A 
ATOM     24  C   UNL A   1      38.798  30.379  31.577  1.00  0.00     0.031 A 
ATOM     25  C   UNL A   1      45.137  29.548  29.605  1.00  0.00     0.049 A 
ATOM     26  C   UNL A   1      40.135  30.951  31.857  1.00  0.00     0.074 A 
ATOM     27  C   UNL A   1      45.756  28.495  30.247  1.00  0.00     0.029 A 
ATOM     28  N   UNL A   1      44.714  30.400  30.596  1.00  0.00    -0.354 N 
ATOM     29  N   UNL A   1      40.955  30.480  32.755  1.00  0.00    -0.248 NA
ATOM     30  C   UNL A   1      40.732  31.853  30.886  1.00  0.00     0.031 C 
ATOM     31  C   UNL A   1      45.263  28.536  31.584  1.00  0.00     0.029 A 
ATOM     32  C   UNL A   1      44.394  29.625  31.681  1.00  0.00     0.049 A 
ATOM     33  H   UNL A   1      44.653  31.381  30.538  1.00  0.00     0.167 HD
ATOM     34  C   UNL A   1      42.221  30.692  32.233  1.00  0.00     0.074 A 
ATOM     35  C   UNL A   1      42.025  31.646  31.147  1.00  0.00     0.031 C 
ATOM     36  C   UNL A   1      43.264  29.870  32.552  1.00  0.00     0.031 A 
BRANCH  23  37
ATOM     37  C   UNL A   1      45.031  31.048  27.527  1.00  0.00    -0.014 A 
ATOM     38  C   UNL A   1      46.323  31.164  26.974  1.00  0.00     0.010 A 
ATOM     39  C   UNL A   1      44.249  32.218  27.582  1.00  0.00     0.010 A 
ATOM     40  C   UNL A   1      46.827  32.402  26.549  1.00  0.00     0.020 A 
ATOM     41  C   UNL A   1      44.725  33.449  27.122  1.00  0.00     0.020 A 
ATOM     42  C   UNL A   1      46.026  33.541  26.641  1.00  0.00     0.054 A 
BRANCH  42  43
ATOM     43  S   UNL A   1      46.729  35.153  26.210  1.00  0.00     0.124 S 
ATOM     44  O   UNL A   1      45.531  35.974  26.062  1.00  0.00    -0.237 OA
ATOM     45  O   UNL A   1      47.561  35.451  27.371  1.00  0.00    -0.237 OA
ATOM     46  O   UNL A   1      47.463  34.887  24.975  1.00  0.00    -0.744 OA
ENDBRANCH  42  43
ENDBRANCH  23  37
BRANCH  24  47
ATOM     47  C   UNL A   1      37.563  31.199  31.598  1.00  0.00    -0.014 A 
ATOM     48  C   UNL A   1      36.800  31.326  32.774  1.00  0.00     0.010 A 
ATOM     49  C   UNL A   1      37.289  32.088  30.538  1.00  0.00     0.010 A 
ATOM     50  C   UNL A   1      35.849  32.350  32.910  1.00  0.00     0.020 A 
ATOM     51  C   UNL A   1      36.335  33.104  30.661  1.00  0.00     0.020 A 
ATOM     52  C   UNL A   1      35.640  33.248  31.860  1.00  0.00     0.054 A 
BRANCH  52  53
ATOM     53  S   UNL A   1      34.554  34.681  32.116  1.00  0.00     0.124 S 
ATOM     54  O   UNL A   1      35.397  35.574  32.904  1.00  0.00    -0.237 OA
ATOM     55  O   UNL A   1      34.277  35.113  30.748  1.00  0.00    -0.237 OA
ATOM     56  O   UNL A   1      33.406  34.122  32.828  1.00  0.00    -0.744 OA
ENDBRANCH  52  53
ENDBRANCH  24  47
BRANCH  36  57
ATOM     57  C   UNL A   1      43.106  28.931  33.726  1.00  0.00    -0.014 A 
ATOM     58  C   UNL A   1      43.340  29.320  35.060  1.00  0.00     0.010 A 
ATOM     59  C   UNL A   1      42.548  27.663  33.486  1.00  0.00     0.010 A 
ATOM     60  C   UNL A   1      43.042  28.455  36.123  1.00  0.00     0.020 A 
ATOM     61  C   UNL A   1      42.230  26.803  34.542  1.00  0.00     0.020 A 
ATOM     62  C   UNL A   1      42.482  27.203  35.855  1.00  0.00     0.054 A 
BRANCH  62  63
ATOM     63  S   UNL A   1      42.026  26.124  37.242  1.00  0.00     0.124 S 
ATOM     64  O   UNL A   1      43.083  26.388  38.213  1.00  0.00    -0.237 OA
ATOM     65  O   UNL A   1      40.699  26.614  37.611  1.00  0.00    -0.237 OA
ATOM     66  O   UNL A   1      42.039  24.783  36.660  1.00  0.00    -0.744 OA
ENDBRANCH  62  63
ENDBRANCH  36  57
ENDBRANCH  10  11
ENDBRANCH   2   5
BRANCH   3  67
ATOM     67  C   UNL A   1      37.218  22.095  25.301  1.00  0.00     0.118 C 
BRANCH  67  68
ATOM     68  C   UNL A   1      36.826  22.224  23.831  1.00  0.00     0.042 C 
BRANCH  68  69
ATOM     69  C   UNL A   1      35.926  23.410  23.498  1.00  0.00     0.118 C 
BRANCH  69  70
ATOM     70  N   UNL A   1      34.558  23.039  23.174  1.00  0.00    -0.351 N 
ATOM     71  C   UNL A   1      33.473  23.836  22.865  1.00  0.00     0.272 C 
ATOM     72  H   UNL A   1      34.378  22.071  23.175  1.00  0.00     0.163 HD
ATOM     73  O   UNL A   1      32.409  23.288  22.598  1.00  0.00    -0.267 OA
BRANCH  71  74
ATOM     74  C   UNL A   1      33.624  25.296  22.914  1.00  0.00     0.159 A 
ATOM     75  N   UNL A   1      33.752  25.995  21.767  1.00  0.00    -0.169 NA
ATOM     76  C   UNL A   1      33.639  26.167  24.052  1.00  0.00     0.051 A 
ATOM     77  N   UNL A   1      33.757  27.275  22.156  1.00  0.00    -0.277 N 
ATOM     78  C   UNL A   1      33.650  27.451  23.507  1.00  0.00     0.068 A 
ATOM     79  C   UNL A   1      33.614  26.066  25.457  1.00  0.00     0.054 A 
ATOM     80  H   UNL A   1      33.831  28.027  21.523  1.00  0.00     0.190 HD
ATOM     81  C   UNL A   1      33.561  28.616  24.279  1.00  0.00     0.044 A 
ATOM     82  C   UNL A   1      33.501  27.201  26.260  1.00  0.00     0.037 A 
ATOM     83  Cl  UNL A   1      33.786  24.516  26.150  1.00  0.00    -0.083 Cl
ATOM     84  C   UNL A   1      33.461  28.457  25.665  1.00  0.00     0.021 A 
ATOM     85  Br  UNL A   1      33.291  29.995  26.757  1.00  0.00    -0.051 Br
ENDBRANCH  71  74
ENDBRANCH  69  70
ENDBRANCH  68  69
ENDBRANCH  67  68
ENDBRANCH   3  67
TORSDOF 13
ENDMDL
MODEL 2
REMARK VINA RESULT:     -12.5      3.317      9.516
REMARK SMILES O=C(NCCCNC(=O)c1n[nH]c2cc(Br)cc(Cl)c12)c1ccc(-c2c3nc(c(-c4ccc(S(=O)(=O)[O-])cc4)c4ccc([nH]4)c(-c4ccc(S(=O)(=O)[O-])cc4)c4nc(c(-c5ccc(S(=O)(=O)[O-])cc5)c5ccc2[nH]5)C=C4)C=C3)cc1
REMARK SMILES IDX 1 1 2 2 3 3 21 5 22 6 80 7 23 8 79 9 24 10 25 11 26 12 73 13
REMARK SMILES IDX 27 14 78 15 72 16 74 17 28 18 77 19 71 20 70 21 29 23 59 24
REMARK SMILES IDX 40 25 58 26 41 27 44 28 57 29 75 30 42 31 43 32 56 34 76 35
REMARK SMILES IDX 45 36 30 37 31 38 39 39 32 40 38 41 33 42 34 43 35 44 36 45
REMARK SMILES IDX 37 46 60 47 61 48 69 49 62 50 68 51 63 52 64 53 65 54 66 55
REMARK SMILES IDX 67 56 46 57 47 58 55 59 48 60 54 61 49 62 50 63 51 64 52 65
REMARK SMILES IDX 53 66 4 67 5 68 6 69 7 70 8 71 9 73 10 74 11 75 20 76 12 77
REMARK SMILES IDX 13 78 18 79 14 81 17 82 19 83 15 84 16 85
REMARK H PARENT 3 4 74 22 44 33 7 72 12 80
REMARK Flexibility Score: inf
ROOT
ATOM      1  O   UNL A   1      34.223  32.781  28.160  1.00  0.00    -0.269 OA
ATOM      2  C   UNL A   1      34.379  31.596  27.849  1.00  0.00     0.251 C 
ATOM      3  N   UNL A   1      33.269  30.954  27.368  1.00  0.00    -0.352 N 
ATOM      4  H   UNL A   1      32.454  31.500  27.452  1.00  0.00     0.163 HD
ENDROOT
BRANCH   2   5
ATOM      5  C   UNL A   1      35.708  30.968  28.073  1.00  0.00     0.039 A 
ATOM      6  C   UNL A   1      36.031  29.634  27.824  1.00  0.00     0.014 A 
ATOM      7  C   UNL A   1      36.714  31.818  28.574  1.00  0.00     0.014 A 
ATOM      8  C   UNL A   1      37.300  29.144  28.138  1.00  0.00     0.010 A 
ATOM      9  C   UNL A   1      37.989  31.338  28.869  1.00  0.00     0.010 A 
ATOM     10  C   UNL A   1      38.275  29.990  28.674  1.00  0.00    -0.014 A 
BRANCH  10  11
ATOM     11  C   UNL A   1      39.610  29.443  28.920  1.00  0.00     0.031 A 
ATOM     12  C   UNL A   1      40.024  29.319  30.350  1.00  0.00     0.074 A 
ATOM     13  C   UNL A   1      40.399  28.912  27.965  1.00  0.00     0.049 A 
ATOM     14  N   UNL A   1      41.031  29.870  30.949  1.00  0.00    -0.248 NA
ATOM     15  C   UNL A   1      39.174  28.505  31.233  1.00  0.00     0.031 C 
ATOM     16  C   UNL A   1      40.057  28.622  26.570  1.00  0.00     0.029 A 
ATOM     17  N   UNL A   1      41.661  28.407  28.089  1.00  0.00    -0.354 N 
ATOM     18  C   UNL A   1      41.037  29.365  32.250  1.00  0.00     0.074 A 
ATOM     19  C   UNL A   1      39.821  28.604  32.396  1.00  0.00     0.031 C 
ATOM     20  C   UNL A   1      40.992  27.794  26.051  1.00  0.00     0.029 A 
ATOM     21  C   UNL A   1      42.059  27.615  27.022  1.00  0.00     0.049 A 
ATOM     22  H   UNL A   1      42.236  28.589  28.867  1.00  0.00     0.167 HD
ATOM     23  C   UNL A   1      42.107  29.475  33.087  1.00  0.00     0.031 A 
ATOM     24  C   UNL A   1      43.152  26.816  26.971  1.00  0.00     0.031 A 
ATOM     25  C   UNL A   1      43.087  30.410  32.613  1.00  0.00     0.049 A 
ATOM     26  C   UNL A   1      44.104  27.278  28.007  1.00  0.00     0.074 A 
ATOM     27  C   UNL A   1      43.113  31.768  32.374  1.00  0.00     0.029 A 
ATOM     28  N   UNL A   1      44.208  29.897  32.006  1.00  0.00    -0.354 N 
ATOM     29  N   UNL A   1      44.730  28.420  27.963  1.00  0.00    -0.248 NA
ATOM     30  C   UNL A   1      44.107  26.620  29.304  1.00  0.00     0.031 C 
ATOM     31  C   UNL A   1      43.981  31.930  31.254  1.00  0.00     0.029 A 
ATOM     32  C   UNL A   1      44.448  30.664  30.895  1.00  0.00     0.049 A 
ATOM     33  H   UNL A   1      44.737  29.125  32.311  1.00  0.00     0.167 HD
ATOM     34  C   UNL A   1      44.849  28.817  29.285  1.00  0.00     0.074 A 
ATOM     35  C   UNL A   1      44.562  27.618  30.064  1.00  0.00     0.031 C 
ATOM     36  C   UNL A   1      44.903  30.138  29.625  1.00  0.00     0.031 A 
BRANCH  23  37
ATOM     37  C   UNL A   1      42.420  28.510  34.202  1.00  0.00    -0.014 A 
ATOM     38  C   UNL A   1      42.586  29.000  35.514  1.00  0.00     0.010 A 
ATOM     39  C   UNL A   1      42.820  27.181  33.957  1.00  0.00     0.010 A 
ATOM     40  C   UNL A   1      43.175  28.216  36.517  1.00  0.00     0.020 A 
ATOM     41  C   UNL A   1      43.369  26.377  34.960  1.00  0.00     0.020 A 
ATOM     42  C   UNL A   1      43.578  26.912  36.226  1.00  0.00     0.054 A 
BRANCH  42  43
ATOM     43  S   UNL A   1      44.451  25.954  37.489  1.00  0.00     0.124 S 
ATOM     44  O   UNL A   1      45.820  26.438  37.343  1.00  0.00    -0.237 OA
ATOM     45  O   UNL A   1      43.766  26.355  38.715  1.00  0.00    -0.237 OA
ATOM     46  O   UNL A   1      44.230  24.567  37.083  1.00  0.00    -0.744 OA
ENDBRANCH  42  43
ENDBRANCH  23  37
BRANCH  24  47
ATOM     47  C   UNL A   1      43.292  25.505  26.291  1.00  0.00    -0.014 A 
ATOM     48  C   UNL A   1      44.228  25.325  25.256  1.00  0.00     0.010 A 
ATOM     49  C   UNL A   1      42.705  24.353  26.854  1.00  0.00     0.010 A 
ATOM     50  C   UNL A   1      44.615  24.037  24.849  1.00  0.00     0.020 A 
ATOM     51  C   UNL A   1      43.076  23.067  26.447  1.00  0.00     0.020 A 
ATOM     52  C   UNL A   1      44.053  22.916  25.465  1.00  0.00     0.054 A 
BRANCH  52  53
ATOM     53  S   UNL A   1      44.699  21.265  25.071  1.00  0.00     0.124 S 
ATOM     54  O   UNL A   1      44.625  21.241  23.613  1.00  0.00    -0.237 OA
ATOM     55  O   UNL A   1      46.045  21.311  25.636  1.00  0.00    -0.237 OA
ATOM     56  O   UNL A   1      43.775  20.361  25.755  1.00  0.00    -0.744 OA
ENDBRANCH  52  53
ENDBRANCH  24  47
BRANCH  36  57
ATOM     57  C   UNL A   1      45.159  31.152  28.533  1.00  0.00    -0.014 A 
ATOM     58  C   UNL A   1      44.142  31.662  27.703  1.00  0.00     0.010 A 
ATOM     59  C   UNL A   1      46.441  31.725  28.453  1.00  0.00     0.010 A 
ATOM     60  C   UNL A   1      44.406  32.705  26.803  1.00  0.00     0.020 A 
ATOM     61  C   UNL A   1      46.706  32.778  27.572  1.00  0.00     0.020 A 
ATOM     62  C   UNL A   1      45.687  33.260  26.748  1.00  0.00     0.054 A 
BRANCH  62  63
ATOM     63  S   UNL A   1      45.997  34.662  25.637  1.00  0.00     0.124 S 
ATOM     64  O   UNL A   1      47.424  34.534  25.353  1.00  0.00    -0.237 OA
ATOM     65  O   UNL A   1      45.106  34.385  24.511  1.00  0.00    -0.237 OA
ATOM     66  O   UNL A   1      45.626  35.829  26.435  1.00  0.00    -0.744 OA
ENDBRANCH  62  63
ENDBRANCH  36  57
ENDBRANCH  10  11
ENDBRANCH   2   5
BRANCH   3  67
ATOM     67  C   UNL A   1      33.012  29.661  26.767  1.00  0.00     0.118 C 
BRANCH  67  68
ATOM     68  C   UNL A   1      32.625  29.682  25.290  1.00  0.00     0.042 C 
BRANCH  68  69
ATOM     69  C   UNL A   1      31.127  29.768  25.010  1.00  0.00     0.118 C 
BRANCH  69  70
ATOM     70  N   UNL A   1      30.799  29.915  23.601  1.00  0.00    -0.351 N 
ATOM     71  C   UNL A   1      30.282  28.994  22.711  1.00  0.00     0.272 C 
ATOM     72  H   UNL A   1      30.972  30.808  23.224  1.00  0.00     0.163 HD
ATOM     73  O   UNL A   1      30.060  29.360  21.561  1.00  0.00    -0.267 OA
BRANCH  71  74
ATOM     74  C   UNL A   1      30.062  27.613  23.161  1.00  0.00     0.159 A 
ATOM     75  N   UNL A   1      28.878  27.266  23.705  1.00  0.00    -0.169 NA
ATOM     76  C   UNL A   1      30.949  26.489  23.096  1.00  0.00     0.051 A 
ATOM     77  N   UNL A   1      28.974  25.945  23.896  1.00  0.00    -0.277 N 
ATOM     78  C   UNL A   1      30.171  25.409  23.515  1.00  0.00     0.068 A 
ATOM     79  C   UNL A   1      32.278  26.214  22.719  1.00  0.00     0.054 A 
ATOM     80  H   UNL A   1      28.244  25.406  24.280  1.00  0.00     0.190 HD
ATOM     81  C   UNL A   1      30.624  24.083  23.502  1.00  0.00     0.044 A 
ATOM     82  C   UNL A   1      32.759  24.906  22.669  1.00  0.00     0.037 A 
ATOM     83  Cl  UNL A   1      33.302  27.538  22.380  1.00  0.00    -0.083 Cl
ATOM     84  C   UNL A   1      31.927  23.858  23.045  1.00  0.00     0.021 A 
ATOM     85  Br  UNL A   1      32.577  22.082  22.963  1.00  0.00    -0.051 Br
ENDBRANCH  71  74
ENDBRANCH  69  70
ENDBRANCH  68  69
ENDBRANCH  67  68
ENDBRANCH   3  67
TORSDOF 13
ENDMDL
MODEL 3
REMARK VINA RESULT:     -12.4      1.164      1.633
REMARK SMILES O=C(NCCCNC(=O)c1n[nH]c2cc(Br)cc(Cl)c12)c1ccc(-c2c3nc(c(-c4ccc(S(=O)(=O)[O-])cc4)c4ccc([nH]4)c(-c4ccc(S(=O)(=O)[O-])cc4)c4nc(c(-c5ccc(S(=O)(=O)[O-])cc5)c5ccc2[nH]5)C=C4)C=C3)cc1
REMARK SMILES IDX 1 1 2 2 3 3 21 5 22 6 80 7 23 8 79 9 24 10 25 11 26 12 73 13
REMARK SMILES IDX 27 14 78 15 72 16 74 17 28 18 77 19 71 20 70 21 29 23 59 24
REMARK SMILES IDX 40 25 58 26 41 27 44 28 57 29 75 30 42 31 43 32 56 34 76 35
REMARK SMILES IDX 45 36 30 37 31 38 39 39 32 40 38 41 33 42 34 43 35 44 36 45
REMARK SMILES IDX 37 46 60 47 61 48 69 49 62 50 68 51 63 52 64 53 65 54 66 55
REMARK SMILES IDX 67 56 46 57 47 58 55 59 48 60 54 61 49 62 50 63 51 64 52 65
REMARK SMILES IDX 53 66 4 67 5 68 6 69 7 70 8 71 9 73 10 74 11 75 20 76 12 77
REMARK SMILES IDX 13 78 18 79 14 81 17 82 19 83 15 84 16 85
REMARK H PARENT 3 4 74 22 44 33 7 72 12 80
REMARK Flexibility Score: inf
ROOT
ATOM      1  O   UNL A   1      40.343  21.008  26.349  1.00  0.00    -0.269 OA
ATOM      2  C   UNL A   1      39.489  21.893  26.239  1.00  0.00     0.251 C 
ATOM      3  N   UNL A   1      38.380  21.564  25.507  1.00  0.00    -0.352 N 
ATOM      4  H   UNL A   1      38.471  20.693  25.058  1.00  0.00     0.163 HD
ENDROOT
BRANCH   2   5
ATOM      5  C   UNL A   1      39.757  23.225  26.846  1.00  0.00     0.039 A 
ATOM      6  C   UNL A   1      38.968  24.364  26.692  1.00  0.00     0.014 A 
ATOM      7  C   UNL A   1      40.912  23.314  27.647  1.00  0.00     0.014 A 
ATOM      8  C   UNL A   1      39.360  25.578  27.259  1.00  0.00     0.010 A 
ATOM      9  C   UNL A   1      41.297  24.518  28.234  1.00  0.00     0.010 A 
ATOM     10  C   UNL A   1      40.532  25.661  28.017  1.00  0.00    -0.014 A 
BRANCH  10  11
ATOM     11  C   UNL A   1      40.862  26.939  28.648  1.00  0.00     0.031 A 
ATOM     12  C   UNL A   1      42.055  27.658  28.108  1.00  0.00     0.074 A 
ATOM     13  C   UNL A   1      40.079  27.562  29.551  1.00  0.00     0.049 A 
ATOM     14  N   UNL A   1      43.137  28.003  28.729  1.00  0.00    -0.248 NA
ATOM     15  C   UNL A   1      42.052  27.995  26.677  1.00  0.00     0.031 C 
ATOM     16  C   UNL A   1      38.719  27.209  29.964  1.00  0.00     0.029 A 
ATOM     17  N   UNL A   1      40.312  28.733  30.213  1.00  0.00    -0.354 N 
ATOM     18  C   UNL A   1      43.898  28.731  27.814  1.00  0.00     0.074 A 
ATOM     19  C   UNL A   1      43.226  28.614  26.543  1.00  0.00     0.031 C 
ATOM     20  C   UNL A   1      38.170  28.258  30.617  1.00  0.00     0.029 A 
ATOM     21  C   UNL A   1      39.181  29.290  30.790  1.00  0.00     0.049 A 
ATOM     22  H   UNL A   1      41.204  29.146  30.274  1.00  0.00     0.167 HD
ATOM     23  C   UNL A   1      44.956  29.510  28.176  1.00  0.00     0.031 A 
ATOM     24  C   UNL A   1      39.066  30.536  31.310  1.00  0.00     0.031 A 
ATOM     25  C   UNL A   1      45.387  29.267  29.524  1.00  0.00     0.049 A 
ATOM     26  C   UNL A   1      40.429  31.031  31.613  1.00  0.00     0.074 A 
ATOM     27  C   UNL A   1      45.922  28.193  30.204  1.00  0.00     0.029 A 
ATOM     28  N   UNL A   1      44.994  30.167  30.485  1.00  0.00    -0.354 N 
ATOM     29  N   UNL A   1      41.194  30.531  32.542  1.00  0.00    -0.248 NA
ATOM     30  C   UNL A   1      41.105  31.871  30.638  1.00  0.00     0.031 C 
ATOM     31  C   UNL A   1      45.401  28.296  31.527  1.00  0.00     0.029 A 
ATOM     32  C   UNL A   1      44.599  29.439  31.577  1.00  0.00     0.049 A 
ATOM     33  H   UNL A   1      44.996  31.148  30.403  1.00  0.00     0.167 HD
ATOM     34  C   UNL A   1      42.484  30.652  32.048  1.00  0.00     0.074 A 
ATOM     35  C   UNL A   1      42.375  31.590  30.938  1.00  0.00     0.031 C 
ATOM     36  C   UNL A   1      43.466  29.775  32.413  1.00  0.00     0.031 A 
BRANCH  23  37
ATOM     37  C   UNL A   1      45.426  30.721  27.411  1.00  0.00    -0.014 A 
ATOM     38  C   UNL A   1      46.807  30.905  27.188  1.00  0.00     0.010 A 
ATOM     39  C   UNL A   1      44.580  31.814  27.138  1.00  0.00     0.010 A 
ATOM     40  C   UNL A   1      47.319  32.141  26.768  1.00  0.00     0.020 A 
ATOM     41  C   UNL A   1      45.076  33.037  26.679  1.00  0.00     0.020 A 
ATOM     42  C   UNL A   1      46.448  33.205  26.530  1.00  0.00     0.054 A 
BRANCH  42  43
ATOM     43  S   UNL A   1      47.130  34.829  26.112  1.00  0.00     0.124 S 
ATOM     44  O   UNL A   1      47.859  35.173  27.328  1.00  0.00    -0.237 OA
ATOM     45  O   UNL A   1      47.953  34.530  24.943  1.00  0.00    -0.237 OA
ATOM     46  O   UNL A   1      45.944  35.640  25.842  1.00  0.00    -0.744 OA
ENDBRANCH  42  43
ENDBRANCH  23  37
BRANCH  24  47
ATOM     47  C   UNL A   1      37.884  31.431  31.281  1.00  0.00    -0.014 A 
ATOM     48  C   UNL A   1      36.582  30.913  31.411  1.00  0.00     0.010 A 
ATOM     49  C   UNL A   1      38.052  32.825  31.413  1.00  0.00     0.010 A 
ATOM     50  C   UNL A   1      35.501  31.750  31.731  1.00  0.00     0.020 A 
ATOM     51  C   UNL A   1      36.978  33.667  31.721  1.00  0.00     0.020 A 
ATOM     52  C   UNL A   1      35.711  33.119  31.908  1.00  0.00     0.054 A 
BRANCH  52  53
ATOM     53  S   UNL A   1      34.350  34.160  32.512  1.00  0.00     0.124 S 
ATOM     54  O   UNL A   1      33.691  34.560  31.273  1.00  0.00    -0.237 OA
ATOM     55  O   UNL A   1      33.600  33.236  33.359  1.00  0.00    -0.237 OA
ATOM     56  O   UNL A   1      35.032  35.237  33.229  1.00  0.00    -0.744 OA
ENDBRANCH  52  53
ENDBRANCH  24  47
BRANCH  36  57
ATOM     57  C   UNL A   1      43.220  28.875  33.603  1.00  0.00    -0.014 A 
ATOM     58  C   UNL A   1      43.447  29.280  34.934  1.00  0.00     0.010 A 
ATOM     59  C   UNL A   1      42.589  27.639  33.377  1.00  0.00     0.010 A 
ATOM     60  C   UNL A   1      43.068  28.461  36.007  1.00  0.00     0.020 A 
ATOM     61  C   UNL A   1      42.191  26.826  34.443  1.00  0.00     0.020 A 
ATOM     62  C   UNL A   1      42.437  27.240  35.753  1.00  0.00     0.054 A 
BRANCH  62  63
ATOM     63  S   UNL A   1      41.880  26.225  37.151  1.00  0.00     0.124 S 
ATOM     64  O   UNL A   1      42.936  26.433  38.137  1.00  0.00    -0.237 OA
ATOM     65  O   UNL A   1      40.585  26.815  37.484  1.00  0.00    -0.237 OA
ATOM     66  O   UNL A   1      41.809  24.874  36.595  1.00  0.00    -0.744 OA
ENDBRANCH  62  63
ENDBRANCH  36  57
ENDBRANCH  10  11
ENDBRANCH   2   5
BRANCH   3  67
ATOM     67  C   UNL A   1      37.104  22.197  25.237  1.00  0.00     0.118 C 
BRANCH  67  68
ATOM     68  C   UNL A   1      35.889  21.549  25.898  1.00  0.00     0.042 C 
BRANCH  68  69
ATOM     69  C   UNL A   1      34.957  20.797  24.953  1.00  0.00     0.118 C 
BRANCH  69  70
ATOM     70  N   UNL A   1      33.562  20.819  25.360  1.00  0.00    -0.351 N 
ATOM     71  C   UNL A   1      32.497  21.529  24.839  1.00  0.00     0.272 C 
ATOM     72  H   UNL A   1      33.342  20.240  26.125  1.00  0.00     0.163 HD
ATOM     73  O   UNL A   1      31.390  21.364  25.339  1.00  0.00    -0.267 OA
BRANCH  71  74
ATOM     74  C   UNL A   1      32.741  22.478  23.745  1.00  0.00     0.159 A 
ATOM     75  N   UNL A   1      32.589  22.079  22.465  1.00  0.00    -0.169 NA
ATOM     76  C   UNL A   1      33.119  23.859  23.813  1.00  0.00     0.051 A 
ATOM     77  N   UNL A   1      32.775  23.192  21.746  1.00  0.00    -0.277 N 
ATOM     78  C   UNL A   1      33.054  24.302  22.491  1.00  0.00     0.068 A 
ATOM     79  C   UNL A   1      33.475  24.808  24.791  1.00  0.00     0.054 A 
ATOM     80  H   UNL A   1      32.716  23.209  20.762  1.00  0.00     0.190 HD
ATOM     81  C   UNL A   1      33.249  25.637  22.116  1.00  0.00     0.044 A 
ATOM     82  C   UNL A   1      33.654  26.151  24.462  1.00  0.00     0.037 A 
ATOM     83  Cl  UNL A   1      33.740  24.253  26.384  1.00  0.00    -0.083 Cl
ATOM     84  C   UNL A   1      33.525  26.553  23.137  1.00  0.00     0.021 A 
ATOM     85  Br  UNL A   1      33.753  28.380  22.696  1.00  0.00    -0.051 Br
ENDBRANCH  71  74
ENDBRANCH  69  70
ENDBRANCH  68  69
ENDBRANCH  67  68
ENDBRANCH   3  67
TORSDOF 13
ENDMDL
