MODEL 1
REMARK VINA RESULT:     -14.1      0.000      0.000
REMARK SMILES Cc1cccc(-c2ncc([C@@H]3[NH2+][C@H](C(=O)NCCCNC(=O)c4ccc(-c5c6nc(c(-c7ccc(S(=O)(=O)[O-])cc7)c7ccc([nH]7)c(-c7ccc(S(=O)(=O)[O-])cc7)c7nc(c(-c8ccc(S(=O)(=O)[O-])cc8)c8ccc5[nH]8)C=C7)C=C6)cc4)C(C)(C)S3)s2)c1
REMARK SMILES IDX 18 1 17 2 16 3 14 4 15 5 13 7 11 8 12 9 86 10 83 13 84 14
REMARK SMILES IDX 85 15 10 16 7 17 8 18 87 19 9 20 6 21 1 22 2 23 3 24 88 25
REMARK SMILES IDX 4 26 5 27 19 28 20 29 21 30 22 32 23 33 24 34 82 35 25 36
REMARK SMILES IDX 81 37 26 38 27 39 28 40 75 41 29 42 80 43 74 44 76 45 30 46
REMARK SMILES IDX 79 47 73 48 72 49 31 51 61 52 42 53 60 54 43 55 46 56 59 57
REMARK SMILES IDX 77 58 44 59 45 60 58 62 78 63 47 64 32 65 33 66 41 67 34 68
REMARK SMILES IDX 40 69 35 70 36 71 37 72 38 73 39 74 62 75 63 76 71 77 64 78
REMARK SMILES IDX 70 79 65 80 66 81 67 82 68 83 69 84 48 85 49 86 57 87 50 88
REMARK SMILES IDX 56 89 51 90 52 91 53 92 54 93 55 94
REMARK H PARENT 16 6 12 11 12 12 20 31 76 50 46 61
REMARK Flexibility Score: inf
ROOT
ATOM      1  C   UNL A   1      33.386  30.543  26.710  1.00  0.00     0.042 C 
ENDROOT
BRANCH   1   2
ATOM      2  C   UNL A   1      32.773  29.474  25.811  1.00  0.00     0.118 C 
BRANCH   2   3
ATOM      3  N   UNL A   1      33.634  29.201  24.682  1.00  0.00    -0.351 N 
ATOM      4  C   UNL A   1      33.438  28.912  23.378  1.00  0.00     0.279 C 
ATOM      5  O   UNL A   1      34.498  28.912  22.731  1.00  0.00    -0.268 OA
ATOM      6  H   UNL A   1      34.589  29.234  24.919  1.00  0.00     0.163 HD
BRANCH   4   7
ATOM      7  C   UNL A   1      32.057  28.774  22.627  1.00  0.00     0.289 C 
ATOM      8  C   UNL A   1      31.463  26.441  22.958  1.00  0.00     0.286 C 
ATOM      9  N   UNL A   1      32.056  27.392  22.005  1.00  0.00    -0.319 N 
ATOM     10  S   UNL A   1      30.140  27.303  23.831  1.00  0.00    -0.080 SA
ATOM     11  H   UNL A   1      31.507  27.404  21.146  1.00  0.00     0.348 HD
ATOM     12  H   UNL A   1      33.013  27.111  21.787  1.00  0.00     0.348 HD
ATOM     13  C   UNL A   1      30.606  28.943  23.178  1.00  0.00     0.077 C 
ATOM     14  C   UNL A   1      29.627  29.241  22.012  1.00  0.00     0.030 C 
ATOM     15  C   UNL A   1      30.302  29.956  24.262  1.00  0.00     0.030 C 
BRANCH   8  16
ATOM     16  C   UNL A   1      32.417  25.775  23.904  1.00  0.00     0.093 A 
ATOM     17  C   UNL A   1      34.244  24.472  24.904  1.00  0.00     0.123 A 
ATOM     18  N   UNL A   1      33.378  24.832  25.829  1.00  0.00    -0.244 NA
ATOM     19  S   UNL A   1      33.840  25.004  23.311  1.00  0.00    -0.112 S 
ATOM     20  C   UNL A   1      32.366  25.588  25.274  1.00  0.00     0.134 A 
BRANCH  17  21
ATOM     21  C   UNL A   1      35.420  23.620  25.169  1.00  0.00     0.011 A 
ATOM     22  C   UNL A   1      36.291  19.902  24.867  1.00  0.00     0.044 C 
ATOM     23  C   UNL A   1      36.410  21.375  25.138  1.00  0.00    -0.050 A 
ATOM     24  C   UNL A   1      37.612  21.904  25.616  1.00  0.00     0.003 A 
ATOM     25  C   UNL A   1      35.324  22.237  24.925  1.00  0.00     0.014 A 
ATOM     26  C   UNL A   1      37.724  23.268  25.880  1.00  0.00     0.001 A 
ATOM     27  C   UNL A   1      36.636  24.119  25.660  1.00  0.00     0.011 A 
ENDBRANCH  17  21
ENDBRANCH   8  16
ENDBRANCH   4   7
ENDBRANCH   2   3
ENDBRANCH   1   2
BRANCH   1  28
ATOM     28  C   UNL A   1      34.511  30.054  27.614  1.00  0.00     0.118 C 
BRANCH  28  29
ATOM     29  N   UNL A   1      35.434  31.158  27.883  1.00  0.00    -0.352 N 
ATOM     30  C   UNL A   1      36.759  31.133  28.292  1.00  0.00     0.251 C 
ATOM     31  H   UNL A   1      35.055  32.058  27.753  1.00  0.00     0.163 HD
ATOM     32  O   UNL A   1      37.359  32.092  28.688  1.00  0.00    -0.269 OA
BRANCH  30  33
ATOM     33  C   UNL A   1      37.430  29.832  28.110  1.00  0.00     0.039 A 
ATOM     34  C   UNL A   1      37.441  29.002  29.237  1.00  0.00     0.014 A 
ATOM     35  C   UNL A   1      38.353  29.702  27.077  1.00  0.00     0.014 A 
ATOM     36  C   UNL A   1      38.528  28.169  29.443  1.00  0.00     0.010 A 
ATOM     37  C   UNL A   1      39.460  28.907  27.313  1.00  0.00     0.010 A 
ATOM     38  C   UNL A   1      39.580  28.216  28.533  1.00  0.00    -0.014 A 
BRANCH  38  39
ATOM     39  C   UNL A   1      40.890  27.646  28.820  1.00  0.00     0.031 A 
ATOM     40  C   UNL A   1      41.104  26.203  28.558  1.00  0.00     0.074 A 
ATOM     41  C   UNL A   1      41.905  28.416  29.284  1.00  0.00     0.049 A 
ATOM     42  N   UNL A   1      42.089  25.517  29.029  1.00  0.00    -0.248 NA
ATOM     43  C   UNL A   1      40.149  25.379  27.809  1.00  0.00     0.031 C 
ATOM     44  C   UNL A   1      43.321  28.044  29.321  1.00  0.00     0.029 A 
ATOM     45  N   UNL A   1      41.902  29.642  29.955  1.00  0.00    -0.354 N 
ATOM     46  C   UNL A   1      42.086  24.302  28.389  1.00  0.00     0.074 A 
ATOM     47  C   UNL A   1      40.789  24.208  27.770  1.00  0.00     0.031 C 
ATOM     48  C   UNL A   1      43.946  28.808  30.229  1.00  0.00     0.029 A 
ATOM     49  C   UNL A   1      42.919  29.563  30.919  1.00  0.00     0.049 A 
ATOM     50  H   UNL A   1      41.307  30.408  29.785  1.00  0.00     0.167 HD
ATOM     51  C   UNL A   1      43.244  23.591  28.319  1.00  0.00     0.031 A 
ATOM     52  C   UNL A   1      42.737  29.542  32.275  1.00  0.00     0.031 A 
ATOM     53  C   UNL A   1      44.234  24.089  29.274  1.00  0.00     0.049 A 
ATOM     54  C   UNL A   1      43.338  28.315  32.952  1.00  0.00     0.074 A 
ATOM     55  C   UNL A   1      45.409  24.811  29.154  1.00  0.00     0.029 A 
ATOM     56  N   UNL A   1      43.905  24.098  30.628  1.00  0.00    -0.354 N 
ATOM     57  N   UNL A   1      43.713  27.239  32.313  1.00  0.00    -0.248 NA
ATOM     58  C   UNL A   1      43.538  28.187  34.394  1.00  0.00     0.031 C 
ATOM     59  C   UNL A   1      45.727  25.341  30.439  1.00  0.00     0.029 A 
ATOM     60  C   UNL A   1      44.774  24.899  31.343  1.00  0.00     0.049 A 
ATOM     61  H   UNL A   1      43.155  23.600  31.022  1.00  0.00     0.167 HD
ATOM     62  C   UNL A   1      44.179  26.298  33.197  1.00  0.00     0.074 A 
ATOM     63  C   UNL A   1      44.068  26.952  34.489  1.00  0.00     0.031 C 
ATOM     64  C   UNL A   1      44.597  25.061  32.785  1.00  0.00     0.031 A 
BRANCH  51  65
ATOM     65  C   UNL A   1      43.544  22.593  27.217  1.00  0.00    -0.014 A 
ATOM     66  C   UNL A   1      42.706  21.474  27.028  1.00  0.00     0.010 A 
ATOM     67  C   UNL A   1      44.710  22.623  26.422  1.00  0.00     0.010 A 
ATOM     68  C   UNL A   1      43.030  20.445  26.124  1.00  0.00     0.020 A 
ATOM     69  C   UNL A   1      45.031  21.623  25.497  1.00  0.00     0.020 A 
ATOM     70  C   UNL A   1      44.198  20.524  25.367  1.00  0.00     0.054 A 
BRANCH  70  71
ATOM     71  S   UNL A   1      44.649  19.176  24.244  1.00  0.00     0.124 S 
ATOM     72  O   UNL A   1      43.707  18.127  24.626  1.00  0.00    -0.237 OA
ATOM     73  O   UNL A   1      44.435  19.771  22.928  1.00  0.00    -0.237 OA
ATOM     74  O   UNL A   1      46.047  18.900  24.575  1.00  0.00    -0.744 OA
ENDBRANCH  70  71
ENDBRANCH  51  65
BRANCH  52  75
ATOM     75  C   UNL A   1      41.555  30.302  32.760  1.00  0.00    -0.014 A 
ATOM     76  C   UNL A   1      40.344  29.592  32.891  1.00  0.00     0.010 A 
ATOM     77  C   UNL A   1      41.718  31.504  33.470  1.00  0.00     0.010 A 
ATOM     78  C   UNL A   1      39.406  29.962  33.858  1.00  0.00     0.020 A 
ATOM     79  C   UNL A   1      40.773  31.881  34.436  1.00  0.00     0.020 A 
ATOM     80  C   UNL A   1      39.661  31.066  34.671  1.00  0.00     0.054 A 
BRANCH  80  81
ATOM     81  S   UNL A   1      38.642  31.273  36.165  1.00  0.00     0.124 S 
ATOM     82  O   UNL A   1      38.429  29.895  36.591  1.00  0.00    -0.237 OA
ATOM     83  O   UNL A   1      39.517  32.066  37.030  1.00  0.00    -0.237 OA
ATOM     84  O   UNL A   1      37.460  31.974  35.674  1.00  0.00    -0.744 OA
ENDBRANCH  80  81
ENDBRANCH  52  75
BRANCH  64  85
ATOM     85  C   UNL A   1      44.933  23.876  33.674  1.00  0.00    -0.014 A 
ATOM     86  C   UNL A   1      44.085  22.782  33.913  1.00  0.00     0.010 A 
ATOM     87  C   UNL A   1      46.236  23.789  34.228  1.00  0.00     0.010 A 
ATOM     88  C   UNL A   1      44.491  21.695  34.704  1.00  0.00     0.020 A 
ATOM     89  C   UNL A   1      46.669  22.690  34.977  1.00  0.00     0.020 A 
ATOM     90  C   UNL A   1      45.780  21.655  35.233  1.00  0.00     0.054 A 
BRANCH  90  91
ATOM     91  S   UNL A   1      46.312  20.214  36.193  1.00  0.00     0.124 S 
ATOM     92  O   UNL A   1      47.752  20.205  35.951  1.00  0.00    -0.237 OA
ATOM     93  O   UNL A   1      45.908  20.562  37.553  1.00  0.00    -0.237 OA
ATOM     94  O   UNL A   1      45.567  19.109  35.593  1.00  0.00    -0.744 OA
ENDBRANCH  90  91
ENDBRANCH  64  85
ENDBRANCH  38  39
ENDBRANCH  30  33
ENDBRANCH  28  29
ENDBRANCH   1  28
TORSDOF 15
ENDMDL
MODEL 2
REMARK VINA RESULT:     -13.3      1.285      4.244
REMARK SMILES Cc1cccc(-c2ncc([C@@H]3[NH2+][C@H](C(=O)NCCCNC(=O)c4ccc(-c5c6nc(c(-c7ccc(S(=O)(=O)[O-])cc7)c7ccc([nH]7)c(-c7ccc(S(=O)(=O)[O-])cc7)c7nc(c(-c8ccc(S(=O)(=O)[O-])cc8)c8ccc5[nH]8)C=C7)C=C6)cc4)C(C)(C)S3)s2)c1
REMARK SMILES IDX 18 1 17 2 16 3 14 4 15 5 13 7 11 8 12 9 86 10 83 13 84 14
REMARK SMILES IDX 85 15 10 16 7 17 8 18 87 19 9 20 6 21 1 22 2 23 3 24 88 25
REMARK SMILES IDX 4 26 5 27 19 28 20 29 21 30 22 32 23 33 24 34 82 35 25 36
REMARK SMILES IDX 81 37 26 38 27 39 28 40 75 41 29 42 80 43 74 44 76 45 30 46
REMARK SMILES IDX 79 47 73 48 72 49 31 51 61 52 42 53 60 54 43 55 46 56 59 57
REMARK SMILES IDX 77 58 44 59 45 60 58 62 78 63 47 64 32 65 33 66 41 67 34 68
REMARK SMILES IDX 40 69 35 70 36 71 37 72 38 73 39 74 62 75 63 76 71 77 64 78
REMARK SMILES IDX 70 79 65 80 66 81 67 82 68 83 69 84 48 85 49 86 57 87 50 88
REMARK SMILES IDX 56 89 51 90 52 91 53 92 54 93 55 94
REMARK H PARENT 16 6 12 11 12 12 20 31 76 50 46 61
REMARK Flexibility Score: inf
ROOT
ATOM      1  C   UNL A   1      33.927  29.296  27.767  1.00  0.00     0.042 C 
ENDROOT
BRANCH   1   2
ATOM      2  C   UNL A   1      32.964  28.304  27.125  1.00  0.00     0.118 C 
BRANCH   2   3
ATOM      3  N   UNL A   1      33.467  27.860  25.844  1.00  0.00    -0.351 N 
ATOM      4  C   UNL A   1      33.423  26.703  25.149  1.00  0.00     0.279 C 
ATOM      5  O   UNL A   1      33.865  26.831  23.995  1.00  0.00    -0.268 OA
ATOM      6  H   UNL A   1      33.957  28.567  25.365  1.00  0.00     0.163 HD
BRANCH   4   7
ATOM      7  C   UNL A   1      32.732  25.353  25.583  1.00  0.00     0.289 C 
ATOM      8  C   UNL A   1      30.537  25.481  24.548  1.00  0.00     0.286 C 
ATOM      9  N   UNL A   1      31.270  25.685  25.807  1.00  0.00    -0.319 N 
ATOM     10  S   UNL A   1      31.274  24.057  23.718  1.00  0.00    -0.080 SA
ATOM     11  H   UNL A   1      30.887  25.075  26.529  1.00  0.00     0.348 HD
ATOM     12  H   UNL A   1      31.179  26.656  26.106  1.00  0.00     0.348 HD
ATOM     13  C   UNL A   1      32.700  23.974  24.853  1.00  0.00     0.077 C 
ATOM     14  C   UNL A   1      32.384  22.844  25.867  1.00  0.00     0.030 C 
ATOM     15  C   UNL A   1      33.888  23.501  24.041  1.00  0.00     0.030 C 
BRANCH   8  16
ATOM     16  C   UNL A   1      30.443  26.671  23.640  1.00  0.00     0.093 A 
ATOM     17  C   UNL A   1      29.813  28.784  22.559  1.00  0.00     0.123 A 
ATOM     18  N   UNL A   1      30.624  28.096  21.782  1.00  0.00    -0.244 NA
ATOM     19  S   UNL A   1      29.443  28.011  24.058  1.00  0.00    -0.112 S 
ATOM     20  C   UNL A   1      31.001  26.922  22.399  1.00  0.00     0.134 A 
BRANCH  17  21
ATOM     21  C   UNL A   1      29.199  30.069  22.170  1.00  0.00     0.011 A 
ATOM     22  C   UNL A   1      29.248  33.682  23.445  1.00  0.00     0.044 C 
ATOM     23  C   UNL A   1      28.938  32.469  22.614  1.00  0.00    -0.050 A 
ATOM     24  C   UNL A   1      28.100  32.578  21.502  1.00  0.00     0.003 A 
ATOM     25  C   UNL A   1      29.475  31.214  22.941  1.00  0.00     0.014 A 
ATOM     26  C   UNL A   1      27.799  31.454  20.734  1.00  0.00     0.001 A 
ATOM     27  C   UNL A   1      28.343  30.210  21.066  1.00  0.00     0.011 A 
ENDBRANCH  17  21
ENDBRANCH   8  16
ENDBRANCH   4   7
ENDBRANCH   2   3
ENDBRANCH   1   2
BRANCH   1  28
ATOM     28  C   UNL A   1      34.744  30.126  26.784  1.00  0.00     0.118 C 
BRANCH  28  29
ATOM     29  N   UNL A   1      35.508  31.136  27.518  1.00  0.00    -0.352 N 
ATOM     30  C   UNL A   1      36.653  31.002  28.290  1.00  0.00     0.251 C 
ATOM     31  H   UNL A   1      35.154  32.053  27.454  1.00  0.00     0.163 HD
ATOM     32  O   UNL A   1      37.076  31.854  29.021  1.00  0.00    -0.269 OA
BRANCH  30  33
ATOM     33  C   UNL A   1      37.392  29.744  28.073  1.00  0.00     0.039 A 
ATOM     34  C   UNL A   1      37.417  28.870  29.166  1.00  0.00     0.014 A 
ATOM     35  C   UNL A   1      38.344  29.703  27.060  1.00  0.00     0.014 A 
ATOM     36  C   UNL A   1      38.540  28.083  29.367  1.00  0.00     0.010 A 
ATOM     37  C   UNL A   1      39.483  28.953  27.292  1.00  0.00     0.010 A 
ATOM     38  C   UNL A   1      39.609  28.219  28.486  1.00  0.00    -0.014 A 
BRANCH  38  39
ATOM     39  C   UNL A   1      40.939  27.702  28.784  1.00  0.00     0.031 A 
ATOM     40  C   UNL A   1      41.218  26.273  28.506  1.00  0.00     0.074 A 
ATOM     41  C   UNL A   1      41.914  28.509  29.270  1.00  0.00     0.049 A 
ATOM     42  N   UNL A   1      42.226  25.624  28.982  1.00  0.00    -0.248 NA
ATOM     43  C   UNL A   1      40.309  25.419  27.734  1.00  0.00     0.031 C 
ATOM     44  C   UNL A   1      43.344  28.197  29.322  1.00  0.00     0.029 A 
ATOM     45  N   UNL A   1      41.849  29.725  29.957  1.00  0.00    -0.354 N 
ATOM     46  C   UNL A   1      42.283  24.418  28.327  1.00  0.00     0.074 A 
ATOM     47  C   UNL A   1      40.999  24.277  27.690  1.00  0.00     0.031 C 
ATOM     48  C   UNL A   1      43.923  28.975  30.248  1.00  0.00     0.029 A 
ATOM     49  C   UNL A   1      42.856  29.677  30.933  1.00  0.00     0.049 A 
ATOM     50  H   UNL A   1      41.224  30.466  29.789  1.00  0.00     0.167 HD
ATOM     51  C   UNL A   1      43.471  23.758  28.263  1.00  0.00     0.031 A 
ATOM     52  C   UNL A   1      42.658  29.631  32.286  1.00  0.00     0.031 A 
ATOM     53  C   UNL A   1      44.427  24.286  29.238  1.00  0.00     0.049 A 
ATOM     54  C   UNL A   1      43.303  28.422  32.955  1.00  0.00     0.074 A 
ATOM     55  C   UNL A   1      45.571  25.059  29.142  1.00  0.00     0.029 A 
ATOM     56  N   UNL A   1      44.081  24.263  30.587  1.00  0.00    -0.354 N 
ATOM     57  N   UNL A   1      43.732  27.371  32.308  1.00  0.00    -0.248 NA
ATOM     58  C   UNL A   1      43.490  28.283  34.399  1.00  0.00     0.031 C 
ATOM     59  C   UNL A   1      45.849  25.586  30.438  1.00  0.00     0.029 A 
ATOM     60  C   UNL A   1      44.905  25.092  31.323  1.00  0.00     0.049 A 
ATOM     61  H   UNL A   1      43.347  23.728  30.965  1.00  0.00     0.167 HD
ATOM     62  C   UNL A   1      44.226  26.440  33.187  1.00  0.00     0.074 A 
ATOM     63  C   UNL A   1      44.070  27.072  34.485  1.00  0.00     0.031 C 
ATOM     64  C   UNL A   1      44.703  25.227  32.765  1.00  0.00     0.031 A 
BRANCH  51  65
ATOM     65  C   UNL A   1      43.828  22.789  27.152  1.00  0.00    -0.014 A 
ATOM     66  C   UNL A   1      42.937  21.752  26.807  1.00  0.00     0.010 A 
ATOM     67  C   UNL A   1      45.082  22.759  26.504  1.00  0.00     0.010 A 
ATOM     68  C   UNL A   1      43.291  20.740  25.893  1.00  0.00     0.020 A 
ATOM     69  C   UNL A   1      45.438  21.777  25.572  1.00  0.00     0.020 A 
ATOM     70  C   UNL A   1      44.546  20.757  25.286  1.00  0.00     0.054 A 
BRANCH  70  71
ATOM     71  S   UNL A   1      45.028  19.427  24.154  1.00  0.00     0.124 S 
ATOM     72  O   UNL A   1      46.486  19.477  24.220  1.00  0.00    -0.237 OA
ATOM     73  O   UNL A   1      44.405  18.252  24.758  1.00  0.00    -0.237 OA
ATOM     74  O   UNL A   1      44.455  19.837  22.872  1.00  0.00    -0.744 OA
ENDBRANCH  70  71
ENDBRANCH  51  65
BRANCH  52  75
ATOM     75  C   UNL A   1      41.438  30.332  32.765  1.00  0.00    -0.014 A 
ATOM     76  C   UNL A   1      40.291  29.545  32.995  1.00  0.00     0.010 A 
ATOM     77  C   UNL A   1      41.532  31.592  33.382  1.00  0.00     0.010 A 
ATOM     78  C   UNL A   1      39.362  29.912  33.971  1.00  0.00     0.020 A 
ATOM     79  C   UNL A   1      40.595  31.966  34.357  1.00  0.00     0.020 A 
ATOM     80  C   UNL A   1      39.559  31.088  34.694  1.00  0.00     0.054 A 
BRANCH  80  81
ATOM     81  S   UNL A   1      38.580  31.326  36.210  1.00  0.00     0.124 S 
ATOM     82  O   UNL A   1      37.358  31.936  35.700  1.00  0.00    -0.237 OA
ATOM     83  O   UNL A   1      38.435  29.955  36.703  1.00  0.00    -0.237 OA
ATOM     84  O   UNL A   1      39.426  32.190  37.026  1.00  0.00    -0.744 OA
ENDBRANCH  80  81
ENDBRANCH  52  75
BRANCH  64  85
ATOM     85  C   UNL A   1      45.078  24.046  33.644  1.00  0.00    -0.014 A 
ATOM     86  C   UNL A   1      44.238  22.957  33.932  1.00  0.00     0.010 A 
ATOM     87  C   UNL A   1      46.407  23.956  34.131  1.00  0.00     0.010 A 
ATOM     88  C   UNL A   1      44.679  21.873  34.709  1.00  0.00     0.020 A 
ATOM     89  C   UNL A   1      46.872  22.860  34.865  1.00  0.00     0.020 A 
ATOM     90  C   UNL A   1      45.993  21.831  35.172  1.00  0.00     0.054 A 
BRANCH  90  91
ATOM     91  S   UNL A   1      46.566  20.393  36.112  1.00  0.00     0.124 S 
ATOM     92  O   UNL A   1      46.647  20.932  37.468  1.00  0.00    -0.237 OA
ATOM     93  O   UNL A   1      45.504  19.415  35.891  1.00  0.00    -0.237 OA
ATOM     94  O   UNL A   1      47.846  20.064  35.490  1.00  0.00    -0.744 OA
ENDBRANCH  90  91
ENDBRANCH  64  85
ENDBRANCH  38  39
ENDBRANCH  30  33
ENDBRANCH  28  29
ENDBRANCH   1  28
TORSDOF 15
ENDMDL
MODEL 3
REMARK VINA RESULT:     -13.3      2.721      5.192
REMARK SMILES Cc1cccc(-c2ncc([C@@H]3[NH2+][C@H](C(=O)NCCCNC(=O)c4ccc(-c5c6nc(c(-c7ccc(S(=O)(=O)[O-])cc7)c7ccc([nH]7)c(-c7ccc(S(=O)(=O)[O-])cc7)c7nc(c(-c8ccc(S(=O)(=O)[O-])cc8)c8ccc5[nH]8)C=C7)C=C6)cc4)C(C)(C)S3)s2)c1
REMARK SMILES IDX 18 1 17 2 16 3 14 4 15 5 13 7 11 8 12 9 86 10 83 13 84 14
REMARK SMILES IDX 85 15 10 16 7 17 8 18 87 19 9 20 6 21 1 22 2 23 3 24 88 25
REMARK SMILES IDX 4 26 5 27 19 28 20 29 21 30 22 32 23 33 24 34 82 35 25 36
REMARK SMILES IDX 81 37 26 38 27 39 28 40 75 41 29 42 80 43 74 44 76 45 30 46
REMARK SMILES IDX 79 47 73 48 72 49 31 51 61 52 42 53 60 54 43 55 46 56 59 57
REMARK SMILES IDX 77 58 44 59 45 60 58 62 78 63 47 64 32 65 33 66 41 67 34 68
REMARK SMILES IDX 40 69 35 70 36 71 37 72 38 73 39 74 62 75 63 76 71 77 64 78
REMARK SMILES IDX 70 79 65 80 66 81 67 82 68 83 69 84 48 85 49 86 57 87 50 88
REMARK SMILES IDX 56 89 51 90 52 91 53 92 54 93 55 94
REMARK H PARENT 16 6 12 11 12 12 20 31 76 50 46 61
REMARK Flexibility Score: inf
ROOT
ATOM      1  C   UNL A   1      32.755  28.507  26.206  1.00  0.00     0.042 C 
ENDROOT
BRANCH   1   2
ATOM      2  C   UNL A   1      32.609  26.996  26.350  1.00  0.00     0.118 C 
BRANCH   2   3
ATOM      3  N   UNL A   1      31.215  26.625  26.446  1.00  0.00    -0.351 N 
ATOM      4  C   UNL A   1      30.482  25.555  26.069  1.00  0.00     0.279 C 
ATOM      5  O   UNL A   1      29.321  25.601  26.509  1.00  0.00    -0.268 OA
ATOM      6  H   UNL A   1      30.671  27.313  26.892  1.00  0.00     0.163 HD
BRANCH   4   7
ATOM      7  C   UNL A   1      30.995  24.258  25.331  1.00  0.00     0.289 C 
ATOM      8  C   UNL A   1      31.466  25.036  23.078  1.00  0.00     0.286 C 
ATOM      9  N   UNL A   1      30.469  24.348  23.913  1.00  0.00    -0.319 N 
ATOM     10  S   UNL A   1      33.098  24.536  23.663  1.00  0.00    -0.080 SA
ATOM     11  H   UNL A   1      30.304  23.411  23.548  1.00  0.00     0.348 HD
ATOM     12  H   UNL A   1      29.591  24.870  23.903  1.00  0.00     0.348 HD
ATOM     13  C   UNL A   1      32.450  23.721  25.162  1.00  0.00     0.077 C 
ATOM     14  C   UNL A   1      32.423  22.202  24.854  1.00  0.00     0.030 C 
ATOM     15  C   UNL A   1      33.480  23.919  26.256  1.00  0.00     0.030 C 
BRANCH   8  16
ATOM     16  C   UNL A   1      31.335  26.527  22.989  1.00  0.00     0.093 A 
ATOM     17  C   UNL A   1      30.491  28.828  22.835  1.00  0.00     0.123 A 
ATOM     18  N   UNL A   1      31.790  28.802  22.621  1.00  0.00    -0.244 NA
ATOM     19  S   UNL A   1      29.792  27.280  23.143  1.00  0.00    -0.112 S 
ATOM     20  C   UNL A   1      32.271  27.514  22.735  1.00  0.00     0.134 A 
BRANCH  17  21
ATOM     21  C   UNL A   1      29.670  30.052  22.744  1.00  0.00     0.011 A 
ATOM     22  C   UNL A   1      27.849  31.987  19.984  1.00  0.00     0.044 C 
ATOM     23  C   UNL A   1      28.373  31.586  21.334  1.00  0.00    -0.050 A 
ATOM     24  C   UNL A   1      28.070  32.356  22.459  1.00  0.00     0.003 A 
ATOM     25  C   UNL A   1      29.174  30.445  21.486  1.00  0.00     0.014 A 
ATOM     26  C   UNL A   1      28.563  31.996  23.712  1.00  0.00     0.001 A 
ATOM     27  C   UNL A   1      29.358  30.854  23.853  1.00  0.00     0.011 A 
ENDBRANCH  17  21
ENDBRANCH   8  16
ENDBRANCH   4   7
ENDBRANCH   2   3
ENDBRANCH   1   2
BRANCH   1  28
ATOM     28  C   UNL A   1      32.792  29.277  27.521  1.00  0.00     0.118 C 
BRANCH  28  29
ATOM     29  N   UNL A   1      33.392  30.593  27.297  1.00  0.00    -0.352 N 
ATOM     30  C   UNL A   1      34.657  31.063  27.619  1.00  0.00     0.251 C 
ATOM     31  H   UNL A   1      32.807  31.246  26.848  1.00  0.00     0.163 HD
ATOM     32  O   UNL A   1      34.975  32.219  27.584  1.00  0.00    -0.269 OA
BRANCH  30  33
ATOM     33  C   UNL A   1      35.642  30.008  27.921  1.00  0.00     0.039 A 
ATOM     34  C   UNL A   1      35.791  29.701  29.279  1.00  0.00     0.014 A 
ATOM     35  C   UNL A   1      36.630  29.736  26.980  1.00  0.00     0.014 A 
ATOM     36  C   UNL A   1      37.038  29.315  29.744  1.00  0.00     0.010 A 
ATOM     37  C   UNL A   1      37.884  29.400  27.457  1.00  0.00     0.010 A 
ATOM     38  C   UNL A   1      38.099  29.279  28.843  1.00  0.00    -0.014 A 
BRANCH  38  39
ATOM     39  C   UNL A   1      39.489  29.215  29.273  1.00  0.00     0.031 A 
ATOM     40  C   UNL A   1      40.249  27.968  29.019  1.00  0.00     0.074 A 
ATOM     41  C   UNL A   1      40.092  30.277  29.862  1.00  0.00     0.049 A 
ATOM     42  N   UNL A   1      41.364  27.667  29.592  1.00  0.00    -0.248 NA
ATOM     43  C   UNL A   1      39.751  26.894  28.153  1.00  0.00     0.031 C 
ATOM     44  C   UNL A   1      41.533  30.449  30.059  1.00  0.00     0.029 A 
ATOM     45  N   UNL A   1      39.565  31.377  30.545  1.00  0.00    -0.354 N 
ATOM     46  C   UNL A   1      41.878  26.573  28.940  1.00  0.00     0.074 A 
ATOM     47  C   UNL A   1      40.780  26.043  28.173  1.00  0.00     0.031 C 
ATOM     48  C   UNL A   1      41.733  31.337  31.044  1.00  0.00     0.029 A 
ATOM     49  C   UNL A   1      40.433  31.623  31.619  1.00  0.00     0.049 A 
ATOM     50  H   UNL A   1      38.749  31.879  30.317  1.00  0.00     0.167 HD
ATOM     51  C   UNL A   1      43.218  26.341  28.996  1.00  0.00     0.031 A 
ATOM     52  C   UNL A   1      40.134  31.462  32.945  1.00  0.00     0.031 A 
ATOM     53  C   UNL A   1      43.848  27.115  30.066  1.00  0.00     0.049 A 
ATOM     54  C   UNL A   1      41.073  30.506  33.670  1.00  0.00     0.074 A 
ATOM     55  C   UNL A   1      44.677  28.223  30.094  1.00  0.00     0.029 A 
ATOM     56  N   UNL A   1      43.402  26.927  31.372  1.00  0.00    -0.354 N 
ATOM     57  N   UNL A   1      41.885  29.680  33.065  1.00  0.00    -0.248 NA
ATOM     58  C   UNL A   1      41.157  30.380  35.124  1.00  0.00     0.031 C 
ATOM     59  C   UNL A   1      44.641  28.761  31.413  1.00  0.00     0.029 A 
ATOM     60  C   UNL A   1      43.833  27.951  32.194  1.00  0.00     0.049 A 
ATOM     61  H   UNL A   1      42.853  26.167  31.670  1.00  0.00     0.167 HD
ATOM     62  C   UNL A   1      42.572  28.928  33.985  1.00  0.00     0.074 A 
ATOM     63  C   UNL A   1      42.094  29.423  35.264  1.00  0.00     0.031 C 
ATOM     64  C   UNL A   1      43.460  27.956  33.608  1.00  0.00     0.031 A 
BRANCH  51  65
ATOM     65  C   UNL A   1      43.979  25.586  27.923  1.00  0.00    -0.014 A 
ATOM     66  C   UNL A   1      43.696  25.818  26.561  1.00  0.00     0.010 A 
ATOM     67  C   UNL A   1      44.884  24.536  28.188  1.00  0.00     0.010 A 
ATOM     68  C   UNL A   1      44.264  25.034  25.538  1.00  0.00     0.020 A 
ATOM     69  C   UNL A   1      45.480  23.767  27.182  1.00  0.00     0.020 A 
ATOM     70  C   UNL A   1      45.150  24.006  25.858  1.00  0.00     0.054 A 
BRANCH  70  71
ATOM     71  S   UNL A   1      45.838  22.957  24.551  1.00  0.00     0.124 S 
ATOM     72  O   UNL A   1      46.316  21.800  25.302  1.00  0.00    -0.237 OA
ATOM     73  O   UNL A   1      44.684  22.722  23.689  1.00  0.00    -0.237 OA
ATOM     74  O   UNL A   1      46.889  23.785  23.960  1.00  0.00    -0.744 OA
ENDBRANCH  70  71
ENDBRANCH  51  65
BRANCH  52  75
ATOM     75  C   UNL A   1      38.711  31.707  33.299  1.00  0.00    -0.014 A 
ATOM     76  C   UNL A   1      38.332  33.040  33.559  1.00  0.00     0.010 A 
ATOM     77  C   UNL A   1      37.717  30.773  32.957  1.00  0.00     0.010 A 
ATOM     78  C   UNL A   1      37.033  33.475  33.287  1.00  0.00     0.020 A 
ATOM     79  C   UNL A   1      36.409  31.208  32.690  1.00  0.00     0.020 A 
ATOM     80  C   UNL A   1      36.099  32.567  32.788  1.00  0.00     0.054 A 
BRANCH  80  81
ATOM     81  S   UNL A   1      34.567  33.237  32.066  1.00  0.00     0.124 S 
ATOM     82  O   UNL A   1      34.426  32.449  30.848  1.00  0.00    -0.237 OA
ATOM     83  O   UNL A   1      33.583  32.954  33.112  1.00  0.00    -0.237 OA
ATOM     84  O   UNL A   1      34.874  34.651  31.874  1.00  0.00    -0.744 OA
ENDBRANCH  80  81
ENDBRANCH  52  75
BRANCH  64  85
ATOM     85  C   UNL A   1      44.118  26.929  34.515  1.00  0.00    -0.014 A 
ATOM     86  C   UNL A   1      45.411  27.038  35.050  1.00  0.00     0.010 A 
ATOM     87  C   UNL A   1      43.348  25.822  34.957  1.00  0.00     0.010 A 
ATOM     88  C   UNL A   1      45.928  26.071  35.929  1.00  0.00     0.020 A 
ATOM     89  C   UNL A   1      43.834  24.878  35.869  1.00  0.00     0.020 A 
ATOM     90  C   UNL A   1      45.137  24.996  36.332  1.00  0.00     0.054 A 
BRANCH  90  91
ATOM     91  S   UNL A   1      45.794  23.796  37.519  1.00  0.00     0.124 S 
ATOM     92  O   UNL A   1      44.960  24.044  38.692  1.00  0.00    -0.237 OA
ATOM     93  O   UNL A   1      45.567  22.518  36.849  1.00  0.00    -0.237 OA
ATOM     94  O   UNL A   1      47.197  24.179  37.654  1.00  0.00    -0.744 OA
ENDBRANCH  90  91
ENDBRANCH  64  85
ENDBRANCH  38  39
ENDBRANCH  30  33
ENDBRANCH  28  29
ENDBRANCH   1  28
TORSDOF 15
ENDMDL
