MODEL 1
REMARK VINA RESULT:     -11.2      0.000      0.000
REMARK SMILES Cc1cnc(NC(=O)NC[C@H]2CC[C@H](C(=O)NCCCNC(=O)c3ccc(-c4c5nc(c(-c6ccc(S(=O)(=O)[O-])cc6)c6ccc([nH]6)c(-c6ccc(S(=O)(=O)[O-])cc6)c6nc(c(-c7ccc(S(=O)(=O)[O-])cc7)c7ccc4[nH]7)C=C6)C=C5)cc3)O2)s1
REMARK SMILES IDX 19 1 18 2 17 3 15 4 16 5 14 7 11 8 12 9 84 10 13 11 10 12
REMARK SMILES IDX 9 13 6 14 7 15 8 17 5 19 1 20 2 21 3 22 85 23 4 24 20 25
REMARK SMILES IDX 21 26 22 27 23 29 24 30 25 31 83 32 26 33 82 34 27 35 28 36
REMARK SMILES IDX 29 37 76 38 30 39 81 40 75 41 77 42 31 43 80 44 74 45 73 46
REMARK SMILES IDX 32 48 62 49 43 50 61 51 44 52 47 53 60 54 78 55 45 56 46 57
REMARK SMILES IDX 59 59 79 60 48 61 33 62 34 63 42 64 35 65 41 66 36 67 37 68
REMARK SMILES IDX 38 69 39 70 40 71 63 72 64 73 72 74 65 75 71 76 66 77 67 78
REMARK SMILES IDX 68 79 69 80 70 81 49 82 50 83 58 84 51 85 57 86 52 87 53 88
REMARK SMILES IDX 54 89 55 90 56 91
REMARK H PARENT 17 6 6 16 9 18 21 28 77 47 47 58
REMARK Flexibility Score: inf
ROOT
ATOM      1  C   UNL A   1      33.845  27.921  26.025  1.00  0.00     0.042 C 
ENDROOT
BRANCH   1   2
ATOM      2  C   UNL A   1      33.030  28.649  24.961  1.00  0.00     0.117 C 
BRANCH   2   3
ATOM      3  N   UNL A   1      33.728  28.749  23.701  1.00  0.00    -0.354 N 
ATOM      4  C   UNL A   1      33.629  27.987  22.575  1.00  0.00     0.249 C 
ATOM      5  O   UNL A   1      34.302  28.342  21.601  1.00  0.00    -0.272 OA
ATOM      6  H   UNL A   1      34.378  29.486  23.646  1.00  0.00     0.163 HD
BRANCH   4   7
ATOM      7  C   UNL A   1      32.791  26.684  22.516  1.00  0.00     0.207 C 
ATOM      8  C   UNL A   1      32.041  25.289  24.243  1.00  0.00     0.138 C 
ATOM      9  C   UNL A   1      33.368  24.738  23.775  1.00  0.00     0.037 C 
ATOM     10  O   UNL A   1      31.778  26.491  23.504  1.00  0.00    -0.363 OA
ATOM     11  C   UNL A   1      33.674  25.450  22.491  1.00  0.00     0.045 C 
BRANCH   8  12
ATOM     12  C   UNL A   1      30.832  24.345  24.269  1.00  0.00     0.149 C 
BRANCH  12  13
ATOM     13  N   UNL A   1      30.253  24.014  25.561  1.00  0.00    -0.335 N 
ATOM     14  N   UNL A   1      31.296  22.175  26.686  1.00  0.00    -0.284 N 
ATOM     15  C   UNL A   1      30.443  23.193  26.592  1.00  0.00     0.321 C 
ATOM     16  H   UNL A   1      31.118  21.611  27.473  1.00  0.00     0.174 HD
ATOM     17  O   UNL A   1      29.642  23.335  27.527  1.00  0.00    -0.248 OA
ATOM     18  H   UNL A   1      29.465  24.580  25.727  1.00  0.00     0.165 HD
BRANCH  14  19
ATOM     19  C   UNL A   1      32.351  21.725  25.961  1.00  0.00     0.190 A 
ATOM     20  C   UNL A   1      35.908  21.707  24.584  1.00  0.00     0.058 C 
ATOM     21  C   UNL A   1      34.501  21.432  24.965  1.00  0.00     0.023 A 
ATOM     22  C   UNL A   1      33.430  21.059  24.175  1.00  0.00     0.128 A 
ATOM     23  S   UNL A   1      33.935  21.649  26.572  1.00  0.00    -0.102 S 
ATOM     24  N   UNL A   1      32.192  21.175  24.780  1.00  0.00    -0.228 NA
ENDBRANCH  14  19
ENDBRANCH  12  13
ENDBRANCH   8  12
ENDBRANCH   4   7
ENDBRANCH   2   3
ENDBRANCH   1   2
BRANCH   1  25
ATOM     25  C   UNL A   1      33.459  28.316  27.442  1.00  0.00     0.118 C 
BRANCH  25  26
ATOM     26  N   UNL A   1      33.404  29.764  27.604  1.00  0.00    -0.352 N 
ATOM     27  C   UNL A   1      34.329  30.635  28.120  1.00  0.00     0.251 C 
ATOM     28  H   UNL A   1      32.568  30.183  27.295  1.00  0.00     0.163 HD
ATOM     29  O   UNL A   1      33.993  31.788  28.372  1.00  0.00    -0.269 OA
BRANCH  27  30
ATOM     30  C   UNL A   1      35.713  30.188  28.383  1.00  0.00     0.039 A 
ATOM     31  C   UNL A   1      36.642  30.225  27.340  1.00  0.00     0.014 A 
ATOM     32  C   UNL A   1      36.090  29.707  29.640  1.00  0.00     0.014 A 
ATOM     33  C   UNL A   1      37.961  29.832  27.574  1.00  0.00     0.010 A 
ATOM     34  C   UNL A   1      37.422  29.403  29.895  1.00  0.00     0.010 A 
ATOM     35  C   UNL A   1      38.369  29.450  28.863  1.00  0.00    -0.014 A 
BRANCH  35  36
ATOM     36  C   UNL A   1      39.779  29.091  29.151  1.00  0.00     0.031 A 
ATOM     37  C   UNL A   1      40.711  30.111  29.747  1.00  0.00     0.074 A 
ATOM     38  C   UNL A   1      40.231  27.867  28.815  1.00  0.00     0.049 A 
ATOM     39  N   UNL A   1      41.986  30.004  30.010  1.00  0.00    -0.248 NA
ATOM     40  C   UNL A   1      40.142  31.433  30.060  1.00  0.00     0.031 C 
ATOM     41  C   UNL A   1      39.430  26.809  28.192  1.00  0.00     0.029 A 
ATOM     42  N   UNL A   1      41.476  27.306  28.943  1.00  0.00    -0.354 N 
ATOM     43  C   UNL A   1      42.376  31.245  30.502  1.00  0.00     0.074 A 
ATOM     44  C   UNL A   1      41.216  32.105  30.450  1.00  0.00     0.031 C 
ATOM     45  C   UNL A   1      40.196  25.720  28.021  1.00  0.00     0.029 A 
ATOM     46  C   UNL A   1      41.550  26.015  28.476  1.00  0.00     0.049 A 
ATOM     47  H   UNL A   1      42.244  27.784  29.332  1.00  0.00     0.167 HD
ATOM     48  C   UNL A   1      43.587  31.627  30.974  1.00  0.00     0.031 A 
ATOM     49  C   UNL A   1      42.593  25.165  28.414  1.00  0.00     0.031 A 
ATOM     50  C   UNL A   1      44.734  30.761  31.032  1.00  0.00     0.049 A 
ATOM     51  C   UNL A   1      43.931  25.616  28.935  1.00  0.00     0.074 A 
ATOM     52  C   UNL A   1      45.991  31.031  31.544  1.00  0.00     0.029 A 
ATOM     53  N   UNL A   1      44.765  29.457  30.560  1.00  0.00    -0.354 N 
ATOM     54  N   UNL A   1      44.261  26.773  29.460  1.00  0.00    -0.248 NA
ATOM     55  C   UNL A   1      45.029  24.645  28.870  1.00  0.00     0.031 C 
ATOM     56  C   UNL A   1      46.798  29.910  31.328  1.00  0.00     0.029 A 
ATOM     57  C   UNL A   1      46.026  28.918  30.744  1.00  0.00     0.049 A 
ATOM     58  H   UNL A   1      44.003  28.983  30.154  1.00  0.00     0.167 HD
ATOM     59  C   UNL A   1      45.601  26.657  29.813  1.00  0.00     0.074 A 
ATOM     60  C   UNL A   1      46.012  25.313  29.457  1.00  0.00     0.031 C 
ATOM     61  C   UNL A   1      46.417  27.577  30.384  1.00  0.00     0.031 A 
BRANCH  48  62
ATOM     62  C   UNL A   1      43.734  33.047  31.459  1.00  0.00    -0.014 A 
ATOM     63  C   UNL A   1      43.468  33.391  32.797  1.00  0.00     0.010 A 
ATOM     64  C   UNL A   1      44.186  34.044  30.576  1.00  0.00     0.010 A 
ATOM     65  C   UNL A   1      43.611  34.711  33.232  1.00  0.00     0.020 A 
ATOM     66  C   UNL A   1      44.363  35.360  31.014  1.00  0.00     0.020 A 
ATOM     67  C   UNL A   1      44.058  35.687  32.337  1.00  0.00     0.054 A 
BRANCH  67  68
ATOM     68  S   UNL A   1      44.263  37.387  32.937  1.00  0.00     0.124 S 
ATOM     69  O   UNL A   1      45.526  37.298  33.665  1.00  0.00    -0.237 OA
ATOM     70  O   UNL A   1      44.304  38.160  31.699  1.00  0.00    -0.237 OA
ATOM     71  O   UNL A   1      43.081  37.608  33.767  1.00  0.00    -0.744 OA
ENDBRANCH  67  68
ENDBRANCH  48  62
BRANCH  49  72
ATOM     72  C   UNL A   1      42.408  23.801  27.847  1.00  0.00    -0.014 A 
ATOM     73  C   UNL A   1      42.492  23.585  26.460  1.00  0.00     0.010 A 
ATOM     74  C   UNL A   1      42.163  22.707  28.696  1.00  0.00     0.010 A 
ATOM     75  C   UNL A   1      42.316  22.303  25.931  1.00  0.00     0.020 A 
ATOM     76  C   UNL A   1      42.018  21.419  28.174  1.00  0.00     0.020 A 
ATOM     77  C   UNL A   1      42.084  21.226  26.793  1.00  0.00     0.054 A 
BRANCH  77  78
ATOM     78  S   UNL A   1      41.913  19.563  26.089  1.00  0.00     0.124 S 
ATOM     79  O   UNL A   1      40.482  19.498  25.809  1.00  0.00    -0.237 OA
ATOM     80  O   UNL A   1      42.785  19.625  24.920  1.00  0.00    -0.237 OA
ATOM     81  O   UNL A   1      42.383  18.690  27.162  1.00  0.00    -0.744 OA
ENDBRANCH  77  78
ENDBRANCH  49  72
BRANCH  61  82
ATOM     82  C   UNL A   1      47.828  27.154  30.697  1.00  0.00    -0.014 A 
ATOM     83  C   UNL A   1      48.891  27.446  29.826  1.00  0.00     0.010 A 
ATOM     84  C   UNL A   1      48.097  26.503  31.916  1.00  0.00     0.010 A 
ATOM     85  C   UNL A   1      50.194  27.064  30.152  1.00  0.00     0.020 A 
ATOM     86  C   UNL A   1      49.403  26.148  32.260  1.00  0.00     0.020 A 
ATOM     87  C   UNL A   1      50.443  26.420  31.368  1.00  0.00     0.054 A 
BRANCH  87  88
ATOM     88  S   UNL A   1      52.150  25.977  31.788  1.00  0.00     0.124 S 
ATOM     89  O   UNL A   1      51.974  24.691  32.456  1.00  0.00    -0.237 OA
ATOM     90  O   UNL A   1      52.797  25.922  30.480  1.00  0.00    -0.237 OA
ATOM     91  O   UNL A   1      52.590  27.072  32.649  1.00  0.00    -0.744 OA
ENDBRANCH  87  88
ENDBRANCH  61  82
ENDBRANCH  35  36
ENDBRANCH  27  30
ENDBRANCH  25  26
ENDBRANCH   1  25
TORSDOF 16
ENDMDL
MODEL 2
REMARK VINA RESULT:     -11.1      1.252      2.181
REMARK SMILES Cc1cnc(NC(=O)NC[C@H]2CC[C@H](C(=O)NCCCNC(=O)c3ccc(-c4c5nc(c(-c6ccc(S(=O)(=O)[O-])cc6)c6ccc([nH]6)c(-c6ccc(S(=O)(=O)[O-])cc6)c6nc(c(-c7ccc(S(=O)(=O)[O-])cc7)c7ccc4[nH]7)C=C6)C=C5)cc3)O2)s1
REMARK SMILES IDX 19 1 18 2 17 3 15 4 16 5 14 7 11 8 12 9 84 10 13 11 10 12
REMARK SMILES IDX 9 13 6 14 7 15 8 17 5 19 1 20 2 21 3 22 85 23 4 24 20 25
REMARK SMILES IDX 21 26 22 27 23 29 24 30 25 31 83 32 26 33 82 34 27 35 28 36
REMARK SMILES IDX 29 37 76 38 30 39 81 40 75 41 77 42 31 43 80 44 74 45 73 46
REMARK SMILES IDX 32 48 62 49 43 50 61 51 44 52 47 53 60 54 78 55 45 56 46 57
REMARK SMILES IDX 59 59 79 60 48 61 33 62 34 63 42 64 35 65 41 66 36 67 37 68
REMARK SMILES IDX 38 69 39 70 40 71 63 72 64 73 72 74 65 75 71 76 66 77 67 78
REMARK SMILES IDX 68 79 69 80 70 81 49 82 50 83 58 84 51 85 57 86 52 87 53 88
REMARK SMILES IDX 54 89 55 90 56 91
REMARK H PARENT 17 6 6 16 9 18 21 28 77 47 47 58
REMARK Flexibility Score: inf
ROOT
ATOM      1  C   UNL A   1      33.922  28.357  25.255  1.00  0.00     0.042 C 
ENDROOT
BRANCH   1   2
ATOM      2  C   UNL A   1      32.897  27.449  24.584  1.00  0.00     0.117 C 
BRANCH   2   3
ATOM      3  N   UNL A   1      31.736  27.219  25.410  1.00  0.00    -0.354 N 
ATOM      4  C   UNL A   1      31.311  26.086  26.039  1.00  0.00     0.249 C 
ATOM      5  O   UNL A   1      30.306  26.187  26.750  1.00  0.00    -0.272 OA
ATOM      6  H   UNL A   1      31.159  28.006  25.542  1.00  0.00     0.163 HD
BRANCH   4   7
ATOM      7  C   UNL A   1      31.983  24.706  25.822  1.00  0.00     0.207 C 
ATOM      8  C   UNL A   1      31.339  22.906  24.465  1.00  0.00     0.138 C 
ATOM      9  C   UNL A   1      30.740  22.666  25.832  1.00  0.00     0.037 C 
ATOM     10  O   UNL A   1      32.013  24.173  24.497  1.00  0.00    -0.363 OA
ATOM     11  C   UNL A   1      31.406  23.650  26.747  1.00  0.00     0.045 C 
BRANCH   8  12
ATOM     12  C   UNL A   1      32.205  21.801  23.848  1.00  0.00     0.149 C 
BRANCH  12  13
ATOM     13  N   UNL A   1      32.212  20.499  24.495  1.00  0.00    -0.335 N 
ATOM     14  N   UNL A   1      34.207  20.001  25.724  1.00  0.00    -0.284 N 
ATOM     15  C   UNL A   1      32.965  19.759  25.306  1.00  0.00     0.321 C 
ATOM     16  H   UNL A   1      34.610  19.218  26.165  1.00  0.00     0.174 HD
ATOM     17  O   UNL A   1      32.480  18.660  25.611  1.00  0.00    -0.248 OA
ATOM     18  H   UNL A   1      31.396  20.004  24.256  1.00  0.00     0.165 HD
BRANCH  14  19
ATOM     19  C   UNL A   1      35.051  21.061  25.689  1.00  0.00     0.190 A 
ATOM     20  C   UNL A   1      38.361  22.924  26.042  1.00  0.00     0.058 C 
ATOM     21  C   UNL A   1      36.968  22.482  25.791  1.00  0.00     0.023 A 
ATOM     22  C   UNL A   1      35.775  23.076  26.154  1.00  0.00     0.128 A 
ATOM     23  S   UNL A   1      36.613  20.987  25.023  1.00  0.00    -0.102 S 
ATOM     24  N   UNL A   1      34.660  22.266  26.035  1.00  0.00    -0.228 NA
ENDBRANCH  14  19
ENDBRANCH  12  13
ENDBRANCH   8  12
ENDBRANCH   4   7
ENDBRANCH   2   3
ENDBRANCH   1   2
BRANCH   1  25
ATOM     25  C   UNL A   1      33.773  28.405  26.768  1.00  0.00     0.118 C 
BRANCH  25  26
ATOM     26  N   UNL A   1      33.627  29.771  27.255  1.00  0.00    -0.352 N 
ATOM     27  C   UNL A   1      34.459  30.526  28.042  1.00  0.00     0.251 C 
ATOM     28  H   UNL A   1      32.799  30.224  26.974  1.00  0.00     0.163 HD
ATOM     29  O   UNL A   1      34.042  31.576  28.521  1.00  0.00    -0.269 OA
BRANCH  27  30
ATOM     30  C   UNL A   1      35.838  30.074  28.323  1.00  0.00     0.039 A 
ATOM     31  C   UNL A   1      36.788  30.137  27.300  1.00  0.00     0.014 A 
ATOM     32  C   UNL A   1      36.189  29.564  29.575  1.00  0.00     0.014 A 
ATOM     33  C   UNL A   1      38.103  29.740  27.551  1.00  0.00     0.010 A 
ATOM     34  C   UNL A   1      37.517  29.255  29.850  1.00  0.00     0.010 A 
ATOM     35  C   UNL A   1      38.485  29.328  28.838  1.00  0.00    -0.014 A 
BRANCH  35  36
ATOM     36  C   UNL A   1      39.889  28.964  29.147  1.00  0.00     0.031 A 
ATOM     37  C   UNL A   1      40.815  29.978  29.761  1.00  0.00     0.074 A 
ATOM     38  C   UNL A   1      40.342  27.739  28.813  1.00  0.00     0.049 A 
ATOM     39  N   UNL A   1      42.086  29.867  30.044  1.00  0.00    -0.248 NA
ATOM     40  C   UNL A   1      40.244  31.301  30.071  1.00  0.00     0.031 C 
ATOM     41  C   UNL A   1      39.549  26.686  28.173  1.00  0.00     0.029 A 
ATOM     42  N   UNL A   1      41.584  27.175  28.958  1.00  0.00    -0.354 N 
ATOM     43  C   UNL A   1      42.471  31.105  30.546  1.00  0.00     0.074 A 
ATOM     44  C   UNL A   1      41.314  31.968  30.480  1.00  0.00     0.031 C 
ATOM     45  C   UNL A   1      40.314  25.596  28.009  1.00  0.00     0.029 A 
ATOM     46  C   UNL A   1      41.662  25.885  28.486  1.00  0.00     0.049 A 
ATOM     47  H   UNL A   1      42.347  27.649  29.360  1.00  0.00     0.167 HD
ATOM     48  C   UNL A   1      43.676  31.481  31.039  1.00  0.00     0.031 A 
ATOM     49  C   UNL A   1      42.704  25.033  28.436  1.00  0.00     0.031 A 
ATOM     50  C   UNL A   1      44.819  30.611  31.111  1.00  0.00     0.049 A 
ATOM     51  C   UNL A   1      44.034  25.478  28.980  1.00  0.00     0.074 A 
ATOM     52  C   UNL A   1      46.069  30.876  31.643  1.00  0.00     0.029 A 
ATOM     53  N   UNL A   1      44.853  29.309  30.634  1.00  0.00    -0.354 N 
ATOM     54  N   UNL A   1      44.360  26.631  29.514  1.00  0.00    -0.248 NA
ATOM     55  C   UNL A   1      45.130  24.503  28.927  1.00  0.00     0.031 C 
ATOM     56  C   UNL A   1      46.876  29.754  31.435  1.00  0.00     0.029 A 
ATOM     57  C   UNL A   1      46.111  28.766  30.835  1.00  0.00     0.049 A 
ATOM     58  H   UNL A   1      44.097  28.840  30.214  1.00  0.00     0.167 HD
ATOM     59  C   UNL A   1      45.694  26.510  29.888  1.00  0.00     0.074 A 
ATOM     60  C   UNL A   1      46.106  25.167  29.533  1.00  0.00     0.031 C 
ATOM     61  C   UNL A   1      46.503  27.426  30.475  1.00  0.00     0.031 A 
BRANCH  48  62
ATOM     62  C   UNL A   1      43.819  32.898  31.532  1.00  0.00    -0.014 A 
ATOM     63  C   UNL A   1      44.280  33.922  30.683  1.00  0.00     0.010 A 
ATOM     64  C   UNL A   1      43.447  33.222  32.849  1.00  0.00     0.010 A 
ATOM     65  C   UNL A   1      44.404  35.232  31.153  1.00  0.00     0.020 A 
ATOM     66  C   UNL A   1      43.538  34.537  33.315  1.00  0.00     0.020 A 
ATOM     67  C   UNL A   1      44.033  35.530  32.468  1.00  0.00     0.054 A 
BRANCH  67  68
ATOM     68  S   UNL A   1      44.178  37.245  33.042  1.00  0.00     0.124 S 
ATOM     69  O   UNL A   1      43.861  37.995  31.829  1.00  0.00    -0.237 OA
ATOM     70  O   UNL A   1      43.175  37.312  34.102  1.00  0.00    -0.237 OA
ATOM     71  O   UNL A   1      45.564  37.346  33.491  1.00  0.00    -0.744 OA
ENDBRANCH  67  68
ENDBRANCH  48  62
BRANCH  49  72
ATOM     72  C   UNL A   1      42.524  23.672  27.860  1.00  0.00    -0.014 A 
ATOM     73  C   UNL A   1      41.976  22.634  28.633  1.00  0.00     0.010 A 
ATOM     74  C   UNL A   1      42.885  23.413  26.526  1.00  0.00     0.010 A 
ATOM     75  C   UNL A   1      41.810  21.357  28.090  1.00  0.00     0.020 A 
ATOM     76  C   UNL A   1      42.693  22.145  25.969  1.00  0.00     0.020 A 
ATOM     77  C   UNL A   1      42.165  21.122  26.758  1.00  0.00     0.054 A 
BRANCH  77  78
ATOM     78  S   UNL A   1      41.892  19.471  26.057  1.00  0.00     0.124 S 
ATOM     79  O   UNL A   1      42.755  19.494  24.881  1.00  0.00    -0.237 OA
ATOM     80  O   UNL A   1      42.322  18.594  27.143  1.00  0.00    -0.237 OA
ATOM     81  O   UNL A   1      40.457  19.451  25.783  1.00  0.00    -0.744 OA
ENDBRANCH  77  78
ENDBRANCH  49  72
BRANCH  61  82
ATOM     82  C   UNL A   1      47.908  26.997  30.808  1.00  0.00    -0.014 A 
ATOM     83  C   UNL A   1      48.961  27.163  29.893  1.00  0.00     0.010 A 
ATOM     84  C   UNL A   1      48.183  26.472  32.085  1.00  0.00     0.010 A 
ATOM     85  C   UNL A   1      50.260  26.780  30.236  1.00  0.00     0.020 A 
ATOM     86  C   UNL A   1      49.486  26.118  32.442  1.00  0.00     0.020 A 
ATOM     87  C   UNL A   1      50.514  26.263  31.510  1.00  0.00     0.054 A 
BRANCH  87  88
ATOM     88  S   UNL A   1      52.217  25.817  31.946  1.00  0.00     0.124 S 
ATOM     89  O   UNL A   1      52.465  26.667  33.107  1.00  0.00    -0.237 OA
ATOM     90  O   UNL A   1      52.113  24.388  32.224  1.00  0.00    -0.237 OA
ATOM     91  O   UNL A   1      52.982  26.160  30.749  1.00  0.00    -0.744 OA
ENDBRANCH  87  88
ENDBRANCH  61  82
ENDBRANCH  35  36
ENDBRANCH  27  30
ENDBRANCH  25  26
ENDBRANCH   1  25
TORSDOF 16
ENDMDL
MODEL 3
REMARK VINA RESULT:     -10.8      2.763      3.385
REMARK SMILES Cc1cnc(NC(=O)NC[C@H]2CC[C@H](C(=O)NCCCNC(=O)c3ccc(-c4c5nc(c(-c6ccc(S(=O)(=O)[O-])cc6)c6ccc([nH]6)c(-c6ccc(S(=O)(=O)[O-])cc6)c6nc(c(-c7ccc(S(=O)(=O)[O-])cc7)c7ccc4[nH]7)C=C6)C=C5)cc3)O2)s1
REMARK SMILES IDX 19 1 18 2 17 3 15 4 16 5 14 7 11 8 12 9 84 10 13 11 10 12
REMARK SMILES IDX 9 13 6 14 7 15 8 17 5 19 1 20 2 21 3 22 85 23 4 24 20 25
REMARK SMILES IDX 21 26 22 27 23 29 24 30 25 31 83 32 26 33 82 34 27 35 28 36
REMARK SMILES IDX 29 37 76 38 30 39 81 40 75 41 77 42 31 43 80 44 74 45 73 46
REMARK SMILES IDX 32 48 62 49 43 50 61 51 44 52 47 53 60 54 78 55 45 56 46 57
REMARK SMILES IDX 59 59 79 60 48 61 33 62 34 63 42 64 35 65 41 66 36 67 37 68
REMARK SMILES IDX 38 69 39 70 40 71 63 72 64 73 72 74 65 75 71 76 66 77 67 78
REMARK SMILES IDX 68 79 69 80 70 81 49 82 50 83 58 84 51 85 57 86 52 87 53 88
REMARK SMILES IDX 54 89 55 90 56 91
REMARK H PARENT 17 6 6 16 9 18 21 28 77 47 47 58
REMARK Flexibility Score: inf
ROOT
ATOM      1  C   UNL A   1      33.968  29.923  27.309  1.00  0.00     0.042 C 
ENDROOT
BRANCH   1   2
ATOM      2  C   UNL A   1      33.715  28.754  26.363  1.00  0.00     0.117 C 
BRANCH   2   3
ATOM      3  N   UNL A   1      34.163  29.024  25.017  1.00  0.00    -0.354 N 
ATOM      4  C   UNL A   1      33.893  28.372  23.850  1.00  0.00     0.249 C 
ATOM      5  O   UNL A   1      34.357  28.865  22.816  1.00  0.00    -0.272 OA
ATOM      6  H   UNL A   1      34.757  29.804  24.927  1.00  0.00     0.163 HD
BRANCH   4   7
ATOM      7  C   UNL A   1      33.118  27.031  23.800  1.00  0.00     0.207 C 
ATOM      8  C   UNL A   1      31.621  26.090  25.339  1.00  0.00     0.138 C 
ATOM      9  C   UNL A   1      32.995  25.558  25.677  1.00  0.00     0.037 C 
ATOM     10  O   UNL A   1      31.764  27.018  24.254  1.00  0.00    -0.363 OA
ATOM     11  C   UNL A   1      33.870  25.923  24.514  1.00  0.00     0.045 C 
BRANCH   8  12
ATOM     12  C   UNL A   1      30.492  25.080  25.097  1.00  0.00     0.149 C 
BRANCH  12  13
ATOM     13  N   UNL A   1      30.037  24.283  26.225  1.00  0.00    -0.335 N 
ATOM     14  N   UNL A   1      31.131  22.166  26.463  1.00  0.00    -0.284 N 
ATOM     15  C   UNL A   1      30.305  23.138  26.848  1.00  0.00     0.321 C 
ATOM     16  H   UNL A   1      31.016  21.346  26.996  1.00  0.00     0.174 HD
ATOM     17  O   UNL A   1      29.608  22.911  27.847  1.00  0.00    -0.248 OA
ATOM     18  H   UNL A   1      29.288  24.738  26.674  1.00  0.00     0.165 HD
BRANCH  14  19
ATOM     19  C   UNL A   1      32.091  22.031  25.515  1.00  0.00     0.190 A 
ATOM     20  C   UNL A   1      35.494  22.548  23.870  1.00  0.00     0.058 C 
ATOM     21  C   UNL A   1      34.121  22.147  24.262  1.00  0.00     0.023 A 
ATOM     22  C   UNL A   1      32.965  22.103  23.507  1.00  0.00     0.128 A 
ATOM     23  S   UNL A   1      33.724  21.728  25.880  1.00  0.00    -0.102 S 
ATOM     24  N   UNL A   1      31.797  21.976  24.237  1.00  0.00    -0.228 NA
ENDBRANCH  14  19
ENDBRANCH  12  13
ENDBRANCH   8  12
ENDBRANCH   4   7
ENDBRANCH   2   3
ENDBRANCH   1   2
BRANCH   1  25
ATOM     25  C   UNL A   1      35.398  29.971  27.825  1.00  0.00     0.118 C 
BRANCH  25  26
ATOM     26  N   UNL A   1      35.462  30.468  29.194  1.00  0.00    -0.352 N 
ATOM     27  C   UNL A   1      36.458  30.360  30.131  1.00  0.00     0.251 C 
ATOM     28  H   UNL A   1      34.663  30.958  29.494  1.00  0.00     0.163 HD
ATOM     29  O   UNL A   1      36.219  30.656  31.297  1.00  0.00    -0.269 OA
BRANCH  27  30
ATOM     30  C   UNL A   1      37.801  29.879  29.744  1.00  0.00     0.039 A 
ATOM     31  C   UNL A   1      38.170  29.926  28.397  1.00  0.00     0.014 A 
ATOM     32  C   UNL A   1      38.684  29.359  30.694  1.00  0.00     0.014 A 
ATOM     33  C   UNL A   1      39.444  29.501  28.013  1.00  0.00     0.010 A 
ATOM     34  C   UNL A   1      39.981  29.023  30.325  1.00  0.00     0.010 A 
ATOM     35  C   UNL A   1      40.371  29.079  28.980  1.00  0.00    -0.014 A 
BRANCH  35  36
ATOM     36  C   UNL A   1      41.751  28.685  28.605  1.00  0.00     0.031 A 
ATOM     37  C   UNL A   1      42.843  29.719  28.553  1.00  0.00     0.074 A 
ATOM     38  C   UNL A   1      42.001  27.409  28.250  1.00  0.00     0.049 A 
ATOM     39  N   UNL A   1      44.090  29.579  28.189  1.00  0.00    -0.248 NA
ATOM     40  C   UNL A   1      42.479  31.095  28.933  1.00  0.00     0.031 C 
ATOM     41  C   UNL A   1      41.012  26.328  28.219  1.00  0.00     0.029 A 
ATOM     42  N   UNL A   1      43.161  26.806  27.839  1.00  0.00    -0.354 N 
ATOM     43  C   UNL A   1      44.654  30.847  28.278  1.00  0.00     0.074 A 
ATOM     44  C   UNL A   1      43.601  31.753  28.678  1.00  0.00     0.031 C 
ATOM     45  C   UNL A   1      41.614  25.190  27.842  1.00  0.00     0.029 A 
ATOM     46  C   UNL A   1      43.018  25.468  27.557  1.00  0.00     0.049 A 
ATOM     47  H   UNL A   1      44.017  27.286  27.752  1.00  0.00     0.167 HD
ATOM     48  C   UNL A   1      45.939  31.220  28.066  1.00  0.00     0.031 A 
ATOM     49  C   UNL A   1      43.914  24.566  27.112  1.00  0.00     0.031 A 
ATOM     50  C   UNL A   1      46.984  30.310  27.678  1.00  0.00     0.049 A 
ATOM     51  C   UNL A   1      45.332  25.006  26.874  1.00  0.00     0.074 A 
ATOM     52  C   UNL A   1      48.330  30.574  27.492  1.00  0.00     0.029 A 
ATOM     53  N   UNL A   1      46.799  28.961  27.415  1.00  0.00    -0.354 N 
ATOM     54  N   UNL A   1      45.861  26.197  27.029  1.00  0.00    -0.248 NA
ATOM     55  C   UNL A   1      46.276  23.980  26.415  1.00  0.00     0.031 C 
ATOM     56  C   UNL A   1      48.948  29.397  27.060  1.00  0.00     0.029 A 
ATOM     57  C   UNL A   1      48.001  28.384  27.042  1.00  0.00     0.049 A 
ATOM     58  H   UNL A   1      45.941  28.483  27.483  1.00  0.00     0.167 HD
ATOM     59  C   UNL A   1      47.208  26.055  26.714  1.00  0.00     0.074 A 
ATOM     60  C   UNL A   1      47.413  24.661  26.376  1.00  0.00     0.031 C 
ATOM     61  C   UNL A   1      48.187  26.993  26.709  1.00  0.00     0.031 A 
BRANCH  48  62
ATOM     62  C   UNL A   1      46.284  32.677  28.241  1.00  0.00    -0.014 A 
ATOM     63  C   UNL A   1      46.190  33.582  27.168  1.00  0.00     0.010 A 
ATOM     64  C   UNL A   1      46.666  33.157  29.507  1.00  0.00     0.010 A 
ATOM     65  C   UNL A   1      46.510  34.931  27.348  1.00  0.00     0.020 A 
ATOM     66  C   UNL A   1      46.956  34.511  29.700  1.00  0.00     0.020 A 
ATOM     67  C   UNL A   1      46.892  35.386  28.613  1.00  0.00     0.054 A 
BRANCH  67  68
ATOM     68  S   UNL A   1      47.273  37.147  28.822  1.00  0.00     0.124 S 
ATOM     69  O   UNL A   1      47.300  37.615  27.439  1.00  0.00    -0.237 OA
ATOM     70  O   UNL A   1      46.150  37.624  29.625  1.00  0.00    -0.237 OA
ATOM     71  O   UNL A   1      48.565  37.145  29.504  1.00  0.00    -0.744 OA
ENDBRANCH  67  68
ENDBRANCH  48  62
BRANCH  49  72
ATOM     72  C   UNL A   1      43.495  23.156  26.875  1.00  0.00    -0.014 A 
ATOM     73  C   UNL A   1      43.565  22.595  25.589  1.00  0.00     0.010 A 
ATOM     74  C   UNL A   1      43.039  22.363  27.944  1.00  0.00     0.010 A 
ATOM     75  C   UNL A   1      43.169  21.272  25.371  1.00  0.00     0.020 A 
ATOM     76  C   UNL A   1      42.672  21.030  27.736  1.00  0.00     0.020 A 
ATOM     77  C   UNL A   1      42.729  20.496  26.447  1.00  0.00     0.054 A 
BRANCH  77  78
ATOM     78  S   UNL A   1      42.272  18.766  26.151  1.00  0.00     0.124 S 
ATOM     79  O   UNL A   1      40.889  18.890  25.702  1.00  0.00    -0.237 OA
ATOM     80  O   UNL A   1      43.235  18.357  25.132  1.00  0.00    -0.237 OA
ATOM     81  O   UNL A   1      42.454  18.137  27.457  1.00  0.00    -0.744 OA
ENDBRANCH  77  78
ENDBRANCH  49  72
BRANCH  61  82
ATOM     82  C   UNL A   1      49.580  26.539  26.363  1.00  0.00    -0.014 A 
ATOM     83  C   UNL A   1      50.115  26.729  25.078  1.00  0.00     0.010 A 
ATOM     84  C   UNL A   1      50.385  25.964  27.364  1.00  0.00     0.010 A 
ATOM     85  C   UNL A   1      51.420  26.321  24.790  1.00  0.00     0.020 A 
ATOM     86  C   UNL A   1      51.700  25.584  27.089  1.00  0.00     0.020 A 
ATOM     87  C   UNL A   1      52.205  25.753  25.799  1.00  0.00     0.054 A 
BRANCH  87  88
ATOM     88  S   UNL A   1      53.911  25.275  25.410  1.00  0.00     0.124 S 
ATOM     89  O   UNL A   1      53.875  23.830  25.616  1.00  0.00    -0.237 OA
ATOM     90  O   UNL A   1      54.057  25.709  24.024  1.00  0.00    -0.237 OA
ATOM     91  O   UNL A   1      54.709  26.023  26.379  1.00  0.00    -0.744 OA
ENDBRANCH  87  88
ENDBRANCH  61  82
ENDBRANCH  35  36
ENDBRANCH  27  30
ENDBRANCH  25  26
ENDBRANCH   1  25
TORSDOF 16
ENDMDL
