MODEL 1
REMARK VINA RESULT:     -12.8      0.000      0.000
REMARK SMILES CC(C)(C)OC(=O)N1CCC[C@H]1C(=O)N1CCC[C@H]1C(=O)N1CCC[C@@H]1C(=O)NCCCNC(=O)c1ccc(-c2c3nc(c(-c4ccc(S(=O)(=O)[O-])cc4)c4ccc([nH]4)c(-c4ccc(S(=O)(=O)[O-])cc4)c4nc(c(-c5ccc(S(=O)(=O)[O-])cc5)c5ccc2[nH]5)C=C4)C=C3)cc1
REMARK SMILES IDX 27 1 28 2 29 3 26 5 22 6 23 7 24 8 25 9 20 10 21 11 19 12
REMARK SMILES IDX 15 13 16 14 17 15 18 16 13 17 14 18 12 19 8 20 9 21 10 22
REMARK SMILES IDX 11 23 6 24 7 25 5 26 2 27 1 28 3 29 4 30 30 31 31 32 32 33
REMARK SMILES IDX 33 34 34 35 35 37 36 38 37 39 95 40 38 41 94 42 39 43 40 44
REMARK SMILES IDX 41 45 88 46 42 47 93 48 87 49 89 50 43 51 92 52 86 53 85 54
REMARK SMILES IDX 44 56 74 57 55 58 73 59 56 60 59 61 72 62 90 63 57 64 58 65
REMARK SMILES IDX 71 67 91 68 60 69 45 70 46 71 54 72 47 73 53 74 48 75 49 76
REMARK SMILES IDX 50 77 51 78 52 79 75 80 76 81 84 82 77 83 83 84 78 85 79 86
REMARK SMILES IDX 80 87 81 88 82 89 61 90 62 91 70 92 63 93 69 94 64 95 65 96
REMARK SMILES IDX 66 97 67 98 68 99
REMARK H PARENT 29 4 33 36 89 55 59 66
REMARK Flexibility Score: inf
ROOT
ATOM      1  C   UNL A   1      32.867  29.245  24.683  1.00  0.00     0.242 C 
ATOM      2  O   UNL A   1      33.387  29.053  23.580  1.00  0.00    -0.273 OA
ATOM      3  N   UNL A   1      33.676  29.733  25.667  1.00  0.00    -0.354 N 
ATOM      4  H   UNL A   1      34.629  29.818  25.432  1.00  0.00     0.163 HD
ENDROOT
BRANCH   1   5
ATOM      5  C   UNL A   1      31.437  28.738  24.985  1.00  0.00     0.174 C 
ATOM      6  N   UNL A   1      31.275  27.300  25.216  1.00  0.00    -0.329 N 
ATOM      7  C   UNL A   1      30.030  26.848  24.627  1.00  0.00     0.120 C 
ATOM      8  C   UNL A   1      29.877  27.722  23.397  1.00  0.00     0.024 C 
ATOM      9  C   UNL A   1      30.511  29.053  23.796  1.00  0.00     0.037 C 
BRANCH   6  10
ATOM     10  C   UNL A   1      31.890  26.715  26.306  1.00  0.00     0.246 C 
ATOM     11  O   UNL A   1      31.901  27.303  27.396  1.00  0.00    -0.272 OA
BRANCH  10  12
ATOM     12  C   UNL A   1      32.888  25.548  26.081  1.00  0.00     0.174 C 
ATOM     13  N   UNL A   1      32.449  24.225  25.665  1.00  0.00    -0.329 N 
ATOM     14  C   UNL A   1      32.655  24.028  24.235  1.00  0.00     0.120 C 
ATOM     15  C   UNL A   1      33.775  24.980  23.847  1.00  0.00     0.024 C 
ATOM     16  C   UNL A   1      33.923  25.955  25.017  1.00  0.00     0.037 C 
BRANCH  13  17
ATOM     17  C   UNL A   1      32.221  23.287  26.654  1.00  0.00     0.246 C 
ATOM     18  O   UNL A   1      31.219  23.374  27.373  1.00  0.00    -0.272 OA
BRANCH  17  19
ATOM     19  C   UNL A   1      33.331  22.251  26.965  1.00  0.00     0.178 C 
ATOM     20  N   UNL A   1      33.534  21.334  25.832  1.00  0.00    -0.296 N 
ATOM     21  C   UNL A   1      34.690  21.688  25.057  1.00  0.00     0.124 C 
ATOM     22  C   UNL A   1      35.625  22.298  26.077  1.00  0.00     0.024 C 
ATOM     23  C   UNL A   1      34.705  22.936  27.124  1.00  0.00     0.037 C 
BRANCH  20  24
ATOM     24  C   UNL A   1      32.643  20.353  25.511  1.00  0.00     0.410 C 
ATOM     25  O   UNL A   1      31.537  20.601  25.064  1.00  0.00    -0.224 OA
BRANCH  24  26
ATOM     26  O   UNL A   1      33.040  19.090  25.806  1.00  0.00    -0.444 OA
BRANCH  26  27
ATOM     27  C   UNL A   1      33.227  18.182  24.675  1.00  0.00     0.106 C 
ATOM     28  C   UNL A   1      32.594  16.855  25.111  1.00  0.00     0.056 C 
ATOM     29  C   UNL A   1      34.720  17.947  24.396  1.00  0.00     0.056 C 
ATOM     30  C   UNL A   1      32.487  18.645  23.400  1.00  0.00     0.056 C 
ENDBRANCH  26  27
ENDBRANCH  24  26
ENDBRANCH  20  24
ENDBRANCH  17  19
ENDBRANCH  13  17
ENDBRANCH  10  12
ENDBRANCH   6  10
ENDBRANCH   1   5
BRANCH   3  31
ATOM     31  C   UNL A   1      33.327  30.142  27.000  1.00  0.00     0.117 C 
BRANCH  31  32
ATOM     32  C   UNL A   1      34.284  31.120  27.643  1.00  0.00     0.042 C 
BRANCH  32  33
ATOM     33  C   UNL A   1      35.501  30.415  28.222  1.00  0.00     0.118 C 
BRANCH  33  34
ATOM     34  N   UNL A   1      35.562  30.502  29.685  1.00  0.00    -0.352 N 
ATOM     35  C   UNL A   1      36.494  30.001  30.561  1.00  0.00     0.251 C 
ATOM     36  H   UNL A   1      34.821  30.995  30.103  1.00  0.00     0.163 HD
ATOM     37  O   UNL A   1      36.259  29.982  31.765  1.00  0.00    -0.269 OA
BRANCH  35  38
ATOM     38  C   UNL A   1      37.768  29.481  30.033  1.00  0.00     0.039 A 
ATOM     39  C   UNL A   1      38.093  29.672  28.690  1.00  0.00     0.014 A 
ATOM     40  C   UNL A   1      38.655  28.833  30.893  1.00  0.00     0.014 A 
ATOM     41  C   UNL A   1      39.354  29.286  28.234  1.00  0.00     0.010 A 
ATOM     42  C   UNL A   1      39.946  28.571  30.473  1.00  0.00     0.010 A 
ATOM     43  C   UNL A   1      40.306  28.780  29.136  1.00  0.00    -0.014 A 
BRANCH  43  44
ATOM     44  C   UNL A   1      41.684  28.443  28.713  1.00  0.00     0.031 A 
ATOM     45  C   UNL A   1      42.731  29.523  28.660  1.00  0.00     0.074 A 
ATOM     46  C   UNL A   1      41.966  27.193  28.300  1.00  0.00     0.049 A 
ATOM     47  N   UNL A   1      43.969  29.450  28.242  1.00  0.00    -0.248 NA
ATOM     48  C   UNL A   1      42.325  30.871  29.097  1.00  0.00     0.031 C 
ATOM     49  C   UNL A   1      41.018  26.075  28.262  1.00  0.00     0.029 A 
ATOM     50  N   UNL A   1      43.134  26.650  27.827  1.00  0.00    -0.354 N 
ATOM     51  C   UNL A   1      44.478  30.739  28.353  1.00  0.00     0.074 A 
ATOM     52  C   UNL A   1      43.398  31.587  28.802  1.00  0.00     0.031 C 
ATOM     53  C   UNL A   1      41.653  24.973  27.836  1.00  0.00     0.029 A 
ATOM     54  C   UNL A   1      43.036  25.315  27.518  1.00  0.00     0.049 A 
ATOM     55  H   UNL A   1      43.963  27.169  27.719  1.00  0.00     0.167 HD
ATOM     56  C   UNL A   1      45.740  31.173  28.129  1.00  0.00     0.031 A 
ATOM     57  C   UNL A   1      43.957  24.462  27.029  1.00  0.00     0.031 A 
ATOM     58  C   UNL A   1      46.809  30.320  27.684  1.00  0.00     0.049 A 
ATOM     59  C   UNL A   1      45.345  24.974  26.757  1.00  0.00     0.074 A 
ATOM     60  C   UNL A   1      48.136  30.642  27.472  1.00  0.00     0.029 A 
ATOM     61  N   UNL A   1      46.669  28.972  27.380  1.00  0.00    -0.354 N 
ATOM     62  N   UNL A   1      45.828  26.181  26.935  1.00  0.00    -0.248 NA
ATOM     63  C   UNL A   1      46.314  24.005  26.230  1.00  0.00     0.031 C 
ATOM     64  C   UNL A   1      48.784  29.506  26.977  1.00  0.00     0.029 A 
ATOM     65  C   UNL A   1      47.879  28.456  26.954  1.00  0.00     0.049 A 
ATOM     66  H   UNL A   1      45.831  28.460  27.457  1.00  0.00     0.167 HD
ATOM     67  C   UNL A   1      47.169  26.108  26.574  1.00  0.00     0.074 A 
ATOM     68  C   UNL A   1      47.420  24.735  26.184  1.00  0.00     0.031 C 
ATOM     69  C   UNL A   1      48.109  27.086  26.569  1.00  0.00     0.031 A 
BRANCH  56  70
ATOM     70  C   UNL A   1      46.023  32.637  28.357  1.00  0.00    -0.014 A 
ATOM     71  C   UNL A   1      46.617  33.086  29.551  1.00  0.00     0.010 A 
ATOM     72  C   UNL A   1      45.706  33.574  27.358  1.00  0.00     0.010 A 
ATOM     73  C   UNL A   1      46.840  34.449  29.763  1.00  0.00     0.020 A 
ATOM     74  C   UNL A   1      45.961  34.935  27.551  1.00  0.00     0.020 A 
ATOM     75  C   UNL A   1      46.508  35.366  28.761  1.00  0.00     0.054 A 
BRANCH  75  76
ATOM     76  S   UNL A   1      46.821  37.127  29.061  1.00  0.00     0.124 S 
ATOM     77  O   UNL A   1      46.019  37.756  28.016  1.00  0.00    -0.237 OA
ATOM     78  O   UNL A   1      46.329  37.309  30.424  1.00  0.00    -0.237 OA
ATOM     79  O   UNL A   1      48.266  37.255  28.900  1.00  0.00    -0.744 OA
ENDBRANCH  75  76
ENDBRANCH  56  70
BRANCH  57  80
ATOM     80  C   UNL A   1      43.603  23.035  26.794  1.00  0.00    -0.014 A 
ATOM     81  C   UNL A   1      42.875  22.314  27.757  1.00  0.00     0.010 A 
ATOM     82  C   UNL A   1      43.980  22.390  25.601  1.00  0.00     0.010 A 
ATOM     83  C   UNL A   1      42.549  20.972  27.543  1.00  0.00     0.020 A 
ATOM     84  C   UNL A   1      43.627  21.058  25.369  1.00  0.00     0.020 A 
ATOM     85  C   UNL A   1      42.924  20.354  26.348  1.00  0.00     0.054 A 
BRANCH  85  86
ATOM     86  S   UNL A   1      42.447  18.624  26.072  1.00  0.00     0.124 S 
ATOM     87  O   UNL A   1      42.702  18.027  27.379  1.00  0.00    -0.237 OA
ATOM     88  O   UNL A   1      41.041  18.745  25.693  1.00  0.00    -0.237 OA
ATOM     89  O   UNL A   1      43.339  18.190  25.000  1.00  0.00    -0.744 OA
ENDBRANCH  85  86
ENDBRANCH  57  80
BRANCH  69  90
ATOM     90  C   UNL A   1      49.508  26.699  26.170  1.00  0.00    -0.014 A 
ATOM     91  C   UNL A   1      50.344  25.970  27.033  1.00  0.00     0.010 A 
ATOM     92  C   UNL A   1      49.971  27.026  24.880  1.00  0.00     0.010 A 
ATOM     93  C   UNL A   1      51.631  25.606  26.627  1.00  0.00     0.020 A 
ATOM     94  C   UNL A   1      51.242  26.632  24.459  1.00  0.00     0.020 A 
ATOM     95  C   UNL A   1      52.070  25.936  25.342  1.00  0.00     0.054 A 
BRANCH  95  96
ATOM     96  S   UNL A   1      53.726  25.409  24.824  1.00  0.00     0.124 S 
ATOM     97  O   UNL A   1      53.608  23.954  24.865  1.00  0.00    -0.237 OA
ATOM     98  O   UNL A   1      53.844  25.994  23.491  1.00  0.00    -0.237 OA
ATOM     99  O   UNL A   1      54.608  25.991  25.834  1.00  0.00    -0.744 OA
ENDBRANCH  95  96
ENDBRANCH  69  90
ENDBRANCH  43  44
ENDBRANCH  35  38
ENDBRANCH  33  34
ENDBRANCH  32  33
ENDBRANCH  31  32
ENDBRANCH   3  31
TORSDOF 20
ENDMDL
MODEL 2
REMARK VINA RESULT:     -12.7      1.080      8.002
REMARK SMILES CC(C)(C)OC(=O)N1CCC[C@H]1C(=O)N1CCC[C@H]1C(=O)N1CCC[C@@H]1C(=O)NCCCNC(=O)c1ccc(-c2c3nc(c(-c4ccc(S(=O)(=O)[O-])cc4)c4ccc([nH]4)c(-c4ccc(S(=O)(=O)[O-])cc4)c4nc(c(-c5ccc(S(=O)(=O)[O-])cc5)c5ccc2[nH]5)C=C4)C=C3)cc1
REMARK SMILES IDX 27 1 28 2 29 3 26 5 22 6 23 7 24 8 25 9 20 10 21 11 19 12
REMARK SMILES IDX 15 13 16 14 17 15 18 16 13 17 14 18 12 19 8 20 9 21 10 22
REMARK SMILES IDX 11 23 6 24 7 25 5 26 2 27 1 28 3 29 4 30 30 31 31 32 32 33
REMARK SMILES IDX 33 34 34 35 35 37 36 38 37 39 95 40 38 41 94 42 39 43 40 44
REMARK SMILES IDX 41 45 88 46 42 47 93 48 87 49 89 50 43 51 92 52 86 53 85 54
REMARK SMILES IDX 44 56 74 57 55 58 73 59 56 60 59 61 72 62 90 63 57 64 58 65
REMARK SMILES IDX 71 67 91 68 60 69 45 70 46 71 54 72 47 73 53 74 48 75 49 76
REMARK SMILES IDX 50 77 51 78 52 79 75 80 76 81 84 82 77 83 83 84 78 85 79 86
REMARK SMILES IDX 80 87 81 88 82 89 61 90 62 91 70 92 63 93 69 94 64 95 65 96
REMARK SMILES IDX 66 97 67 98 68 99
REMARK H PARENT 29 4 33 36 89 55 59 66
REMARK Flexibility Score: inf
ROOT
ATOM      1  C   UNL A   1      32.620  29.284  24.243  1.00  0.00     0.242 C 
ATOM      2  O   UNL A   1      33.012  29.310  23.073  1.00  0.00    -0.273 OA
ATOM      3  N   UNL A   1      33.537  29.590  25.206  1.00  0.00    -0.354 N 
ATOM      4  H   UNL A   1      34.458  29.731  24.887  1.00  0.00     0.163 HD
ENDROOT
BRANCH   1   5
ATOM      5  C   UNL A   1      31.229  28.709  24.602  1.00  0.00     0.174 C 
ATOM      6  N   UNL A   1      31.044  27.265  24.445  1.00  0.00    -0.329 N 
ATOM      7  C   UNL A   1      29.711  26.993  23.946  1.00  0.00     0.120 C 
ATOM      8  C   UNL A   1      29.418  28.177  23.044  1.00  0.00     0.024 C 
ATOM      9  C   UNL A   1      30.156  29.344  23.700  1.00  0.00     0.037 C 
BRANCH   6  10
ATOM     10  C   UNL A   1      31.786  26.398  25.225  1.00  0.00     0.246 C 
ATOM     11  O   UNL A   1      31.925  26.624  26.434  1.00  0.00    -0.272 OA
BRANCH  10  12
ATOM     12  C   UNL A   1      32.751  25.395  24.540  1.00  0.00     0.174 C 
ATOM     13  N   UNL A   1      32.274  24.340  23.660  1.00  0.00    -0.329 N 
ATOM     14  C   UNL A   1      32.445  24.706  22.259  1.00  0.00     0.120 C 
ATOM     15  C   UNL A   1      33.577  25.719  22.235  1.00  0.00     0.024 C 
ATOM     16  C   UNL A   1      33.773  26.167  23.685  1.00  0.00     0.037 C 
BRANCH  13  17
ATOM     17  C   UNL A   1      32.046  23.096  24.218  1.00  0.00     0.246 C 
ATOM     18  O   UNL A   1      31.165  22.952  25.074  1.00  0.00    -0.272 OA
BRANCH  17  19
ATOM     19  C   UNL A   1      33.033  21.945  23.897  1.00  0.00     0.178 C 
ATOM     20  N   UNL A   1      33.549  21.330  25.129  1.00  0.00    -0.296 N 
ATOM     21  C   UNL A   1      32.886  20.090  25.428  1.00  0.00     0.124 C 
ATOM     22  C   UNL A   1      32.534  19.542  24.063  1.00  0.00     0.024 C 
ATOM     23  C   UNL A   1      32.316  20.779  23.184  1.00  0.00     0.037 C 
BRANCH  20  24
ATOM     24  C   UNL A   1      34.458  21.947  25.936  1.00  0.00     0.410 C 
ATOM     25  O   UNL A   1      34.551  21.693  27.123  1.00  0.00    -0.224 OA
BRANCH  24  26
ATOM     26  O   UNL A   1      35.190  22.924  25.344  1.00  0.00    -0.444 OA
BRANCH  26  27
ATOM     27  C   UNL A   1      36.478  22.526  24.778  1.00  0.00     0.106 C 
ATOM     28  C   UNL A   1      37.524  23.363  25.523  1.00  0.00     0.056 C 
ATOM     29  C   UNL A   1      36.553  22.863  23.280  1.00  0.00     0.056 C 
ATOM     30  C   UNL A   1      36.816  21.040  25.033  1.00  0.00     0.056 C 
ENDBRANCH  26  27
ENDBRANCH  24  26
ENDBRANCH  20  24
ENDBRANCH  17  19
ENDBRANCH  13  17
ENDBRANCH  10  12
ENDBRANCH   6  10
ENDBRANCH   1   5
BRANCH   3  31
ATOM     31  C   UNL A   1      33.343  29.737  26.622  1.00  0.00     0.117 C 
BRANCH  31  32
ATOM     32  C   UNL A   1      34.376  29.052  27.487  1.00  0.00     0.042 C 
BRANCH  32  33
ATOM     33  C   UNL A   1      35.488  30.006  27.894  1.00  0.00     0.118 C 
BRANCH  33  34
ATOM     34  N   UNL A   1      35.553  30.211  29.345  1.00  0.00    -0.352 N 
ATOM     35  C   UNL A   1      36.527  29.853  30.245  1.00  0.00     0.251 C 
ATOM     36  H   UNL A   1      34.780  30.680  29.734  1.00  0.00     0.163 HD
ATOM     37  O   UNL A   1      36.303  29.911  31.450  1.00  0.00    -0.269 OA
BRANCH  35  38
ATOM     38  C   UNL A   1      37.832  29.389  29.742  1.00  0.00     0.039 A 
ATOM     39  C   UNL A   1      38.043  29.263  28.369  1.00  0.00     0.014 A 
ATOM     40  C   UNL A   1      38.859  29.115  30.646  1.00  0.00     0.014 A 
ATOM     41  C   UNL A   1      39.319  28.945  27.904  1.00  0.00     0.010 A 
ATOM     42  C   UNL A   1      40.148  28.930  30.181  1.00  0.00     0.010 A 
ATOM     43  C   UNL A   1      40.390  28.827  28.806  1.00  0.00    -0.014 A 
BRANCH  43  44
ATOM     44  C   UNL A   1      41.777  28.580  28.348  1.00  0.00     0.031 A 
ATOM     45  C   UNL A   1      42.188  27.194  27.932  1.00  0.00     0.074 A 
ATOM     46  C   UNL A   1      42.679  29.580  28.390  1.00  0.00     0.049 A 
ATOM     47  N   UNL A   1      43.369  26.757  27.578  1.00  0.00    -0.248 NA
ATOM     48  C   UNL A   1      41.145  26.153  27.950  1.00  0.00     0.031 C 
ATOM     49  C   UNL A   1      42.406  30.954  28.823  1.00  0.00     0.029 A 
ATOM     50  N   UNL A   1      44.011  29.595  28.068  1.00  0.00    -0.354 N 
ATOM     51  C   UNL A   1      43.210  25.395  27.349  1.00  0.00     0.074 A 
ATOM     52  C   UNL A   1      41.844  25.063  27.677  1.00  0.00     0.031 C 
ATOM     53  C   UNL A   1      43.523  31.686  28.695  1.00  0.00     0.029 A 
ATOM     54  C   UNL A   1      44.604  30.825  28.225  1.00  0.00     0.049 A 
ATOM     55  H   UNL A   1      44.498  28.799  27.754  1.00  0.00     0.167 HD
ATOM     56  C   UNL A   1      44.115  24.504  26.879  1.00  0.00     0.031 A 
ATOM     57  C   UNL A   1      45.876  31.214  28.019  1.00  0.00     0.031 A 
ATOM     58  C   UNL A   1      45.474  24.845  26.554  1.00  0.00     0.049 A 
ATOM     59  C   UNL A   1      46.873  30.200  27.528  1.00  0.00     0.074 A 
ATOM     60  C   UNL A   1      46.461  24.034  26.026  1.00  0.00     0.029 A 
ATOM     61  N   UNL A   1      46.036  26.102  26.730  1.00  0.00    -0.354 N 
ATOM     62  N   UNL A   1      46.688  28.931  27.249  1.00  0.00    -0.248 NA
ATOM     63  C   UNL A   1      48.245  30.674  27.312  1.00  0.00     0.031 C 
ATOM     64  C   UNL A   1      47.639  24.784  25.944  1.00  0.00     0.029 A 
ATOM     65  C   UNL A   1      47.365  26.082  26.348  1.00  0.00     0.049 A 
ATOM     66  H   UNL A   1      45.558  26.891  27.075  1.00  0.00     0.167 HD
ATOM     67  C   UNL A   1      47.915  28.463  26.791  1.00  0.00     0.074 A 
ATOM     68  C   UNL A   1      48.826  29.589  26.817  1.00  0.00     0.031 C 
ATOM     69  C   UNL A   1      48.257  27.215  26.382  1.00  0.00     0.031 A 
BRANCH  56  70
ATOM     70  C   UNL A   1      43.658  23.078  26.700  1.00  0.00    -0.014 A 
ATOM     71  C   UNL A   1      43.158  22.332  27.784  1.00  0.00     0.010 A 
ATOM     72  C   UNL A   1      43.712  22.480  25.429  1.00  0.00     0.010 A 
ATOM     73  C   UNL A   1      42.772  21.001  27.611  1.00  0.00     0.020 A 
ATOM     74  C   UNL A   1      43.292  21.160  25.244  1.00  0.00     0.020 A 
ATOM     75  C   UNL A   1      42.844  20.422  26.341  1.00  0.00     0.054 A 
BRANCH  75  76
ATOM     76  S   UNL A   1      42.323  18.696  26.146  1.00  0.00     0.124 S 
ATOM     77  O   UNL A   1      42.477  18.180  27.503  1.00  0.00    -0.237 OA
ATOM     78  O   UNL A   1      40.946  18.830  25.678  1.00  0.00    -0.237 OA
ATOM     79  O   UNL A   1      43.262  18.159  25.165  1.00  0.00    -0.744 OA
ENDBRANCH  75  76
ENDBRANCH  56  70
BRANCH  57  80
ATOM     80  C   UNL A   1      46.270  32.631  28.248  1.00  0.00    -0.014 A 
ATOM     81  C   UNL A   1      46.320  33.539  27.176  1.00  0.00     0.010 A 
ATOM     82  C   UNL A   1      46.586  33.087  29.542  1.00  0.00     0.010 A 
ATOM     83  C   UNL A   1      46.699  34.868  27.386  1.00  0.00     0.020 A 
ATOM     84  C   UNL A   1      46.933  34.423  29.762  1.00  0.00     0.020 A 
ATOM     85  C   UNL A   1      46.999  35.302  28.679  1.00  0.00     0.054 A 
BRANCH  85  86
ATOM     86  S   UNL A   1      47.440  37.044  28.935  1.00  0.00     0.124 S 
ATOM     87  O   UNL A   1      48.379  36.958  30.049  1.00  0.00    -0.237 OA
ATOM     88  O   UNL A   1      48.018  37.412  27.645  1.00  0.00    -0.237 OA
ATOM     89  O   UNL A   1      46.161  37.680  29.241  1.00  0.00    -0.744 OA
ENDBRANCH  85  86
ENDBRANCH  57  80
BRANCH  69  90
ATOM     90  C   UNL A   1      49.664  27.010  25.888  1.00  0.00    -0.014 A 
ATOM     91  C   UNL A   1      50.689  26.575  26.747  1.00  0.00     0.010 A 
ATOM     92  C   UNL A   1      49.948  27.202  24.522  1.00  0.00     0.010 A 
ATOM     93  C   UNL A   1      51.981  26.372  26.255  1.00  0.00     0.020 A 
ATOM     94  C   UNL A   1      51.230  26.965  24.022  1.00  0.00     0.020 A 
ATOM     95  C   UNL A   1      52.242  26.565  24.896  1.00  0.00     0.054 A 
BRANCH  95  96
ATOM     96  S   UNL A   1      53.917  26.248  24.277  1.00  0.00     0.124 S 
ATOM     97  O   UNL A   1      53.688  26.102  22.842  1.00  0.00    -0.237 OA
ATOM     98  O   UNL A   1      54.638  27.453  24.679  1.00  0.00    -0.237 OA
ATOM     99  O   UNL A   1      54.319  25.026  24.971  1.00  0.00    -0.744 OA
ENDBRANCH  95  96
ENDBRANCH  69  90
ENDBRANCH  43  44
ENDBRANCH  35  38
ENDBRANCH  33  34
ENDBRANCH  32  33
ENDBRANCH  31  32
ENDBRANCH   3  31
TORSDOF 20
ENDMDL
MODEL 3
REMARK VINA RESULT:     -12.6      1.007      2.071
REMARK SMILES CC(C)(C)OC(=O)N1CCC[C@H]1C(=O)N1CCC[C@H]1C(=O)N1CCC[C@@H]1C(=O)NCCCNC(=O)c1ccc(-c2c3nc(c(-c4ccc(S(=O)(=O)[O-])cc4)c4ccc([nH]4)c(-c4ccc(S(=O)(=O)[O-])cc4)c4nc(c(-c5ccc(S(=O)(=O)[O-])cc5)c5ccc2[nH]5)C=C4)C=C3)cc1
REMARK SMILES IDX 27 1 28 2 29 3 26 5 22 6 23 7 24 8 25 9 20 10 21 11 19 12
REMARK SMILES IDX 15 13 16 14 17 15 18 16 13 17 14 18 12 19 8 20 9 21 10 22
REMARK SMILES IDX 11 23 6 24 7 25 5 26 2 27 1 28 3 29 4 30 30 31 31 32 32 33
REMARK SMILES IDX 33 34 34 35 35 37 36 38 37 39 95 40 38 41 94 42 39 43 40 44
REMARK SMILES IDX 41 45 88 46 42 47 93 48 87 49 89 50 43 51 92 52 86 53 85 54
REMARK SMILES IDX 44 56 74 57 55 58 73 59 56 60 59 61 72 62 90 63 57 64 58 65
REMARK SMILES IDX 71 67 91 68 60 69 45 70 46 71 54 72 47 73 53 74 48 75 49 76
REMARK SMILES IDX 50 77 51 78 52 79 75 80 76 81 84 82 77 83 83 84 78 85 79 86
REMARK SMILES IDX 80 87 81 88 82 89 61 90 62 91 70 92 63 93 69 94 64 95 65 96
REMARK SMILES IDX 66 97 67 98 68 99
REMARK H PARENT 29 4 33 36 89 55 59 66
REMARK Flexibility Score: inf
ROOT
ATOM      1  C   UNL A   1      32.802  29.268  24.323  1.00  0.00     0.242 C 
ATOM      2  O   UNL A   1      33.173  29.330  23.146  1.00  0.00    -0.273 OA
ATOM      3  N   UNL A   1      33.742  29.527  25.277  1.00  0.00    -0.354 N 
ATOM      4  H   UNL A   1      34.659  29.665  24.945  1.00  0.00     0.163 HD
ENDROOT
BRANCH   1   5
ATOM      5  C   UNL A   1      31.409  28.702  24.688  1.00  0.00     0.174 C 
ATOM      6  N   UNL A   1      31.197  27.268  24.477  1.00  0.00    -0.329 N 
ATOM      7  C   UNL A   1      29.849  27.038  23.996  1.00  0.00     0.120 C 
ATOM      8  C   UNL A   1      29.557  28.262  23.149  1.00  0.00     0.024 C 
ATOM      9  C   UNL A   1      30.328  29.390  23.834  1.00  0.00     0.037 C 
BRANCH   6  10
ATOM     10  C   UNL A   1      31.940  26.359  25.206  1.00  0.00     0.246 C 
ATOM     11  O   UNL A   1      32.156  26.564  26.408  1.00  0.00    -0.272 OA
BRANCH  10  12
ATOM     12  C   UNL A   1      32.818  25.321  24.459  1.00  0.00     0.174 C 
ATOM     13  N   UNL A   1      32.243  24.192  23.745  1.00  0.00    -0.329 N 
ATOM     14  C   UNL A   1      32.188  24.448  22.311  1.00  0.00     0.120 C 
ATOM     15  C   UNL A   1      33.274  25.475  22.035  1.00  0.00     0.024 C 
ATOM     16  C   UNL A   1      33.675  26.040  23.400  1.00  0.00     0.037 C 
BRANCH  13  17
ATOM     17  C   UNL A   1      32.139  22.992  24.424  1.00  0.00     0.246 C 
ATOM     18  O   UNL A   1      31.344  22.879  25.365  1.00  0.00    -0.272 OA
BRANCH  17  19
ATOM     19  C   UNL A   1      33.162  21.871  24.114  1.00  0.00     0.178 C 
ATOM     20  N   UNL A   1      33.763  21.345  25.349  1.00  0.00    -0.296 N 
ATOM     21  C   UNL A   1      33.173  20.095  25.742  1.00  0.00     0.124 C 
ATOM     22  C   UNL A   1      32.785  19.460  24.426  1.00  0.00     0.024 C 
ATOM     23  C   UNL A   1      32.468  20.638  23.497  1.00  0.00     0.037 C 
BRANCH  20  24
ATOM     24  C   UNL A   1      34.680  22.044  26.077  1.00  0.00     0.410 C 
ATOM     25  O   UNL A   1      34.398  23.079  26.654  1.00  0.00    -0.224 OA
BRANCH  24  26
ATOM     26  O   UNL A   1      35.944  21.554  26.042  1.00  0.00    -0.444 OA
BRANCH  26  27
ATOM     27  C   UNL A   1      36.932  22.347  25.312  1.00  0.00     0.106 C 
ATOM     28  C   UNL A   1      38.219  21.512  25.334  1.00  0.00     0.056 C 
ATOM     29  C   UNL A   1      37.201  23.685  26.019  1.00  0.00     0.056 C 
ATOM     30  C   UNL A   1      36.555  22.565  23.829  1.00  0.00     0.056 C 
ENDBRANCH  26  27
ENDBRANCH  24  26
ENDBRANCH  20  24
ENDBRANCH  17  19
ENDBRANCH  13  17
ENDBRANCH  10  12
ENDBRANCH   6  10
ENDBRANCH   1   5
BRANCH   3  31
ATOM     31  C   UNL A   1      33.576  29.626  26.701  1.00  0.00     0.117 C 
BRANCH  31  32
ATOM     32  C   UNL A   1      34.660  28.964  27.522  1.00  0.00     0.042 C 
BRANCH  32  33
ATOM     33  C   UNL A   1      35.650  29.982  28.066  1.00  0.00     0.118 C 
BRANCH  33  34
ATOM     34  N   UNL A   1      35.519  30.179  29.514  1.00  0.00    -0.352 N 
ATOM     35  C   UNL A   1      36.447  30.018  30.515  1.00  0.00     0.251 C 
ATOM     36  H   UNL A   1      34.630  30.472  29.815  1.00  0.00     0.163 HD
ATOM     37  O   UNL A   1      36.091  30.014  31.689  1.00  0.00    -0.269 OA
BRANCH  35  38
ATOM     38  C   UNL A   1      37.865  29.840  30.156  1.00  0.00     0.039 A 
ATOM     39  C   UNL A   1      38.764  29.344  31.101  1.00  0.00     0.014 A 
ATOM     40  C   UNL A   1      38.289  30.138  28.860  1.00  0.00     0.014 A 
ATOM     41  C   UNL A   1      40.074  29.064  30.710  1.00  0.00     0.010 A 
ATOM     42  C   UNL A   1      39.545  29.739  28.443  1.00  0.00     0.010 A 
ATOM     43  C   UNL A   1      40.457  29.212  29.367  1.00  0.00    -0.014 A 
BRANCH  43  44
ATOM     44  C   UNL A   1      41.810  28.840  28.892  1.00  0.00     0.031 A 
ATOM     45  C   UNL A   1      42.888  29.887  28.825  1.00  0.00     0.074 A 
ATOM     46  C   UNL A   1      42.037  27.590  28.445  1.00  0.00     0.049 A 
ATOM     47  N   UNL A   1      44.109  29.783  28.366  1.00  0.00    -0.248 NA
ATOM     48  C   UNL A   1      42.541  31.238  29.302  1.00  0.00     0.031 C 
ATOM     49  C   UNL A   1      41.053  26.504  28.416  1.00  0.00     0.029 A 
ATOM     50  N   UNL A   1      43.170  27.021  27.923  1.00  0.00    -0.354 N 
ATOM     51  C   UNL A   1      44.663  31.053  28.485  1.00  0.00     0.074 A 
ATOM     52  C   UNL A   1      43.627  31.925  28.985  1.00  0.00     0.031 C 
ATOM     53  C   UNL A   1      41.637  25.392  27.948  1.00  0.00     0.029 A 
ATOM     54  C   UNL A   1      43.020  25.696  27.592  1.00  0.00     0.049 A 
ATOM     55  H   UNL A   1      44.012  27.515  27.798  1.00  0.00     0.167 HD
ATOM     56  C   UNL A   1      45.931  31.451  28.228  1.00  0.00     0.031 A 
ATOM     57  C   UNL A   1      43.896  24.825  27.056  1.00  0.00     0.031 A 
ATOM     58  C   UNL A   1      46.956  30.574  27.731  1.00  0.00     0.049 A 
ATOM     59  C   UNL A   1      45.290  25.297  26.748  1.00  0.00     0.074 A 
ATOM     60  C   UNL A   1      48.286  30.858  27.482  1.00  0.00     0.029 A 
ATOM     61  N   UNL A   1      46.763  29.238  27.406  1.00  0.00    -0.354 N 
ATOM     62  N   UNL A   1      45.818  26.485  26.933  1.00  0.00    -0.248 NA
ATOM     63  C   UNL A   1      46.210  24.309  26.171  1.00  0.00     0.031 C 
ATOM     64  C   UNL A   1      48.880  29.713  26.943  1.00  0.00     0.029 A 
ATOM     65  C   UNL A   1      47.941  28.693  26.930  1.00  0.00     0.049 A 
ATOM     66  H   UNL A   1      45.912  28.751  27.500  1.00  0.00     0.167 HD
ATOM     67  C   UNL A   1      47.143  26.376  26.527  1.00  0.00     0.074 A 
ATOM     68  C   UNL A   1      47.337  25.004  26.102  1.00  0.00     0.031 C 
ATOM     69  C   UNL A   1      48.114  27.324  26.510  1.00  0.00     0.031 A 
BRANCH  56  70
ATOM     70  C   UNL A   1      46.268  32.900  28.475  1.00  0.00    -0.014 A 
ATOM     71  C   UNL A   1      45.937  33.895  27.535  1.00  0.00     0.010 A 
ATOM     72  C   UNL A   1      46.907  33.277  29.669  1.00  0.00     0.010 A 
ATOM     73  C   UNL A   1      46.288  35.228  27.761  1.00  0.00     0.020 A 
ATOM     74  C   UNL A   1      47.226  34.615  29.916  1.00  0.00     0.020 A 
ATOM     75  C   UNL A   1      46.932  35.580  28.950  1.00  0.00     0.054 A 
BRANCH  75  76
ATOM     76  S   UNL A   1      47.363  37.320  29.220  1.00  0.00     0.124 S 
ATOM     77  O   UNL A   1      48.772  37.344  28.837  1.00  0.00    -0.237 OA
ATOM     78  O   UNL A   1      46.454  38.016  28.313  1.00  0.00    -0.237 OA
ATOM     79  O   UNL A   1      47.100  37.527  30.642  1.00  0.00    -0.744 OA
ENDBRANCH  75  76
ENDBRANCH  56  70
BRANCH  57  80
ATOM     80  C   UNL A   1      43.488  23.415  26.804  1.00  0.00    -0.014 A 
ATOM     81  C   UNL A   1      43.699  22.826  25.545  1.00  0.00     0.010 A 
ATOM     82  C   UNL A   1      42.897  22.647  27.825  1.00  0.00     0.010 A 
ATOM     83  C   UNL A   1      43.309  21.506  25.304  1.00  0.00     0.020 A 
ATOM     84  C   UNL A   1      42.535  21.316  27.598  1.00  0.00     0.020 A 
ATOM     85  C   UNL A   1      42.733  20.758  26.333  1.00  0.00     0.054 A 
BRANCH  85  86
ATOM     86  S   UNL A   1      42.279  19.031  26.010  1.00  0.00     0.124 S 
ATOM     87  O   UNL A   1      43.108  18.711  24.852  1.00  0.00    -0.237 OA
ATOM     88  O   UNL A   1      42.653  18.371  27.259  1.00  0.00    -0.237 OA
ATOM     89  O   UNL A   1      40.843  19.096  25.754  1.00  0.00    -0.744 OA
ENDBRANCH  85  86
ENDBRANCH  57  80
BRANCH  69  90
ATOM     90  C   UNL A   1      49.486  26.901  26.057  1.00  0.00    -0.014 A 
ATOM     91  C   UNL A   1      50.357  26.199  26.908  1.00  0.00     0.010 A 
ATOM     92  C   UNL A   1      49.885  27.165  24.733  1.00  0.00     0.010 A 
ATOM     93  C   UNL A   1      51.617  25.800  26.453  1.00  0.00     0.020 A 
ATOM     94  C   UNL A   1      51.129  26.736  24.265  1.00  0.00     0.020 A 
ATOM     95  C   UNL A   1      51.993  26.069  25.134  1.00  0.00     0.054 A 
BRANCH  95  96
ATOM     96  S   UNL A   1      53.614  25.497  24.556  1.00  0.00     0.124 S 
ATOM     97  O   UNL A   1      53.569  24.075  24.883  1.00  0.00    -0.237 OA
ATOM     98  O   UNL A   1      53.575  25.817  23.131  1.00  0.00    -0.237 OA
ATOM     99  O   UNL A   1      54.561  26.287  25.340  1.00  0.00    -0.744 OA
ENDBRANCH  95  96
ENDBRANCH  69  90
ENDBRANCH  43  44
ENDBRANCH  35  38
ENDBRANCH  33  34
ENDBRANCH  32  33
ENDBRANCH  31  32
ENDBRANCH   3  31
TORSDOF 20
ENDMDL
