MODEL 1
REMARK VINA RESULT:     -11.6      0.000      0.000
REMARK SMILES COc1cc(Cn2cc(C(=O)NCCCNC(=O)c3ccc(-c4c5nc(c(-c6ccc(S(=O)(=O)[O-])cc6)c6ccc([nH]6)c(-c6ccc(S(=O)(=O)[O-])cc6)c6nc(c(-c7ccc(S(=O)(=O)[O-])cc7)c7ccc4[nH]7)C=C6)C=C5)cc3)c(=O)[nH]c2=O)ccn1
REMARK SMILES IDX 14 1 13 2 12 3 10 4 11 5 9 7 7 8 8 9 82 10 81 11 83 12 79 13
REMARK SMILES IDX 80 15 6 16 5 17 3 18 4 19 86 20 85 21 84 22 2 23 1 24 15 25
REMARK SMILES IDX 16 26 17 27 18 29 19 30 20 31 78 32 21 33 77 34 22 35 23 36
REMARK SMILES IDX 24 37 71 38 25 39 76 40 70 41 72 42 26 43 75 44 69 45 68 46
REMARK SMILES IDX 27 48 57 49 38 50 56 51 39 52 42 53 55 54 73 55 40 56 41 57
REMARK SMILES IDX 54 59 74 60 43 61 28 62 29 63 37 64 30 65 36 66 31 67 32 68
REMARK SMILES IDX 33 69 34 70 35 71 58 72 59 73 67 74 60 75 66 76 61 77 62 78
REMARK SMILES IDX 63 79 64 80 65 81 44 82 45 83 53 84 46 85 52 86 47 87 48 88
REMARK SMILES IDX 49 89 50 90 51 91
REMARK H PARENT 12 6 81 14 16 28 72 47 42 58
REMARK Flexibility Score: inf
ROOT
ATOM      1  C   UNL A   1      32.004  28.682  27.049  1.00  0.00     0.042 C 
ENDROOT
BRANCH   1   2
ATOM      2  C   UNL A   1      31.722  28.201  25.625  1.00  0.00     0.118 C 
BRANCH   2   3
ATOM      3  N   UNL A   1      30.669  27.197  25.624  1.00  0.00    -0.352 N 
ATOM      4  C   UNL A   1      30.293  26.242  24.724  1.00  0.00     0.258 C 
ATOM      5  O   UNL A   1      29.291  25.584  24.999  1.00  0.00    -0.269 OA
ATOM      6  H   UNL A   1      30.115  27.210  26.438  1.00  0.00     0.163 HD
BRANCH   4   7
ATOM      7  C   UNL A   1      31.058  25.971  23.477  1.00  0.00     0.121 A 
ATOM      8  N   UNL A   1      32.558  24.641  22.157  1.00  0.00    -0.295 N 
ATOM      9  C   UNL A   1      31.877  24.919  23.330  1.00  0.00     0.110 A 
ATOM     10  C   UNL A   1      32.571  25.531  21.094  1.00  0.00     0.328 A 
ATOM     11  N   UNL A   1      31.849  26.676  21.290  1.00  0.00    -0.273 N 
ATOM     12  O   UNL A   1      33.144  25.333  20.027  1.00  0.00    -0.248 OA
ATOM     13  C   UNL A   1      31.005  26.929  22.338  1.00  0.00     0.266 A 
ATOM     14  H   UNL A   1      31.945  27.385  20.614  1.00  0.00     0.175 HD
ATOM     15  O   UNL A   1      30.223  27.873  22.284  1.00  0.00    -0.268 OA
BRANCH   8  16
ATOM     16  C   UNL A   1      33.200  23.334  21.990  1.00  0.00     0.162 C 
BRANCH  16  17
ATOM     17  C   UNL A   1      33.955  22.941  23.242  1.00  0.00    -0.021 A 
ATOM     18  C   UNL A   1      35.809  23.179  24.733  1.00  0.00     0.213 A 
ATOM     19  C   UNL A   1      35.140  23.594  23.593  1.00  0.00     0.074 A 
ATOM     20  N   UNL A   1      35.427  22.144  25.508  1.00  0.00    -0.222 NA
ATOM     21  C   UNL A   1      34.292  21.515  25.144  1.00  0.00     0.115 A 
ATOM     22  C   UNL A   1      33.525  21.880  24.047  1.00  0.00     0.026 A 
BRANCH  18  23
ATOM     23  O   UNL A   1      36.948  23.835  25.120  1.00  0.00    -0.481 OA
ATOM     24  C   UNL A   1      37.827  22.890  25.728  1.00  0.00     0.280 C 
ENDBRANCH  18  23
ENDBRANCH  16  17
ENDBRANCH   8  16
ENDBRANCH   4   7
ENDBRANCH   2   3
ENDBRANCH   1   2
BRANCH   1  25
ATOM     25  C   UNL A   1      33.455  29.109  27.259  1.00  0.00     0.118 C 
BRANCH  25  26
ATOM     26  N   UNL A   1      33.557  30.452  27.816  1.00  0.00    -0.352 N 
ATOM     27  C   UNL A   1      34.604  31.029  28.502  1.00  0.00     0.251 C 
ATOM     28  H   UNL A   1      32.769  31.026  27.684  1.00  0.00     0.163 HD
ATOM     29  O   UNL A   1      34.451  32.108  29.058  1.00  0.00    -0.269 OA
BRANCH  27  30
ATOM     30  C   UNL A   1      35.896  30.313  28.595  1.00  0.00     0.039 A 
ATOM     31  C   UNL A   1      36.279  29.688  29.784  1.00  0.00     0.014 A 
ATOM     32  C   UNL A   1      36.753  30.310  27.491  1.00  0.00     0.014 A 
ATOM     33  C   UNL A   1      37.580  29.218  29.927  1.00  0.00     0.010 A 
ATOM     34  C   UNL A   1      38.036  29.770  27.614  1.00  0.00     0.010 A 
ATOM     35  C   UNL A   1      38.480  29.275  28.851  1.00  0.00    -0.014 A 
BRANCH  35  36
ATOM     36  C   UNL A   1      39.896  28.869  29.046  1.00  0.00     0.031 A 
ATOM     37  C   UNL A   1      40.861  29.798  29.734  1.00  0.00     0.074 A 
ATOM     38  C   UNL A   1      40.305  27.648  28.651  1.00  0.00     0.049 A 
ATOM     39  N   UNL A   1      42.135  29.626  29.980  1.00  0.00    -0.248 NA
ATOM     40  C   UNL A   1      40.331  31.087  30.210  1.00  0.00     0.031 C 
ATOM     41  C   UNL A   1      39.452  26.644  28.015  1.00  0.00     0.029 A 
ATOM     42  N   UNL A   1      41.530  27.037  28.747  1.00  0.00    -0.354 N 
ATOM     43  C   UNL A   1      42.563  30.790  30.610  1.00  0.00     0.074 A 
ATOM     44  C   UNL A   1      41.419  31.672  30.691  1.00  0.00     0.031 C 
ATOM     45  C   UNL A   1      40.166  25.526  27.822  1.00  0.00     0.029 A 
ATOM     46  C   UNL A   1      41.543  25.754  28.254  1.00  0.00     0.049 A 
ATOM     47  H   UNL A   1      42.323  27.475  29.131  1.00  0.00     0.167 HD
ATOM     48  C   UNL A   1      43.794  31.092  31.084  1.00  0.00     0.031 A 
ATOM     49  C   UNL A   1      42.547  24.861  28.143  1.00  0.00     0.031 A 
ATOM     50  C   UNL A   1      44.920  30.199  31.019  1.00  0.00     0.049 A 
ATOM     51  C   UNL A   1      43.919  25.233  28.626  1.00  0.00     0.074 A 
ATOM     52  C   UNL A   1      46.203  30.409  31.496  1.00  0.00     0.029 A 
ATOM     53  N   UNL A   1      44.904  28.936  30.450  1.00  0.00    -0.354 N 
ATOM     54  N   UNL A   1      44.305  26.340  29.212  1.00  0.00    -0.248 NA
ATOM     55  C   UNL A   1      44.991  24.247  28.430  1.00  0.00     0.031 C 
ATOM     56  C   UNL A   1      46.977  29.297  31.161  1.00  0.00     0.029 A 
ATOM     57  C   UNL A   1      46.162  28.365  30.536  1.00  0.00     0.049 A 
ATOM     58  H   UNL A   1      44.115  28.508  30.046  1.00  0.00     0.167 HD
ATOM     59  C   UNL A   1      45.663  26.184  29.462  1.00  0.00     0.074 A 
ATOM     60  C   UNL A   1      46.030  24.871  28.975  1.00  0.00     0.031 C 
ATOM     61  C   UNL A   1      46.521  27.056  30.044  1.00  0.00     0.031 A 
BRANCH  48  62
ATOM     62  C   UNL A   1      44.006  32.450  31.699  1.00  0.00    -0.014 A 
ATOM     63  C   UNL A   1      43.737  32.641  33.068  1.00  0.00     0.010 A 
ATOM     64  C   UNL A   1      44.388  33.554  30.917  1.00  0.00     0.010 A 
ATOM     65  C   UNL A   1      43.836  33.910  33.642  1.00  0.00     0.020 A 
ATOM     66  C   UNL A   1      44.513  34.821  31.493  1.00  0.00     0.020 A 
ATOM     67  C   UNL A   1      44.221  34.994  32.850  1.00  0.00     0.054 A 
BRANCH  67  68
ATOM     68  S   UNL A   1      44.373  36.633  33.612  1.00  0.00     0.124 S 
ATOM     69  O   UNL A   1      44.571  37.496  32.453  1.00  0.00    -0.237 OA
ATOM     70  O   UNL A   1      43.097  36.786  34.307  1.00  0.00    -0.237 OA
ATOM     71  O   UNL A   1      45.532  36.487  34.493  1.00  0.00    -0.744 OA
ENDBRANCH  67  68
ENDBRANCH  48  62
BRANCH  49  72
ATOM     72  C   UNL A   1      42.247  23.527  27.556  1.00  0.00    -0.014 A 
ATOM     73  C   UNL A   1      41.857  22.459  28.388  1.00  0.00     0.010 A 
ATOM     74  C   UNL A   1      42.502  23.278  26.197  1.00  0.00     0.010 A 
ATOM     75  C   UNL A   1      41.812  21.155  27.892  1.00  0.00     0.020 A 
ATOM     76  C   UNL A   1      42.432  21.976  25.691  1.00  0.00     0.020 A 
ATOM     77  C   UNL A   1      42.127  20.919  26.552  1.00  0.00     0.054 A 
BRANCH  77  78
ATOM     78  S   UNL A   1      42.180  19.205  25.960  1.00  0.00     0.124 S 
ATOM     79  O   UNL A   1      43.104  19.309  24.833  1.00  0.00    -0.237 OA
ATOM     80  O   UNL A   1      42.683  18.478  27.122  1.00  0.00    -0.237 OA
ATOM     81  O   UNL A   1      40.791  18.923  25.605  1.00  0.00    -0.744 OA
ENDBRANCH  77  78
ENDBRANCH  49  72
BRANCH  61  82
ATOM     82  C   UNL A   1      47.962  26.654  30.201  1.00  0.00    -0.014 A 
ATOM     83  C   UNL A   1      48.398  26.092  31.414  1.00  0.00     0.010 A 
ATOM     84  C   UNL A   1      48.911  27.009  29.226  1.00  0.00     0.010 A 
ATOM     85  C   UNL A   1      49.761  25.945  31.677  1.00  0.00     0.020 A 
ATOM     86  C   UNL A   1      50.276  26.841  29.476  1.00  0.00     0.020 A 
ATOM     87  C   UNL A   1      50.692  26.341  30.713  1.00  0.00     0.054 A 
BRANCH  87  88
ATOM     88  S   UNL A   1      52.459  26.227  31.108  1.00  0.00     0.124 S 
ATOM     89  O   UNL A   1      52.690  27.467  31.840  1.00  0.00    -0.237 OA
ATOM     90  O   UNL A   1      52.533  25.003  31.901  1.00  0.00    -0.237 OA
ATOM     91  O   UNL A   1      53.098  26.148  29.795  1.00  0.00    -0.744 OA
ENDBRANCH  87  88
ENDBRANCH  61  82
ENDBRANCH  35  36
ENDBRANCH  27  30
ENDBRANCH  25  26
ENDBRANCH   1  25
TORSDOF 16
ENDMDL
MODEL 2
REMARK VINA RESULT:     -11.6      1.161      1.556
REMARK SMILES COc1cc(Cn2cc(C(=O)NCCCNC(=O)c3ccc(-c4c5nc(c(-c6ccc(S(=O)(=O)[O-])cc6)c6ccc([nH]6)c(-c6ccc(S(=O)(=O)[O-])cc6)c6nc(c(-c7ccc(S(=O)(=O)[O-])cc7)c7ccc4[nH]7)C=C6)C=C5)cc3)c(=O)[nH]c2=O)ccn1
REMARK SMILES IDX 14 1 13 2 12 3 10 4 11 5 9 7 7 8 8 9 82 10 81 11 83 12 79 13
REMARK SMILES IDX 80 15 6 16 5 17 3 18 4 19 86 20 85 21 84 22 2 23 1 24 15 25
REMARK SMILES IDX 16 26 17 27 18 29 19 30 20 31 78 32 21 33 77 34 22 35 23 36
REMARK SMILES IDX 24 37 71 38 25 39 76 40 70 41 72 42 26 43 75 44 69 45 68 46
REMARK SMILES IDX 27 48 57 49 38 50 56 51 39 52 42 53 55 54 73 55 40 56 41 57
REMARK SMILES IDX 54 59 74 60 43 61 28 62 29 63 37 64 30 65 36 66 31 67 32 68
REMARK SMILES IDX 33 69 34 70 35 71 58 72 59 73 67 74 60 75 66 76 61 77 62 78
REMARK SMILES IDX 63 79 64 80 65 81 44 82 45 83 53 84 46 85 52 86 47 87 48 88
REMARK SMILES IDX 49 89 50 90 51 91
REMARK H PARENT 12 6 81 14 16 28 72 47 42 58
REMARK Flexibility Score: inf
ROOT
ATOM      1  C   UNL A   1      33.194  28.580  25.762  1.00  0.00     0.042 C 
ENDROOT
BRANCH   1   2
ATOM      2  C   UNL A   1      31.827  28.732  25.095  1.00  0.00     0.118 C 
BRANCH   2   3
ATOM      3  N   UNL A   1      30.976  27.595  25.408  1.00  0.00    -0.352 N 
ATOM      4  C   UNL A   1      30.671  26.447  24.735  1.00  0.00     0.258 C 
ATOM      5  O   UNL A   1      29.840  25.702  25.256  1.00  0.00    -0.269 OA
ATOM      6  H   UNL A   1      30.529  27.668  26.282  1.00  0.00     0.163 HD
BRANCH   4   7
ATOM      7  C   UNL A   1      31.318  26.076  23.447  1.00  0.00     0.121 A 
ATOM      8  N   UNL A   1      32.723  24.662  22.110  1.00  0.00    -0.295 N 
ATOM      9  C   UNL A   1      32.152  25.034  23.316  1.00  0.00     0.110 A 
ATOM     10  C   UNL A   1      32.602  25.447  20.974  1.00  0.00     0.328 A 
ATOM     11  N   UNL A   1      31.866  26.589  21.136  1.00  0.00    -0.273 N 
ATOM     12  O   UNL A   1      33.074  25.163  19.877  1.00  0.00    -0.248 OA
ATOM     13  C   UNL A   1      31.121  26.920  22.236  1.00  0.00     0.266 A 
ATOM     14  H   UNL A   1      31.872  27.233  20.392  1.00  0.00     0.175 HD
ATOM     15  O   UNL A   1      30.308  27.837  22.175  1.00  0.00    -0.268 OA
BRANCH   8  16
ATOM     16  C   UNL A   1      33.386  23.360  22.000  1.00  0.00     0.162 C 
BRANCH  16  17
ATOM     17  C   UNL A   1      33.310  22.605  23.310  1.00  0.00    -0.021 A 
ATOM     18  C   UNL A   1      34.287  21.866  25.364  1.00  0.00     0.213 A 
ATOM     19  C   UNL A   1      34.396  22.595  24.191  1.00  0.00     0.074 A 
ATOM     20  N   UNL A   1      33.221  21.111  25.697  1.00  0.00    -0.222 NA
ATOM     21  C   UNL A   1      32.191  21.118  24.829  1.00  0.00     0.115 A 
ATOM     22  C   UNL A   1      32.183  21.849  23.649  1.00  0.00     0.026 A 
BRANCH  18  23
ATOM     23  O   UNL A   1      35.323  21.879  26.262  1.00  0.00    -0.481 OA
ATOM     24  C   UNL A   1      36.501  21.427  25.598  1.00  0.00     0.280 C 
ENDBRANCH  18  23
ENDBRANCH  16  17
ENDBRANCH   8  16
ENDBRANCH   4   7
ENDBRANCH   2   3
ENDBRANCH   1   2
BRANCH   1  25
ATOM     25  C   UNL A   1      33.177  28.931  27.248  1.00  0.00     0.118 C 
BRANCH  25  26
ATOM     26  N   UNL A   1      33.337  30.362  27.475  1.00  0.00    -0.352 N 
ATOM     27  C   UNL A   1      34.402  31.039  28.029  1.00  0.00     0.251 C 
ATOM     28  H   UNL A   1      32.579  30.923  27.194  1.00  0.00     0.163 HD
ATOM     29  O   UNL A   1      34.295  32.224  28.312  1.00  0.00    -0.269 OA
BRANCH  27  30
ATOM     30  C   UNL A   1      35.658  30.309  28.316  1.00  0.00     0.039 A 
ATOM     31  C   UNL A   1      35.846  29.675  29.547  1.00  0.00     0.014 A 
ATOM     32  C   UNL A   1      36.675  30.302  27.358  1.00  0.00     0.014 A 
ATOM     33  C   UNL A   1      37.105  29.192  29.886  1.00  0.00     0.010 A 
ATOM     34  C   UNL A   1      37.918  29.748  27.675  1.00  0.00     0.010 A 
ATOM     35  C   UNL A   1      38.161  29.244  28.962  1.00  0.00    -0.014 A 
BRANCH  35  36
ATOM     36  C   UNL A   1      39.526  28.823  29.372  1.00  0.00     0.031 A 
ATOM     37  C   UNL A   1      40.334  29.681  30.309  1.00  0.00     0.074 A 
ATOM     38  C   UNL A   1      40.022  27.647  28.943  1.00  0.00     0.049 A 
ATOM     39  N   UNL A   1      41.545  29.488  30.764  1.00  0.00    -0.248 NA
ATOM     40  C   UNL A   1      39.702  30.918  30.801  1.00  0.00     0.031 C 
ATOM     41  C   UNL A   1      39.318  26.708  28.070  1.00  0.00     0.029 A 
ATOM     42  N   UNL A   1      41.221  27.030  29.201  1.00  0.00    -0.354 N 
ATOM     43  C   UNL A   1      41.830  30.587  31.569  1.00  0.00     0.074 A 
ATOM     44  C   UNL A   1      40.674  31.455  31.525  1.00  0.00     0.031 C 
ATOM     45  C   UNL A   1      40.075  25.615  27.904  1.00  0.00     0.029 A 
ATOM     46  C   UNL A   1      41.347  25.801  28.598  1.00  0.00     0.049 A 
ATOM     47  H   UNL A   1      41.924  27.430  29.763  1.00  0.00     0.167 HD
ATOM     48  C   UNL A   1      42.950  30.842  32.285  1.00  0.00     0.031 A 
ATOM     49  C   UNL A   1      42.372  24.924  28.586  1.00  0.00     0.031 A 
ATOM     50  C   UNL A   1      44.086  29.962  32.341  1.00  0.00     0.049 A 
ATOM     51  C   UNL A   1      43.627  25.249  29.344  1.00  0.00     0.074 A 
ATOM     52  C   UNL A   1      45.257  30.125  33.060  1.00  0.00     0.029 A 
ATOM     53  N   UNL A   1      44.197  28.759  31.660  1.00  0.00    -0.354 N 
ATOM     54  N   UNL A   1      43.880  26.295  30.093  1.00  0.00    -0.248 NA
ATOM     55  C   UNL A   1      44.735  24.289  29.253  1.00  0.00     0.031 C 
ATOM     56  C   UNL A   1      46.100  29.052  32.767  1.00  0.00     0.029 A 
ATOM     57  C   UNL A   1      45.428  28.184  31.919  1.00  0.00     0.049 A 
ATOM     58  H   UNL A   1      43.502  28.371  31.081  1.00  0.00     0.167 HD
ATOM     59  C   UNL A   1      45.173  26.117  30.569  1.00  0.00     0.074 A 
ATOM     60  C   UNL A   1      45.647  24.858  30.034  1.00  0.00     0.031 C 
ATOM     61  C   UNL A   1      45.895  26.930  31.378  1.00  0.00     0.031 A 
BRANCH  48  62
ATOM     62  C   UNL A   1      43.022  32.134  33.055  1.00  0.00    -0.014 A 
ATOM     63  C   UNL A   1      42.528  32.185  34.373  1.00  0.00     0.010 A 
ATOM     64  C   UNL A   1      43.495  33.315  32.457  1.00  0.00     0.010 A 
ATOM     65  C   UNL A   1      42.498  33.391  35.075  1.00  0.00     0.020 A 
ATOM     66  C   UNL A   1      43.490  34.519  33.166  1.00  0.00     0.020 A 
ATOM     67  C   UNL A   1      42.977  34.553  34.465  1.00  0.00     0.054 A 
BRANCH  67  68
ATOM     68  S   UNL A   1      42.958  36.109  35.398  1.00  0.00     0.124 S 
ATOM     69  O   UNL A   1      44.191  36.750  34.953  1.00  0.00    -0.237 OA
ATOM     70  O   UNL A   1      41.719  36.739  34.950  1.00  0.00    -0.237 OA
ATOM     71  O   UNL A   1      42.947  35.666  36.792  1.00  0.00    -0.744 OA
ENDBRANCH  67  68
ENDBRANCH  48  62
BRANCH  49  72
ATOM     72  C   UNL A   1      42.208  23.654  27.830  1.00  0.00    -0.014 A 
ATOM     73  C   UNL A   1      41.672  22.516  28.466  1.00  0.00     0.010 A 
ATOM     74  C   UNL A   1      42.729  23.530  26.532  1.00  0.00     0.010 A 
ATOM     75  C   UNL A   1      41.740  21.264  27.852  1.00  0.00     0.020 A 
ATOM     76  C   UNL A   1      42.774  22.281  25.903  1.00  0.00     0.020 A 
ATOM     77  C   UNL A   1      42.316  21.151  26.585  1.00  0.00     0.054 A 
BRANCH  77  78
ATOM     78  S   UNL A   1      42.503  19.500  25.858  1.00  0.00     0.124 S 
ATOM     79  O   UNL A   1      42.889  18.705  27.022  1.00  0.00    -0.237 OA
ATOM     80  O   UNL A   1      41.171  19.230  25.325  1.00  0.00    -0.237 OA
ATOM     81  O   UNL A   1      43.548  19.686  24.853  1.00  0.00    -0.744 OA
ENDBRANCH  77  78
ENDBRANCH  49  72
BRANCH  61  82
ATOM     82  C   UNL A   1      47.292  26.517  31.754  1.00  0.00    -0.014 A 
ATOM     83  C   UNL A   1      48.356  26.789  30.875  1.00  0.00     0.010 A 
ATOM     84  C   UNL A   1      47.515  25.696  32.873  1.00  0.00     0.010 A 
ATOM     85  C   UNL A   1      49.607  26.201  31.075  1.00  0.00     0.020 A 
ATOM     86  C   UNL A   1      48.773  25.126  33.090  1.00  0.00     0.020 A 
ATOM     87  C   UNL A   1      49.800  25.355  32.171  1.00  0.00     0.054 A 
BRANCH  87  88
ATOM     88  S   UNL A   1      51.404  24.529  32.364  1.00  0.00     0.124 S 
ATOM     89  O   UNL A   1      51.716  24.790  33.765  1.00  0.00    -0.237 OA
ATOM     90  O   UNL A   1      51.091  23.140  32.035  1.00  0.00    -0.237 OA
ATOM     91  O   UNL A   1      52.259  25.212  31.395  1.00  0.00    -0.744 OA
ENDBRANCH  87  88
ENDBRANCH  61  82
ENDBRANCH  35  36
ENDBRANCH  27  30
ENDBRANCH  25  26
ENDBRANCH   1  25
TORSDOF 16
ENDMDL
MODEL 3
REMARK VINA RESULT:     -11.3      0.813      8.205
REMARK SMILES COc1cc(Cn2cc(C(=O)NCCCNC(=O)c3ccc(-c4c5nc(c(-c6ccc(S(=O)(=O)[O-])cc6)c6ccc([nH]6)c(-c6ccc(S(=O)(=O)[O-])cc6)c6nc(c(-c7ccc(S(=O)(=O)[O-])cc7)c7ccc4[nH]7)C=C6)C=C5)cc3)c(=O)[nH]c2=O)ccn1
REMARK SMILES IDX 14 1 13 2 12 3 10 4 11 5 9 7 7 8 8 9 82 10 81 11 83 12 79 13
REMARK SMILES IDX 80 15 6 16 5 17 3 18 4 19 86 20 85 21 84 22 2 23 1 24 15 25
REMARK SMILES IDX 16 26 17 27 18 29 19 30 20 31 78 32 21 33 77 34 22 35 23 36
REMARK SMILES IDX 24 37 71 38 25 39 76 40 70 41 72 42 26 43 75 44 69 45 68 46
REMARK SMILES IDX 27 48 57 49 38 50 56 51 39 52 42 53 55 54 73 55 40 56 41 57
REMARK SMILES IDX 54 59 74 60 43 61 28 62 29 63 37 64 30 65 36 66 31 67 32 68
REMARK SMILES IDX 33 69 34 70 35 71 58 72 59 73 67 74 60 75 66 76 61 77 62 78
REMARK SMILES IDX 63 79 64 80 65 81 44 82 45 83 53 84 46 85 52 86 47 87 48 88
REMARK SMILES IDX 49 89 50 90 51 91
REMARK H PARENT 12 6 81 14 16 28 72 47 42 58
REMARK Flexibility Score: inf
ROOT
ATOM      1  C   UNL A   1      32.531  28.042  27.064  1.00  0.00     0.042 C 
ENDROOT
BRANCH   1   2
ATOM      2  C   UNL A   1      31.878  28.180  25.688  1.00  0.00     0.118 C 
BRANCH   2   3
ATOM      3  N   UNL A   1      30.688  27.346  25.601  1.00  0.00    -0.352 N 
ATOM      4  C   UNL A   1      30.225  26.481  24.653  1.00  0.00     0.258 C 
ATOM      5  O   UNL A   1      29.122  25.974  24.855  1.00  0.00    -0.269 OA
ATOM      6  H   UNL A   1      30.098  27.421  26.386  1.00  0.00     0.163 HD
BRANCH   4   7
ATOM      7  C   UNL A   1      31.008  26.129  23.437  1.00  0.00     0.121 A 
ATOM      8  N   UNL A   1      32.480  24.685  22.208  1.00  0.00    -0.295 N 
ATOM      9  C   UNL A   1      31.783  25.038  23.351  1.00  0.00     0.110 A 
ATOM     10  C   UNL A   1      32.559  25.532  21.113  1.00  0.00     0.328 A 
ATOM     11  N   UNL A   1      31.883  26.715  21.247  1.00  0.00    -0.273 N 
ATOM     12  O   UNL A   1      33.149  25.269  20.070  1.00  0.00    -0.248 OA
ATOM     13  C   UNL A   1      31.026  27.044  22.262  1.00  0.00     0.266 A 
ATOM     14  H   UNL A   1      32.029  27.393  20.548  1.00  0.00     0.175 HD
ATOM     15  O   UNL A   1      30.289  28.018  22.152  1.00  0.00    -0.268 OA
BRANCH   8  16
ATOM     16  C   UNL A   1      33.066  23.346  22.107  1.00  0.00     0.162 C 
BRANCH  16  17
ATOM     17  C   UNL A   1      33.847  23.004  23.358  1.00  0.00    -0.021 A 
ATOM     18  C   UNL A   1      34.093  21.809  25.414  1.00  0.00     0.213 A 
ATOM     19  C   UNL A   1      33.355  22.065  24.270  1.00  0.00     0.074 A 
ATOM     20  N   UNL A   1      35.235  22.443  25.745  1.00  0.00    -0.222 NA
ATOM     21  C   UNL A   1      35.685  23.357  24.863  1.00  0.00     0.115 A 
ATOM     22  C   UNL A   1      35.045  23.657  23.668  1.00  0.00     0.026 A 
BRANCH  18  23
ATOM     23  O   UNL A   1      33.651  20.860  26.300  1.00  0.00    -0.481 OA
ATOM     24  C   UNL A   1      33.162  19.745  25.557  1.00  0.00     0.280 C 
ENDBRANCH  18  23
ENDBRANCH  16  17
ENDBRANCH   8  16
ENDBRANCH   4   7
ENDBRANCH   2   3
ENDBRANCH   1   2
BRANCH   1  25
ATOM     25  C   UNL A   1      33.923  28.665  27.129  1.00  0.00     0.118 C 
BRANCH  25  26
ATOM     26  N   UNL A   1      33.902  29.992  27.730  1.00  0.00    -0.352 N 
ATOM     27  C   UNL A   1      34.881  30.629  28.464  1.00  0.00     0.251 C 
ATOM     28  H   UNL A   1      33.074  30.506  27.595  1.00  0.00     0.163 HD
ATOM     29  O   UNL A   1      34.627  31.672  29.049  1.00  0.00    -0.269 OA
BRANCH  27  30
ATOM     30  C   UNL A   1      36.224  30.015  28.571  1.00  0.00     0.039 A 
ATOM     31  C   UNL A   1      36.631  29.396  29.755  1.00  0.00     0.014 A 
ATOM     32  C   UNL A   1      37.101  30.104  27.486  1.00  0.00     0.014 A 
ATOM     33  C   UNL A   1      37.963  29.028  29.917  1.00  0.00     0.010 A 
ATOM     34  C   UNL A   1      38.420  29.665  27.626  1.00  0.00     0.010 A 
ATOM     35  C   UNL A   1      38.877  29.180  28.862  1.00  0.00    -0.014 A 
BRANCH  35  36
ATOM     36  C   UNL A   1      40.316  28.883  29.080  1.00  0.00     0.031 A 
ATOM     37  C   UNL A   1      40.886  27.552  28.665  1.00  0.00     0.074 A 
ATOM     38  C   UNL A   1      41.124  29.824  29.605  1.00  0.00     0.049 A 
ATOM     39  N   UNL A   1      42.110  27.106  28.790  1.00  0.00    -0.248 NA
ATOM     40  C   UNL A   1      39.965  26.596  28.027  1.00  0.00     0.031 C 
ATOM     41  C   UNL A   1      40.698  31.166  30.004  1.00  0.00     0.029 A 
ATOM     42  N   UNL A   1      42.470  29.806  29.871  1.00  0.00    -0.354 N 
ATOM     43  C   UNL A   1      42.099  25.814  28.275  1.00  0.00     0.074 A 
ATOM     44  C   UNL A   1      40.744  25.537  27.854  1.00  0.00     0.031 C 
ATOM     45  C   UNL A   1      41.769  31.858  30.418  1.00  0.00     0.029 A 
ATOM     46  C   UNL A   1      42.945  30.991  30.382  1.00  0.00     0.049 A 
ATOM     47  H   UNL A   1      43.041  29.020  29.713  1.00  0.00     0.167 HD
ATOM     48  C   UNL A   1      43.128  24.943  28.156  1.00  0.00     0.031 A 
ATOM     49  C   UNL A   1      44.180  31.345  30.792  1.00  0.00     0.031 A 
ATOM     50  C   UNL A   1      44.479  25.236  28.556  1.00  0.00     0.049 A 
ATOM     51  C   UNL A   1      45.298  30.347  30.702  1.00  0.00     0.074 A 
ATOM     52  C   UNL A   1      45.594  24.423  28.451  1.00  0.00     0.029 A 
ATOM     53  N   UNL A   1      44.900  26.425  29.130  1.00  0.00    -0.354 N 
ATOM     54  N   UNL A   1      45.267  29.128  30.218  1.00  0.00    -0.248 NA
ATOM     55  C   UNL A   1      46.611  30.760  31.215  1.00  0.00     0.031 C 
ATOM     56  C   UNL A   1      46.677  25.097  29.017  1.00  0.00     0.029 A 
ATOM     57  C   UNL A   1      46.253  26.357  29.414  1.00  0.00     0.049 A 
ATOM     58  H   UNL A   1      44.323  27.202  29.309  1.00  0.00     0.167 HD
ATOM     59  C   UNL A   1      46.556  28.630  30.362  1.00  0.00     0.074 A 
ATOM     60  C   UNL A   1      47.347  29.682  30.966  1.00  0.00     0.031 C 
ATOM     61  C   UNL A   1      47.033  27.409  30.020  1.00  0.00     0.031 A 
BRANCH  48  62
ATOM     62  C   UNL A   1      42.842  23.577  27.589  1.00  0.00    -0.014 A 
ATOM     63  C   UNL A   1      42.439  22.539  28.451  1.00  0.00     0.010 A 
ATOM     64  C   UNL A   1      43.052  23.294  26.229  1.00  0.00     0.010 A 
ATOM     65  C   UNL A   1      42.258  21.243  27.965  1.00  0.00     0.020 A 
ATOM     66  C   UNL A   1      42.847  22.003  25.734  1.00  0.00     0.020 A 
ATOM     67  C   UNL A   1      42.467  20.981  26.610  1.00  0.00     0.054 A 
BRANCH  67  68
ATOM     68  S   UNL A   1      42.202  19.299  25.985  1.00  0.00     0.124 S 
ATOM     69  O   UNL A   1      40.766  19.287  25.727  1.00  0.00    -0.237 OA
ATOM     70  O   UNL A   1      43.059  19.254  24.803  1.00  0.00    -0.237 OA
ATOM     71  O   UNL A   1      42.648  18.454  27.093  1.00  0.00    -0.744 OA
ENDBRANCH  67  68
ENDBRANCH  48  62
BRANCH  49  72
ATOM     72  C   UNL A   1      44.387  32.725  31.306  1.00  0.00    -0.014 A 
ATOM     73  C   UNL A   1      44.130  33.022  32.659  1.00  0.00     0.010 A 
ATOM     74  C   UNL A   1      44.685  33.773  30.420  1.00  0.00     0.010 A 
ATOM     75  C   UNL A   1      44.082  34.347  33.096  1.00  0.00     0.020 A 
ATOM     76  C   UNL A   1      44.664  35.100  30.861  1.00  0.00     0.020 A 
ATOM     77  C   UNL A   1      44.323  35.379  32.187  1.00  0.00     0.054 A 
BRANCH  77  78
ATOM     78  S   UNL A   1      44.136  37.094  32.747  1.00  0.00     0.124 S 
ATOM     79  O   UNL A   1      43.840  37.785  31.495  1.00  0.00    -0.237 OA
ATOM     80  O   UNL A   1      43.029  37.005  33.694  1.00  0.00    -0.237 OA
ATOM     81  O   UNL A   1      45.436  37.403  33.340  1.00  0.00    -0.744 OA
ENDBRANCH  77  78
ENDBRANCH  49  72
BRANCH  61  82
ATOM     82  C   UNL A   1      48.482  27.102  30.283  1.00  0.00    -0.014 A 
ATOM     83  C   UNL A   1      48.868  26.598  31.539  1.00  0.00     0.010 A 
ATOM     84  C   UNL A   1      49.471  27.490  29.363  1.00  0.00     0.010 A 
ATOM     85  C   UNL A   1      50.217  26.544  31.895  1.00  0.00     0.020 A 
ATOM     86  C   UNL A   1      50.824  27.414  29.708  1.00  0.00     0.020 A 
ATOM     87  C   UNL A   1      51.185  26.973  30.984  1.00  0.00     0.054 A 
BRANCH  87  88
ATOM     88  S   UNL A   1      52.925  26.980  31.498  1.00  0.00     0.124 S 
ATOM     89  O   UNL A   1      53.246  28.403  31.473  1.00  0.00    -0.237 OA
ATOM     90  O   UNL A   1      52.871  26.368  32.823  1.00  0.00    -0.237 OA
ATOM     91  O   UNL A   1      53.586  26.172  30.475  1.00  0.00    -0.744 OA
ENDBRANCH  87  88
ENDBRANCH  61  82
ENDBRANCH  35  36
ENDBRANCH  27  30
ENDBRANCH  25  26
ENDBRANCH   1  25
TORSDOF 16
ENDMDL
