MODEL 1
REMARK VINA RESULT:      -9.0      0.000      0.000
REMARK SMILES O=C(COc1csc(C(=O)NCCCNC(=O)c2ccc(-c3c4nc(c(-c5ccc(S(=O)(=O)[O-])cc5)c5ccc([nH]5)c(-c5ccc(S(=O)(=O)[O-])cc5)c5nc(c(-c6ccc(S(=O)(=O)[O-])cc6)c6ccc3[nH]6)C=C5)C=C4)cc2)c1)Nc1nccs1
REMARK SMILES IDX 12 1 11 2 9 3 10 4 8 6 5 7 6 8 78 9 7 10 4 11 3 12 2 13 1 14
REMARK SMILES IDX 79 15 80 17 81 18 84 19 82 20 83 21 13 22 14 23 15 24 16 25
REMARK SMILES IDX 17 27 18 28 19 29 77 30 20 31 76 32 21 33 22 34 23 35 70 36
REMARK SMILES IDX 24 37 75 38 69 39 71 40 25 41 74 42 68 43 67 44 26 46 56 47
REMARK SMILES IDX 37 48 55 49 38 50 41 51 54 52 72 53 39 54 40 55 53 57 73 58
REMARK SMILES IDX 42 59 27 60 28 61 36 62 29 63 35 64 30 65 31 66 32 67 33 68
REMARK SMILES IDX 34 69 57 70 58 71 66 72 59 73 65 74 60 75 61 76 62 77 63 78
REMARK SMILES IDX 64 79 43 80 44 81 52 82 45 83 51 84 46 85 47 86 48 87 49 88
REMARK SMILES IDX 50 89
REMARK H PARENT 11 5 79 16 15 26 71 45 41 56
REMARK Flexibility Score: inf
ROOT
ATOM      1  C   UNL A   1      34.945  32.811  30.827  1.00  0.00     0.118 C 
ENDROOT
BRANCH   1   2
ATOM      2  N   UNL A   1      34.478  33.407  32.062  1.00  0.00    -0.351 N 
ATOM      3  C   UNL A   1      35.053  33.559  33.300  1.00  0.00     0.261 C 
ATOM      4  O   UNL A   1      34.354  34.164  34.117  1.00  0.00    -0.268 OA
ATOM      5  H   UNL A   1      33.569  33.778  32.002  1.00  0.00     0.163 HD
BRANCH   3   6
ATOM      6  C   UNL A   1      36.398  33.079  33.594  1.00  0.00     0.096 A 
ATOM      7  C   UNL A   1      38.393  31.878  33.810  1.00  0.00     0.131 A 
ATOM      8  C   UNL A   1      38.816  33.134  34.167  1.00  0.00     0.112 A 
ATOM      9  C   UNL A   1      36.999  31.833  33.533  1.00  0.00     0.072 A 
ATOM     10  S   UNL A   1      37.534  34.257  34.156  1.00  0.00    -0.135 S 
BRANCH   7  11
ATOM     11  O   UNL A   1      39.229  30.827  33.629  1.00  0.00    -0.483 OA
BRANCH  11  12
ATOM     12  C   UNL A   1      38.592  29.709  33.010  1.00  0.00     0.329 C 
BRANCH  12  13
ATOM     13  C   UNL A   1      39.388  28.406  33.125  1.00  0.00     0.264 C 
ATOM     14  O   UNL A   1      38.961  27.362  32.644  1.00  0.00    -0.271 OA
ATOM     15  N   UNL A   1      40.580  28.586  33.797  1.00  0.00    -0.299 N 
ATOM     16  H   UNL A   1      40.874  29.503  34.001  1.00  0.00     0.172 HD
BRANCH  15  17
ATOM     17  C   UNL A   1      41.366  27.543  34.188  1.00  0.00     0.189 A 
ATOM     18  N   UNL A   1      41.128  26.606  35.068  1.00  0.00    -0.229 NA
ATOM     19  S   UNL A   1      42.915  27.531  33.466  1.00  0.00    -0.105 S 
ATOM     20  C   UNL A   1      42.250  25.817  35.212  1.00  0.00     0.125 A 
ATOM     21  C   UNL A   1      43.332  26.178  34.436  1.00  0.00     0.088 A 
ENDBRANCH  15  17
ENDBRANCH  12  13
ENDBRANCH  11  12
ENDBRANCH   7  11
ENDBRANCH   3   6
ENDBRANCH   1   2
BRANCH   1  22
ATOM     22  C   UNL A   1      34.690  33.737  29.640  1.00  0.00     0.042 C 
BRANCH  22  23
ATOM     23  C   UNL A   1      35.021  33.086  28.296  1.00  0.00     0.118 C 
BRANCH  23  24
ATOM     24  N   UNL A   1      34.154  31.947  28.014  1.00  0.00    -0.352 N 
ATOM     25  C   UNL A   1      34.467  30.627  27.809  1.00  0.00     0.251 C 
ATOM     26  H   UNL A   1      33.194  32.158  27.964  1.00  0.00     0.163 HD
ATOM     27  O   UNL A   1      33.624  29.872  27.336  1.00  0.00    -0.269 OA
BRANCH  25  28
ATOM     28  C   UNL A   1      35.813  30.118  28.148  1.00  0.00     0.039 A 
ATOM     29  C   UNL A   1      36.816  30.145  27.176  1.00  0.00     0.014 A 
ATOM     30  C   UNL A   1      36.078  29.590  29.415  1.00  0.00     0.014 A 
ATOM     31  C   UNL A   1      38.103  29.709  27.496  1.00  0.00     0.010 A 
ATOM     32  C   UNL A   1      37.376  29.223  29.754  1.00  0.00     0.010 A 
ATOM     33  C   UNL A   1      38.403  29.282  28.801  1.00  0.00    -0.014 A 
BRANCH  33  34
ATOM     34  C   UNL A   1      39.786  28.919  29.199  1.00  0.00     0.031 A 
ATOM     35  C   UNL A   1      40.659  29.917  29.910  1.00  0.00     0.074 A 
ATOM     36  C   UNL A   1      40.281  27.716  28.844  1.00  0.00     0.049 A 
ATOM     37  N   UNL A   1      41.915  29.809  30.261  1.00  0.00    -0.248 NA
ATOM     38  C   UNL A   1      40.050  31.213  30.247  1.00  0.00     0.031 C 
ATOM     39  C   UNL A   1      39.543  26.675  28.124  1.00  0.00     0.029 A 
ATOM     40  N   UNL A   1      41.526  27.169  29.030  1.00  0.00    -0.354 N 
ATOM     41  C   UNL A   1      42.252  31.027  30.840  1.00  0.00     0.074 A 
ATOM     42  C   UNL A   1      41.081  31.873  30.752  1.00  0.00     0.031 C 
ATOM     43  C   UNL A   1      40.338  25.607  27.957  1.00  0.00     0.029 A 
ATOM     44  C   UNL A   1      41.656  25.902  28.510  1.00  0.00     0.049 A 
ATOM     45  H   UNL A   1      42.257  27.639  29.492  1.00  0.00     0.167 HD
ATOM     46  C   UNL A   1      43.426  31.403  31.403  1.00  0.00     0.031 A 
ATOM     47  C   UNL A   1      42.718  25.076  28.471  1.00  0.00     0.031 A 
ATOM     48  C   UNL A   1      44.584  30.552  31.490  1.00  0.00     0.049 A 
ATOM     49  C   UNL A   1      44.019  25.527  29.075  1.00  0.00     0.074 A 
ATOM     50  C   UNL A   1      45.799  30.816  32.099  1.00  0.00     0.029 A 
ATOM     51  N   UNL A   1      44.676  29.280  30.946  1.00  0.00    -0.354 N 
ATOM     52  N   UNL A   1      44.296  26.656  29.683  1.00  0.00    -0.248 NA
ATOM     53  C   UNL A   1      45.148  24.591  28.993  1.00  0.00     0.031 C 
ATOM     54  C   UNL A   1      46.646  29.727  31.868  1.00  0.00     0.029 A 
ATOM     55  C   UNL A   1      45.939  28.758  31.174  1.00  0.00     0.049 A 
ATOM     56  H   UNL A   1      43.952  28.816  30.469  1.00  0.00     0.167 HD
ATOM     57  C   UNL A   1      45.624  26.554  30.082  1.00  0.00     0.074 A 
ATOM     58  C   UNL A   1      46.090  25.249  29.658  1.00  0.00     0.031 C 
ATOM     59  C   UNL A   1      46.388  27.458  30.744  1.00  0.00     0.031 A 
BRANCH  46  60
ATOM     60  C   UNL A   1      43.522  32.805  31.950  1.00  0.00    -0.014 A 
ATOM     61  C   UNL A   1      43.785  33.901  31.109  1.00  0.00     0.010 A 
ATOM     62  C   UNL A   1      43.312  33.033  33.322  1.00  0.00     0.010 A 
ATOM     63  C   UNL A   1      43.885  35.191  31.637  1.00  0.00     0.020 A 
ATOM     64  C   UNL A   1      43.380  34.326  33.850  1.00  0.00     0.020 A 
ATOM     65  C   UNL A   1      43.686  35.395  33.006  1.00  0.00     0.054 A 
BRANCH  65  66
ATOM     66  S   UNL A   1      43.812  37.081  33.662  1.00  0.00     0.124 S 
ATOM     67  O   UNL A   1      42.416  37.392  33.960  1.00  0.00    -0.237 OA
ATOM     68  O   UNL A   1      44.679  36.908  34.824  1.00  0.00    -0.237 OA
ATOM     69  O   UNL A   1      44.397  37.840  32.559  1.00  0.00    -0.744 OA
ENDBRANCH  65  66
ENDBRANCH  46  60
BRANCH  47  70
ATOM     70  C   UNL A   1      42.590  23.729  27.850  1.00  0.00    -0.014 A 
ATOM     71  C   UNL A   1      42.894  23.544  26.489  1.00  0.00     0.010 A 
ATOM     72  C   UNL A   1      42.184  22.621  28.616  1.00  0.00     0.010 A 
ATOM     73  C   UNL A   1      42.778  22.280  25.903  1.00  0.00     0.020 A 
ATOM     74  C   UNL A   1      42.095  21.351  28.039  1.00  0.00     0.020 A 
ATOM     75  C   UNL A   1      42.382  21.190  26.683  1.00  0.00     0.054 A 
BRANCH  75  76
ATOM     76  S   UNL A   1      42.295  19.551  25.911  1.00  0.00     0.124 S 
ATOM     77  O   UNL A   1      42.626  18.672  27.028  1.00  0.00    -0.237 OA
ATOM     78  O   UNL A   1      40.910  19.495  25.448  1.00  0.00    -0.237 OA
ATOM     79  O   UNL A   1      43.296  19.621  24.849  1.00  0.00    -0.744 OA
ENDBRANCH  75  76
ENDBRANCH  47  70
BRANCH  59  80
ATOM     80  C   UNL A   1      47.800  27.059  31.083  1.00  0.00    -0.014 A 
ATOM     81  C   UNL A   1      48.093  26.332  32.251  1.00  0.00     0.010 A 
ATOM     82  C   UNL A   1      48.839  27.360  30.184  1.00  0.00     0.010 A 
ATOM     83  C   UNL A   1      49.405  25.935  32.523  1.00  0.00     0.020 A 
ATOM     84  C   UNL A   1      50.146  26.939  30.438  1.00  0.00     0.020 A 
ATOM     85  C   UNL A   1      50.423  26.237  31.612  1.00  0.00     0.054 A 
BRANCH  85  86
ATOM     86  S   UNL A   1      52.105  25.657  31.960  1.00  0.00     0.124 S 
ATOM     87  O   UNL A   1      51.887  24.239  32.235  1.00  0.00    -0.237 OA
ATOM     88  O   UNL A   1      52.810  25.956  30.717  1.00  0.00    -0.237 OA
ATOM     89  O   UNL A   1      52.517  26.457  33.112  1.00  0.00    -0.744 OA
ENDBRANCH  85  86
ENDBRANCH  59  80
ENDBRANCH  33  34
ENDBRANCH  25  28
ENDBRANCH  23  24
ENDBRANCH  22  23
ENDBRANCH   1  22
TORSDOF 17
ENDMDL
MODEL 2
REMARK VINA RESULT:      -8.6      4.395     10.916
REMARK SMILES O=C(COc1csc(C(=O)NCCCNC(=O)c2ccc(-c3c4nc(c(-c5ccc(S(=O)(=O)[O-])cc5)c5ccc([nH]5)c(-c5ccc(S(=O)(=O)[O-])cc5)c5nc(c(-c6ccc(S(=O)(=O)[O-])cc6)c6ccc3[nH]6)C=C5)C=C4)cc2)c1)Nc1nccs1
REMARK SMILES IDX 12 1 11 2 9 3 10 4 8 6 5 7 6 8 78 9 7 10 4 11 3 12 2 13 1 14
REMARK SMILES IDX 79 15 80 17 81 18 84 19 82 20 83 21 13 22 14 23 15 24 16 25
REMARK SMILES IDX 17 27 18 28 19 29 77 30 20 31 76 32 21 33 22 34 23 35 70 36
REMARK SMILES IDX 24 37 75 38 69 39 71 40 25 41 74 42 68 43 67 44 26 46 56 47
REMARK SMILES IDX 37 48 55 49 38 50 41 51 54 52 72 53 39 54 40 55 53 57 73 58
REMARK SMILES IDX 42 59 27 60 28 61 36 62 29 63 35 64 30 65 31 66 32 67 33 68
REMARK SMILES IDX 34 69 57 70 58 71 66 72 59 73 65 74 60 75 61 76 62 77 63 78
REMARK SMILES IDX 64 79 43 80 44 81 52 82 45 83 51 84 46 85 47 86 48 87 49 88
REMARK SMILES IDX 50 89
REMARK H PARENT 11 5 79 16 15 26 71 45 41 56
REMARK Flexibility Score: inf
ROOT
ATOM      1  C   UNL A   1      35.134  21.541  24.688  1.00  0.00     0.118 C 
ENDROOT
BRANCH   1   2
ATOM      2  N   UNL A   1      34.123  20.519  24.861  1.00  0.00    -0.351 N 
ATOM      3  C   UNL A   1      32.760  20.572  25.022  1.00  0.00     0.261 C 
ATOM      4  O   UNL A   1      32.211  19.470  25.103  1.00  0.00    -0.268 OA
ATOM      5  H   UNL A   1      34.484  19.603  24.862  1.00  0.00     0.163 HD
BRANCH   3   6
ATOM      6  C   UNL A   1      32.031  21.835  25.045  1.00  0.00     0.096 A 
ATOM      7  C   UNL A   1      30.964  23.839  25.601  1.00  0.00     0.131 A 
ATOM      8  C   UNL A   1      31.026  23.958  24.235  1.00  0.00     0.112 A 
ATOM      9  C   UNL A   1      31.490  22.602  26.063  1.00  0.00     0.072 A 
ATOM     10  S   UNL A   1      31.729  22.583  23.515  1.00  0.00    -0.135 S 
BRANCH   7  11
ATOM     11  O   UNL A   1      30.555  24.836  26.424  1.00  0.00    -0.483 OA
BRANCH  11  12
ATOM     12  C   UNL A   1      30.038  25.964  25.717  1.00  0.00     0.329 C 
BRANCH  12  13
ATOM     13  C   UNL A   1      31.047  27.103  25.554  1.00  0.00     0.264 C 
ATOM     14  O   UNL A   1      31.368  27.506  24.441  1.00  0.00    -0.271 OA
ATOM     15  N   UNL A   1      31.492  27.578  26.771  1.00  0.00    -0.299 N 
ATOM     16  H   UNL A   1      31.044  27.270  27.592  1.00  0.00     0.172 HD
BRANCH  15  17
ATOM     17  C   UNL A   1      32.529  28.456  26.882  1.00  0.00     0.189 A 
ATOM     18  N   UNL A   1      33.801  28.221  27.070  1.00  0.00    -0.229 NA
ATOM     19  S   UNL A   1      32.057  30.098  26.846  1.00  0.00    -0.105 S 
ATOM     20  C   UNL A   1      34.471  29.418  27.219  1.00  0.00     0.125 A 
ATOM     21  C   UNL A   1      33.685  30.549  27.147  1.00  0.00     0.088 A 
ENDBRANCH  15  17
ENDBRANCH  12  13
ENDBRANCH  11  12
ENDBRANCH   7  11
ENDBRANCH   3   6
ENDBRANCH   1   2
BRANCH   1  22
ATOM     22  C   UNL A   1      35.428  22.251  26.007  1.00  0.00     0.042 C 
BRANCH  22  23
ATOM     23  C   UNL A   1      36.790  22.948  26.016  1.00  0.00     0.118 C 
BRANCH  23  24
ATOM     24  N   UNL A   1      37.890  21.995  26.121  1.00  0.00    -0.352 N 
ATOM     25  C   UNL A   1      39.233  22.211  26.303  1.00  0.00     0.251 C 
ATOM     26  H   UNL A   1      37.627  21.049  26.049  1.00  0.00     0.163 HD
ATOM     27  O   UNL A   1      40.024  21.293  26.110  1.00  0.00    -0.269 OA
BRANCH  25  28
ATOM     28  C   UNL A   1      39.725  23.540  26.721  1.00  0.00     0.039 A 
ATOM     29  C   UNL A   1      40.081  23.745  28.057  1.00  0.00     0.014 A 
ATOM     30  C   UNL A   1      39.809  24.591  25.804  1.00  0.00     0.014 A 
ATOM     31  C   UNL A   1      40.590  24.983  28.456  1.00  0.00     0.010 A 
ATOM     32  C   UNL A   1      40.383  25.799  26.186  1.00  0.00     0.010 A 
ATOM     33  C   UNL A   1      40.783  26.007  27.515  1.00  0.00    -0.014 A 
BRANCH  33  34
ATOM     34  C   UNL A   1      41.424  27.293  27.888  1.00  0.00     0.031 A 
ATOM     35  C   UNL A   1      42.912  27.467  27.754  1.00  0.00     0.074 A 
ATOM     36  C   UNL A   1      40.672  28.274  28.427  1.00  0.00     0.049 A 
ATOM     37  N   UNL A   1      43.657  28.483  28.106  1.00  0.00    -0.248 NA
ATOM     38  C   UNL A   1      43.664  26.344  27.172  1.00  0.00     0.031 C 
ATOM     39  C   UNL A   1      39.223  28.212  28.637  1.00  0.00     0.029 A 
ATOM     40  N   UNL A   1      41.023  29.511  28.906  1.00  0.00    -0.354 N 
ATOM     41  C   UNL A   1      44.965  28.115  27.810  1.00  0.00     0.074 A 
ATOM     42  C   UNL A   1      44.915  26.765  27.291  1.00  0.00     0.031 C 
ATOM     43  C   UNL A   1      38.807  29.369  29.175  1.00  0.00     0.029 A 
ATOM     44  C   UNL A   1      39.961  30.236  29.394  1.00  0.00     0.049 A 
ATOM     45  H   UNL A   1      41.948  29.848  28.901  1.00  0.00     0.167 HD
ATOM     46  C   UNL A   1      46.101  28.838  27.947  1.00  0.00     0.031 A 
ATOM     47  C   UNL A   1      39.920  31.454  29.966  1.00  0.00     0.031 A 
ATOM     48  C   UNL A   1      46.142  30.183  28.460  1.00  0.00     0.049 A 
ATOM     49  C   UNL A   1      41.199  32.226  30.135  1.00  0.00     0.074 A 
ATOM     50  C   UNL A   1      47.234  31.025  28.578  1.00  0.00     0.029 A 
ATOM     51  N   UNL A   1      45.045  30.878  28.949  1.00  0.00    -0.354 N 
ATOM     52  N   UNL A   1      42.417  31.889  29.781  1.00  0.00    -0.248 NA
ATOM     53  C   UNL A   1      41.099  33.544  30.776  1.00  0.00     0.031 C 
ATOM     54  C   UNL A   1      46.808  32.205  29.196  1.00  0.00     0.029 A 
ATOM     55  C   UNL A   1      45.440  32.126  29.403  1.00  0.00     0.049 A 
ATOM     56  H   UNL A   1      44.123  30.535  28.971  1.00  0.00     0.167 HD
ATOM     57  C   UNL A   1      43.223  32.967  30.130  1.00  0.00     0.074 A 
ATOM     58  C   UNL A   1      42.354  33.970  30.710  1.00  0.00     0.031 C 
ATOM     59  C   UNL A   1      44.563  33.113  29.979  1.00  0.00     0.031 A 
BRANCH  46  60
ATOM     60  C   UNL A   1      47.401  28.181  27.556  1.00  0.00    -0.014 A 
ATOM     61  C   UNL A   1      47.949  28.354  26.271  1.00  0.00     0.010 A 
ATOM     62  C   UNL A   1      48.101  27.406  28.498  1.00  0.00     0.010 A 
ATOM     63  C   UNL A   1      49.147  27.724  25.923  1.00  0.00     0.020 A 
ATOM     64  C   UNL A   1      49.316  26.800  28.163  1.00  0.00     0.020 A 
ATOM     65  C   UNL A   1      49.821  26.947  26.870  1.00  0.00     0.054 A 
BRANCH  65  66
ATOM     66  S   UNL A   1      51.378  26.150  26.391  1.00  0.00     0.124 S 
ATOM     67  O   UNL A   1      51.247  24.835  27.015  1.00  0.00    -0.237 OA
ATOM     68  O   UNL A   1      51.308  26.162  24.932  1.00  0.00    -0.237 OA
ATOM     69  O   UNL A   1      52.403  27.014  26.970  1.00  0.00    -0.744 OA
ENDBRANCH  65  66
ENDBRANCH  46  60
BRANCH  47  70
ATOM     70  C   UNL A   1      38.618  32.027  30.404  1.00  0.00    -0.014 A 
ATOM     71  C   UNL A   1      37.837  32.779  29.508  1.00  0.00     0.010 A 
ATOM     72  C   UNL A   1      38.141  31.811  31.710  1.00  0.00     0.010 A 
ATOM     73  C   UNL A   1      36.612  33.318  29.914  1.00  0.00     0.020 A 
ATOM     74  C   UNL A   1      36.904  32.324  32.110  1.00  0.00     0.020 A 
ATOM     75  C   UNL A   1      36.152  33.083  31.213  1.00  0.00     0.054 A 
BRANCH  75  76
ATOM     76  S   UNL A   1      34.534  33.745  31.697  1.00  0.00     0.124 S 
ATOM     77  O   UNL A   1      34.907  34.944  32.441  1.00  0.00    -0.237 OA
ATOM     78  O   UNL A   1      33.889  33.975  30.407  1.00  0.00    -0.237 OA
ATOM     79  O   UNL A   1      33.950  32.669  32.495  1.00  0.00    -0.744 OA
ENDBRANCH  75  76
ENDBRANCH  47  70
BRANCH  59  80
ATOM     80  C   UNL A   1      45.173  34.419  30.417  1.00  0.00    -0.014 A 
ATOM     81  C   UNL A   1      45.680  34.587  31.719  1.00  0.00     0.010 A 
ATOM     82  C   UNL A   1      45.299  35.469  29.491  1.00  0.00     0.010 A 
ATOM     83  C   UNL A   1      46.282  35.792  32.090  1.00  0.00     0.020 A 
ATOM     84  C   UNL A   1      45.927  36.665  29.850  1.00  0.00     0.020 A 
ATOM     85  C   UNL A   1      46.405  36.822  31.152  1.00  0.00     0.054 A 
BRANCH  85  86
ATOM     86  S   UNL A   1      47.244  38.353  31.643  1.00  0.00     0.124 S 
ATOM     87  O   UNL A   1      46.810  38.507  33.029  1.00  0.00    -0.237 OA
ATOM     88  O   UNL A   1      48.653  38.018  31.459  1.00  0.00    -0.237 OA
ATOM     89  O   UNL A   1      46.719  39.350  30.712  1.00  0.00    -0.744 OA
ENDBRANCH  85  86
ENDBRANCH  59  80
ENDBRANCH  33  34
ENDBRANCH  25  28
ENDBRANCH  23  24
ENDBRANCH  22  23
ENDBRANCH   1  22
TORSDOF 17
ENDMDL
MODEL 3
REMARK VINA RESULT:      -8.6      4.168     12.125
REMARK SMILES O=C(COc1csc(C(=O)NCCCNC(=O)c2ccc(-c3c4nc(c(-c5ccc(S(=O)(=O)[O-])cc5)c5ccc([nH]5)c(-c5ccc(S(=O)(=O)[O-])cc5)c5nc(c(-c6ccc(S(=O)(=O)[O-])cc6)c6ccc3[nH]6)C=C5)C=C4)cc2)c1)Nc1nccs1
REMARK SMILES IDX 12 1 11 2 9 3 10 4 8 6 5 7 6 8 78 9 7 10 4 11 3 12 2 13 1 14
REMARK SMILES IDX 79 15 80 17 81 18 84 19 82 20 83 21 13 22 14 23 15 24 16 25
REMARK SMILES IDX 17 27 18 28 19 29 77 30 20 31 76 32 21 33 22 34 23 35 70 36
REMARK SMILES IDX 24 37 75 38 69 39 71 40 25 41 74 42 68 43 67 44 26 46 56 47
REMARK SMILES IDX 37 48 55 49 38 50 41 51 54 52 72 53 39 54 40 55 53 57 73 58
REMARK SMILES IDX 42 59 27 60 28 61 36 62 29 63 35 64 30 65 31 66 32 67 33 68
REMARK SMILES IDX 34 69 57 70 58 71 66 72 59 73 65 74 60 75 61 76 62 77 63 78
REMARK SMILES IDX 64 79 43 80 44 81 52 82 45 83 51 84 46 85 47 86 48 87 49 88
REMARK SMILES IDX 50 89
REMARK H PARENT 11 5 79 16 15 26 71 45 41 56
REMARK Flexibility Score: inf
ROOT
ATOM      1  C   UNL A   1      44.886  22.968  24.465  1.00  0.00     0.118 C 
ENDROOT
BRANCH   1   2
ATOM      2  N   UNL A   1      45.397  21.646  24.167  1.00  0.00    -0.351 N 
ATOM      3  C   UNL A   1      44.985  20.385  24.522  1.00  0.00     0.261 C 
ATOM      4  O   UNL A   1      45.660  19.472  24.038  1.00  0.00    -0.268 OA
ATOM      5  H   UNL A   1      46.197  21.652  23.594  1.00  0.00     0.163 HD
BRANCH   3   6
ATOM      6  C   UNL A   1      43.817  20.159  25.365  1.00  0.00     0.096 A 
ATOM      7  C   UNL A   1      41.786  20.261  26.519  1.00  0.00     0.131 A 
ATOM      8  C   UNL A   1      42.124  18.947  26.722  1.00  0.00     0.112 A 
ATOM      9  C   UNL A   1      42.777  20.971  25.788  1.00  0.00     0.072 A 
ATOM     10  S   UNL A   1      43.631  18.569  26.021  1.00  0.00    -0.135 S 
BRANCH   7  11
ATOM     11  O   UNL A   1      40.590  20.792  26.873  1.00  0.00    -0.483 OA
BRANCH  11  12
ATOM     12  C   UNL A   1      40.437  22.149  26.453  1.00  0.00     0.329 C 
BRANCH  12  13
ATOM     13  C   UNL A   1      38.986  22.545  26.171  1.00  0.00     0.264 C 
ATOM     14  O   UNL A   1      38.463  23.485  26.760  1.00  0.00    -0.271 OA
ATOM     15  N   UNL A   1      38.408  21.743  25.208  1.00  0.00    -0.299 N 
ATOM     16  H   UNL A   1      38.981  21.120  24.705  1.00  0.00     0.172 HD
BRANCH  15  17
ATOM     17  C   UNL A   1      37.075  21.779  24.926  1.00  0.00     0.189 A 
ATOM     18  N   UNL A   1      36.137  20.922  25.230  1.00  0.00    -0.229 NA
ATOM     19  S   UNL A   1      36.604  23.110  23.962  1.00  0.00    -0.105 S 
ATOM     20  C   UNL A   1      34.949  21.318  24.652  1.00  0.00     0.125 A 
ATOM     21  C   UNL A   1      35.010  22.476  23.906  1.00  0.00     0.088 A 
ENDBRANCH  15  17
ENDBRANCH  12  13
ENDBRANCH  11  12
ENDBRANCH   7  11
ENDBRANCH   3   6
ENDBRANCH   1   2
BRANCH   1  22
ATOM     22  C   UNL A   1      45.381  23.455  25.825  1.00  0.00     0.042 C 
BRANCH  22  23
ATOM     23  C   UNL A   1      44.464  24.507  26.449  1.00  0.00     0.118 C 
BRANCH  23  24
ATOM     24  N   UNL A   1      43.354  24.856  25.569  1.00  0.00    -0.352 N 
ATOM     25  C   UNL A   1      42.218  25.582  25.824  1.00  0.00     0.251 C 
ATOM     26  H   UNL A   1      43.433  24.518  24.648  1.00  0.00     0.163 HD
ATOM     27  O   UNL A   1      41.287  25.548  25.025  1.00  0.00    -0.269 OA
BRANCH  25  28
ATOM     28  C   UNL A   1      42.111  26.393  27.055  1.00  0.00     0.039 A 
ATOM     29  C   UNL A   1      42.816  27.596  27.141  1.00  0.00     0.014 A 
ATOM     30  C   UNL A   1      41.337  25.955  28.133  1.00  0.00     0.014 A 
ATOM     31  C   UNL A   1      42.688  28.394  28.280  1.00  0.00     0.010 A 
ATOM     32  C   UNL A   1      41.153  26.783  29.235  1.00  0.00     0.010 A 
ATOM     33  C   UNL A   1      41.824  28.013  29.319  1.00  0.00    -0.014 A 
BRANCH  33  34
ATOM     34  C   UNL A   1      41.583  28.893  30.490  1.00  0.00     0.031 A 
ATOM     35  C   UNL A   1      42.442  28.773  31.720  1.00  0.00     0.074 A 
ATOM     36  C   UNL A   1      40.535  29.741  30.475  1.00  0.00     0.049 A 
ATOM     37  N   UNL A   1      42.331  29.396  32.866  1.00  0.00    -0.248 NA
ATOM     38  C   UNL A   1      43.555  27.813  31.663  1.00  0.00     0.031 C 
ATOM     39  C   UNL A   1      39.610  29.925  29.353  1.00  0.00     0.029 A 
ATOM     40  N   UNL A   1      40.064  30.601  31.435  1.00  0.00    -0.354 N 
ATOM     41  C   UNL A   1      43.342  28.887  33.672  1.00  0.00     0.074 A 
ATOM     42  C   UNL A   1      44.029  27.875  32.899  1.00  0.00     0.031 C 
ATOM     43  C   UNL A   1      38.703  30.859  29.679  1.00  0.00     0.029 A 
ATOM     44  C   UNL A   1      38.948  31.305  31.046  1.00  0.00     0.049 A 
ATOM     45  H   UNL A   1      40.485  30.704  32.319  1.00  0.00     0.167 HD
ATOM     46  C   UNL A   1      43.676  29.239  34.937  1.00  0.00     0.031 A 
ATOM     47  C   UNL A   1      38.199  32.199  31.718  1.00  0.00     0.031 A 
ATOM     48  C   UNL A   1      42.991  30.252  35.697  1.00  0.00     0.049 A 
ATOM     49  C   UNL A   1      38.572  32.552  33.131  1.00  0.00     0.074 A 
ATOM     50  C   UNL A   1      43.292  30.728  36.961  1.00  0.00     0.029 A 
ATOM     51  N   UNL A   1      41.863  30.936  35.270  1.00  0.00    -0.354 N 
ATOM     52  N   UNL A   1      39.576  32.113  33.851  1.00  0.00    -0.248 NA
ATOM     53  C   UNL A   1      37.712  33.524  33.821  1.00  0.00     0.031 C 
ATOM     54  C   UNL A   1      42.309  31.655  37.323  1.00  0.00     0.029 A 
ATOM     55  C   UNL A   1      41.434  31.806  36.259  1.00  0.00     0.049 A 
ATOM     56  H   UNL A   1      41.430  30.821  34.393  1.00  0.00     0.167 HD
ATOM     57  C   UNL A   1      39.487  32.778  35.069  1.00  0.00     0.074 A 
ATOM     58  C   UNL A   1      38.338  33.657  34.984  1.00  0.00     0.031 C 
ATOM     59  C   UNL A   1      40.288  32.674  36.159  1.00  0.00     0.031 A 
BRANCH  46  60
ATOM     60  C   UNL A   1      44.823  28.508  35.587  1.00  0.00    -0.014 A 
ATOM     61  C   UNL A   1      44.615  27.323  36.317  1.00  0.00     0.010 A 
ATOM     62  C   UNL A   1      46.135  28.994  35.436  1.00  0.00     0.010 A 
ATOM     63  C   UNL A   1      45.689  26.668  36.925  1.00  0.00     0.020 A 
ATOM     64  C   UNL A   1      47.216  28.324  36.016  1.00  0.00     0.020 A 
ATOM     65  C   UNL A   1      46.983  27.175  36.774  1.00  0.00     0.054 A 
BRANCH  65  66
ATOM     66  S   UNL A   1      48.359  26.297  37.566  1.00  0.00     0.124 S 
ATOM     67  O   UNL A   1      47.779  25.935  38.857  1.00  0.00    -0.237 OA
ATOM     68  O   UNL A   1      48.597  25.185  36.650  1.00  0.00    -0.237 OA
ATOM     69  O   UNL A   1      49.423  27.296  37.620  1.00  0.00    -0.744 OA
ENDBRANCH  65  66
ENDBRANCH  46  60
BRANCH  47  70
ATOM     70  C   UNL A   1      37.029  32.838  31.054  1.00  0.00    -0.014 A 
ATOM     71  C   UNL A   1      35.722  32.520  31.463  1.00  0.00     0.010 A 
ATOM     72  C   UNL A   1      37.213  33.779  30.025  1.00  0.00     0.010 A 
ATOM     73  C   UNL A   1      34.620  33.119  30.845  1.00  0.00     0.020 A 
ATOM     74  C   UNL A   1      36.114  34.401  29.424  1.00  0.00     0.020 A 
ATOM     75  C   UNL A   1      34.824  34.059  29.830  1.00  0.00     0.054 A 
BRANCH  75  76
ATOM     76  S   UNL A   1      33.380  34.864  29.083  1.00  0.00     0.124 S 
ATOM     77  O   UNL A   1      33.970  36.066  28.502  1.00  0.00    -0.237 OA
ATOM     78  O   UNL A   1      32.918  33.858  28.129  1.00  0.00    -0.237 OA
ATOM     79  O   UNL A   1      32.489  35.088  30.220  1.00  0.00    -0.744 OA
ENDBRANCH  75  76
ENDBRANCH  47  70
BRANCH  59  80
ATOM     80  C   UNL A   1      39.972  33.553  37.340  1.00  0.00    -0.014 A 
ATOM     81  C   UNL A   1      40.534  34.837  37.465  1.00  0.00     0.010 A 
ATOM     82  C   UNL A   1      39.047  33.112  38.304  1.00  0.00     0.010 A 
ATOM     83  C   UNL A   1      40.193  35.653  38.547  1.00  0.00     0.020 A 
ATOM     84  C   UNL A   1      38.682  33.937  39.370  1.00  0.00     0.020 A 
ATOM     85  C   UNL A   1      39.265  35.200  39.490  1.00  0.00     0.054 A 
BRANCH  85  86
ATOM     86  S   UNL A   1      38.795  36.303  40.851  1.00  0.00     0.124 S 
ATOM     87  O   UNL A   1      40.054  36.445  41.577  1.00  0.00    -0.237 OA
ATOM     88  O   UNL A   1      38.336  37.498  40.149  1.00  0.00    -0.237 OA
ATOM     89  O   UNL A   1      37.751  35.560  41.555  1.00  0.00    -0.744 OA
ENDBRANCH  85  86
ENDBRANCH  59  80
ENDBRANCH  33  34
ENDBRANCH  25  28
ENDBRANCH  23  24
ENDBRANCH  22  23
ENDBRANCH   1  22
TORSDOF 17
ENDMDL
