MODEL 1
REMARK VINA RESULT:     -12.4      0.000      0.000
REMARK SMILES O=C(NCCCNC(=O)c1cc(S(=O)(=O)Nc2ccccc2-n2cc(Br)cn2)c[nH]1)c1ccc(-c2c3nc(c(-c4ccc(S(=O)(=O)[O-])cc4)c4ccc([nH]4)c(-c4ccc(S(=O)(=O)[O-])cc4)c4nc(c(-c5ccc(S(=O)(=O)[O-])cc5)c5ccc2[nH]5)C=C4)C=C3)cc1
REMARK SMILES IDX 5 1 4 2 3 3 1 4 2 5 31 7 32 8 90 9 33 10 89 11 34 12 35 13
REMARK SMILES IDX 36 14 83 15 37 16 88 17 82 18 84 19 38 20 87 21 81 22 80 23
REMARK SMILES IDX 39 25 69 26 50 27 68 28 51 29 54 30 67 31 85 32 52 33 53 34
REMARK SMILES IDX 66 36 86 37 55 38 40 39 41 40 49 41 42 42 48 43 43 44 44 45
REMARK SMILES IDX 45 46 46 47 47 48 70 49 71 50 79 51 72 52 78 53 73 54 74 55
REMARK SMILES IDX 75 56 76 57 77 58 56 59 57 60 65 61 58 62 64 63 59 64 60 65
REMARK SMILES IDX 61 66 62 67 63 68 6 69 7 70 8 71 9 73 10 74 11 75 30 76
REMARK SMILES IDX 12 77 29 78 13 80 14 81 15 82 16 83 17 85 18 86 22 87 19 88
REMARK SMILES IDX 21 89 20 90 23 91 24 92 28 93 25 94 27 95 26 96
REMARK H PARENT 3 6 84 24 54 35 7 72 30 79 16 84
REMARK Flexibility Score: inf
ROOT
ATOM      1  C   UNL A   1      32.213  28.795  26.323  1.00  0.00     0.042 C 
ENDROOT
BRANCH   1   2
ATOM      2  C   UNL A   1      33.474  28.946  27.173  1.00  0.00     0.118 C 
BRANCH   2   3
ATOM      3  N   UNL A   1      33.641  30.231  27.837  1.00  0.00    -0.352 N 
ATOM      4  O   UNL A   1      34.521  32.045  28.774  1.00  0.00    -0.269 OA
ATOM      5  C   UNL A   1      34.719  30.903  28.354  1.00  0.00     0.251 C 
ATOM      6  H   UNL A   1      32.795  30.725  27.934  1.00  0.00     0.163 HD
BRANCH   5   7
ATOM      7  C   UNL A   1      36.068  30.300  28.505  1.00  0.00     0.039 A 
ATOM      8  C   UNL A   1      37.024  30.278  27.490  1.00  0.00     0.014 A 
ATOM      9  C   UNL A   1      36.387  29.733  29.753  1.00  0.00     0.014 A 
ATOM     10  C   UNL A   1      38.224  29.599  27.668  1.00  0.00     0.010 A 
ATOM     11  C   UNL A   1      37.610  29.092  29.956  1.00  0.00     0.010 A 
ATOM     12  C   UNL A   1      38.524  29.015  28.903  1.00  0.00    -0.014 A 
BRANCH  12  13
ATOM     13  C   UNL A   1      39.915  28.541  29.096  1.00  0.00     0.031 A 
ATOM     14  C   UNL A   1      40.854  29.700  29.466  1.00  0.00     0.074 A 
ATOM     15  C   UNL A   1      40.189  27.233  28.809  1.00  0.00     0.049 A 
ATOM     16  N   UNL A   1      42.104  29.875  29.170  1.00  0.00    -0.248 NA
ATOM     17  C   UNL A   1      40.299  30.888  30.173  1.00  0.00     0.031 C 
ATOM     18  C   UNL A   1      39.171  26.216  28.465  1.00  0.00     0.029 A 
ATOM     19  N   UNL A   1      41.353  26.493  28.731  1.00  0.00    -0.354 N 
ATOM     20  C   UNL A   1      42.524  31.080  29.778  1.00  0.00     0.074 A 
ATOM     21  C   UNL A   1      41.346  31.707  30.293  1.00  0.00     0.031 C 
ATOM     22  C   UNL A   1      39.754  25.037  28.151  1.00  0.00     0.029 A 
ATOM     23  C   UNL A   1      41.195  25.160  28.269  1.00  0.00     0.049 A 
ATOM     24  H   UNL A   1      42.231  26.863  28.979  1.00  0.00     0.167 HD
ATOM     25  C   UNL A   1      43.836  31.429  29.926  1.00  0.00     0.031 A 
ATOM     26  C   UNL A   1      42.150  24.230  27.959  1.00  0.00     0.031 A 
ATOM     27  C   UNL A   1      44.676  30.449  29.330  1.00  0.00     0.049 A 
ATOM     28  C   UNL A   1      43.445  24.829  28.320  1.00  0.00     0.074 A 
ATOM     29  C   UNL A   1      44.966  30.116  28.034  1.00  0.00     0.029 A 
ATOM     30  N   UNL A   1      45.112  29.446  30.160  1.00  0.00    -0.354 N 
ATOM     31  N   UNL A   1      43.882  24.995  29.530  1.00  0.00    -0.248 NA
ATOM     32  C   UNL A   1      44.330  25.304  27.246  1.00  0.00     0.031 C 
ATOM     33  C   UNL A   1      45.147  28.717  28.083  1.00  0.00     0.029 A 
ATOM     34  C   UNL A   1      45.106  28.294  29.417  1.00  0.00     0.049 A 
ATOM     35  H   UNL A   1      45.377  29.536  31.105  1.00  0.00     0.167 HD
ATOM     36  C   UNL A   1      44.877  25.924  29.359  1.00  0.00     0.074 A 
ATOM     37  C   UNL A   1      45.313  25.813  27.984  1.00  0.00     0.031 C 
ATOM     38  C   UNL A   1      44.865  27.051  30.114  1.00  0.00     0.031 A 
BRANCH  25  39
ATOM     39  C   UNL A   1      44.512  32.456  30.800  1.00  0.00    -0.014 A 
ATOM     40  C   UNL A   1      44.512  32.202  32.198  1.00  0.00     0.010 A 
ATOM     41  C   UNL A   1      44.803  33.761  30.382  1.00  0.00     0.010 A 
ATOM     42  C   UNL A   1      44.622  33.229  33.134  1.00  0.00     0.020 A 
ATOM     43  C   UNL A   1      44.960  34.796  31.322  1.00  0.00     0.020 A 
ATOM     44  C   UNL A   1      44.803  34.531  32.686  1.00  0.00     0.054 A 
BRANCH  44  45
ATOM     45  S   UNL A   1      44.736  35.874  33.902  1.00  0.00     0.124 S 
ATOM     46  O   UNL A   1      46.012  35.722  34.594  1.00  0.00    -0.237 OA
ATOM     47  O   UNL A   1      44.620  37.063  33.058  1.00  0.00    -0.237 OA
ATOM     48  O   UNL A   1      43.547  35.563  34.691  1.00  0.00    -0.744 OA
ENDBRANCH  44  45
ENDBRANCH  25  39
BRANCH  26  49
ATOM     49  C   UNL A   1      42.241  22.878  27.280  1.00  0.00    -0.014 A 
ATOM     50  C   UNL A   1      43.144  22.509  26.277  1.00  0.00     0.010 A 
ATOM     51  C   UNL A   1      41.424  21.823  27.785  1.00  0.00     0.010 A 
ATOM     52  C   UNL A   1      43.324  21.150  25.920  1.00  0.00     0.020 A 
ATOM     53  C   UNL A   1      41.628  20.475  27.485  1.00  0.00     0.020 A 
ATOM     54  C   UNL A   1      42.604  20.139  26.566  1.00  0.00     0.054 A 
BRANCH  54  55
ATOM     55  S   UNL A   1      43.023  18.387  26.336  1.00  0.00     0.124 S 
ATOM     56  O   UNL A   1      43.177  17.919  27.710  1.00  0.00    -0.237 OA
ATOM     57  O   UNL A   1      41.864  17.866  25.617  1.00  0.00    -0.237 OA
ATOM     58  O   UNL A   1      44.256  18.435  25.550  1.00  0.00    -0.744 OA
ENDBRANCH  54  55
ENDBRANCH  26  49
BRANCH  38  59
ATOM     59  C   UNL A   1      44.163  26.922  31.459  1.00  0.00    -0.014 A 
ATOM     60  C   UNL A   1      43.002  27.673  31.716  1.00  0.00     0.010 A 
ATOM     61  C   UNL A   1      44.673  26.141  32.515  1.00  0.00     0.010 A 
ATOM     62  C   UNL A   1      42.381  27.651  32.976  1.00  0.00     0.020 A 
ATOM     63  C   UNL A   1      44.058  26.109  33.780  1.00  0.00     0.020 A 
ATOM     64  C   UNL A   1      42.912  26.869  34.002  1.00  0.00     0.054 A 
BRANCH  64  65
ATOM     65  S   UNL A   1      42.094  26.880  35.626  1.00  0.00     0.124 S 
ATOM     66  O   UNL A   1      41.725  28.285  35.793  1.00  0.00    -0.237 OA
ATOM     67  O   UNL A   1      40.976  25.963  35.423  1.00  0.00    -0.237 OA
ATOM     68  O   UNL A   1      43.127  26.404  36.545  1.00  0.00    -0.744 OA
ENDBRANCH  64  65
ENDBRANCH  38  59
ENDBRANCH  12  13
ENDBRANCH   5   7
ENDBRANCH   2   3
ENDBRANCH   1   2
BRANCH   1  69
ATOM     69  C   UNL A   1      32.213  29.693  25.095  1.00  0.00     0.118 C 
BRANCH  69  70
ATOM     70  N   UNL A   1      31.124  29.351  24.203  1.00  0.00    -0.351 N 
ATOM     71  C   UNL A   1      30.983  28.404  23.226  1.00  0.00     0.267 C 
ATOM     72  H   UNL A   1      30.325  29.912  24.325  1.00  0.00     0.163 HD
ATOM     73  O   UNL A   1      30.011  28.544  22.477  1.00  0.00    -0.268 OA
BRANCH  71  74
ATOM     74  C   UNL A   1      31.866  27.265  23.079  1.00  0.00     0.105 A 
ATOM     75  C   UNL A   1      32.054  26.070  23.750  1.00  0.00     0.055 A 
ATOM     76  N   UNL A   1      32.740  27.216  22.002  1.00  0.00    -0.356 N 
ATOM     77  C   UNL A   1      32.827  25.209  22.926  1.00  0.00     0.106 A 
ATOM     78  C   UNL A   1      33.293  25.970  21.876  1.00  0.00     0.105 A 
ATOM     79  H   UNL A   1      32.938  27.976  21.409  1.00  0.00     0.166 HD
BRANCH  77  80
ATOM     80  S   UNL A   1      33.094  23.527  23.233  1.00  0.00     0.263 S 
ATOM     81  O   UNL A   1      31.797  22.919  23.127  1.00  0.00    -0.201 OA
ATOM     82  O   UNL A   1      34.187  23.180  22.336  1.00  0.00    -0.201 OA
BRANCH  80  83
ATOM     83  N   UNL A   1      33.647  23.228  24.824  1.00  0.00    -0.277 N 
ATOM     84  H   UNL A   1      33.020  23.257  25.583  1.00  0.00     0.180 HD
BRANCH  83  85
ATOM     85  C   UNL A   1      35.038  22.934  25.037  1.00  0.00     0.075 A 
ATOM     86  C   UNL A   1      35.922  24.011  25.194  1.00  0.00     0.029 A 
ATOM     87  C   UNL A   1      35.512  21.620  25.234  1.00  0.00     0.089 A 
ATOM     88  C   UNL A   1      37.263  23.789  25.523  1.00  0.00     0.002 A 
ATOM     89  C   UNL A   1      36.854  21.412  25.602  1.00  0.00     0.030 A 
ATOM     90  C   UNL A   1      37.728  22.492  25.726  1.00  0.00     0.002 A 
BRANCH  87  91
ATOM     91  N   UNL A   1      34.661  20.485  25.133  1.00  0.00    -0.238 N 
ATOM     92  C   UNL A   1      34.937  19.253  24.581  1.00  0.00     0.130 A 
ATOM     93  N   UNL A   1      33.365  20.548  25.563  1.00  0.00    -0.175 NA
ATOM     94  C   UNL A   1      33.735  18.620  24.440  1.00  0.00     0.056 A 
ATOM     95  C   UNL A   1      32.795  19.461  25.036  1.00  0.00     0.151 A 
ATOM     96  Br  UNL A   1      33.389  16.978  23.630  1.00  0.00    -0.047 Br
ENDBRANCH  87  91
ENDBRANCH  83  85
ENDBRANCH  80  83
ENDBRANCH  77  80
ENDBRANCH  71  74
ENDBRANCH  69  70
ENDBRANCH   1  69
TORSDOF 17
ENDMDL
MODEL 2
REMARK VINA RESULT:     -12.2      1.580      2.053
REMARK SMILES O=C(NCCCNC(=O)c1cc(S(=O)(=O)Nc2ccccc2-n2cc(Br)cn2)c[nH]1)c1ccc(-c2c3nc(c(-c4ccc(S(=O)(=O)[O-])cc4)c4ccc([nH]4)c(-c4ccc(S(=O)(=O)[O-])cc4)c4nc(c(-c5ccc(S(=O)(=O)[O-])cc5)c5ccc2[nH]5)C=C4)C=C3)cc1
REMARK SMILES IDX 5 1 4 2 3 3 1 4 2 5 31 7 32 8 90 9 33 10 89 11 34 12 35 13
REMARK SMILES IDX 36 14 83 15 37 16 88 17 82 18 84 19 38 20 87 21 81 22 80 23
REMARK SMILES IDX 39 25 69 26 50 27 68 28 51 29 54 30 67 31 85 32 52 33 53 34
REMARK SMILES IDX 66 36 86 37 55 38 40 39 41 40 49 41 42 42 48 43 43 44 44 45
REMARK SMILES IDX 45 46 46 47 47 48 70 49 71 50 79 51 72 52 78 53 73 54 74 55
REMARK SMILES IDX 75 56 76 57 77 58 56 59 57 60 65 61 58 62 64 63 59 64 60 65
REMARK SMILES IDX 61 66 62 67 63 68 6 69 7 70 8 71 9 73 10 74 11 75 30 76
REMARK SMILES IDX 12 77 29 78 13 80 14 81 15 82 16 83 17 85 18 86 22 87 19 88
REMARK SMILES IDX 21 89 20 90 23 91 24 92 28 93 25 94 27 95 26 96
REMARK H PARENT 3 6 84 24 54 35 7 72 30 79 16 84
REMARK Flexibility Score: inf
ROOT
ATOM      1  C   UNL A   1      32.369  30.518  26.897  1.00  0.00     0.042 C 
ENDROOT
BRANCH   1   2
ATOM      2  C   UNL A   1      33.745  31.005  27.352  1.00  0.00     0.118 C 
BRANCH   2   3
ATOM      3  N   UNL A   1      33.767  31.783  28.582  1.00  0.00    -0.352 N 
ATOM      4  O   UNL A   1      34.434  32.839  30.421  1.00  0.00    -0.269 OA
ATOM      5  C   UNL A   1      34.727  32.042  29.528  1.00  0.00     0.251 C 
ATOM      6  H   UNL A   1      32.906  32.218  28.776  1.00  0.00     0.163 HD
BRANCH   5   7
ATOM      7  C   UNL A   1      36.044  31.359  29.571  1.00  0.00     0.039 A 
ATOM      8  C   UNL A   1      37.053  31.562  28.630  1.00  0.00     0.014 A 
ATOM      9  C   UNL A   1      36.275  30.466  30.634  1.00  0.00     0.014 A 
ATOM     10  C   UNL A   1      38.218  30.804  28.672  1.00  0.00     0.010 A 
ATOM     11  C   UNL A   1      37.463  29.737  30.712  1.00  0.00     0.010 A 
ATOM     12  C   UNL A   1      38.431  29.899  29.718  1.00  0.00    -0.014 A 
BRANCH  12  13
ATOM     13  C   UNL A   1      39.792  29.327  29.837  1.00  0.00     0.031 A 
ATOM     14  C   UNL A   1      40.806  30.387  30.295  1.00  0.00     0.074 A 
ATOM     15  C   UNL A   1      39.981  28.038  29.425  1.00  0.00     0.049 A 
ATOM     16  N   UNL A   1      42.060  30.514  29.991  1.00  0.00    -0.248 NA
ATOM     17  C   UNL A   1      40.336  31.535  31.120  1.00  0.00     0.031 C 
ATOM     18  C   UNL A   1      38.897  27.121  29.008  1.00  0.00     0.029 A 
ATOM     19  N   UNL A   1      41.095  27.239  29.255  1.00  0.00    -0.354 N 
ATOM     20  C   UNL A   1      42.563  31.629  30.700  1.00  0.00     0.074 A 
ATOM     21  C   UNL A   1      41.433  32.275  31.295  1.00  0.00     0.031 C 
ATOM     22  C   UNL A   1      39.402  25.943  28.575  1.00  0.00     0.029 A 
ATOM     23  C   UNL A   1      40.849  25.967  28.674  1.00  0.00     0.049 A 
ATOM     24  H   UNL A   1      41.999  27.531  29.519  1.00  0.00     0.167 HD
ATOM     25  C   UNL A   1      43.895  31.883  30.853  1.00  0.00     0.031 A 
ATOM     26  C   UNL A   1      41.740  25.015  28.260  1.00  0.00     0.031 A 
ATOM     27  C   UNL A   1      44.665  30.914  30.152  1.00  0.00     0.049 A 
ATOM     28  C   UNL A   1      43.075  25.499  28.649  1.00  0.00     0.074 A 
ATOM     29  C   UNL A   1      44.915  30.688  28.824  1.00  0.00     0.029 A 
ATOM     30  N   UNL A   1      45.050  29.814  30.876  1.00  0.00    -0.354 N 
ATOM     31  N   UNL A   1      43.538  25.524  29.860  1.00  0.00    -0.248 NA
ATOM     32  C   UNL A   1      43.972  26.019  27.606  1.00  0.00     0.031 C 
ATOM     33  C   UNL A   1      45.010  29.282  28.740  1.00  0.00     0.029 A 
ATOM     34  C   UNL A   1      44.962  28.739  30.030  1.00  0.00     0.049 A 
ATOM     35  H   UNL A   1      45.333  29.798  31.820  1.00  0.00     0.167 HD
ATOM     36  C   UNL A   1      44.586  26.404  29.756  1.00  0.00     0.074 A 
ATOM     37  C   UNL A   1      44.994  26.396  28.368  1.00  0.00     0.031 C 
ATOM     38  C   UNL A   1      44.655  27.453  30.612  1.00  0.00     0.031 A 
BRANCH  25  39
ATOM     39  C   UNL A   1      44.646  32.781  31.805  1.00  0.00    -0.014 A 
ATOM     40  C   UNL A   1      44.509  32.497  33.190  1.00  0.00     0.010 A 
ATOM     41  C   UNL A   1      45.150  34.040  31.452  1.00  0.00     0.010 A 
ATOM     42  C   UNL A   1      44.697  33.475  34.165  1.00  0.00     0.020 A 
ATOM     43  C   UNL A   1      45.385  35.018  32.434  1.00  0.00     0.020 A 
ATOM     44  C   UNL A   1      45.093  34.748  33.774  1.00  0.00     0.054 A 
BRANCH  44  45
ATOM     45  S   UNL A   1      45.131  36.058  35.027  1.00  0.00     0.124 S 
ATOM     46  O   UNL A   1      46.210  35.611  35.903  1.00  0.00    -0.237 OA
ATOM     47  O   UNL A   1      45.425  37.250  34.233  1.00  0.00    -0.237 OA
ATOM     48  O   UNL A   1      43.791  36.019  35.604  1.00  0.00    -0.744 OA
ENDBRANCH  44  45
ENDBRANCH  25  39
BRANCH  26  49
ATOM     49  C   UNL A   1      41.737  23.730  27.457  1.00  0.00    -0.014 A 
ATOM     50  C   UNL A   1      42.557  23.430  26.364  1.00  0.00     0.010 A 
ATOM     51  C   UNL A   1      40.920  22.657  27.920  1.00  0.00     0.010 A 
ATOM     52  C   UNL A   1      42.665  22.105  25.873  1.00  0.00     0.020 A 
ATOM     53  C   UNL A   1      41.055  21.338  27.486  1.00  0.00     0.020 A 
ATOM     54  C   UNL A   1      41.955  21.060  26.474  1.00  0.00     0.054 A 
BRANCH  54  55
ATOM     55  S   UNL A   1      42.295  19.325  26.057  1.00  0.00     0.124 S 
ATOM     56  O   UNL A   1      40.984  18.841  25.637  1.00  0.00    -0.237 OA
ATOM     57  O   UNL A   1      43.298  19.434  25.001  1.00  0.00    -0.237 OA
ATOM     58  O   UNL A   1      42.794  18.767  27.315  1.00  0.00    -0.744 OA
ENDBRANCH  54  55
ENDBRANCH  26  49
BRANCH  38  59
ATOM     59  C   UNL A   1      43.965  27.241  31.953  1.00  0.00    -0.014 A 
ATOM     60  C   UNL A   1      44.488  26.309  32.868  1.00  0.00     0.010 A 
ATOM     61  C   UNL A   1      42.755  27.875  32.299  1.00  0.00     0.010 A 
ATOM     62  C   UNL A   1      43.828  26.017  34.073  1.00  0.00     0.020 A 
ATOM     63  C   UNL A   1      42.087  27.594  33.504  1.00  0.00     0.020 A 
ATOM     64  C   UNL A   1      42.630  26.661  34.385  1.00  0.00     0.054 A 
BRANCH  64  65
ATOM     65  S   UNL A   1      41.793  26.245  35.945  1.00  0.00     0.124 S 
ATOM     66  O   UNL A   1      40.729  25.343  35.510  1.00  0.00    -0.237 OA
ATOM     67  O   UNL A   1      42.861  25.621  36.721  1.00  0.00    -0.237 OA
ATOM     68  O   UNL A   1      41.332  27.537  36.453  1.00  0.00    -0.744 OA
ENDBRANCH  64  65
ENDBRANCH  38  59
ENDBRANCH  12  13
ENDBRANCH   5   7
ENDBRANCH   2   3
ENDBRANCH   1   2
BRANCH   1  69
ATOM     69  C   UNL A   1      32.372  29.969  25.478  1.00  0.00     0.118 C 
BRANCH  69  70
ATOM     70  N   UNL A   1      31.086  30.169  24.843  1.00  0.00    -0.351 N 
ATOM     71  C   UNL A   1      30.424  29.500  23.851  1.00  0.00     0.267 C 
ATOM     72  H   UNL A   1      30.589  30.942  25.195  1.00  0.00     0.163 HD
ATOM     73  O   UNL A   1      29.449  30.083  23.367  1.00  0.00    -0.268 OA
BRANCH  71  74
ATOM     74  C   UNL A   1      30.779  28.168  23.406  1.00  0.00     0.105 A 
ATOM     75  C   UNL A   1      31.887  27.588  22.815  1.00  0.00     0.055 A 
ATOM     76  N   UNL A   1      29.899  27.119  23.629  1.00  0.00    -0.356 N 
ATOM     77  C   UNL A   1      31.777  26.178  22.940  1.00  0.00     0.106 A 
ATOM     78  C   UNL A   1      30.503  25.913  23.392  1.00  0.00     0.105 A 
ATOM     79  H   UNL A   1      28.964  27.226  23.919  1.00  0.00     0.166 HD
BRANCH  77  80
ATOM     80  S   UNL A   1      33.043  25.053  22.582  1.00  0.00     0.263 S 
ATOM     81  O   UNL A   1      32.401  23.768  22.554  1.00  0.00    -0.201 OA
ATOM     82  O   UNL A   1      33.691  25.621  21.409  1.00  0.00    -0.201 OA
BRANCH  80  83
ATOM     83  N   UNL A   1      34.227  24.981  23.815  1.00  0.00    -0.277 N 
ATOM     84  H   UNL A   1      34.486  25.794  24.306  1.00  0.00     0.180 HD
BRANCH  83  85
ATOM     85  C   UNL A   1      34.838  23.717  24.124  1.00  0.00     0.075 A 
ATOM     86  C   UNL A   1      36.016  23.371  23.447  1.00  0.00     0.029 A 
ATOM     87  C   UNL A   1      34.379  22.892  25.172  1.00  0.00     0.089 A 
ATOM     88  C   UNL A   1      36.721  22.213  23.789  1.00  0.00     0.002 A 
ATOM     89  C   UNL A   1      35.118  21.749  25.533  1.00  0.00     0.030 A 
ATOM     90  C   UNL A   1      36.273  21.404  24.830  1.00  0.00     0.002 A 
BRANCH  87  91
ATOM     91  N   UNL A   1      33.217  23.204  25.929  1.00  0.00    -0.238 N 
ATOM     92  C   UNL A   1      32.154  22.386  26.246  1.00  0.00     0.130 A 
ATOM     93  N   UNL A   1      33.016  24.472  26.400  1.00  0.00    -0.175 NA
ATOM     94  C   UNL A   1      31.164  23.209  26.706  1.00  0.00     0.056 A 
ATOM     95  C   UNL A   1      31.730  24.483  26.762  1.00  0.00     0.151 A 
ATOM     96  Br  UNL A   1      29.418  22.755  27.169  1.00  0.00    -0.047 Br
ENDBRANCH  87  91
ENDBRANCH  83  85
ENDBRANCH  80  83
ENDBRANCH  77  80
ENDBRANCH  71  74
ENDBRANCH  69  70
ENDBRANCH   1  69
TORSDOF 17
ENDMDL
MODEL 3
REMARK VINA RESULT:     -12.2      3.141      8.511
REMARK SMILES O=C(NCCCNC(=O)c1cc(S(=O)(=O)Nc2ccccc2-n2cc(Br)cn2)c[nH]1)c1ccc(-c2c3nc(c(-c4ccc(S(=O)(=O)[O-])cc4)c4ccc([nH]4)c(-c4ccc(S(=O)(=O)[O-])cc4)c4nc(c(-c5ccc(S(=O)(=O)[O-])cc5)c5ccc2[nH]5)C=C4)C=C3)cc1
REMARK SMILES IDX 5 1 4 2 3 3 1 4 2 5 31 7 32 8 90 9 33 10 89 11 34 12 35 13
REMARK SMILES IDX 36 14 83 15 37 16 88 17 82 18 84 19 38 20 87 21 81 22 80 23
REMARK SMILES IDX 39 25 69 26 50 27 68 28 51 29 54 30 67 31 85 32 52 33 53 34
REMARK SMILES IDX 66 36 86 37 55 38 40 39 41 40 49 41 42 42 48 43 43 44 44 45
REMARK SMILES IDX 45 46 46 47 47 48 70 49 71 50 79 51 72 52 78 53 73 54 74 55
REMARK SMILES IDX 75 56 76 57 77 58 56 59 57 60 65 61 58 62 64 63 59 64 60 65
REMARK SMILES IDX 61 66 62 67 63 68 6 69 7 70 8 71 9 73 10 74 11 75 30 76
REMARK SMILES IDX 12 77 29 78 13 80 14 81 15 82 16 83 17 85 18 86 22 87 19 88
REMARK SMILES IDX 21 89 20 90 23 91 24 92 28 93 25 94 27 95 26 96
REMARK H PARENT 3 6 84 24 54 35 7 72 30 79 16 84
REMARK Flexibility Score: inf
ROOT
ATOM      1  C   UNL A   1      33.709  29.014  25.811  1.00  0.00     0.042 C 
ENDROOT
BRANCH   1   2
ATOM      2  C   UNL A   1      34.767  28.895  26.907  1.00  0.00     0.118 C 
BRANCH   2   3
ATOM      3  N   UNL A   1      34.864  30.026  27.819  1.00  0.00    -0.352 N 
ATOM      4  O   UNL A   1      35.637  31.581  29.207  1.00  0.00    -0.269 OA
ATOM      5  C   UNL A   1      35.865  30.525  28.615  1.00  0.00     0.251 C 
ATOM      6  H   UNL A   1      34.030  30.546  27.877  1.00  0.00     0.163 HD
BRANCH   5   7
ATOM      7  C   UNL A   1      37.151  29.822  28.855  1.00  0.00     0.039 A 
ATOM      8  C   UNL A   1      38.274  29.963  28.041  1.00  0.00     0.014 A 
ATOM      9  C   UNL A   1      37.227  28.979  29.979  1.00  0.00     0.014 A 
ATOM     10  C   UNL A   1      39.408  29.189  28.265  1.00  0.00     0.010 A 
ATOM     11  C   UNL A   1      38.379  28.235  30.240  1.00  0.00     0.010 A 
ATOM     12  C   UNL A   1      39.467  28.333  29.369  1.00  0.00    -0.014 A 
BRANCH  12  13
ATOM     13  C   UNL A   1      40.789  27.745  29.686  1.00  0.00     0.031 A 
ATOM     14  C   UNL A   1      41.080  26.518  28.807  1.00  0.00     0.074 A 
ATOM     15  C   UNL A   1      41.482  28.262  30.745  1.00  0.00     0.049 A 
ATOM     16  N   UNL A   1      41.741  25.439  29.090  1.00  0.00    -0.248 NA
ATOM     17  C   UNL A   1      40.456  26.426  27.457  1.00  0.00     0.031 C 
ATOM     18  C   UNL A   1      41.078  29.464  31.507  1.00  0.00     0.029 A 
ATOM     19  N   UNL A   1      42.637  27.894  31.407  1.00  0.00    -0.354 N 
ATOM     20  C   UNL A   1      41.757  24.630  27.931  1.00  0.00     0.074 A 
ATOM     21  C   UNL A   1      40.865  25.243  26.995  1.00  0.00     0.031 C 
ATOM     22  C   UNL A   1      41.914  29.679  32.547  1.00  0.00     0.029 A 
ATOM     23  C   UNL A   1      42.944  28.657  32.564  1.00  0.00     0.049 A 
ATOM     24  H   UNL A   1      43.209  27.154  31.098  1.00  0.00     0.167 HD
ATOM     25  C   UNL A   1      42.599  23.567  27.768  1.00  0.00     0.031 A 
ATOM     26  C   UNL A   1      43.927  28.463  33.496  1.00  0.00     0.031 A 
ATOM     27  C   UNL A   1      43.381  23.376  28.940  1.00  0.00     0.049 A 
ATOM     28  C   UNL A   1      44.742  27.337  33.012  1.00  0.00     0.074 A 
ATOM     29  C   UNL A   1      43.104  22.896  30.193  1.00  0.00     0.029 A 
ATOM     30  N   UNL A   1      44.598  24.012  28.961  1.00  0.00    -0.354 N 
ATOM     31  N   UNL A   1      45.576  27.388  32.021  1.00  0.00    -0.248 NA
ATOM     32  C   UNL A   1      44.606  26.030  33.672  1.00  0.00     0.031 C 
ATOM     33  C   UNL A   1      43.942  23.660  31.033  1.00  0.00     0.029 A 
ATOM     34  C   UNL A   1      44.785  24.453  30.245  1.00  0.00     0.049 A 
ATOM     35  H   UNL A   1      45.215  24.130  28.203  1.00  0.00     0.167 HD
ATOM     36  C   UNL A   1      45.749  26.063  31.712  1.00  0.00     0.074 A 
ATOM     37  C   UNL A   1      45.429  25.315  32.909  1.00  0.00     0.031 C 
ATOM     38  C   UNL A   1      45.567  25.654  30.432  1.00  0.00     0.031 A 
BRANCH  25  39
ATOM     39  C   UNL A   1      43.018  22.793  26.543  1.00  0.00    -0.014 A 
ATOM     40  C   UNL A   1      42.452  21.500  26.382  1.00  0.00     0.010 A 
ATOM     41  C   UNL A   1      44.155  23.098  25.783  1.00  0.00     0.010 A 
ATOM     42  C   UNL A   1      43.084  20.506  25.637  1.00  0.00     0.020 A 
ATOM     43  C   UNL A   1      44.774  22.113  24.993  1.00  0.00     0.020 A 
ATOM     44  C   UNL A   1      44.270  20.809  24.980  1.00  0.00     0.054 A 
BRANCH  44  45
ATOM     45  S   UNL A   1      45.183  19.456  24.191  1.00  0.00     0.124 S 
ATOM     46  O   UNL A   1      44.701  19.525  22.815  1.00  0.00    -0.237 OA
ATOM     47  O   UNL A   1      46.576  19.856  24.386  1.00  0.00    -0.237 OA
ATOM     48  O   UNL A   1      44.771  18.277  24.948  1.00  0.00    -0.744 OA
ENDBRANCH  44  45
ENDBRANCH  25  39
BRANCH  26  49
ATOM     49  C   UNL A   1      44.313  28.987  34.865  1.00  0.00    -0.014 A 
ATOM     50  C   UNL A   1      43.488  29.689  35.749  1.00  0.00     0.010 A 
ATOM     51  C   UNL A   1      45.594  28.629  35.378  1.00  0.00     0.010 A 
ATOM     52  C   UNL A   1      43.862  29.880  37.103  1.00  0.00     0.020 A 
ATOM     53  C   UNL A   1      45.954  28.758  36.720  1.00  0.00     0.020 A 
ATOM     54  C   UNL A   1      45.068  29.364  37.590  1.00  0.00     0.054 A 
BRANCH  54  55
ATOM     55  S   UNL A   1      45.433  29.339  39.370  1.00  0.00     0.124 S 
ATOM     56  O   UNL A   1      44.600  30.426  39.875  1.00  0.00    -0.237 OA
ATOM     57  O   UNL A   1      45.028  27.994  39.767  1.00  0.00    -0.237 OA
ATOM     58  O   UNL A   1      46.875  29.581  39.421  1.00  0.00    -0.744 OA
ENDBRANCH  54  55
ENDBRANCH  26  49
BRANCH  38  59
ATOM     59  C   UNL A   1      45.800  26.722  29.372  1.00  0.00    -0.014 A 
ATOM     60  C   UNL A   1      44.730  27.531  28.949  1.00  0.00     0.010 A 
ATOM     61  C   UNL A   1      47.035  26.889  28.713  1.00  0.00     0.010 A 
ATOM     62  C   UNL A   1      44.884  28.462  27.909  1.00  0.00     0.020 A 
ATOM     63  C   UNL A   1      47.201  27.820  27.672  1.00  0.00     0.020 A 
ATOM     64  C   UNL A   1      46.119  28.602  27.275  1.00  0.00     0.054 A 
BRANCH  64  65
ATOM     65  S   UNL A   1      46.277  29.803  25.918  1.00  0.00     0.124 S 
ATOM     66  O   UNL A   1      47.498  30.526  26.267  1.00  0.00    -0.237 OA
ATOM     67  O   UNL A   1      46.376  28.942  24.743  1.00  0.00    -0.237 OA
ATOM     68  O   UNL A   1      45.050  30.595  26.004  1.00  0.00    -0.744 OA
ENDBRANCH  64  65
ENDBRANCH  38  59
ENDBRANCH  12  13
ENDBRANCH   5   7
ENDBRANCH   2   3
ENDBRANCH   1   2
BRANCH   1  69
ATOM     69  C   UNL A   1      32.471  28.175  26.087  1.00  0.00     0.118 C 
BRANCH  69  70
ATOM     70  N   UNL A   1      31.382  28.554  25.210  1.00  0.00    -0.351 N 
ATOM     71  C   UNL A   1      31.111  28.291  23.895  1.00  0.00     0.267 C 
ATOM     72  H   UNL A   1      30.701  29.112  25.647  1.00  0.00     0.163 HD
ATOM     73  O   UNL A   1      30.222  28.976  23.381  1.00  0.00    -0.268 OA
BRANCH  71  74
ATOM     74  C   UNL A   1      31.764  27.245  23.135  1.00  0.00     0.105 A 
ATOM     75  C   UNL A   1      32.750  26.309  23.390  1.00  0.00     0.055 A 
ATOM     76  N   UNL A   1      31.343  26.981  21.839  1.00  0.00    -0.356 N 
ATOM     77  C   UNL A   1      32.717  25.330  22.362  1.00  0.00     0.106 A 
ATOM     78  C   UNL A   1      31.878  25.807  21.379  1.00  0.00     0.105 A 
ATOM     79  H   UNL A   1      30.739  27.560  21.320  1.00  0.00     0.166 HD
BRANCH  77  80
ATOM     80  S   UNL A   1      33.586  23.833  22.395  1.00  0.00     0.263 S 
ATOM     81  O   UNL A   1      33.625  23.396  21.027  1.00  0.00    -0.201 OA
ATOM     82  O   UNL A   1      34.796  24.151  23.141  1.00  0.00    -0.201 OA
BRANCH  80  83
ATOM     83  N   UNL A   1      32.768  22.616  23.275  1.00  0.00    -0.277 N 
ATOM     84  H   UNL A   1      32.615  21.729  22.876  1.00  0.00     0.180 HD
BRANCH  83  85
ATOM     85  C   UNL A   1      32.305  22.907  24.604  1.00  0.00     0.075 A 
ATOM     86  C   UNL A   1      31.021  23.452  24.752  1.00  0.00     0.029 A 
ATOM     87  C   UNL A   1      33.031  22.535  25.756  1.00  0.00     0.089 A 
ATOM     88  C   UNL A   1      30.470  23.643  26.022  1.00  0.00     0.002 A 
ATOM     89  C   UNL A   1      32.450  22.698  27.028  1.00  0.00     0.030 A 
ATOM     90  C   UNL A   1      31.183  23.267  27.158  1.00  0.00     0.002 A 
BRANCH  87  91
ATOM     91  N   UNL A   1      34.319  21.938  25.679  1.00  0.00    -0.238 N 
ATOM     92  C   UNL A   1      35.522  22.432  26.135  1.00  0.00     0.130 A 
ATOM     93  N   UNL A   1      34.493  20.742  25.039  1.00  0.00    -0.175 NA
ATOM     94  C   UNL A   1      36.493  21.660  25.562  1.00  0.00     0.056 A 
ATOM     95  C   UNL A   1      35.816  20.650  24.879  1.00  0.00     0.151 A 
ATOM     96  Br  UNL A   1      38.340  21.884  25.653  1.00  0.00    -0.047 Br
ENDBRANCH  87  91
ENDBRANCH  83  85
ENDBRANCH  80  83
ENDBRANCH  77  80
ENDBRANCH  71  74
ENDBRANCH  69  70
ENDBRANCH   1  69
TORSDOF 17
ENDMDL
