MODEL 1
REMARK VINA RESULT:     -11.5      0.000      0.000
REMARK SMILES C[C@H]1[C@H](C(=O)NCCCNC(=O)c2ccc(-c3c4nc(c(-c5ccc(S(=O)(=O)[O-])cc5)c5ccc([nH]5)c(-c5ccc(S(=O)(=O)[O-])cc5)c5nc(c(-c6ccc(S(=O)(=O)[O-])cc6)c6ccc3[nH]6)C=C5)C=C4)cc2)CC[N@@H+]1Cc1ccc(Br)cc1F
REMARK SMILES IDX 8 1 7 2 6 3 4 4 5 5 3 7 1 8 2 9 75 10 73 11 74 12 76 14
REMARK SMILES IDX 77 15 78 16 83 17 79 18 82 19 84 20 80 21 81 22 9 23 10 24
REMARK SMILES IDX 11 25 12 27 13 28 14 29 72 30 15 31 71 32 16 33 17 34 18 35
REMARK SMILES IDX 65 36 19 37 70 38 64 39 66 40 20 41 69 42 63 43 62 44 21 46
REMARK SMILES IDX 51 47 32 48 50 49 33 50 36 51 49 52 67 53 34 54 35 55 48 57
REMARK SMILES IDX 68 58 37 59 22 60 23 61 31 62 24 63 30 64 25 65 26 66 27 67
REMARK SMILES IDX 28 68 29 69 52 70 53 71 61 72 54 73 60 74 55 75 56 76 57 77
REMARK SMILES IDX 58 78 59 79 38 80 39 81 47 82 40 83 46 84 41 85 42 86 43 87
REMARK SMILES IDX 44 88 45 89
REMARK H PARENT 6 6 75 13 10 26 66 45 36 56
REMARK Flexibility Score: inf
ROOT
ATOM      1  C   UNL A   1      34.041  28.091  25.096  1.00  0.00     0.042 C 
ENDROOT
BRANCH   1   2
ATOM      2  C   UNL A   1      32.819  27.729  24.254  1.00  0.00     0.117 C 
BRANCH   2   3
ATOM      3  N   UNL A   1      33.185  27.075  23.019  1.00  0.00    -0.356 N 
ATOM      4  C   UNL A   1      33.366  25.759  22.745  1.00  0.00     0.229 C 
ATOM      5  O   UNL A   1      33.643  25.474  21.574  1.00  0.00    -0.275 OA
ATOM      6  H   UNL A   1      33.325  27.680  22.256  1.00  0.00     0.163 HD
BRANCH   4   7
ATOM      7  C   UNL A   1      33.186  24.639  23.765  1.00  0.00     0.142 C 
ATOM      8  C   UNL A   1      30.861  24.055  24.519  1.00  0.00     0.076 C 
ATOM      9  C   UNL A   1      32.017  23.647  23.593  1.00  0.00     0.193 C 
ATOM     10  N   UNL A   1      32.534  22.343  24.051  1.00  0.00    -0.328 N 
ATOM     11  C   UNL A   1      34.410  23.758  23.973  1.00  0.00     0.081 C 
ATOM     12  C   UNL A   1      33.808  22.577  24.715  1.00  0.00     0.263 C 
ATOM     13  H   UNL A   1      31.859  21.978  24.723  1.00  0.00     0.348 HD
BRANCH  10  14
ATOM     14  C   UNL A   1      32.424  21.166  23.174  1.00  0.00     0.302 C 
BRANCH  14  15
ATOM     15  C   UNL A   1      32.527  19.757  23.737  1.00  0.00     0.042 A 
ATOM     16  C   UNL A   1      32.776  19.561  25.110  1.00  0.00     0.014 A 
ATOM     17  C   UNL A   1      32.458  18.606  22.943  1.00  0.00     0.133 A 
ATOM     18  C   UNL A   1      32.816  18.272  25.667  1.00  0.00     0.016 A 
ATOM     19  C   UNL A   1      32.470  17.322  23.486  1.00  0.00     0.055 A 
ATOM     20  F   UNL A   1      32.384  18.689  21.611  1.00  0.00    -0.206 F 
ATOM     21  C   UNL A   1      32.632  17.160  24.853  1.00  0.00     0.020 A 
ATOM     22  Br  UNL A   1      32.616  15.420  25.585  1.00  0.00    -0.051 Br
ENDBRANCH  14  15
ENDBRANCH  10  14
ENDBRANCH   4   7
ENDBRANCH   2   3
ENDBRANCH   1   2
BRANCH   1  23
ATOM     23  C   UNL A   1      33.741  28.207  26.585  1.00  0.00     0.118 C 
BRANCH  23  24
ATOM     24  N   UNL A   1      33.593  29.591  27.028  1.00  0.00    -0.352 N 
ATOM     25  C   UNL A   1      34.398  30.427  27.756  1.00  0.00     0.251 C 
ATOM     26  H   UNL A   1      32.745  30.006  26.747  1.00  0.00     0.163 HD
ATOM     27  O   UNL A   1      33.940  31.519  28.107  1.00  0.00    -0.269 OA
BRANCH  25  28
ATOM     28  C   UNL A   1      35.777  30.072  28.157  1.00  0.00     0.039 A 
ATOM     29  C   UNL A   1      36.791  30.135  27.191  1.00  0.00     0.014 A 
ATOM     30  C   UNL A   1      36.075  29.589  29.429  1.00  0.00     0.014 A 
ATOM     31  C   UNL A   1      38.097  29.758  27.515  1.00  0.00     0.010 A 
ATOM     32  C   UNL A   1      37.392  29.311  29.780  1.00  0.00     0.010 A 
ATOM     33  C   UNL A   1      38.415  29.366  28.822  1.00  0.00    -0.014 A 
BRANCH  33  34
ATOM     34  C   UNL A   1      39.784  28.940  29.211  1.00  0.00     0.031 A 
ATOM     35  C   UNL A   1      40.705  29.926  29.884  1.00  0.00     0.074 A 
ATOM     36  C   UNL A   1      40.229  27.711  28.884  1.00  0.00     0.049 A 
ATOM     37  N   UNL A   1      41.983  29.826  30.141  1.00  0.00    -0.248 NA
ATOM     38  C   UNL A   1      40.113  31.216  30.283  1.00  0.00     0.031 C 
ATOM     39  C   UNL A   1      39.444  26.676  28.207  1.00  0.00     0.029 A 
ATOM     40  N   UNL A   1      41.459  27.131  29.061  1.00  0.00    -0.354 N 
ATOM     41  C   UNL A   1      42.355  31.049  30.688  1.00  0.00     0.074 A 
ATOM     42  C   UNL A   1      41.180  31.891  30.684  1.00  0.00     0.031 C 
ATOM     43  C   UNL A   1      40.208  25.585  28.038  1.00  0.00     0.029 A 
ATOM     44  C   UNL A   1      41.547  25.858  28.550  1.00  0.00     0.049 A 
ATOM     45  H   UNL A   1      42.209  27.584  29.511  1.00  0.00     0.167 HD
ATOM     46  C   UNL A   1      43.563  31.432  31.168  1.00  0.00     0.031 A 
ATOM     47  C   UNL A   1      42.592  25.011  28.486  1.00  0.00     0.031 A 
ATOM     48  C   UNL A   1      44.718  30.575  31.204  1.00  0.00     0.049 A 
ATOM     49  C   UNL A   1      43.915  25.444  29.054  1.00  0.00     0.074 A 
ATOM     50  C   UNL A   1      45.976  30.842  31.714  1.00  0.00     0.029 A 
ATOM     51  N   UNL A   1      44.749  29.276  30.720  1.00  0.00    -0.354 N 
ATOM     52  N   UNL A   1      44.243  26.598  29.588  1.00  0.00    -0.248 NA
ATOM     53  C   UNL A   1      45.003  24.460  29.021  1.00  0.00     0.031 C 
ATOM     54  C   UNL A   1      46.778  29.714  31.507  1.00  0.00     0.029 A 
ATOM     55  C   UNL A   1      46.005  28.728  30.914  1.00  0.00     0.049 A 
ATOM     56  H   UNL A   1      43.989  28.810  30.301  1.00  0.00     0.167 HD
ATOM     57  C   UNL A   1      45.573  26.471  29.972  1.00  0.00     0.074 A 
ATOM     58  C   UNL A   1      45.979  25.122  29.629  1.00  0.00     0.031 C 
ATOM     59  C   UNL A   1      46.386  27.385  30.556  1.00  0.00     0.031 A 
BRANCH  46  60
ATOM     60  C   UNL A   1      43.688  32.842  31.688  1.00  0.00    -0.014 A 
ATOM     61  C   UNL A   1      43.515  33.133  33.055  1.00  0.00     0.010 A 
ATOM     62  C   UNL A   1      43.997  33.892  30.803  1.00  0.00     0.010 A 
ATOM     63  C   UNL A   1      43.590  34.450  33.516  1.00  0.00     0.020 A 
ATOM     64  C   UNL A   1      44.105  35.207  31.266  1.00  0.00     0.020 A 
ATOM     65  C   UNL A   1      43.879  35.480  32.616  1.00  0.00     0.054 A 
BRANCH  65  66
ATOM     66  S   UNL A   1      43.978  37.180  33.242  1.00  0.00     0.124 S 
ATOM     67  O   UNL A   1      44.066  37.951  32.004  1.00  0.00    -0.237 OA
ATOM     68  O   UNL A   1      42.726  37.323  33.982  1.00  0.00    -0.237 OA
ATOM     69  O   UNL A   1      45.186  37.178  34.062  1.00  0.00    -0.744 OA
ENDBRANCH  65  66
ENDBRANCH  46  60
BRANCH  47  70
ATOM     70  C   UNL A   1      42.418  23.667  27.872  1.00  0.00    -0.014 A 
ATOM     71  C   UNL A   1      42.769  23.448  26.528  1.00  0.00     0.010 A 
ATOM     72  C   UNL A   1      41.936  22.589  28.637  1.00  0.00     0.010 A 
ATOM     73  C   UNL A   1      42.632  22.179  25.957  1.00  0.00     0.020 A 
ATOM     74  C   UNL A   1      41.823  21.313  28.077  1.00  0.00     0.020 A 
ATOM     75  C   UNL A   1      42.164  21.118  26.738  1.00  0.00     0.054 A 
BRANCH  75  76
ATOM     76  S   UNL A   1      42.064  19.464  25.997  1.00  0.00     0.124 S 
ATOM     77  O   UNL A   1      42.615  18.623  27.055  1.00  0.00    -0.237 OA
ATOM     78  O   UNL A   1      40.632  19.314  25.750  1.00  0.00    -0.237 OA
ATOM     79  O   UNL A   1      42.886  19.579  24.794  1.00  0.00    -0.744 OA
ENDBRANCH  75  76
ENDBRANCH  47  70
BRANCH  59  80
ATOM     80  C   UNL A   1      47.788  26.945  30.883  1.00  0.00    -0.014 A 
ATOM     81  C   UNL A   1      48.085  26.311  32.101  1.00  0.00     0.010 A 
ATOM     82  C   UNL A   1      48.813  27.138  29.939  1.00  0.00     0.010 A 
ATOM     83  C   UNL A   1      49.393  25.914  32.388  1.00  0.00     0.020 A 
ATOM     84  C   UNL A   1      50.116  26.719  30.212  1.00  0.00     0.020 A 
ATOM     85  C   UNL A   1      50.401  26.126  31.443  1.00  0.00     0.054 A 
BRANCH  85  86
ATOM     86  S   UNL A   1      52.089  25.582  31.828  1.00  0.00     0.124 S 
ATOM     87  O   UNL A   1      52.789  25.862  30.578  1.00  0.00    -0.237 OA
ATOM     88  O   UNL A   1      52.452  26.434  32.957  1.00  0.00    -0.237 OA
ATOM     89  O   UNL A   1      51.930  24.166  32.149  1.00  0.00    -0.744 OA
ENDBRANCH  85  86
ENDBRANCH  59  80
ENDBRANCH  33  34
ENDBRANCH  25  28
ENDBRANCH  23  24
ENDBRANCH   1  23
TORSDOF 15
ENDMDL
MODEL 2
REMARK VINA RESULT:     -11.4      1.721      2.375
REMARK SMILES C[C@H]1[C@H](C(=O)NCCCNC(=O)c2ccc(-c3c4nc(c(-c5ccc(S(=O)(=O)[O-])cc5)c5ccc([nH]5)c(-c5ccc(S(=O)(=O)[O-])cc5)c5nc(c(-c6ccc(S(=O)(=O)[O-])cc6)c6ccc3[nH]6)C=C5)C=C4)cc2)CC[N@@H+]1Cc1ccc(Br)cc1F
REMARK SMILES IDX 8 1 7 2 6 3 4 4 5 5 3 7 1 8 2 9 75 10 73 11 74 12 76 14
REMARK SMILES IDX 77 15 78 16 83 17 79 18 82 19 84 20 80 21 81 22 9 23 10 24
REMARK SMILES IDX 11 25 12 27 13 28 14 29 72 30 15 31 71 32 16 33 17 34 18 35
REMARK SMILES IDX 65 36 19 37 70 38 64 39 66 40 20 41 69 42 63 43 62 44 21 46
REMARK SMILES IDX 51 47 32 48 50 49 33 50 36 51 49 52 67 53 34 54 35 55 48 57
REMARK SMILES IDX 68 58 37 59 22 60 23 61 31 62 24 63 30 64 25 65 26 66 27 67
REMARK SMILES IDX 28 68 29 69 52 70 53 71 61 72 54 73 60 74 55 75 56 76 57 77
REMARK SMILES IDX 58 78 59 79 38 80 39 81 47 82 40 83 46 84 41 85 42 86 43 87
REMARK SMILES IDX 44 88 45 89
REMARK H PARENT 6 6 75 13 10 26 66 45 36 56
REMARK Flexibility Score: inf
ROOT
ATOM      1  C   UNL A   1      33.864  28.257  25.217  1.00  0.00     0.042 C 
ENDROOT
BRANCH   1   2
ATOM      2  C   UNL A   1      33.086  27.088  24.618  1.00  0.00     0.117 C 
BRANCH   2   3
ATOM      3  N   UNL A   1      32.292  27.489  23.480  1.00  0.00    -0.356 N 
ATOM      4  C   UNL A   1      31.574  26.741  22.606  1.00  0.00     0.229 C 
ATOM      5  O   UNL A   1      30.950  27.360  21.737  1.00  0.00    -0.275 OA
ATOM      6  H   UNL A   1      32.268  28.459  23.314  1.00  0.00     0.163 HD
BRANCH   4   7
ATOM      7  C   UNL A   1      31.451  25.223  22.678  1.00  0.00     0.142 C 
ATOM      8  C   UNL A   1      33.309  23.814  21.742  1.00  0.00     0.076 C 
ATOM      9  C   UNL A   1      32.697  24.383  23.031  1.00  0.00     0.193 C 
ATOM     10  N   UNL A   1      32.198  23.255  23.840  1.00  0.00    -0.328 N 
ATOM     11  C   UNL A   1      30.366  24.711  23.616  1.00  0.00     0.081 C 
ATOM     12  C   UNL A   1      30.745  23.246  23.745  1.00  0.00     0.263 C 
ATOM     13  H   UNL A   1      32.574  22.404  23.422  1.00  0.00     0.348 HD
BRANCH  10  14
ATOM     14  C   UNL A   1      32.800  22.977  25.154  1.00  0.00     0.302 C 
BRANCH  14  15
ATOM     15  C   UNL A   1      34.304  22.816  25.309  1.00  0.00     0.042 A 
ATOM     16  C   UNL A   1      35.110  23.937  25.591  1.00  0.00     0.014 A 
ATOM     17  C   UNL A   1      34.970  21.600  25.113  1.00  0.00     0.133 A 
ATOM     18  C   UNL A   1      36.493  23.807  25.797  1.00  0.00     0.016 A 
ATOM     19  C   UNL A   1      36.338  21.452  25.341  1.00  0.00     0.055 A 
ATOM     20  F   UNL A   1      34.316  20.515  24.687  1.00  0.00    -0.206 F 
ATOM     21  C   UNL A   1      37.094  22.557  25.700  1.00  0.00     0.020 A 
ATOM     22  Br  UNL A   1      38.939  22.342  26.037  1.00  0.00    -0.051 Br
ENDBRANCH  14  15
ENDBRANCH  10  14
ENDBRANCH   4   7
ENDBRANCH   2   3
ENDBRANCH   1   2
BRANCH   1  23
ATOM     23  C   UNL A   1      33.693  28.395  26.724  1.00  0.00     0.118 C 
BRANCH  23  24
ATOM     24  N   UNL A   1      33.688  29.785  27.170  1.00  0.00    -0.352 N 
ATOM     25  C   UNL A   1      34.593  30.543  27.867  1.00  0.00     0.251 C 
ATOM     26  H   UNL A   1      32.873  30.277  26.920  1.00  0.00     0.163 HD
ATOM     27  O   UNL A   1      34.250  31.671  28.233  1.00  0.00    -0.269 OA
BRANCH  25  28
ATOM     28  C   UNL A   1      35.947  30.062  28.218  1.00  0.00     0.039 A 
ATOM     29  C   UNL A   1      36.169  29.573  29.513  1.00  0.00     0.014 A 
ATOM     30  C   UNL A   1      37.020  30.168  27.335  1.00  0.00     0.014 A 
ATOM     31  C   UNL A   1      37.446  29.157  29.900  1.00  0.00     0.010 A 
ATOM     32  C   UNL A   1      38.266  29.661  27.685  1.00  0.00     0.010 A 
ATOM     33  C   UNL A   1      38.502  29.174  28.980  1.00  0.00    -0.014 A 
BRANCH  33  34
ATOM     34  C   UNL A   1      39.880  28.757  29.348  1.00  0.00     0.031 A 
ATOM     35  C   UNL A   1      40.795  29.741  30.032  1.00  0.00     0.074 A 
ATOM     36  C   UNL A   1      40.336  27.540  28.994  1.00  0.00     0.049 A 
ATOM     37  N   UNL A   1      42.076  29.651  30.276  1.00  0.00    -0.248 NA
ATOM     38  C   UNL A   1      40.192  31.016  30.461  1.00  0.00     0.031 C 
ATOM     39  C   UNL A   1      39.556  26.509  28.305  1.00  0.00     0.029 A 
ATOM     40  N   UNL A   1      41.574  26.971  29.149  1.00  0.00    -0.354 N 
ATOM     41  C   UNL A   1      42.440  30.868  30.843  1.00  0.00     0.074 A 
ATOM     42  C   UNL A   1      41.255  31.696  30.865  1.00  0.00     0.031 C 
ATOM     43  C   UNL A   1      40.332  25.430  28.109  1.00  0.00     0.029 A 
ATOM     44  C   UNL A   1      41.672  25.709  28.614  1.00  0.00     0.049 A 
ATOM     45  H   UNL A   1      42.322  27.424  29.601  1.00  0.00     0.167 HD
ATOM     46  C   UNL A   1      43.648  31.256  31.319  1.00  0.00     0.031 A 
ATOM     47  C   UNL A   1      42.727  24.875  28.525  1.00  0.00     0.031 A 
ATOM     48  C   UNL A   1      44.813  30.412  31.329  1.00  0.00     0.049 A 
ATOM     49  C   UNL A   1      44.049  25.313  29.089  1.00  0.00     0.074 A 
ATOM     50  C   UNL A   1      46.072  30.684  31.833  1.00  0.00     0.029 A 
ATOM     51  N   UNL A   1      44.854  29.122  30.820  1.00  0.00    -0.354 N 
ATOM     52  N   UNL A   1      44.369  26.461  29.642  1.00  0.00    -0.248 NA
ATOM     53  C   UNL A   1      45.149  24.343  29.028  1.00  0.00     0.031 C 
ATOM     54  C   UNL A   1      46.884  29.569  31.598  1.00  0.00     0.029 A 
ATOM     55  C   UNL A   1      46.118  28.585  30.992  1.00  0.00     0.049 A 
ATOM     56  H   UNL A   1      44.096  28.656  30.399  1.00  0.00     0.167 HD
ATOM     57  C   UNL A   1      45.704  26.342  30.012  1.00  0.00     0.074 A 
ATOM     58  C   UNL A   1      46.122  25.005  29.640  1.00  0.00     0.031 C 
ATOM     59  C   UNL A   1      46.511  27.254  30.606  1.00  0.00     0.031 A 
BRANCH  46  60
ATOM     60  C   UNL A   1      43.761  32.657  31.865  1.00  0.00    -0.014 A 
ATOM     61  C   UNL A   1      44.125  33.735  31.036  1.00  0.00     0.010 A 
ATOM     62  C   UNL A   1      43.488  32.905  33.223  1.00  0.00     0.010 A 
ATOM     63  C   UNL A   1      44.270  35.021  31.565  1.00  0.00     0.020 A 
ATOM     64  C   UNL A   1      43.600  34.196  33.749  1.00  0.00     0.020 A 
ATOM     65  C   UNL A   1      44.012  35.242  32.920  1.00  0.00     0.054 A 
BRANCH  65  66
ATOM     66  S   UNL A   1      44.200  36.922  33.580  1.00  0.00     0.124 S 
ATOM     67  O   UNL A   1      42.819  37.273  33.903  1.00  0.00    -0.237 OA
ATOM     68  O   UNL A   1      45.080  36.719  34.729  1.00  0.00    -0.237 OA
ATOM     69  O   UNL A   1      44.789  37.666  32.471  1.00  0.00    -0.744 OA
ENDBRANCH  65  66
ENDBRANCH  46  60
BRANCH  47  70
ATOM     70  C   UNL A   1      42.562  23.541  27.887  1.00  0.00    -0.014 A 
ATOM     71  C   UNL A   1      42.930  23.345  26.544  1.00  0.00     0.010 A 
ATOM     72  C   UNL A   1      42.073  22.451  28.628  1.00  0.00     0.010 A 
ATOM     73  C   UNL A   1      42.802  22.085  25.951  1.00  0.00     0.020 A 
ATOM     74  C   UNL A   1      41.969  21.183  28.046  1.00  0.00     0.020 A 
ATOM     75  C   UNL A   1      42.327  21.011  26.708  1.00  0.00     0.054 A 
BRANCH  75  76
ATOM     76  S   UNL A   1      42.239  19.369  25.940  1.00  0.00     0.124 S 
ATOM     77  O   UNL A   1      40.806  19.217  25.711  1.00  0.00    -0.237 OA
ATOM     78  O   UNL A   1      43.058  19.536  24.742  1.00  0.00    -0.237 OA
ATOM     79  O   UNL A   1      42.809  18.487  26.955  1.00  0.00    -0.744 OA
ENDBRANCH  75  76
ENDBRANCH  47  70
BRANCH  59  80
ATOM     80  C   UNL A   1      47.921  26.824  30.912  1.00  0.00    -0.014 A 
ATOM     81  C   UNL A   1      48.937  26.923  29.946  1.00  0.00     0.010 A 
ATOM     82  C   UNL A   1      48.236  26.346  32.197  1.00  0.00     0.010 A 
ATOM     83  C   UNL A   1      50.238  26.513  30.248  1.00  0.00     0.020 A 
ATOM     84  C   UNL A   1      49.541  25.961  32.510  1.00  0.00     0.020 A 
ATOM     85  C   UNL A   1      50.530  26.030  31.527  1.00  0.00     0.054 A 
BRANCH  85  86
ATOM     86  S   UNL A   1      52.231  25.525  31.903  1.00  0.00     0.124 S 
ATOM     87  O   UNL A   1      52.944  25.946  30.700  1.00  0.00    -0.237 OA
ATOM     88  O   UNL A   1      52.533  26.288  33.111  1.00  0.00    -0.237 OA
ATOM     89  O   UNL A   1      52.128  24.081  32.094  1.00  0.00    -0.744 OA
ENDBRANCH  85  86
ENDBRANCH  59  80
ENDBRANCH  33  34
ENDBRANCH  25  28
ENDBRANCH  23  24
ENDBRANCH   1  23
TORSDOF 15
ENDMDL
MODEL 3
REMARK VINA RESULT:     -11.2      4.766      9.547
REMARK SMILES C[C@H]1[C@H](C(=O)NCCCNC(=O)c2ccc(-c3c4nc(c(-c5ccc(S(=O)(=O)[O-])cc5)c5ccc([nH]5)c(-c5ccc(S(=O)(=O)[O-])cc5)c5nc(c(-c6ccc(S(=O)(=O)[O-])cc6)c6ccc3[nH]6)C=C5)C=C4)cc2)CC[N@@H+]1Cc1ccc(Br)cc1F
REMARK SMILES IDX 8 1 7 2 6 3 4 4 5 5 3 7 1 8 2 9 75 10 73 11 74 12 76 14
REMARK SMILES IDX 77 15 78 16 83 17 79 18 82 19 84 20 80 21 81 22 9 23 10 24
REMARK SMILES IDX 11 25 12 27 13 28 14 29 72 30 15 31 71 32 16 33 17 34 18 35
REMARK SMILES IDX 65 36 19 37 70 38 64 39 66 40 20 41 69 42 63 43 62 44 21 46
REMARK SMILES IDX 51 47 32 48 50 49 33 50 36 51 49 52 67 53 34 54 35 55 48 57
REMARK SMILES IDX 68 58 37 59 22 60 23 61 31 62 24 63 30 64 25 65 26 66 27 67
REMARK SMILES IDX 28 68 29 69 52 70 53 71 61 72 54 73 60 74 55 75 56 76 57 77
REMARK SMILES IDX 58 78 59 79 38 80 39 81 47 82 40 83 46 84 41 85 42 86 43 87
REMARK SMILES IDX 44 88 45 89
REMARK H PARENT 6 6 75 13 10 26 66 45 36 56
REMARK Flexibility Score: inf
ROOT
ATOM      1  C   UNL A   1      38.886  22.589  26.203  1.00  0.00     0.042 C 
ENDROOT
BRANCH   1   2
ATOM      2  C   UNL A   1      37.608  23.291  25.748  1.00  0.00     0.117 C 
BRANCH   2   3
ATOM      3  N   UNL A   1      36.496  23.018  26.630  1.00  0.00    -0.356 N 
ATOM      4  C   UNL A   1      35.162  23.160  26.426  1.00  0.00     0.229 C 
ATOM      5  O   UNL A   1      34.425  22.808  27.354  1.00  0.00    -0.275 OA
ATOM      6  H   UNL A   1      36.746  22.674  27.517  1.00  0.00     0.163 HD
BRANCH   4   7
ATOM      7  C   UNL A   1      34.543  23.656  25.124  1.00  0.00     0.142 C 
ATOM      8  C   UNL A   1      35.563  22.927  22.947  1.00  0.00     0.076 C 
ATOM      9  C   UNL A   1      34.413  22.682  23.934  1.00  0.00     0.193 C 
ATOM     10  N   UNL A   1      33.148  23.041  23.265  1.00  0.00    -0.328 N 
ATOM     11  C   UNL A   1      33.158  24.274  25.267  1.00  0.00     0.081 C 
ATOM     12  C   UNL A   1      32.692  24.306  23.822  1.00  0.00     0.263 C 
ATOM     13  H   UNL A   1      33.362  23.159  22.275  1.00  0.00     0.348 HD
BRANCH  10  14
ATOM     14  C   UNL A   1      32.137  22.001  23.010  1.00  0.00     0.302 C 
BRANCH  14  15
ATOM     15  C   UNL A   1      32.319  20.585  23.534  1.00  0.00     0.042 A 
ATOM     16  C   UNL A   1      32.349  19.499  22.638  1.00  0.00     0.014 A 
ATOM     17  C   UNL A   1      32.392  20.274  24.897  1.00  0.00     0.133 A 
ATOM     18  C   UNL A   1      32.576  18.188  23.088  1.00  0.00     0.016 A 
ATOM     19  C   UNL A   1      32.643  18.982  25.356  1.00  0.00     0.055 A 
ATOM     20  F   UNL A   1      32.213  21.214  25.830  1.00  0.00    -0.206 F 
ATOM     21  C   UNL A   1      32.752  17.943  24.445  1.00  0.00     0.020 A 
ATOM     22  Br  UNL A   1      33.122  16.201  25.072  1.00  0.00    -0.051 Br
ENDBRANCH  14  15
ENDBRANCH  10  14
ENDBRANCH   4   7
ENDBRANCH   2   3
ENDBRANCH   1   2
BRANCH   1  23
ATOM     23  C   UNL A   1      39.867  23.512  26.914  1.00  0.00     0.118 C 
BRANCH  23  24
ATOM     24  N   UNL A   1      40.561  24.415  26.000  1.00  0.00    -0.352 N 
ATOM     25  C   UNL A   1      40.957  25.723  26.105  1.00  0.00     0.251 C 
ATOM     26  H   UNL A   1      40.791  24.001  25.137  1.00  0.00     0.163 HD
ATOM     27  O   UNL A   1      41.405  26.279  25.098  1.00  0.00    -0.269 OA
BRANCH  25  28
ATOM     28  C   UNL A   1      40.851  26.499  27.359  1.00  0.00     0.039 A 
ATOM     29  C   UNL A   1      39.847  26.155  28.276  1.00  0.00     0.014 A 
ATOM     30  C   UNL A   1      41.653  27.611  27.610  1.00  0.00     0.014 A 
ATOM     31  C   UNL A   1      39.680  26.896  29.449  1.00  0.00     0.010 A 
ATOM     32  C   UNL A   1      41.554  28.285  28.822  1.00  0.00     0.010 A 
ATOM     33  C   UNL A   1      40.550  27.954  29.745  1.00  0.00    -0.014 A 
BRANCH  33  34
ATOM     34  C   UNL A   1      40.403  28.780  30.971  1.00  0.00     0.031 A 
ATOM     35  C   UNL A   1      39.364  29.871  31.011  1.00  0.00     0.074 A 
ATOM     36  C   UNL A   1      41.252  28.614  32.004  1.00  0.00     0.049 A 
ATOM     37  N   UNL A   1      39.187  30.817  31.896  1.00  0.00    -0.248 NA
ATOM     38  C   UNL A   1      38.423  29.928  29.878  1.00  0.00     0.031 C 
ATOM     39  C   UNL A   1      42.318  27.611  32.075  1.00  0.00     0.029 A 
ATOM     40  N   UNL A   1      41.363  29.300  33.187  1.00  0.00    -0.354 N 
ATOM     41  C   UNL A   1      38.151  31.605  31.406  1.00  0.00     0.074 A 
ATOM     42  C   UNL A   1      37.768  31.053  30.126  1.00  0.00     0.031 C 
ATOM     43  C   UNL A   1      42.964  27.740  33.245  1.00  0.00     0.029 A 
ATOM     44  C   UNL A   1      42.392  28.860  33.984  1.00  0.00     0.049 A 
ATOM     45  H   UNL A   1      40.762  30.037  33.441  1.00  0.00     0.167 HD
ATOM     46  C   UNL A   1      37.557  32.680  31.979  1.00  0.00     0.031 A 
ATOM     47  C   UNL A   1      42.838  29.319  35.171  1.00  0.00     0.031 A 
ATOM     48  C   UNL A   1      37.918  33.199  33.271  1.00  0.00     0.049 A 
ATOM     49  C   UNL A   1      42.144  30.492  35.803  1.00  0.00     0.074 A 
ATOM     50  C   UNL A   1      37.350  34.250  33.969  1.00  0.00     0.029 A 
ATOM     51  N   UNL A   1      38.936  32.693  34.066  1.00  0.00    -0.354 N 
ATOM     52  N   UNL A   1      41.150  31.211  35.335  1.00  0.00    -0.248 NA
ATOM     53  C   UNL A   1      42.624  30.910  37.126  1.00  0.00     0.031 C 
ATOM     54  C   UNL A   1      38.048  34.400  35.172  1.00  0.00     0.029 A 
ATOM     55  C   UNL A   1      39.018  33.412  35.246  1.00  0.00     0.049 A 
ATOM     56  H   UNL A   1      39.515  31.933  33.827  1.00  0.00     0.167 HD
ATOM     57  C   UNL A   1      40.872  32.155  36.317  1.00  0.00     0.074 A 
ATOM     58  C   UNL A   1      41.788  31.901  37.411  1.00  0.00     0.031 C 
ATOM     59  C   UNL A   1      39.944  33.144  36.316  1.00  0.00     0.031 A 
BRANCH  46  60
ATOM     60  C   UNL A   1      36.458  33.362  31.203  1.00  0.00    -0.014 A 
ATOM     61  C   UNL A   1      36.713  33.971  29.960  1.00  0.00     0.010 A 
ATOM     62  C   UNL A   1      35.148  33.384  31.715  1.00  0.00     0.010 A 
ATOM     63  C   UNL A   1      35.695  34.637  29.273  1.00  0.00     0.020 A 
ATOM     64  C   UNL A   1      34.118  34.022  31.016  1.00  0.00     0.020 A 
ATOM     65  C   UNL A   1      34.405  34.664  29.809  1.00  0.00     0.054 A 
BRANCH  65  66
ATOM     66  S   UNL A   1      33.099  35.530  28.893  1.00  0.00     0.124 S 
ATOM     67  O   UNL A   1      32.471  34.434  28.159  1.00  0.00    -0.237 OA
ATOM     68  O   UNL A   1      32.290  36.112  29.962  1.00  0.00    -0.237 OA
ATOM     69  O   UNL A   1      33.829  36.492  28.074  1.00  0.00    -0.744 OA
ENDBRANCH  65  66
ENDBRANCH  46  60
BRANCH  47  70
ATOM     70  C   UNL A   1      43.990  28.653  35.835  1.00  0.00    -0.014 A 
ATOM     71  C   UNL A   1      45.304  29.092  35.590  1.00  0.00     0.010 A 
ATOM     72  C   UNL A   1      43.780  27.600  36.744  1.00  0.00     0.010 A 
ATOM     73  C   UNL A   1      46.386  28.485  36.234  1.00  0.00     0.020 A 
ATOM     74  C   UNL A   1      44.858  27.009  37.411  1.00  0.00     0.020 A 
ATOM     75  C   UNL A   1      46.155  27.450  37.145  1.00  0.00     0.054 A 
BRANCH  75  76
ATOM     76  S   UNL A   1      47.568  26.727  38.025  1.00  0.00     0.124 S 
ATOM     77  O   UNL A   1      47.934  27.798  38.945  1.00  0.00    -0.237 OA
ATOM     78  O   UNL A   1      46.982  25.537  38.640  1.00  0.00    -0.237 OA
ATOM     79  O   UNL A   1      48.530  26.456  36.960  1.00  0.00    -0.744 OA
ENDBRANCH  75  76
ENDBRANCH  47  70
BRANCH  59  80
ATOM     80  C   UNL A   1      39.860  34.004  37.548  1.00  0.00    -0.014 A 
ATOM     81  C   UNL A   1      40.523  35.241  37.617  1.00  0.00     0.010 A 
ATOM     82  C   UNL A   1      39.076  33.581  38.637  1.00  0.00     0.010 A 
ATOM     83  C   UNL A   1      40.437  36.024  38.771  1.00  0.00     0.020 A 
ATOM     84  C   UNL A   1      38.967  34.372  39.781  1.00  0.00     0.020 A 
ATOM     85  C   UNL A   1      39.663  35.581  39.848  1.00  0.00     0.054 A 
BRANCH  85  86
ATOM     86  S   UNL A   1      39.547  36.624  41.328  1.00  0.00     0.124 S 
ATOM     87  O   UNL A   1      38.526  35.930  42.107  1.00  0.00    -0.237 OA
ATOM     88  O   UNL A   1      40.901  36.563  41.871  1.00  0.00    -0.237 OA
ATOM     89  O   UNL A   1      39.151  37.928  40.801  1.00  0.00    -0.744 OA
ENDBRANCH  85  86
ENDBRANCH  59  80
ENDBRANCH  33  34
ENDBRANCH  25  28
ENDBRANCH  23  24
ENDBRANCH   1  23
TORSDOF 15
ENDMDL
