MODEL 1
REMARK VINA RESULT:     -11.7      0.000      0.000
REMARK SMILES Cc1ccc(NC(=O)C[N@H+]2CCC[C@@H](C(=O)NCCCNC(=O)c3ccc(-c4c5nc(c(-c6ccc(S(=O)(=O)[O-])cc6)c6ccc([nH]6)c(-c6ccc(S(=O)(=O)[O-])cc6)c6nc(c(-c7ccc(S(=O)(=O)[O-])cc7)c7ccc4[nH]7)C=C6)C=C5)cc3)C2)cc1F
REMARK SMILES IDX 19 1 18 2 17 3 15 4 16 5 14 7 10 8 11 9 84 10 12 12 13 13
REMARK SMILES IDX 9 14 7 15 6 16 8 18 5 19 1 20 2 21 3 22 86 23 4 24 85 25
REMARK SMILES IDX 87 26 20 27 21 28 22 29 23 31 24 32 25 33 83 34 26 35 82 36
REMARK SMILES IDX 27 37 28 38 29 39 76 40 30 41 81 42 75 43 77 44 31 45 80 46
REMARK SMILES IDX 74 47 73 48 32 50 62 51 43 52 61 53 44 54 47 55 60 56 78 57
REMARK SMILES IDX 45 58 46 59 59 61 79 62 48 63 33 64 34 65 42 66 35 67 41 68
REMARK SMILES IDX 36 69 37 70 38 71 39 72 40 73 63 74 64 75 72 76 65 77 71 78
REMARK SMILES IDX 66 79 67 80 68 81 69 82 70 83 49 84 50 85 58 86 51 87 57 88
REMARK SMILES IDX 52 89 53 90 54 91 55 92 56 93
REMARK H PARENT 17 6 10 11 6 17 21 30 77 49 47 60
REMARK Flexibility Score: inf
ROOT
ATOM      1  C   UNL A   1      33.713  28.304  25.848  1.00  0.00     0.042 C 
ENDROOT
BRANCH   1   2
ATOM      2  C   UNL A   1      33.857  26.819  25.539  1.00  0.00     0.117 C 
BRANCH   2   3
ATOM      3  N   UNL A   1      34.178  26.548  24.145  1.00  0.00    -0.356 N 
ATOM      4  C   UNL A   1      33.350  26.146  23.132  1.00  0.00     0.228 C 
ATOM      5  O   UNL A   1      33.819  26.073  21.995  1.00  0.00    -0.275 OA
ATOM      6  H   UNL A   1      35.123  26.672  23.897  1.00  0.00     0.163 HD
BRANCH   4   7
ATOM      7  C   UNL A   1      31.891  25.830  23.435  1.00  0.00     0.133 C 
ATOM      8  N   UNL A   1      30.376  24.871  25.151  1.00  0.00    -0.326 N 
ATOM      9  C   UNL A   1      29.463  26.021  25.017  1.00  0.00     0.262 C 
ATOM     10  C   UNL A   1      31.761  25.279  24.863  1.00  0.00     0.276 C 
ATOM     11  H   UNL A   1      30.176  24.158  24.450  1.00  0.00     0.348 HD
ATOM     12  C   UNL A   1      29.556  26.687  23.641  1.00  0.00     0.062 C 
ATOM     13  C   UNL A   1      30.992  27.060  23.290  1.00  0.00     0.025 C 
BRANCH   8  14
ATOM     14  C   UNL A   1      30.147  24.185  26.453  1.00  0.00     0.363 C 
BRANCH  14  15
ATOM     15  C   UNL A   1      30.232  22.663  26.455  1.00  0.00     0.279 C 
ATOM     16  N   UNL A   1      31.363  21.955  26.177  1.00  0.00    -0.321 N 
ATOM     17  H   UNL A   1      31.217  20.981  26.210  1.00  0.00     0.170 HD
ATOM     18  O   UNL A   1      29.228  21.998  26.749  1.00  0.00    -0.268 OA
BRANCH  16  19
ATOM     19  C   UNL A   1      32.690  22.291  25.852  1.00  0.00     0.044 A 
ATOM     20  C   UNL A   1      36.720  23.702  25.158  1.00  0.00     0.047 C 
ATOM     21  C   UNL A   1      35.340  23.187  25.427  1.00  0.00    -0.015 A 
ATOM     22  C   UNL A   1      34.793  23.197  26.710  1.00  0.00     0.008 A 
ATOM     23  C   UNL A   1      34.558  22.702  24.380  1.00  0.00     0.128 A 
ATOM     24  C   UNL A   1      33.486  22.741  26.919  1.00  0.00     0.026 A 
ATOM     25  C   UNL A   1      33.251  22.259  24.580  1.00  0.00     0.065 A 
ATOM     26  F   UNL A   1      35.059  22.680  23.137  1.00  0.00    -0.207 F 
ENDBRANCH  16  19
ENDBRANCH  14  15
ENDBRANCH   8  14
ENDBRANCH   4   7
ENDBRANCH   2   3
ENDBRANCH   1   2
BRANCH   1  27
ATOM     27  C   UNL A   1      33.250  28.630  27.266  1.00  0.00     0.118 C 
BRANCH  27  28
ATOM     28  N   UNL A   1      33.405  30.035  27.635  1.00  0.00    -0.352 N 
ATOM     29  C   UNL A   1      34.468  30.744  28.147  1.00  0.00     0.251 C 
ATOM     30  H   UNL A   1      32.597  30.577  27.491  1.00  0.00     0.163 HD
ATOM     31  O   UNL A   1      34.292  31.919  28.467  1.00  0.00    -0.269 OA
BRANCH  29  32
ATOM     32  C   UNL A   1      35.792  30.118  28.374  1.00  0.00     0.039 A 
ATOM     33  C   UNL A   1      36.704  30.059  27.311  1.00  0.00     0.014 A 
ATOM     34  C   UNL A   1      36.147  29.575  29.607  1.00  0.00     0.014 A 
ATOM     35  C   UNL A   1      38.001  29.577  27.520  1.00  0.00     0.010 A 
ATOM     36  C   UNL A   1      37.460  29.170  29.837  1.00  0.00     0.010 A 
ATOM     37  C   UNL A   1      38.411  29.190  28.804  1.00  0.00    -0.014 A 
BRANCH  37  38
ATOM     38  C   UNL A   1      39.822  28.843  29.124  1.00  0.00     0.031 A 
ATOM     39  C   UNL A   1      40.765  29.904  29.623  1.00  0.00     0.074 A 
ATOM     40  C   UNL A   1      40.291  27.611  28.834  1.00  0.00     0.049 A 
ATOM     41  N   UNL A   1      42.068  29.864  29.736  1.00  0.00    -0.248 NA
ATOM     42  C   UNL A   1      40.166  31.189  30.016  1.00  0.00     0.031 C 
ATOM     43  C   UNL A   1      39.489  26.492  28.332  1.00  0.00     0.029 A 
ATOM     44  N   UNL A   1      41.566  27.102  28.891  1.00  0.00    -0.354 N 
ATOM     45  C   UNL A   1      42.449  31.126  30.177  1.00  0.00     0.074 A 
ATOM     46  C   UNL A   1      41.241  31.918  30.283  1.00  0.00     0.031 C 
ATOM     47  C   UNL A   1      40.289  25.434  28.126  1.00  0.00     0.029 A 
ATOM     48  C   UNL A   1      41.666  25.812  28.424  1.00  0.00     0.049 A 
ATOM     49  H   UNL A   1      42.335  27.613  29.233  1.00  0.00     0.167 HD
ATOM     50  C   UNL A   1      43.690  31.583  30.473  1.00  0.00     0.031 A 
ATOM     51  C   UNL A   1      42.744  25.029  28.220  1.00  0.00     0.031 A 
ATOM     52  C   UNL A   1      44.886  30.789  30.384  1.00  0.00     0.049 A 
ATOM     53  C   UNL A   1      44.115  25.570  28.521  1.00  0.00     0.074 A 
ATOM     54  C   UNL A   1      46.180  31.143  30.721  1.00  0.00     0.029 A 
ATOM     55  N   UNL A   1      44.938  29.483  29.920  1.00  0.00    -0.354 N 
ATOM     56  N   UNL A   1      44.451  26.751  28.979  1.00  0.00    -0.248 NA
ATOM     57  C   UNL A   1      45.254  24.673  28.270  1.00  0.00     0.031 C 
ATOM     58  C   UNL A   1      47.023  30.071  30.412  1.00  0.00     0.029 A 
ATOM     59  C   UNL A   1      46.245  29.028  29.934  1.00  0.00     0.049 A 
ATOM     60  H   UNL A   1      44.160  28.957  29.624  1.00  0.00     0.167 HD
ATOM     61  C   UNL A   1      45.837  26.734  29.091  1.00  0.00     0.074 A 
ATOM     62  C   UNL A   1      46.276  25.421  28.666  1.00  0.00     0.031 C 
ATOM     63  C   UNL A   1      46.669  27.718  29.507  1.00  0.00     0.031 A 
BRANCH  50  64
ATOM     64  C   UNL A   1      43.818  33.019  30.911  1.00  0.00    -0.014 A 
ATOM     65  C   UNL A   1      43.756  33.375  32.270  1.00  0.00     0.010 A 
ATOM     66  C   UNL A   1      44.049  34.022  29.952  1.00  0.00     0.010 A 
ATOM     67  C   UNL A   1      43.876  34.711  32.658  1.00  0.00     0.020 A 
ATOM     68  C   UNL A   1      44.199  35.358  30.339  1.00  0.00     0.020 A 
ATOM     69  C   UNL A   1      44.093  35.695  31.689  1.00  0.00     0.054 A 
BRANCH  69  70
ATOM     70  S   UNL A   1      44.262  37.420  32.225  1.00  0.00     0.124 S 
ATOM     71  O   UNL A   1      43.317  37.482  33.338  1.00  0.00    -0.237 OA
ATOM     72  O   UNL A   1      45.672  37.504  32.595  1.00  0.00    -0.237 OA
ATOM     73  O   UNL A   1      43.884  38.190  31.043  1.00  0.00    -0.744 OA
ENDBRANCH  69  70
ENDBRANCH  50  64
BRANCH  51  74
ATOM     74  C   UNL A   1      42.571  23.651  27.684  1.00  0.00    -0.014 A 
ATOM     75  C   UNL A   1      42.913  23.360  26.351  1.00  0.00     0.010 A 
ATOM     76  C   UNL A   1      42.082  22.618  28.505  1.00  0.00     0.010 A 
ATOM     77  C   UNL A   1      42.758  22.067  25.847  1.00  0.00     0.020 A 
ATOM     78  C   UNL A   1      41.951  21.317  28.010  1.00  0.00     0.020 A 
ATOM     79  C   UNL A   1      42.281  21.051  26.680  1.00  0.00     0.054 A 
BRANCH  79  80
ATOM     80  S   UNL A   1      42.146  19.367  26.018  1.00  0.00     0.124 S 
ATOM     81  O   UNL A   1      42.690  18.568  27.110  1.00  0.00    -0.237 OA
ATOM     82  O   UNL A   1      40.709  19.233  25.789  1.00  0.00    -0.237 OA
ATOM     83  O   UNL A   1      42.960  19.412  24.806  1.00  0.00    -0.744 OA
ENDBRANCH  79  80
ENDBRANCH  51  74
BRANCH  63  84
ATOM     84  C   UNL A   1      48.143  27.415  29.547  1.00  0.00    -0.014 A 
ATOM     85  C   UNL A   1      48.977  27.730  28.461  1.00  0.00     0.010 A 
ATOM     86  C   UNL A   1      48.712  26.885  30.720  1.00  0.00     0.010 A 
ATOM     87  C   UNL A   1      50.355  27.509  28.542  1.00  0.00     0.020 A 
ATOM     88  C   UNL A   1      50.092  26.686  30.814  1.00  0.00     0.020 A 
ATOM     89  C   UNL A   1      50.904  26.993  29.720  1.00  0.00     0.054 A 
BRANCH  89  90
ATOM     90  S   UNL A   1      52.703  26.786  29.826  1.00  0.00     0.124 S 
ATOM     91  O   UNL A   1      52.838  25.858  30.946  1.00  0.00    -0.237 OA
ATOM     92  O   UNL A   1      53.040  26.240  28.514  1.00  0.00    -0.237 OA
ATOM     93  O   UNL A   1      53.194  28.139  30.076  1.00  0.00    -0.744 OA
ENDBRANCH  89  90
ENDBRANCH  63  84
ENDBRANCH  37  38
ENDBRANCH  29  32
ENDBRANCH  27  28
ENDBRANCH   1  27
TORSDOF 16
ENDMDL
MODEL 2
REMARK VINA RESULT:     -11.7      5.112      9.805
REMARK SMILES Cc1ccc(NC(=O)C[N@H+]2CCC[C@@H](C(=O)NCCCNC(=O)c3ccc(-c4c5nc(c(-c6ccc(S(=O)(=O)[O-])cc6)c6ccc([nH]6)c(-c6ccc(S(=O)(=O)[O-])cc6)c6nc(c(-c7ccc(S(=O)(=O)[O-])cc7)c7ccc4[nH]7)C=C6)C=C5)cc3)C2)cc1F
REMARK SMILES IDX 19 1 18 2 17 3 15 4 16 5 14 7 10 8 11 9 84 10 12 12 13 13
REMARK SMILES IDX 9 14 7 15 6 16 8 18 5 19 1 20 2 21 3 22 86 23 4 24 85 25
REMARK SMILES IDX 87 26 20 27 21 28 22 29 23 31 24 32 25 33 83 34 26 35 82 36
REMARK SMILES IDX 27 37 28 38 29 39 76 40 30 41 81 42 75 43 77 44 31 45 80 46
REMARK SMILES IDX 74 47 73 48 32 50 62 51 43 52 61 53 44 54 47 55 60 56 78 57
REMARK SMILES IDX 45 58 46 59 59 61 79 62 48 63 33 64 34 65 42 66 35 67 41 68
REMARK SMILES IDX 36 69 37 70 38 71 39 72 40 73 63 74 64 75 72 76 65 77 71 78
REMARK SMILES IDX 66 79 67 80 68 81 69 82 70 83 49 84 50 85 58 86 51 87 57 88
REMARK SMILES IDX 52 89 53 90 54 91 55 92 56 93
REMARK H PARENT 17 6 10 11 6 17 21 30 77 49 47 60
REMARK Flexibility Score: inf
ROOT
ATOM      1  C   UNL A   1      38.637  22.690  26.126  1.00  0.00     0.042 C 
ENDROOT
BRANCH   1   2
ATOM      2  C   UNL A   1      37.344  23.457  25.876  1.00  0.00     0.117 C 
BRANCH   2   3
ATOM      3  N   UNL A   1      36.932  23.453  24.480  1.00  0.00    -0.356 N 
ATOM      4  C   UNL A   1      35.774  22.979  23.924  1.00  0.00     0.228 C 
ATOM      5  O   UNL A   1      35.587  23.171  22.722  1.00  0.00    -0.275 OA
ATOM      6  H   UNL A   1      37.575  23.848  23.847  1.00  0.00     0.163 HD
BRANCH   4   7
ATOM      7  C   UNL A   1      34.758  22.261  24.804  1.00  0.00     0.133 C 
ATOM      8  N   UNL A   1      32.363  22.218  25.452  1.00  0.00    -0.326 N 
ATOM      9  C   UNL A   1      32.317  20.756  25.262  1.00  0.00     0.262 C 
ATOM     10  C   UNL A   1      33.353  22.822  24.545  1.00  0.00     0.276 C 
ATOM     11  H   UNL A   1      32.701  22.458  26.383  1.00  0.00     0.348 HD
ATOM     12  C   UNL A   1      33.688  20.098  25.440  1.00  0.00     0.062 C 
ATOM     13  C   UNL A   1      34.747  20.751  24.558  1.00  0.00     0.025 C 
BRANCH   8  14
ATOM     14  C   UNL A   1      30.987  22.784  25.399  1.00  0.00     0.363 C 
BRANCH  14  15
ATOM     15  C   UNL A   1      30.561  23.671  26.564  1.00  0.00     0.279 C 
ATOM     16  N   UNL A   1      30.816  25.008  26.647  1.00  0.00    -0.321 N 
ATOM     17  H   UNL A   1      30.478  25.406  27.483  1.00  0.00     0.170 HD
ATOM     18  O   UNL A   1      29.917  23.176  27.502  1.00  0.00    -0.268 OA
BRANCH  16  19
ATOM     19  C   UNL A   1      31.449  25.951  25.817  1.00  0.00     0.044 A 
ATOM     20  C   UNL A   1      33.651  28.984  23.657  1.00  0.00     0.047 C 
ATOM     21  C   UNL A   1      32.917  27.905  24.392  1.00  0.00    -0.015 A 
ATOM     22  C   UNL A   1      33.555  27.094  25.330  1.00  0.00     0.008 A 
ATOM     23  C   UNL A   1      31.556  27.705  24.163  1.00  0.00     0.128 A 
ATOM     24  C   UNL A   1      32.829  26.119  26.024  1.00  0.00     0.026 A 
ATOM     25  C   UNL A   1      30.825  26.745  24.862  1.00  0.00     0.065 A 
ATOM     26  F   UNL A   1      30.917  28.470  23.267  1.00  0.00    -0.207 F 
ENDBRANCH  16  19
ENDBRANCH  14  15
ENDBRANCH   8  14
ENDBRANCH   4   7
ENDBRANCH   2   3
ENDBRANCH   1   2
BRANCH   1  27
ATOM     27  C   UNL A   1      39.738  23.483  26.826  1.00  0.00     0.118 C 
BRANCH  27  28
ATOM     28  N   UNL A   1      40.414  24.452  25.966  1.00  0.00    -0.352 N 
ATOM     29  C   UNL A   1      40.899  25.718  26.203  1.00  0.00     0.251 C 
ATOM     30  H   UNL A   1      40.547  24.140  25.043  1.00  0.00     0.163 HD
ATOM     31  O   UNL A   1      41.342  26.365  25.255  1.00  0.00    -0.269 OA
BRANCH  29  32
ATOM     32  C   UNL A   1      40.849  26.338  27.548  1.00  0.00     0.039 A 
ATOM     33  C   UNL A   1      41.849  27.251  27.911  1.00  0.00     0.014 A 
ATOM     34  C   UNL A   1      39.845  26.027  28.464  1.00  0.00     0.014 A 
ATOM     35  C   UNL A   1      41.770  27.938  29.127  1.00  0.00     0.010 A 
ATOM     36  C   UNL A   1      39.721  26.768  29.638  1.00  0.00     0.010 A 
ATOM     37  C   UNL A   1      40.667  27.751  29.972  1.00  0.00    -0.014 A 
BRANCH  37  38
ATOM     38  C   UNL A   1      40.437  28.581  31.185  1.00  0.00     0.031 A 
ATOM     39  C   UNL A   1      39.422  29.691  31.158  1.00  0.00     0.074 A 
ATOM     40  C   UNL A   1      41.236  28.429  32.262  1.00  0.00     0.049 A 
ATOM     41  N   UNL A   1      39.237  30.663  32.014  1.00  0.00    -0.248 NA
ATOM     42  C   UNL A   1      38.518  29.731  29.997  1.00  0.00     0.031 C 
ATOM     43  C   UNL A   1      42.270  27.403  32.416  1.00  0.00     0.029 A 
ATOM     44  N   UNL A   1      41.324  29.161  33.422  1.00  0.00    -0.354 N 
ATOM     45  C   UNL A   1      38.222  31.450  31.481  1.00  0.00     0.074 A 
ATOM     46  C   UNL A   1      37.852  30.857  30.212  1.00  0.00     0.031 C 
ATOM     47  C   UNL A   1      42.886  27.572  33.597  1.00  0.00     0.029 A 
ATOM     48  C   UNL A   1      42.336  28.749  34.258  1.00  0.00     0.049 A 
ATOM     49  H   UNL A   1      40.721  29.910  33.633  1.00  0.00     0.167 HD
ATOM     50  C   UNL A   1      37.647  32.560  32.002  1.00  0.00     0.031 A 
ATOM     51  C   UNL A   1      42.798  29.277  35.409  1.00  0.00     0.031 A 
ATOM     52  C   UNL A   1      38.005  33.136  33.271  1.00  0.00     0.049 A 
ATOM     53  C   UNL A   1      42.169  30.531  35.950  1.00  0.00     0.074 A 
ATOM     54  C   UNL A   1      37.437  34.223  33.912  1.00  0.00     0.029 A 
ATOM     55  N   UNL A   1      39.025  32.677  34.090  1.00  0.00    -0.354 N 
ATOM     56  N   UNL A   1      41.181  31.235  35.454  1.00  0.00    -0.248 NA
ATOM     57  C   UNL A   1      42.720  31.065  37.205  1.00  0.00     0.031 C 
ATOM     58  C   UNL A   1      38.147  34.454  35.094  1.00  0.00     0.029 A 
ATOM     59  C   UNL A   1      39.123  33.476  35.216  1.00  0.00     0.049 A 
ATOM     60  H   UNL A   1      39.596  31.897  33.900  1.00  0.00     0.167 HD
ATOM     61  C   UNL A   1      40.979  32.284  36.344  1.00  0.00     0.074 A 
ATOM     62  C   UNL A   1      41.937  32.115  37.417  1.00  0.00     0.031 C 
ATOM     63  C   UNL A   1      40.082  33.297  36.277  1.00  0.00     0.031 A 
BRANCH  50  64
ATOM     64  C   UNL A   1      36.574  33.237  31.189  1.00  0.00    -0.014 A 
ATOM     65  C   UNL A   1      36.877  33.888  29.980  1.00  0.00     0.010 A 
ATOM     66  C   UNL A   1      35.235  33.182  31.619  1.00  0.00     0.010 A 
ATOM     67  C   UNL A   1      35.869  34.510  29.240  1.00  0.00     0.020 A 
ATOM     68  C   UNL A   1      34.219  33.779  30.867  1.00  0.00     0.020 A 
ATOM     69  C   UNL A   1      34.546  34.456  29.690  1.00  0.00     0.054 A 
BRANCH  69  70
ATOM     70  S   UNL A   1      33.257  35.259  28.700  1.00  0.00     0.124 S 
ATOM     71  O   UNL A   1      34.049  36.070  27.778  1.00  0.00    -0.237 OA
ATOM     72  O   UNL A   1      32.562  34.125  28.096  1.00  0.00    -0.237 OA
ATOM     73  O   UNL A   1      32.481  36.011  29.682  1.00  0.00    -0.744 OA
ENDBRANCH  69  70
ENDBRANCH  50  64
BRANCH  51  74
ATOM     74  C   UNL A   1      43.934  28.628  36.121  1.00  0.00    -0.014 A 
ATOM     75  C   UNL A   1      45.251  29.073  35.907  1.00  0.00     0.010 A 
ATOM     76  C   UNL A   1      43.706  27.577  37.027  1.00  0.00     0.010 A 
ATOM     77  C   UNL A   1      46.318  28.471  36.578  1.00  0.00     0.020 A 
ATOM     78  C   UNL A   1      44.770  26.991  37.721  1.00  0.00     0.020 A 
ATOM     79  C   UNL A   1      46.071  27.435  37.483  1.00  0.00     0.054 A 
BRANCH  79  80
ATOM     80  S   UNL A   1      47.469  26.711  38.386  1.00  0.00     0.124 S 
ATOM     81  O   UNL A   1      47.357  27.359  39.688  1.00  0.00    -0.237 OA
ATOM     82  O   UNL A   1      47.156  25.284  38.359  1.00  0.00    -0.237 OA
ATOM     83  O   UNL A   1      48.628  27.101  37.589  1.00  0.00    -0.744 OA
ENDBRANCH  79  80
ENDBRANCH  51  74
BRANCH  63  84
ATOM     84  C   UNL A   1      40.071  34.296  37.403  1.00  0.00    -0.014 A 
ATOM     85  C   UNL A   1      40.843  35.468  37.338  1.00  0.00     0.010 A 
ATOM     86  C   UNL A   1      39.214  34.097  38.501  1.00  0.00     0.010 A 
ATOM     87  C   UNL A   1      40.767  36.421  38.359  1.00  0.00     0.020 A 
ATOM     88  C   UNL A   1      39.117  35.058  39.511  1.00  0.00     0.020 A 
ATOM     89  C   UNL A   1      39.900  36.211  39.436  1.00  0.00     0.054 A 
BRANCH  89  90
ATOM     90  S   UNL A   1      39.765  37.497  40.709  1.00  0.00     0.124 S 
ATOM     91  O   UNL A   1      39.071  38.564  39.991  1.00  0.00    -0.237 OA
ATOM     92  O   UNL A   1      38.989  36.833  41.753  1.00  0.00    -0.237 OA
ATOM     93  O   UNL A   1      41.154  37.784  41.061  1.00  0.00    -0.744 OA
ENDBRANCH  89  90
ENDBRANCH  63  84
ENDBRANCH  37  38
ENDBRANCH  29  32
ENDBRANCH  27  28
ENDBRANCH   1  27
TORSDOF 16
ENDMDL
MODEL 3
REMARK VINA RESULT:     -11.6      3.408      9.619
REMARK SMILES Cc1ccc(NC(=O)C[N@H+]2CCC[C@@H](C(=O)NCCCNC(=O)c3ccc(-c4c5nc(c(-c6ccc(S(=O)(=O)[O-])cc6)c6ccc([nH]6)c(-c6ccc(S(=O)(=O)[O-])cc6)c6nc(c(-c7ccc(S(=O)(=O)[O-])cc7)c7ccc4[nH]7)C=C6)C=C5)cc3)C2)cc1F
REMARK SMILES IDX 19 1 18 2 17 3 15 4 16 5 14 7 10 8 11 9 84 10 12 12 13 13
REMARK SMILES IDX 9 14 7 15 6 16 8 18 5 19 1 20 2 21 3 22 86 23 4 24 85 25
REMARK SMILES IDX 87 26 20 27 21 28 22 29 23 31 24 32 25 33 83 34 26 35 82 36
REMARK SMILES IDX 27 37 28 38 29 39 76 40 30 41 81 42 75 43 77 44 31 45 80 46
REMARK SMILES IDX 74 47 73 48 32 50 62 51 43 52 61 53 44 54 47 55 60 56 78 57
REMARK SMILES IDX 45 58 46 59 59 61 79 62 48 63 33 64 34 65 42 66 35 67 41 68
REMARK SMILES IDX 36 69 37 70 38 71 39 72 40 73 63 74 64 75 72 76 65 77 71 78
REMARK SMILES IDX 66 79 67 80 68 81 69 82 70 83 49 84 50 85 58 86 51 87 57 88
REMARK SMILES IDX 52 89 53 90 54 91 55 92 56 93
REMARK H PARENT 17 6 10 11 6 17 21 30 77 49 47 60
REMARK Flexibility Score: inf
ROOT
ATOM      1  C   UNL A   1      36.167  22.776  26.161  1.00  0.00     0.042 C 
ENDROOT
BRANCH   1   2
ATOM      2  C   UNL A   1      34.950  22.075  25.569  1.00  0.00     0.117 C 
BRANCH   2   3
ATOM      3  N   UNL A   1      34.644  22.498  24.210  1.00  0.00    -0.356 N 
ATOM      4  C   UNL A   1      34.137  23.692  23.773  1.00  0.00     0.228 C 
ATOM      5  O   UNL A   1      34.051  23.875  22.558  1.00  0.00    -0.275 OA
ATOM      6  H   UNL A   1      34.829  21.833  23.508  1.00  0.00     0.163 HD
BRANCH   4   7
ATOM      7  C   UNL A   1      33.725  24.750  24.789  1.00  0.00     0.133 C 
ATOM      8  N   UNL A   1      33.331  27.182  25.082  1.00  0.00    -0.326 N 
ATOM      9  C   UNL A   1      32.047  26.913  25.756  1.00  0.00     0.262 C 
ATOM     10  C   UNL A   1      33.629  26.121  24.106  1.00  0.00     0.276 C 
ATOM     11  H   UNL A   1      34.108  27.140  25.740  1.00  0.00     0.348 HD
ATOM     12  C   UNL A   1      32.012  25.537  26.425  1.00  0.00     0.062 C 
ATOM     13  C   UNL A   1      32.384  24.425  25.449  1.00  0.00     0.025 C 
BRANCH   8  14
ATOM     14  C   UNL A   1      33.356  28.580  24.567  1.00  0.00     0.363 C 
BRANCH  14  15
ATOM     15  C   UNL A   1      33.359  28.757  23.053  1.00  0.00     0.279 C 
ATOM     16  N   UNL A   1      32.242  28.722  22.271  1.00  0.00    -0.321 N 
ATOM     17  H   UNL A   1      32.447  28.838  21.314  1.00  0.00     0.170 HD
ATOM     18  O   UNL A   1      34.431  28.973  22.468  1.00  0.00    -0.268 OA
BRANCH  16  19
ATOM     19  C   UNL A   1      30.866  28.558  22.514  1.00  0.00     0.044 A 
ATOM     20  C   UNL A   1      26.638  28.510  23.428  1.00  0.00     0.047 C 
ATOM     21  C   UNL A   1      28.093  28.537  23.072  1.00  0.00    -0.015 A 
ATOM     22  C   UNL A   1      28.686  29.666  22.506  1.00  0.00     0.008 A 
ATOM     23  C   UNL A   1      28.895  27.426  23.324  1.00  0.00     0.128 A 
ATOM     24  C   UNL A   1      30.056  29.668  22.220  1.00  0.00     0.026 A 
ATOM     25  C   UNL A   1      30.263  27.427  23.053  1.00  0.00     0.065 A 
ATOM     26  F   UNL A   1      28.351  26.327  23.866  1.00  0.00    -0.207 F 
ENDBRANCH  16  19
ENDBRANCH  14  15
ENDBRANCH   8  14
ENDBRANCH   4   7
ENDBRANCH   2   3
ENDBRANCH   1   2
BRANCH   1  27
ATOM     27  C   UNL A   1      37.259  23.140  25.157  1.00  0.00     0.118 C 
BRANCH  27  28
ATOM     28  N   UNL A   1      38.524  22.443  25.375  1.00  0.00    -0.352 N 
ATOM     29  C   UNL A   1      39.688  22.817  26.007  1.00  0.00     0.251 C 
ATOM     30  H   UNL A   1      38.549  21.535  24.998  1.00  0.00     0.163 HD
ATOM     31  O   UNL A   1      40.656  22.058  25.955  1.00  0.00    -0.269 OA
BRANCH  29  32
ATOM     32  C   UNL A   1      39.824  24.124  26.692  1.00  0.00     0.039 A 
ATOM     33  C   UNL A   1      39.149  24.327  27.904  1.00  0.00     0.014 A 
ATOM     34  C   UNL A   1      40.591  25.158  26.158  1.00  0.00     0.014 A 
ATOM     35  C   UNL A   1      39.345  25.505  28.632  1.00  0.00     0.010 A 
ATOM     36  C   UNL A   1      40.850  26.296  26.919  1.00  0.00     0.010 A 
ATOM     37  C   UNL A   1      40.251  26.473  28.177  1.00  0.00    -0.014 A 
BRANCH  37  38
ATOM     38  C   UNL A   1      40.636  27.657  28.992  1.00  0.00     0.031 A 
ATOM     39  C   UNL A   1      41.860  27.606  29.865  1.00  0.00     0.074 A 
ATOM     40  C   UNL A   1      39.812  28.724  29.054  1.00  0.00     0.049 A 
ATOM     41  N   UNL A   1      42.234  28.427  30.812  1.00  0.00    -0.248 NA
ATOM     42  C   UNL A   1      42.765  26.462  29.668  1.00  0.00     0.031 C 
ATOM     43  C   UNL A   1      38.585  28.898  28.272  1.00  0.00     0.029 A 
ATOM     44  N   UNL A   1      39.865  29.852  29.837  1.00  0.00    -0.354 N 
ATOM     45  C   UNL A   1      43.396  27.883  31.349  1.00  0.00     0.074 A 
ATOM     46  C   UNL A   1      43.648  26.645  30.640  1.00  0.00     0.031 C 
ATOM     47  C   UNL A   1      38.005  30.059  28.614  1.00  0.00     0.029 A 
ATOM     48  C   UNL A   1      38.781  30.685  29.679  1.00  0.00     0.049 A 
ATOM     49  H   UNL A   1      40.609  30.046  30.452  1.00  0.00     0.167 HD
ATOM     50  C   UNL A   1      44.183  28.371  32.337  1.00  0.00     0.031 A 
ATOM     51  C   UNL A   1      38.426  31.805  30.339  1.00  0.00     0.031 A 
ATOM     52  C   UNL A   1      43.940  29.609  33.027  1.00  0.00     0.049 A 
ATOM     53  C   UNL A   1      39.298  32.309  31.457  1.00  0.00     0.074 A 
ATOM     54  C   UNL A   1      44.715  30.219  33.999  1.00  0.00     0.029 A 
ATOM     55  N   UNL A   1      42.838  30.427  32.825  1.00  0.00    -0.354 N 
ATOM     56  N   UNL A   1      40.416  31.804  31.920  1.00  0.00    -0.248 NA
ATOM     57  C   UNL A   1      38.856  33.531  32.146  1.00  0.00     0.031 C 
ATOM     58  C   UNL A   1      44.056  31.377  34.421  1.00  0.00     0.029 A 
ATOM     59  C   UNL A   1      42.897  31.519  33.673  1.00  0.00     0.049 A 
ATOM     60  H   UNL A   1      42.120  30.256  32.173  1.00  0.00     0.167 HD
ATOM     61  C   UNL A   1      40.821  32.657  32.941  1.00  0.00     0.074 A 
ATOM     62  C   UNL A   1      39.837  33.716  33.019  1.00  0.00     0.031 C 
ATOM     63  C   UNL A   1      41.910  32.567  33.742  1.00  0.00     0.031 A 
BRANCH  50  64
ATOM     64  C   UNL A   1      45.382  27.553  32.741  1.00  0.00    -0.014 A 
ATOM     65  C   UNL A   1      46.630  27.732  32.117  1.00  0.00     0.010 A 
ATOM     66  C   UNL A   1      45.270  26.623  33.791  1.00  0.00     0.010 A 
ATOM     67  C   UNL A   1      47.731  26.964  32.505  1.00  0.00     0.020 A 
ATOM     68  C   UNL A   1      46.377  25.873  34.201  1.00  0.00     0.020 A 
ATOM     69  C   UNL A   1      47.596  26.036  33.542  1.00  0.00     0.054 A 
BRANCH  69  70
ATOM     70  S   UNL A   1      49.047  25.066  34.034  1.00  0.00     0.124 S 
ATOM     71  O   UNL A   1      49.489  25.775  35.233  1.00  0.00    -0.237 OA
ATOM     72  O   UNL A   1      48.483  23.738  34.263  1.00  0.00    -0.237 OA
ATOM     73  O   UNL A   1      49.941  25.169  32.883  1.00  0.00    -0.744 OA
ENDBRANCH  69  70
ENDBRANCH  50  64
BRANCH  51  74
ATOM     74  C   UNL A   1      37.173  32.520  29.970  1.00  0.00    -0.014 A 
ATOM     75  C   UNL A   1      35.940  32.107  30.503  1.00  0.00     0.010 A 
ATOM     76  C   UNL A   1      37.208  33.625  29.101  1.00  0.00     0.010 A 
ATOM     77  C   UNL A   1      34.762  32.779  30.165  1.00  0.00     0.020 A 
ATOM     78  C   UNL A   1      36.034  34.317  28.782  1.00  0.00     0.020 A 
ATOM     79  C   UNL A   1      34.817  33.882  29.308  1.00  0.00     0.054 A 
BRANCH  79  80
ATOM     80  S   UNL A   1      33.282  34.775  28.932  1.00  0.00     0.124 S 
ATOM     81  O   UNL A   1      33.787  36.031  28.390  1.00  0.00    -0.237 OA
ATOM     82  O   UNL A   1      32.629  33.887  27.973  1.00  0.00    -0.237 OA
ATOM     83  O   UNL A   1      32.619  34.873  30.230  1.00  0.00    -0.744 OA
ENDBRANCH  79  80
ENDBRANCH  51  74
BRANCH  63  84
ATOM     84  C   UNL A   1      42.117  33.653  34.763  1.00  0.00    -0.014 A 
ATOM     85  C   UNL A   1      41.746  33.465  36.105  1.00  0.00     0.010 A 
ATOM     86  C   UNL A   1      42.765  34.845  34.390  1.00  0.00     0.010 A 
ATOM     87  C   UNL A   1      42.009  34.455  37.056  1.00  0.00     0.020 A 
ATOM     88  C   UNL A   1      43.053  35.826  35.342  1.00  0.00     0.020 A 
ATOM     89  C   UNL A   1      42.666  35.627  36.669  1.00  0.00     0.054 A 
BRANCH  89  90
ATOM     90  S   UNL A   1      43.064  36.863  37.936  1.00  0.00     0.124 S 
ATOM     91  O   UNL A   1      41.737  37.251  38.409  1.00  0.00    -0.237 OA
ATOM     92  O   UNL A   1      43.872  36.101  38.885  1.00  0.00    -0.237 OA
ATOM     93  O   UNL A   1      43.789  37.895  37.198  1.00  0.00    -0.744 OA
ENDBRANCH  89  90
ENDBRANCH  63  84
ENDBRANCH  37  38
ENDBRANCH  29  32
ENDBRANCH  27  28
ENDBRANCH   1  27
TORSDOF 16
ENDMDL
