MODEL 1
REMARK VINA RESULT:     -10.1      0.000      0.000
REMARK SMILES CCCCCN(C(=O)N1CCC(CC(=O)NCCCNC(=O)c2ccc(-c3c4nc(c(-c5ccc(S(=O)(=O)[O-])cc5)c5ccc([nH]5)c(-c5ccc(S(=O)(=O)[O-])cc5)c5nc(c(-c6ccc(S(=O)(=O)[O-])cc6)c6ccc3[nH]6)C=C5)C=C4)cc2)CC1)C(C)C
REMARK SMILES IDX 14 1 15 2 16 3 13 5 12 6 7 7 8 8 9 9 10 10 84 11 11 12 83 13
REMARK SMILES IDX 6 14 5 15 4 16 3 17 2 18 1 19 85 20 86 21 87 22 17 23 18 24
REMARK SMILES IDX 19 25 20 26 21 27 22 29 23 30 24 31 82 32 25 33 81 34 26 35
REMARK SMILES IDX 27 36 28 37 75 38 29 39 80 40 74 41 76 42 30 43 79 44 73 45
REMARK SMILES IDX 72 46 31 48 61 49 42 50 60 51 43 52 46 53 59 54 77 55 44 56
REMARK SMILES IDX 45 57 58 59 78 60 47 61 32 62 33 63 41 64 34 65 40 66 35 67
REMARK SMILES IDX 36 68 37 69 38 70 39 71 62 72 63 73 71 74 64 75 70 76 65 77
REMARK SMILES IDX 66 78 67 79 68 80 69 81 48 82 49 83 57 84 50 85 56 86 51 87
REMARK SMILES IDX 52 88 53 89 54 90 55 91
REMARK H PARENT 16 4 20 28 76 47 46 58
REMARK Flexibility Score: inf
ROOT
ATOM      1  C   UNL A   1      30.731  28.164  22.904  1.00  0.00     0.220 C 
ATOM      2  O   UNL A   1      29.876  28.383  22.043  1.00  0.00    -0.275 OA
ATOM      3  N   UNL A   1      30.776  28.984  23.993  1.00  0.00    -0.356 N 
ATOM      4  H   UNL A   1      30.108  29.707  23.989  1.00  0.00     0.163 HD
ENDROOT
BRANCH   1   5
ATOM      5  C   UNL A   1      31.711  27.017  22.748  1.00  0.00     0.103 C 
BRANCH   5   6
ATOM      6  C   UNL A   1      31.433  25.834  23.695  1.00  0.00     0.002 C 
ATOM      7  C   UNL A   1      33.120  22.250  24.100  1.00  0.00     0.320 C 
ATOM      8  O   UNL A   1      33.252  22.065  22.889  1.00  0.00    -0.248 OA
ATOM      9  N   UNL A   1      32.176  23.147  24.571  1.00  0.00    -0.325 N 
ATOM     10  C   UNL A   1      30.964  23.328  23.796  1.00  0.00     0.121 C 
ATOM     11  C   UNL A   1      32.543  24.286  25.407  1.00  0.00     0.121 C 
ATOM     12  C   UNL A   1      31.061  24.568  22.921  1.00  0.00     0.026 C 
ATOM     13  C   UNL A   1      32.667  25.570  24.580  1.00  0.00     0.026 C 
BRANCH   7  14
ATOM     14  N   UNL A   1      33.895  21.587  25.054  1.00  0.00    -0.322 N 
BRANCH  14  15
ATOM     15  C   UNL A   1      33.431  20.369  25.750  1.00  0.00     0.121 C 
BRANCH  15  16
ATOM     16  C   UNL A   1      33.013  19.190  24.855  1.00  0.00     0.022 C 
BRANCH  16  17
ATOM     17  C   UNL A   1      34.090  18.182  24.423  1.00  0.00     0.002 C 
BRANCH  17  18
ATOM     18  C   UNL A   1      33.607  16.863  23.817  1.00  0.00    -0.003 C 
ATOM     19  C   UNL A   1      33.273  15.810  24.859  1.00  0.00     0.004 C 
ENDBRANCH  17  18
ENDBRANCH  16  17
ENDBRANCH  15  16
ENDBRANCH  14  15
BRANCH  14  20
ATOM     20  C   UNL A   1      35.303  22.026  25.182  1.00  0.00     0.080 C 
ATOM     21  C   UNL A   1      35.573  22.757  26.498  1.00  0.00     0.031 C 
ATOM     22  C   UNL A   1      36.327  20.920  24.944  1.00  0.00     0.031 C 
ENDBRANCH  14  20
ENDBRANCH   7  14
ENDBRANCH   5   6
ENDBRANCH   1   5
BRANCH   3  23
ATOM     23  C   UNL A   1      31.647  28.974  25.163  1.00  0.00     0.117 C 
BRANCH  23  24
ATOM     24  C   UNL A   1      33.126  29.152  24.812  1.00  0.00     0.042 C 
BRANCH  24  25
ATOM     25  C   UNL A   1      34.060  29.164  26.013  1.00  0.00     0.118 C 
BRANCH  25  26
ATOM     26  N   UNL A   1      33.824  30.319  26.861  1.00  0.00    -0.352 N 
ATOM     27  C   UNL A   1      34.533  30.765  27.951  1.00  0.00     0.251 C 
ATOM     28  H   UNL A   1      33.041  30.864  26.618  1.00  0.00     0.163 HD
ATOM     29  O   UNL A   1      34.015  31.596  28.694  1.00  0.00    -0.269 OA
BRANCH  27  30
ATOM     30  C   UNL A   1      35.900  30.263  28.247  1.00  0.00     0.039 A 
ATOM     31  C   UNL A   1      36.161  29.725  29.511  1.00  0.00     0.014 A 
ATOM     32  C   UNL A   1      36.945  30.388  27.327  1.00  0.00     0.014 A 
ATOM     33  C   UNL A   1      37.449  29.290  29.840  1.00  0.00     0.010 A 
ATOM     34  C   UNL A   1      38.210  29.880  27.625  1.00  0.00     0.010 A 
ATOM     35  C   UNL A   1      38.485  29.349  28.895  1.00  0.00    -0.014 A 
BRANCH  35  36
ATOM     36  C   UNL A   1      39.865  28.902  29.229  1.00  0.00     0.031 A 
ATOM     37  C   UNL A   1      40.824  29.842  29.916  1.00  0.00     0.074 A 
ATOM     38  C   UNL A   1      40.281  27.671  28.873  1.00  0.00     0.049 A 
ATOM     39  N   UNL A   1      42.076  29.649  30.248  1.00  0.00    -0.248 NA
ATOM     40  C   UNL A   1      40.316  31.182  30.246  1.00  0.00     0.031 C 
ATOM     41  C   UNL A   1      39.472  26.677  28.163  1.00  0.00     0.029 A 
ATOM     42  N   UNL A   1      41.492  27.048  29.050  1.00  0.00    -0.354 N 
ATOM     43  C   UNL A   1      42.512  30.849  30.799  1.00  0.00     0.074 A 
ATOM     44  C   UNL A   1      41.404  31.776  30.713  1.00  0.00     0.031 C 
ATOM     45  C   UNL A   1      40.203  25.565  27.985  1.00  0.00     0.029 A 
ATOM     46  C   UNL A   1      41.539  25.776  28.535  1.00  0.00     0.049 A 
ATOM     47  H   UNL A   1      42.255  27.475  29.504  1.00  0.00     0.167 HD
ATOM     48  C   UNL A   1      43.716  31.152  31.343  1.00  0.00     0.031 A 
ATOM     49  C   UNL A   1      42.543  24.876  28.501  1.00  0.00     0.031 A 
ATOM     50  C   UNL A   1      44.813  30.226  31.445  1.00  0.00     0.049 A 
ATOM     51  C   UNL A   1      43.864  25.219  29.129  1.00  0.00     0.074 A 
ATOM     52  C   UNL A   1      46.048  30.414  32.040  1.00  0.00     0.029 A 
ATOM     53  N   UNL A   1      44.809  28.937  30.933  1.00  0.00    -0.354 N 
ATOM     54  N   UNL A   1      44.234  26.337  29.710  1.00  0.00    -0.248 NA
ATOM     55  C   UNL A   1      44.900  24.178  29.109  1.00  0.00     0.031 C 
ATOM     56  C   UNL A   1      46.807  29.254  31.848  1.00  0.00     0.029 A 
ATOM     57  C   UNL A   1      46.027  28.325  31.178  1.00  0.00     0.049 A 
ATOM     58  H   UNL A   1      44.051  28.517  30.464  1.00  0.00     0.167 HD
ATOM     59  C   UNL A   1      45.539  26.127  30.140  1.00  0.00     0.074 A 
ATOM     60  C   UNL A   1      45.889  24.770  29.765  1.00  0.00     0.031 C 
ATOM     61  C   UNL A   1      46.370  26.979  30.790  1.00  0.00     0.031 A 
BRANCH  48  62
ATOM     62  C   UNL A   1      43.906  32.558  31.854  1.00  0.00    -0.014 A 
ATOM     63  C   UNL A   1      44.433  33.569  31.031  1.00  0.00     0.010 A 
ATOM     64  C   UNL A   1      43.559  32.869  33.181  1.00  0.00     0.010 A 
ATOM     65  C   UNL A   1      44.675  34.846  31.544  1.00  0.00     0.020 A 
ATOM     66  C   UNL A   1      43.772  34.154  33.691  1.00  0.00     0.020 A 
ATOM     67  C   UNL A   1      44.356  35.127  32.876  1.00  0.00     0.054 A 
BRANCH  67  68
ATOM     68  S   UNL A   1      44.705  36.783  33.527  1.00  0.00     0.124 S 
ATOM     69  O   UNL A   1      43.361  37.333  33.684  1.00  0.00    -0.237 OA
ATOM     70  O   UNL A   1      45.416  36.498  34.772  1.00  0.00    -0.237 OA
ATOM     71  O   UNL A   1      45.514  37.405  32.482  1.00  0.00    -0.744 OA
ENDBRANCH  67  68
ENDBRANCH  48  62
BRANCH  49  72
ATOM     72  C   UNL A   1      42.310  23.551  27.865  1.00  0.00    -0.014 A 
ATOM     73  C   UNL A   1      42.733  23.309  26.546  1.00  0.00     0.010 A 
ATOM     74  C   UNL A   1      41.725  22.504  28.600  1.00  0.00     0.010 A 
ATOM     75  C   UNL A   1      42.581  22.041  25.976  1.00  0.00     0.020 A 
ATOM     76  C   UNL A   1      41.591  21.230  28.041  1.00  0.00     0.020 A 
ATOM     77  C   UNL A   1      42.019  21.008  26.731  1.00  0.00     0.054 A 
BRANCH  77  78
ATOM     78  S   UNL A   1      41.923  19.346  26.005  1.00  0.00     0.124 S 
ATOM     79  O   UNL A   1      40.496  19.216  25.728  1.00  0.00    -0.237 OA
ATOM     80  O   UNL A   1      42.787  19.462  24.833  1.00  0.00    -0.237 OA
ATOM     81  O   UNL A   1      42.438  18.480  27.064  1.00  0.00    -0.744 OA
ENDBRANCH  77  78
ENDBRANCH  49  72
BRANCH  61  82
ATOM     82  C   UNL A   1      47.739  26.470  31.155  1.00  0.00    -0.014 A 
ATOM     83  C   UNL A   1      48.823  26.602  30.269  1.00  0.00     0.010 A 
ATOM     84  C   UNL A   1      47.954  25.904  32.424  1.00  0.00     0.010 A 
ATOM     85  C   UNL A   1      50.093  26.151  30.637  1.00  0.00     0.020 A 
ATOM     86  C   UNL A   1      49.227  25.473  32.805  1.00  0.00     0.020 A 
ATOM     87  C   UNL A   1      50.288  25.588  31.902  1.00  0.00     0.054 A 
BRANCH  87  88
ATOM     88  S   UNL A   1      51.955  25.050  32.375  1.00  0.00     0.124 S 
ATOM     89  O   UNL A   1      51.807  23.598  32.408  1.00  0.00    -0.237 OA
ATOM     90  O   UNL A   1      52.782  25.572  31.289  1.00  0.00    -0.237 OA
ATOM     91  O   UNL A   1      52.169  25.686  33.673  1.00  0.00    -0.744 OA
ENDBRANCH  87  88
ENDBRANCH  61  82
ENDBRANCH  35  36
ENDBRANCH  27  30
ENDBRANCH  25  26
ENDBRANCH  24  25
ENDBRANCH  23  24
ENDBRANCH   3  23
TORSDOF 20
ENDMDL
MODEL 2
REMARK VINA RESULT:      -9.8      2.818      3.504
REMARK SMILES CCCCCN(C(=O)N1CCC(CC(=O)NCCCNC(=O)c2ccc(-c3c4nc(c(-c5ccc(S(=O)(=O)[O-])cc5)c5ccc([nH]5)c(-c5ccc(S(=O)(=O)[O-])cc5)c5nc(c(-c6ccc(S(=O)(=O)[O-])cc6)c6ccc3[nH]6)C=C5)C=C4)cc2)CC1)C(C)C
REMARK SMILES IDX 14 1 15 2 16 3 13 5 12 6 7 7 8 8 9 9 10 10 84 11 11 12 83 13
REMARK SMILES IDX 6 14 5 15 4 16 3 17 2 18 1 19 85 20 86 21 87 22 17 23 18 24
REMARK SMILES IDX 19 25 20 26 21 27 22 29 23 30 24 31 82 32 25 33 81 34 26 35
REMARK SMILES IDX 27 36 28 37 75 38 29 39 80 40 74 41 76 42 30 43 79 44 73 45
REMARK SMILES IDX 72 46 31 48 61 49 42 50 60 51 43 52 46 53 59 54 77 55 44 56
REMARK SMILES IDX 45 57 58 59 78 60 47 61 32 62 33 63 41 64 34 65 40 66 35 67
REMARK SMILES IDX 36 68 37 69 38 70 39 71 62 72 63 73 71 74 64 75 70 76 65 77
REMARK SMILES IDX 66 78 67 79 68 80 69 81 48 82 49 83 57 84 50 85 56 86 51 87
REMARK SMILES IDX 52 88 53 89 54 90 55 91
REMARK H PARENT 16 4 20 28 76 47 46 58
REMARK Flexibility Score: inf
ROOT
ATOM      1  C   UNL A   1      31.551  29.203  24.625  1.00  0.00     0.220 C 
ATOM      2  O   UNL A   1      30.560  29.687  24.074  1.00  0.00    -0.275 OA
ATOM      3  N   UNL A   1      31.987  29.768  25.787  1.00  0.00    -0.356 N 
ATOM      4  H   UNL A   1      31.459  30.543  26.087  1.00  0.00     0.163 HD
ENDROOT
BRANCH   1   5
ATOM      5  C   UNL A   1      32.272  28.014  24.015  1.00  0.00     0.103 C 
BRANCH   5   6
ATOM      6  C   UNL A   1      31.594  26.663  24.314  1.00  0.00     0.002 C 
ATOM      7  C   UNL A   1      32.771  22.891  23.824  1.00  0.00     0.320 C 
ATOM      8  O   UNL A   1      33.309  23.095  22.734  1.00  0.00    -0.248 OA
ATOM      9  N   UNL A   1      31.788  23.747  24.289  1.00  0.00    -0.325 N 
ATOM     10  C   UNL A   1      30.943  24.408  23.314  1.00  0.00     0.121 C 
ATOM     11  C   UNL A   1      31.916  24.450  25.562  1.00  0.00     0.121 C 
ATOM     12  C   UNL A   1      31.430  25.823  23.045  1.00  0.00     0.026 C 
ATOM     13  C   UNL A   1      32.414  25.886  25.361  1.00  0.00     0.026 C 
BRANCH   7  14
ATOM     14  N   UNL A   1      33.111  21.811  24.642  1.00  0.00    -0.322 N 
BRANCH  14  15
ATOM     15  C   UNL A   1      32.368  20.535  24.625  1.00  0.00     0.121 C 
BRANCH  15  16
ATOM     16  C   UNL A   1      32.510  19.681  23.354  1.00  0.00     0.022 C 
BRANCH  16  17
ATOM     17  C   UNL A   1      32.399  18.153  23.483  1.00  0.00     0.002 C 
BRANCH  17  18
ATOM     18  C   UNL A   1      33.661  17.335  23.200  1.00  0.00    -0.003 C 
ATOM     19  C   UNL A   1      34.727  17.487  24.272  1.00  0.00     0.004 C 
ENDBRANCH  17  18
ENDBRANCH  16  17
ENDBRANCH  15  16
ENDBRANCH  14  15
BRANCH  14  20
ATOM     20  C   UNL A   1      34.393  21.917  25.375  1.00  0.00     0.080 C 
ATOM     21  C   UNL A   1      34.247  21.590  26.862  1.00  0.00     0.031 C 
ATOM     22  C   UNL A   1      35.539  21.130  24.747  1.00  0.00     0.031 C 
ENDBRANCH  14  20
ENDBRANCH   7  14
ENDBRANCH   5   6
ENDBRANCH   1   5
BRANCH   3  23
ATOM     23  C   UNL A   1      33.101  29.420  26.662  1.00  0.00     0.117 C 
BRANCH  23  24
ATOM     24  C   UNL A   1      33.874  30.641  27.163  1.00  0.00     0.042 C 
BRANCH  24  25
ATOM     25  C   UNL A   1      35.212  30.317  27.811  1.00  0.00     0.118 C 
BRANCH  25  26
ATOM     26  N   UNL A   1      35.279  30.811  29.174  1.00  0.00    -0.352 N 
ATOM     27  C   UNL A   1      36.276  30.669  30.111  1.00  0.00     0.251 C 
ATOM     28  H   UNL A   1      34.494  31.325  29.472  1.00  0.00     0.163 HD
ATOM     29  O   UNL A   1      36.024  30.921  31.286  1.00  0.00    -0.269 OA
BRANCH  27  30
ATOM     30  C   UNL A   1      37.639  30.217  29.729  1.00  0.00     0.039 A 
ATOM     31  C   UNL A   1      38.503  29.766  30.733  1.00  0.00     0.014 A 
ATOM     32  C   UNL A   1      38.104  30.305  28.414  1.00  0.00     0.014 A 
ATOM     33  C   UNL A   1      39.811  29.382  30.416  1.00  0.00     0.010 A 
ATOM     34  C   UNL A   1      39.380  29.845  28.086  1.00  0.00     0.010 A 
ATOM     35  C   UNL A   1      40.259  29.403  29.086  1.00  0.00    -0.014 A 
BRANCH  35  36
ATOM     36  C   UNL A   1      41.650  29.008  28.731  1.00  0.00     0.031 A 
ATOM     37  C   UNL A   1      42.754  30.035  28.723  1.00  0.00     0.074 A 
ATOM     38  C   UNL A   1      41.919  27.740  28.363  1.00  0.00     0.049 A 
ATOM     39  N   UNL A   1      44.014  29.892  28.399  1.00  0.00    -0.248 NA
ATOM     40  C   UNL A   1      42.384  31.408  29.101  1.00  0.00     0.031 C 
ATOM     41  C   UNL A   1      40.937  26.656  28.282  1.00  0.00     0.029 A 
ATOM     42  N   UNL A   1      43.098  27.150  27.979  1.00  0.00    -0.354 N 
ATOM     43  C   UNL A   1      44.580  31.158  28.508  1.00  0.00     0.074 A 
ATOM     44  C   UNL A   1      43.514  32.063  28.881  1.00  0.00     0.031 C 
ATOM     45  C   UNL A   1      41.558  25.531  27.894  1.00  0.00     0.029 A 
ATOM     46  C   UNL A   1      42.972  25.818  27.667  1.00  0.00     0.049 A 
ATOM     47  H   UNL A   1      43.953  27.636  27.933  1.00  0.00     0.167 HD
ATOM     48  C   UNL A   1      45.870  31.535  28.331  1.00  0.00     0.031 A 
ATOM     49  C   UNL A   1      43.886  24.924  27.240  1.00  0.00     0.031 A 
ATOM     50  C   UNL A   1      46.935  30.633  27.976  1.00  0.00     0.049 A 
ATOM     51  C   UNL A   1      45.316  25.352  27.071  1.00  0.00     0.074 A 
ATOM     52  C   UNL A   1      48.285  30.904  27.842  1.00  0.00     0.029 A 
ATOM     53  N   UNL A   1      46.768  29.286  27.695  1.00  0.00    -0.354 N 
ATOM     54  N   UNL A   1      45.846  26.540  27.248  1.00  0.00    -0.248 NA
ATOM     55  C   UNL A   1      46.275  24.319  26.656  1.00  0.00     0.031 C 
ATOM     56  C   UNL A   1      48.927  29.730  27.433  1.00  0.00     0.029 A 
ATOM     57  C   UNL A   1      47.986  28.715  27.364  1.00  0.00     0.049 A 
ATOM     58  H   UNL A   1      45.909  28.804  27.725  1.00  0.00     0.167 HD
ATOM     59  C   UNL A   1      47.203  26.393  26.984  1.00  0.00     0.074 A 
ATOM     60  C   UNL A   1      47.415  24.998  26.649  1.00  0.00     0.031 C 
ATOM     61  C   UNL A   1      48.184  27.329  27.020  1.00  0.00     0.031 A 
BRANCH  48  62
ATOM     62  C   UNL A   1      46.189  32.999  28.505  1.00  0.00    -0.014 A 
ATOM     63  C   UNL A   1      46.529  33.527  29.763  1.00  0.00     0.010 A 
ATOM     64  C   UNL A   1      46.141  33.859  27.393  1.00  0.00     0.010 A 
ATOM     65  C   UNL A   1      46.745  34.899  29.921  1.00  0.00     0.020 A 
ATOM     66  C   UNL A   1      46.387  35.228  27.540  1.00  0.00     0.020 A 
ATOM     67  C   UNL A   1      46.659  35.743  28.810  1.00  0.00     0.054 A 
BRANCH  67  68
ATOM     68  S   UNL A   1      46.916  37.523  29.044  1.00  0.00     0.124 S 
ATOM     69  O   UNL A   1      46.620  38.046  27.713  1.00  0.00    -0.237 OA
ATOM     70  O   UNL A   1      45.943  37.857  30.081  1.00  0.00    -0.237 OA
ATOM     71  O   UNL A   1      48.315  37.621  29.454  1.00  0.00    -0.744 OA
ENDBRANCH  67  68
ENDBRANCH  48  62
BRANCH  49  72
ATOM     72  C   UNL A   1      43.462  23.523  26.971  1.00  0.00    -0.014 A 
ATOM     73  C   UNL A   1      43.234  22.630  28.033  1.00  0.00     0.010 A 
ATOM     74  C   UNL A   1      43.216  23.097  25.653  1.00  0.00     0.010 A 
ATOM     75  C   UNL A   1      42.764  21.337  27.782  1.00  0.00     0.020 A 
ATOM     76  C   UNL A   1      42.725  21.813  25.400  1.00  0.00     0.020 A 
ATOM     77  C   UNL A   1      42.503  20.940  26.467  1.00  0.00     0.054 A 
BRANCH  77  78
ATOM     78  S   UNL A   1      41.798  19.293  26.173  1.00  0.00     0.124 S 
ATOM     79  O   UNL A   1      42.554  18.842  25.010  1.00  0.00    -0.237 OA
ATOM     80  O   UNL A   1      42.087  18.597  27.424  1.00  0.00    -0.237 OA
ATOM     81  O   UNL A   1      40.382  19.565  25.934  1.00  0.00    -0.744 OA
ENDBRANCH  77  78
ENDBRANCH  49  72
BRANCH  61  82
ATOM     82  C   UNL A   1      49.585  26.878  26.703  1.00  0.00    -0.014 A 
ATOM     83  C   UNL A   1      50.472  26.491  27.723  1.00  0.00     0.010 A 
ATOM     84  C   UNL A   1      49.999  26.786  25.362  1.00  0.00     0.010 A 
ATOM     85  C   UNL A   1      51.758  26.047  27.408  1.00  0.00     0.020 A 
ATOM     86  C   UNL A   1      51.276  26.319  25.042  1.00  0.00     0.020 A 
ATOM     87  C   UNL A   1      52.153  25.964  26.069  1.00  0.00     0.054 A 
BRANCH  87  88
ATOM     88  S   UNL A   1      53.813  25.342  25.682  1.00  0.00     0.124 S 
ATOM     89  O   UNL A   1      54.444  25.319  26.999  1.00  0.00    -0.237 OA
ATOM     90  O   UNL A   1      53.537  24.032  25.096  1.00  0.00    -0.237 OA
ATOM     91  O   UNL A   1      54.346  26.333  24.751  1.00  0.00    -0.744 OA
ENDBRANCH  87  88
ENDBRANCH  61  82
ENDBRANCH  35  36
ENDBRANCH  27  30
ENDBRANCH  25  26
ENDBRANCH  24  25
ENDBRANCH  23  24
ENDBRANCH   3  23
TORSDOF 20
ENDMDL
MODEL 3
REMARK VINA RESULT:      -9.6      3.798      5.685
REMARK SMILES CCCCCN(C(=O)N1CCC(CC(=O)NCCCNC(=O)c2ccc(-c3c4nc(c(-c5ccc(S(=O)(=O)[O-])cc5)c5ccc([nH]5)c(-c5ccc(S(=O)(=O)[O-])cc5)c5nc(c(-c6ccc(S(=O)(=O)[O-])cc6)c6ccc3[nH]6)C=C5)C=C4)cc2)CC1)C(C)C
REMARK SMILES IDX 14 1 15 2 16 3 13 5 12 6 7 7 8 8 9 9 10 10 84 11 11 12 83 13
REMARK SMILES IDX 6 14 5 15 4 16 3 17 2 18 1 19 85 20 86 21 87 22 17 23 18 24
REMARK SMILES IDX 19 25 20 26 21 27 22 29 23 30 24 31 82 32 25 33 81 34 26 35
REMARK SMILES IDX 27 36 28 37 75 38 29 39 80 40 74 41 76 42 30 43 79 44 73 45
REMARK SMILES IDX 72 46 31 48 61 49 42 50 60 51 43 52 46 53 59 54 77 55 44 56
REMARK SMILES IDX 45 57 58 59 78 60 47 61 32 62 33 63 41 64 34 65 40 66 35 67
REMARK SMILES IDX 36 68 37 69 38 70 39 71 62 72 63 73 71 74 64 75 70 76 65 77
REMARK SMILES IDX 66 78 67 79 68 80 69 81 48 82 49 83 57 84 50 85 56 86 51 87
REMARK SMILES IDX 52 88 53 89 54 90 55 91
REMARK H PARENT 16 4 20 28 76 47 46 58
REMARK Flexibility Score: inf
ROOT
ATOM      1  C   UNL A   1      35.633  30.333  27.418  1.00  0.00     0.220 C 
ATOM      2  O   UNL A   1      36.436  29.902  26.587  1.00  0.00    -0.275 OA
ATOM      3  N   UNL A   1      35.689  31.655  27.747  1.00  0.00    -0.356 N 
ATOM      4  H   UNL A   1      36.395  32.162  27.284  1.00  0.00     0.163 HD
ENDROOT
BRANCH   1   5
ATOM      5  C   UNL A   1      34.616  29.408  28.062  1.00  0.00     0.103 C 
BRANCH   5   6
ATOM      6  C   UNL A   1      33.229  29.456  27.393  1.00  0.00     0.002 C 
ATOM      7  C   UNL A   1      31.611  27.391  24.398  1.00  0.00     0.320 C 
ATOM      8  O   UNL A   1      32.636  27.386  23.714  1.00  0.00    -0.248 OA
ATOM      9  N   UNL A   1      31.426  28.356  25.374  1.00  0.00    -0.325 N 
ATOM     10  C   UNL A   1      32.015  29.663  25.159  1.00  0.00     0.121 C 
ATOM     11  C   UNL A   1      31.212  28.005  26.774  1.00  0.00     0.121 C 
ATOM     12  C   UNL A   1      33.334  29.792  25.904  1.00  0.00     0.026 C 
ATOM     13  C   UNL A   1      32.511  28.106  27.582  1.00  0.00     0.026 C 
BRANCH   7  14
ATOM     14  N   UNL A   1      30.594  26.447  24.238  1.00  0.00    -0.322 N 
BRANCH  14  15
ATOM     15  C   UNL A   1      29.264  26.794  23.697  1.00  0.00     0.121 C 
BRANCH  15  16
ATOM     16  C   UNL A   1      29.195  28.049  22.811  1.00  0.00     0.022 C 
BRANCH  16  17
ATOM     17  C   UNL A   1      28.157  29.130  23.153  1.00  0.00     0.002 C 
BRANCH  17  18
ATOM     18  C   UNL A   1      28.685  30.534  23.458  1.00  0.00    -0.003 C 
ATOM     19  C   UNL A   1      27.757  31.640  22.988  1.00  0.00     0.004 C 
ENDBRANCH  17  18
ENDBRANCH  16  17
ENDBRANCH  15  16
ENDBRANCH  14  15
BRANCH  14  20
ATOM     20  C   UNL A   1      30.974  25.029  24.427  1.00  0.00     0.080 C 
ATOM     21  C   UNL A   1      30.582  24.494  25.805  1.00  0.00     0.031 C 
ATOM     22  C   UNL A   1      30.493  24.100  23.316  1.00  0.00     0.031 C 
ENDBRANCH  14  20
ENDBRANCH   7  14
ENDBRANCH   5   6
ENDBRANCH   1   5
BRANCH   3  23
ATOM     23  C   UNL A   1      34.882  32.447  28.668  1.00  0.00     0.117 C 
BRANCH  23  24
ATOM     24  C   UNL A   1      35.652  33.613  29.290  1.00  0.00     0.042 C 
BRANCH  24  25
ATOM     25  C   UNL A   1      36.770  33.197  30.234  1.00  0.00     0.118 C 
BRANCH  25  26
ATOM     26  N   UNL A   1      36.351  32.124  31.117  1.00  0.00    -0.352 N 
ATOM     27  C   UNL A   1      36.877  30.863  31.276  1.00  0.00     0.251 C 
ATOM     28  H   UNL A   1      35.575  32.329  31.687  1.00  0.00     0.163 HD
ATOM     29  O   UNL A   1      36.214  30.015  31.868  1.00  0.00    -0.269 OA
BRANCH  27  30
ATOM     30  C   UNL A   1      38.221  30.511  30.748  1.00  0.00     0.039 A 
ATOM     31  C   UNL A   1      38.378  30.342  29.368  1.00  0.00     0.014 A 
ATOM     32  C   UNL A   1      39.305  30.267  31.595  1.00  0.00     0.014 A 
ATOM     33  C   UNL A   1      39.617  29.961  28.842  1.00  0.00     0.010 A 
ATOM     34  C   UNL A   1      40.560  29.967  31.065  1.00  0.00     0.010 A 
ATOM     35  C   UNL A   1      40.726  29.783  29.683  1.00  0.00    -0.014 A 
BRANCH  35  36
ATOM     36  C   UNL A   1      42.050  29.367  29.144  1.00  0.00     0.031 A 
ATOM     37  C   UNL A   1      43.170  30.368  29.019  1.00  0.00     0.074 A 
ATOM     38  C   UNL A   1      42.237  28.103  28.715  1.00  0.00     0.049 A 
ATOM     39  N   UNL A   1      44.374  30.206  28.533  1.00  0.00    -0.248 NA
ATOM     40  C   UNL A   1      42.887  31.739  29.473  1.00  0.00     0.031 C 
ATOM     41  C   UNL A   1      41.224  27.044  28.734  1.00  0.00     0.029 A 
ATOM     42  N   UNL A   1      43.341  27.497  28.169  1.00  0.00    -0.354 N 
ATOM     43  C   UNL A   1      44.982  31.455  28.598  1.00  0.00     0.074 A 
ATOM     44  C   UNL A   1      43.997  32.373  29.126  1.00  0.00     0.031 C 
ATOM     45  C   UNL A   1      41.762  25.916  28.244  1.00  0.00     0.029 A 
ATOM     46  C   UNL A   1      43.142  26.177  27.844  1.00  0.00     0.049 A 
ATOM     47  H   UNL A   1      44.196  27.965  28.025  1.00  0.00     0.167 HD
ATOM     48  C   UNL A   1      46.248  31.807  28.266  1.00  0.00     0.031 A 
ATOM     49  C   UNL A   1      43.971  25.274  27.283  1.00  0.00     0.031 A 
ATOM     50  C   UNL A   1      47.235  30.891  27.757  1.00  0.00     0.049 A 
ATOM     51  C   UNL A   1      45.379  25.674  26.942  1.00  0.00     0.074 A 
ATOM     52  C   UNL A   1      48.564  31.135  27.457  1.00  0.00     0.029 A 
ATOM     53  N   UNL A   1      46.999  29.556  27.467  1.00  0.00    -0.354 N 
ATOM     54  N   UNL A   1      45.957  26.845  27.078  1.00  0.00    -0.248 NA
ATOM     55  C   UNL A   1      46.250  24.631  26.384  1.00  0.00     0.031 C 
ATOM     56  C   UNL A   1      49.119  29.958  26.942  1.00  0.00     0.029 A 
ATOM     57  C   UNL A   1      48.150  28.967  26.970  1.00  0.00     0.049 A 
ATOM     58  H   UNL A   1      46.139  29.093  27.596  1.00  0.00     0.167 HD
ATOM     59  C   UNL A   1      47.265  26.674  26.639  1.00  0.00     0.074 A 
ATOM     60  C   UNL A   1      47.396  25.284  26.247  1.00  0.00     0.031 C 
ATOM     61  C   UNL A   1      48.266  27.586  26.570  1.00  0.00     0.031 A 
BRANCH  48  62
ATOM     62  C   UNL A   1      46.625  33.258  28.432  1.00  0.00    -0.014 A 
ATOM     63  C   UNL A   1      46.448  34.182  27.387  1.00  0.00     0.010 A 
ATOM     64  C   UNL A   1      47.171  33.701  29.650  1.00  0.00     0.010 A 
ATOM     65  C   UNL A   1      46.875  35.505  27.531  1.00  0.00     0.020 A 
ATOM     66  C   UNL A   1      47.572  35.031  29.810  1.00  0.00     0.020 A 
ATOM     67  C   UNL A   1      47.447  35.918  28.738  1.00  0.00     0.054 A 
BRANCH  67  68
ATOM     68  S   UNL A   1      48.018  37.633  28.892  1.00  0.00     0.124 S 
ATOM     69  O   UNL A   1      48.566  37.645  30.246  1.00  0.00    -0.237 OA
ATOM     70  O   UNL A   1      49.001  37.744  27.816  1.00  0.00    -0.237 OA
ATOM     71  O   UNL A   1      46.803  38.422  28.704  1.00  0.00    -0.744 OA
ENDBRANCH  67  68
ENDBRANCH  48  62
BRANCH  49  72
ATOM     72  C   UNL A   1      43.480  23.891  27.038  1.00  0.00    -0.014 A 
ATOM     73  C   UNL A   1      43.468  22.943  28.076  1.00  0.00     0.010 A 
ATOM     74  C   UNL A   1      42.957  23.536  25.781  1.00  0.00     0.010 A 
ATOM     75  C   UNL A   1      42.937  21.667  27.863  1.00  0.00     0.020 A 
ATOM     76  C   UNL A   1      42.405  22.269  25.571  1.00  0.00     0.020 A 
ATOM     77  C   UNL A   1      42.401  21.342  26.615  1.00  0.00     0.054 A 
BRANCH  77  78
ATOM     78  S   UNL A   1      41.626  19.715  26.391  1.00  0.00     0.124 S 
ATOM     79  O   UNL A   1      41.932  19.055  27.657  1.00  0.00    -0.237 OA
ATOM     80  O   UNL A   1      40.223  20.058  26.180  1.00  0.00    -0.237 OA
ATOM     81  O   UNL A   1      42.308  19.169  25.219  1.00  0.00    -0.744 OA
ENDBRANCH  77  78
ENDBRANCH  49  72
BRANCH  61  82
ATOM     82  C   UNL A   1      49.603  27.112  26.066  1.00  0.00    -0.014 A 
ATOM     83  C   UNL A   1      50.527  26.494  26.927  1.00  0.00     0.010 A 
ATOM     84  C   UNL A   1      49.915  27.236  24.700  1.00  0.00     0.010 A 
ATOM     85  C   UNL A   1      51.751  26.033  26.435  1.00  0.00     0.020 A 
ATOM     86  C   UNL A   1      51.127  26.755  24.200  1.00  0.00     0.020 A 
ATOM     87  C   UNL A   1      52.044  26.167  25.075  1.00  0.00     0.054 A 
BRANCH  87  88
ATOM     88  S   UNL A   1      53.621  25.522  24.451  1.00  0.00     0.124 S 
ATOM     89  O   UNL A   1      53.562  25.889  23.039  1.00  0.00    -0.237 OA
ATOM     90  O   UNL A   1      54.605  26.249  25.248  1.00  0.00    -0.237 OA
ATOM     91  O   UNL A   1      53.542  24.089  24.726  1.00  0.00    -0.744 OA
ENDBRANCH  87  88
ENDBRANCH  61  82
ENDBRANCH  35  36
ENDBRANCH  27  30
ENDBRANCH  25  26
ENDBRANCH  24  25
ENDBRANCH  23  24
ENDBRANCH   3  23
TORSDOF 20
ENDMDL
