MODEL 1
REMARK VINA RESULT:     -10.8      0.000      0.000
REMARK SMILES CCOC(=O)NC(=O)COc1csc(C(=O)NCCCNC(=O)c2ccc(-c3c4nc(c(-c5ccc(S(=O)(=O)[O-])cc5)c5ccc([nH]5)c(-c5ccc(S(=O)(=O)[O-])cc5)c5nc(c(-c6ccc(S(=O)(=O)[O-])cc6)c6ccc3[nH]6)C=C5)C=C4)cc2)c1
REMARK SMILES IDX 18 1 17 2 15 3 16 4 14 6 11 7 12 8 84 9 13 10 10 11 9 12
REMARK SMILES IDX 7 13 4 14 5 15 6 16 8 18 3 19 2 20 1 21 19 22 20 23 21 24
REMARK SMILES IDX 22 25 23 27 24 28 25 29 83 30 26 31 82 32 27 33 28 34 29 35
REMARK SMILES IDX 76 36 30 37 81 38 75 39 77 40 31 41 80 42 74 43 73 44 32 46
REMARK SMILES IDX 62 47 43 48 61 49 44 50 47 51 60 52 78 53 45 54 46 55 59 57
REMARK SMILES IDX 79 58 48 59 33 60 34 61 42 62 35 63 41 64 36 65 37 66 38 67
REMARK SMILES IDX 39 68 40 69 63 70 64 71 72 72 65 73 71 74 66 75 67 76 68 77
REMARK SMILES IDX 69 78 70 79 49 80 50 81 58 82 51 83 57 84 52 85 53 86 54 87
REMARK SMILES IDX 55 88 56 89
REMARK H PARENT 17 5 6 17 21 26 77 45 47 56
REMARK Flexibility Score: inf
ROOT
ATOM      1  C   UNL A   1      33.151  29.442  26.253  1.00  0.00     0.118 C 
ENDROOT
BRANCH   1   2
ATOM      2  N   UNL A   1      33.662  29.409  24.896  1.00  0.00    -0.351 N 
ATOM      3  C   UNL A   1      33.237  28.736  23.774  1.00  0.00     0.261 C 
ATOM      4  O   UNL A   1      33.853  29.000  22.739  1.00  0.00    -0.268 OA
ATOM      5  H   UNL A   1      34.458  29.970  24.752  1.00  0.00     0.163 HD
BRANCH   3   6
ATOM      6  C   UNL A   1      32.110  27.815  23.828  1.00  0.00     0.096 A 
ATOM      7  C   UNL A   1      30.706  25.982  24.183  1.00  0.00     0.131 A 
ATOM      8  C   UNL A   1      29.778  26.956  23.915  1.00  0.00     0.112 A 
ATOM      9  C   UNL A   1      32.036  26.456  24.062  1.00  0.00     0.072 A 
ATOM     10  S   UNL A   1      30.529  28.450  23.549  1.00  0.00    -0.135 S 
BRANCH   7  11
ATOM     11  O   UNL A   1      30.445  24.744  24.655  1.00  0.00    -0.483 OA
BRANCH  11  12
ATOM     12  C   UNL A   1      31.535  24.085  25.268  1.00  0.00     0.329 C 
BRANCH  12  13
ATOM     13  C   UNL A   1      31.276  23.465  26.637  1.00  0.00     0.267 C 
ATOM     14  C   UNL A   1      33.435  22.131  26.856  1.00  0.00     0.413 C 
ATOM     15  O   UNL A   1      34.091  21.454  27.635  1.00  0.00    -0.224 OA
ATOM     16  N   UNL A   1      32.210  22.644  27.229  1.00  0.00    -0.258 N 
ATOM     17  H   UNL A   1      31.940  22.354  28.130  1.00  0.00     0.176 HD
ATOM     18  O   UNL A   1      30.217  23.673  27.240  1.00  0.00    -0.271 OA
BRANCH  14  19
ATOM     19  O   UNL A   1      33.808  22.436  25.593  1.00  0.00    -0.450 OA
BRANCH  19  20
ATOM     20  C   UNL A   1      35.085  23.071  25.432  1.00  0.00     0.231 C 
ATOM     21  C   UNL A   1      35.569  22.999  23.993  1.00  0.00     0.049 C 
ENDBRANCH  19  20
ENDBRANCH  14  19
ENDBRANCH  12  13
ENDBRANCH  11  12
ENDBRANCH   7  11
ENDBRANCH   3   6
ENDBRANCH   1   2
BRANCH   1  22
ATOM     22  C   UNL A   1      34.090  28.729  27.223  1.00  0.00     0.042 C 
BRANCH  22  23
ATOM     23  C   UNL A   1      35.312  29.566  27.589  1.00  0.00     0.118 C 
BRANCH  23  24
ATOM     24  N   UNL A   1      35.314  29.930  29.000  1.00  0.00    -0.352 N 
ATOM     25  C   UNL A   1      36.290  29.786  29.951  1.00  0.00     0.251 C 
ATOM     26  H   UNL A   1      34.480  30.344  29.322  1.00  0.00     0.163 HD
ATOM     27  O   UNL A   1      35.995  29.919  31.136  1.00  0.00    -0.269 OA
BRANCH  25  28
ATOM     28  C   UNL A   1      37.682  29.477  29.562  1.00  0.00     0.039 A 
ATOM     29  C   UNL A   1      38.573  29.034  30.542  1.00  0.00     0.014 A 
ATOM     30  C   UNL A   1      38.124  29.672  28.251  1.00  0.00     0.014 A 
ATOM     31  C   UNL A   1      39.894  28.745  30.196  1.00  0.00     0.010 A 
ATOM     32  C   UNL A   1      39.417  29.304  27.890  1.00  0.00     0.010 A 
ATOM     33  C   UNL A   1      40.320  28.852  28.862  1.00  0.00    -0.014 A 
BRANCH  33  34
ATOM     34  C   UNL A   1      41.708  28.500  28.469  1.00  0.00     0.031 A 
ATOM     35  C   UNL A   1      42.767  29.568  28.397  1.00  0.00     0.074 A 
ATOM     36  C   UNL A   1      41.998  27.231  28.125  1.00  0.00     0.049 A 
ATOM     37  N   UNL A   1      44.019  29.462  28.033  1.00  0.00    -0.248 NA
ATOM     38  C   UNL A   1      42.363  30.938  28.756  1.00  0.00     0.031 C 
ATOM     39  C   UNL A   1      41.046  26.117  28.115  1.00  0.00     0.029 A 
ATOM     40  N   UNL A   1      43.176  26.661  27.713  1.00  0.00    -0.354 N 
ATOM     41  C   UNL A   1      44.544  30.747  28.101  1.00  0.00     0.074 A 
ATOM     42  C   UNL A   1      43.464  31.626  28.488  1.00  0.00     0.031 C 
ATOM     43  C   UNL A   1      41.684  24.995  27.748  1.00  0.00     0.029 A 
ATOM     44  C   UNL A   1      43.075  25.315  27.450  1.00  0.00     0.049 A 
ATOM     45  H   UNL A   1      44.015  27.169  27.615  1.00  0.00     0.167 HD
ATOM     46  C   UNL A   1      45.816  31.157  27.878  1.00  0.00     0.031 A 
ATOM     47  C   UNL A   1      43.998  24.437  27.010  1.00  0.00     0.031 A 
ATOM     48  C   UNL A   1      46.888  30.274  27.499  1.00  0.00     0.049 A 
ATOM     49  C   UNL A   1      45.401  24.918  26.760  1.00  0.00     0.074 A 
ATOM     50  C   UNL A   1      48.224  30.579  27.306  1.00  0.00     0.029 A 
ATOM     51  N   UNL A   1      46.747  28.917  27.251  1.00  0.00    -0.354 N 
ATOM     52  N   UNL A   1      45.895  26.125  26.899  1.00  0.00    -0.248 NA
ATOM     53  C   UNL A   1      46.374  23.914  26.311  1.00  0.00     0.031 C 
ATOM     54  C   UNL A   1      48.879  29.419  26.879  1.00  0.00     0.029 A 
ATOM     55  C   UNL A   1      47.966  28.376  26.878  1.00  0.00     0.049 A 
ATOM     56  H   UNL A   1      45.905  28.413  27.328  1.00  0.00     0.167 HD
ATOM     57  C   UNL A   1      47.245  26.020  26.582  1.00  0.00     0.074 A 
ATOM     58  C   UNL A   1      47.491  24.629  26.263  1.00  0.00     0.031 C 
ATOM     59  C   UNL A   1      48.195  26.987  26.561  1.00  0.00     0.031 A 
BRANCH  46  60
ATOM     60  C   UNL A   1      46.116  32.627  28.027  1.00  0.00    -0.014 A 
ATOM     61  C   UNL A   1      46.575  33.160  29.246  1.00  0.00     0.010 A 
ATOM     62  C   UNL A   1      45.983  33.482  26.917  1.00  0.00     0.010 A 
ATOM     63  C   UNL A   1      46.854  34.524  29.363  1.00  0.00     0.020 A 
ATOM     64  C   UNL A   1      46.294  34.841  27.022  1.00  0.00     0.020 A 
ATOM     65  C   UNL A   1      46.712  35.357  28.250  1.00  0.00     0.054 A 
BRANCH  65  66
ATOM     66  S   UNL A   1      47.111  37.117  28.425  1.00  0.00     0.124 S 
ATOM     67  O   UNL A   1      46.286  37.500  29.569  1.00  0.00    -0.237 OA
ATOM     68  O   UNL A   1      48.551  37.094  28.670  1.00  0.00    -0.237 OA
ATOM     69  O   UNL A   1      46.708  37.694  27.146  1.00  0.00    -0.744 OA
ENDBRANCH  65  66
ENDBRANCH  46  60
BRANCH  47  70
ATOM     70  C   UNL A   1      43.621  23.013  26.789  1.00  0.00    -0.014 A 
ATOM     71  C   UNL A   1      43.884  22.383  25.561  1.00  0.00     0.010 A 
ATOM     72  C   UNL A   1      43.012  22.272  27.819  1.00  0.00     0.010 A 
ATOM     73  C   UNL A   1      43.527  21.046  25.358  1.00  0.00     0.020 A 
ATOM     74  C   UNL A   1      42.682  20.927  27.632  1.00  0.00     0.020 A 
ATOM     75  C   UNL A   1      42.932  20.326  26.398  1.00  0.00     0.054 A 
BRANCH  75  76
ATOM     76  S   UNL A   1      42.525  18.578  26.129  1.00  0.00     0.124 S 
ATOM     77  O   UNL A   1      42.806  17.996  27.437  1.00  0.00    -0.237 OA
ATOM     78  O   UNL A   1      41.115  18.638  25.752  1.00  0.00    -0.237 OA
ATOM     79  O   UNL A   1      43.431  18.177  25.056  1.00  0.00    -0.744 OA
ENDBRANCH  75  76
ENDBRANCH  47  70
BRANCH  59  80
ATOM     80  C   UNL A   1      49.602  26.570  26.219  1.00  0.00    -0.014 A 
ATOM     81  C   UNL A   1      50.124  26.736  24.925  1.00  0.00     0.010 A 
ATOM     82  C   UNL A   1      50.430  26.049  27.230  1.00  0.00     0.010 A 
ATOM     83  C   UNL A   1      51.437  26.351  24.638  1.00  0.00     0.020 A 
ATOM     84  C   UNL A   1      51.754  25.695  26.956  1.00  0.00     0.020 A 
ATOM     85  C   UNL A   1      52.244  25.833  25.656  1.00  0.00     0.054 A 
BRANCH  85  86
ATOM     86  S   UNL A   1      53.954  25.376  25.267  1.00  0.00     0.124 S 
ATOM     87  O   UNL A   1      53.984  23.965  25.641  1.00  0.00    -0.237 OA
ATOM     88  O   UNL A   1      54.038  25.648  23.834  1.00  0.00    -0.237 OA
ATOM     89  O   UNL A   1      54.751  26.262  26.112  1.00  0.00    -0.744 OA
ENDBRANCH  85  86
ENDBRANCH  59  80
ENDBRANCH  33  34
ENDBRANCH  25  28
ENDBRANCH  23  24
ENDBRANCH  22  23
ENDBRANCH   1  22
TORSDOF 18
ENDMDL
MODEL 2
REMARK VINA RESULT:     -10.7      2.362      9.086
REMARK SMILES CCOC(=O)NC(=O)COc1csc(C(=O)NCCCNC(=O)c2ccc(-c3c4nc(c(-c5ccc(S(=O)(=O)[O-])cc5)c5ccc([nH]5)c(-c5ccc(S(=O)(=O)[O-])cc5)c5nc(c(-c6ccc(S(=O)(=O)[O-])cc6)c6ccc3[nH]6)C=C5)C=C4)cc2)c1
REMARK SMILES IDX 18 1 17 2 15 3 16 4 14 6 11 7 12 8 84 9 13 10 10 11 9 12
REMARK SMILES IDX 7 13 4 14 5 15 6 16 8 18 3 19 2 20 1 21 19 22 20 23 21 24
REMARK SMILES IDX 22 25 23 27 24 28 25 29 83 30 26 31 82 32 27 33 28 34 29 35
REMARK SMILES IDX 76 36 30 37 81 38 75 39 77 40 31 41 80 42 74 43 73 44 32 46
REMARK SMILES IDX 62 47 43 48 61 49 44 50 47 51 60 52 78 53 45 54 46 55 59 57
REMARK SMILES IDX 79 58 48 59 33 60 34 61 42 62 35 63 41 64 36 65 37 66 38 67
REMARK SMILES IDX 39 68 40 69 63 70 64 71 72 72 65 73 71 74 66 75 67 76 68 77
REMARK SMILES IDX 69 78 70 79 49 80 50 81 58 82 51 83 57 84 52 85 53 86 54 87
REMARK SMILES IDX 55 88 56 89
REMARK H PARENT 17 5 6 17 21 26 77 45 47 56
REMARK Flexibility Score: inf
ROOT
ATOM      1  C   UNL A   1      36.826  20.688  25.160  1.00  0.00     0.118 C 
ENDROOT
BRANCH   1   2
ATOM      2  N   UNL A   1      35.679  19.821  24.978  1.00  0.00    -0.351 N 
ATOM      3  C   UNL A   1      34.329  20.086  24.923  1.00  0.00     0.261 C 
ATOM      4  O   UNL A   1      33.614  19.116  24.664  1.00  0.00    -0.268 OA
ATOM      5  H   UNL A   1      35.906  18.868  24.876  1.00  0.00     0.163 HD
BRANCH   3   6
ATOM      6  C   UNL A   1      33.818  21.436  25.119  1.00  0.00     0.096 A 
ATOM      7  C   UNL A   1      32.815  23.530  24.864  1.00  0.00     0.131 A 
ATOM      8  C   UNL A   1      32.926  23.473  26.231  1.00  0.00     0.112 A 
ATOM      9  C   UNL A   1      33.389  22.401  24.229  1.00  0.00     0.072 A 
ATOM     10  S   UNL A   1      33.698  22.031  26.735  1.00  0.00    -0.135 S 
BRANCH   7  11
ATOM     11  O   UNL A   1      32.122  24.451  24.161  1.00  0.00    -0.483 OA
BRANCH  11  12
ATOM     12  C   UNL A   1      32.902  25.453  23.541  1.00  0.00     0.329 C 
BRANCH  12  13
ATOM     13  C   UNL A   1      32.596  25.747  22.075  1.00  0.00     0.267 C 
ATOM     14  C   UNL A   1      30.833  27.553  22.418  1.00  0.00     0.413 C 
ATOM     15  O   UNL A   1      30.153  28.380  21.826  1.00  0.00    -0.224 OA
ATOM     16  N   UNL A   1      31.681  26.715  21.724  1.00  0.00    -0.258 N 
ATOM     17  H   UNL A   1      31.618  26.838  20.749  1.00  0.00     0.176 HD
ATOM     18  O   UNL A   1      33.151  25.114  21.170  1.00  0.00    -0.271 OA
BRANCH  14  19
ATOM     19  O   UNL A   1      30.826  27.361  23.755  1.00  0.00    -0.450 OA
BRANCH  19  20
ATOM     20  C   UNL A   1      31.171  28.490  24.572  1.00  0.00     0.231 C 
ATOM     21  C   UNL A   1      31.615  28.063  25.960  1.00  0.00     0.049 C 
ENDBRANCH  19  20
ENDBRANCH  14  19
ENDBRANCH  12  13
ENDBRANCH  11  12
ENDBRANCH   7  11
ENDBRANCH   3   6
ENDBRANCH   1   2
BRANCH   1  22
ATOM     22  C   UNL A   1      38.136  19.907  25.092  1.00  0.00     0.042 C 
BRANCH  22  23
ATOM     23  C   UNL A   1      39.225  20.495  25.985  1.00  0.00     0.118 C 
BRANCH  23  24
ATOM     24  N   UNL A   1      40.354  19.585  26.129  1.00  0.00    -0.352 N 
ATOM     25  C   UNL A   1      41.697  19.846  26.216  1.00  0.00     0.251 C 
ATOM     26  H   UNL A   1      40.114  18.630  26.170  1.00  0.00     0.163 HD
ATOM     27  O   UNL A   1      42.496  18.924  26.070  1.00  0.00    -0.269 OA
BRANCH  25  28
ATOM     28  C   UNL A   1      42.183  21.216  26.480  1.00  0.00     0.039 A 
ATOM     29  C   UNL A   1      42.451  21.593  27.798  1.00  0.00     0.014 A 
ATOM     30  C   UNL A   1      42.324  22.143  25.444  1.00  0.00     0.014 A 
ATOM     31  C   UNL A   1      42.902  22.886  28.069  1.00  0.00     0.010 A 
ATOM     32  C   UNL A   1      42.852  23.403  25.705  1.00  0.00     0.010 A 
ATOM     33  C   UNL A   1      43.133  23.794  27.022  1.00  0.00    -0.014 A 
BRANCH  33  34
ATOM     34  C   UNL A   1      43.659  25.156  27.289  1.00  0.00     0.031 A 
ATOM     35  C   UNL A   1      45.112  25.467  27.043  1.00  0.00     0.074 A 
ATOM     36  C   UNL A   1      42.841  26.094  27.803  1.00  0.00     0.049 A 
ATOM     37  N   UNL A   1      45.762  26.582  27.257  1.00  0.00    -0.248 NA
ATOM     38  C   UNL A   1      45.949  24.378  26.511  1.00  0.00     0.031 C 
ATOM     39  C   UNL A   1      41.425  25.898  28.124  1.00  0.00     0.029 A 
ATOM     40  N   UNL A   1      43.082  27.399  28.153  1.00  0.00    -0.354 N 
ATOM     41  C   UNL A   1      47.082  26.323  26.905  1.00  0.00     0.074 A 
ATOM     42  C   UNL A   1      47.152  24.933  26.515  1.00  0.00     0.031 C 
ATOM     43  C   UNL A   1      40.916  27.049  28.592  1.00  0.00     0.029 A 
ATOM     44  C   UNL A   1      41.977  28.048  28.651  1.00  0.00     0.049 A 
ATOM     45  H   UNL A   1      43.962  27.829  28.055  1.00  0.00     0.167 HD
ATOM     46  C   UNL A   1      48.138  27.173  26.891  1.00  0.00     0.031 A 
ATOM     47  C   UNL A   1      41.835  29.306  29.113  1.00  0.00     0.031 A 
ATOM     48  C   UNL A   1      48.057  28.558  27.274  1.00  0.00     0.049 A 
ATOM     49  C   UNL A   1      43.024  30.227  29.096  1.00  0.00     0.074 A 
ATOM     50  C   UNL A   1      49.054  29.517  27.240  1.00  0.00     0.029 A 
ATOM     51  N   UNL A   1      46.920  29.180  27.765  1.00  0.00    -0.354 N 
ATOM     52  N   UNL A   1      44.248  29.985  28.692  1.00  0.00    -0.248 NA
ATOM     53  C   UNL A   1      42.807  31.596  29.581  1.00  0.00     0.031 C 
ATOM     54  C   UNL A   1      48.537  30.703  27.771  1.00  0.00     0.029 A 
ATOM     55  C   UNL A   1      47.197  30.503  28.066  1.00  0.00     0.049 A 
ATOM     56  H   UNL A   1      46.044  28.746  27.883  1.00  0.00     0.167 HD
ATOM     57  C   UNL A   1      44.941  31.180  28.848  1.00  0.00     0.074 A 
ATOM     58  C   UNL A   1      43.994  32.147  29.365  1.00  0.00     0.031 C 
ATOM     59  C   UNL A   1      46.243  31.453  28.583  1.00  0.00     0.031 A 
BRANCH  46  60
ATOM     60  C   UNL A   1      49.474  26.625  26.457  1.00  0.00    -0.014 A 
ATOM     61  C   UNL A   1      49.917  26.744  25.126  1.00  0.00     0.010 A 
ATOM     62  C   UNL A   1      50.321  26.022  27.404  1.00  0.00     0.010 A 
ATOM     63  C   UNL A   1      51.161  26.236  24.744  1.00  0.00     0.020 A 
ATOM     64  C   UNL A   1      51.581  25.542  27.033  1.00  0.00     0.020 A 
ATOM     65  C   UNL A   1      51.986  25.638  25.700  1.00  0.00     0.054 A 
BRANCH  65  66
ATOM     66  S   UNL A   1      53.608  25.014  25.181  1.00  0.00     0.124 S 
ATOM     67  O   UNL A   1      53.702  25.524  23.815  1.00  0.00    -0.237 OA
ATOM     68  O   UNL A   1      54.512  25.635  26.146  1.00  0.00    -0.237 OA
ATOM     69  O   UNL A   1      53.477  23.565  25.296  1.00  0.00    -0.744 OA
ENDBRANCH  65  66
ENDBRANCH  46  60
BRANCH  47  70
ATOM     70  C   UNL A   1      40.512  29.767  29.619  1.00  0.00    -0.014 A 
ATOM     71  C   UNL A   1      40.252  29.827  30.999  1.00  0.00     0.010 A 
ATOM     72  C   UNL A   1      39.507  30.166  28.718  1.00  0.00     0.010 A 
ATOM     73  C   UNL A   1      39.007  30.258  31.468  1.00  0.00     0.020 A 
ATOM     74  C   UNL A   1      38.273  30.628  29.183  1.00  0.00     0.020 A 
ATOM     75  C   UNL A   1      38.027  30.660  30.556  1.00  0.00     0.054 A 
BRANCH  75  76
ATOM     76  S   UNL A   1      36.438  31.266  31.190  1.00  0.00     0.124 S 
ATOM     77  O   UNL A   1      36.815  32.544  31.783  1.00  0.00    -0.237 OA
ATOM     78  O   UNL A   1      35.626  31.344  29.978  1.00  0.00    -0.237 OA
ATOM     79  O   UNL A   1      36.031  30.230  32.136  1.00  0.00    -0.744 OA
ENDBRANCH  75  76
ENDBRANCH  47  70
BRANCH  59  80
ATOM     80  C   UNL A   1      46.715  32.866  28.808  1.00  0.00    -0.014 A 
ATOM     81  C   UNL A   1      46.613  33.845  27.804  1.00  0.00     0.010 A 
ATOM     82  C   UNL A   1      47.223  33.230  30.069  1.00  0.00     0.010 A 
ATOM     83  C   UNL A   1      47.048  35.151  28.043  1.00  0.00     0.020 A 
ATOM     84  C   UNL A   1      47.627  34.543  30.324  1.00  0.00     0.020 A 
ATOM     85  C   UNL A   1      47.552  35.492  29.303  1.00  0.00     0.054 A 
BRANCH  85  86
ATOM     86  S   UNL A   1      48.074  37.202  29.599  1.00  0.00     0.124 S 
ATOM     87  O   UNL A   1      48.893  37.066  30.800  1.00  0.00    -0.237 OA
ATOM     88  O   UNL A   1      48.802  37.530  28.376  1.00  0.00    -0.237 OA
ATOM     89  O   UNL A   1      46.816  37.923  29.782  1.00  0.00    -0.744 OA
ENDBRANCH  85  86
ENDBRANCH  59  80
ENDBRANCH  33  34
ENDBRANCH  25  28
ENDBRANCH  23  24
ENDBRANCH  22  23
ENDBRANCH   1  22
TORSDOF 18
ENDMDL
MODEL 3
REMARK VINA RESULT:     -10.6      2.745      8.986
REMARK SMILES CCOC(=O)NC(=O)COc1csc(C(=O)NCCCNC(=O)c2ccc(-c3c4nc(c(-c5ccc(S(=O)(=O)[O-])cc5)c5ccc([nH]5)c(-c5ccc(S(=O)(=O)[O-])cc5)c5nc(c(-c6ccc(S(=O)(=O)[O-])cc6)c6ccc3[nH]6)C=C5)C=C4)cc2)c1
REMARK SMILES IDX 18 1 17 2 15 3 16 4 14 6 11 7 12 8 84 9 13 10 10 11 9 12
REMARK SMILES IDX 7 13 4 14 5 15 6 16 8 18 3 19 2 20 1 21 19 22 20 23 21 24
REMARK SMILES IDX 22 25 23 27 24 28 25 29 83 30 26 31 82 32 27 33 28 34 29 35
REMARK SMILES IDX 76 36 30 37 81 38 75 39 77 40 31 41 80 42 74 43 73 44 32 46
REMARK SMILES IDX 62 47 43 48 61 49 44 50 47 51 60 52 78 53 45 54 46 55 59 57
REMARK SMILES IDX 79 58 48 59 33 60 34 61 42 62 35 63 41 64 36 65 37 66 38 67
REMARK SMILES IDX 39 68 40 69 63 70 64 71 72 72 65 73 71 74 66 75 67 76 68 77
REMARK SMILES IDX 69 78 70 79 49 80 50 81 58 82 51 83 57 84 52 85 53 86 54 87
REMARK SMILES IDX 55 88 56 89
REMARK H PARENT 17 5 6 17 21 26 77 45 47 56
REMARK Flexibility Score: inf
ROOT
ATOM      1  C   UNL A   1      37.508  20.385  24.671  1.00  0.00     0.118 C 
ENDROOT
BRANCH   1   2
ATOM      2  N   UNL A   1      37.752  21.712  25.201  1.00  0.00    -0.351 N 
ATOM      3  C   UNL A   1      36.895  22.732  25.546  1.00  0.00     0.261 C 
ATOM      4  O   UNL A   1      37.432  23.717  26.058  1.00  0.00    -0.268 OA
ATOM      5  H   UNL A   1      38.704  21.922  25.338  1.00  0.00     0.163 HD
BRANCH   3   6
ATOM      6  C   UNL A   1      35.458  22.609  25.348  1.00  0.00     0.096 A 
ATOM      7  C   UNL A   1      33.250  21.855  25.231  1.00  0.00     0.131 A 
ATOM      8  C   UNL A   1      33.053  23.210  25.141  1.00  0.00     0.112 A 
ATOM      9  C   UNL A   1      34.624  21.511  25.275  1.00  0.00     0.072 A 
ATOM     10  S   UNL A   1      34.541  24.058  25.144  1.00  0.00    -0.135 S 
BRANCH   7  11
ATOM     11  O   UNL A   1      32.290  20.923  25.409  1.00  0.00    -0.483 OA
BRANCH  11  12
ATOM     12  C   UNL A   1      32.626  19.616  24.989  1.00  0.00     0.329 C 
BRANCH  12  13
ATOM     13  C   UNL A   1      32.521  19.331  23.494  1.00  0.00     0.267 C 
ATOM     14  C   UNL A   1      33.844  17.155  23.437  1.00  0.00     0.413 C 
ATOM     15  O   UNL A   1      34.162  16.223  22.712  1.00  0.00    -0.224 OA
ATOM     16  N   UNL A   1      33.083  18.197  22.950  1.00  0.00    -0.258 N 
ATOM     17  H   UNL A   1      32.898  18.110  21.987  1.00  0.00     0.176 HD
ATOM     18  O   UNL A   1      31.943  20.116  22.735  1.00  0.00    -0.271 OA
BRANCH  14  19
ATOM     19  O   UNL A   1      34.192  17.276  24.738  1.00  0.00    -0.450 OA
BRANCH  19  20
ATOM     20  C   UNL A   1      33.943  16.142  25.581  1.00  0.00     0.231 C 
ATOM     21  C   UNL A   1      32.501  15.675  25.482  1.00  0.00     0.049 C 
ENDBRANCH  19  20
ENDBRANCH  14  19
ENDBRANCH  12  13
ENDBRANCH  11  12
ENDBRANCH   7  11
ENDBRANCH   3   6
ENDBRANCH   1   2
BRANCH   1  22
ATOM     22  C   UNL A   1      38.576  19.394  25.127  1.00  0.00     0.042 C 
BRANCH  22  23
ATOM     23  C   UNL A   1      39.615  20.023  26.050  1.00  0.00     0.118 C 
BRANCH  23  24
ATOM     24  N   UNL A   1      40.775  19.158  26.225  1.00  0.00    -0.352 N 
ATOM     25  C   UNL A   1      42.109  19.467  26.288  1.00  0.00     0.251 C 
ATOM     26  H   UNL A   1      40.567  18.200  26.312  1.00  0.00     0.163 HD
ATOM     27  O   UNL A   1      42.937  18.567  26.178  1.00  0.00    -0.269 OA
BRANCH  25  28
ATOM     28  C   UNL A   1      42.550  20.863  26.486  1.00  0.00     0.039 A 
ATOM     29  C   UNL A   1      42.691  21.348  27.789  1.00  0.00     0.014 A 
ATOM     30  C   UNL A   1      42.773  21.710  25.396  1.00  0.00     0.014 A 
ATOM     31  C   UNL A   1      43.098  22.667  27.996  1.00  0.00     0.010 A 
ATOM     32  C   UNL A   1      43.259  22.997  25.604  1.00  0.00     0.010 A 
ATOM     33  C   UNL A   1      43.412  23.495  26.905  1.00  0.00    -0.014 A 
BRANCH  33  34
ATOM     34  C   UNL A   1      43.894  24.884  27.110  1.00  0.00     0.031 A 
ATOM     35  C   UNL A   1      45.344  25.222  26.884  1.00  0.00     0.074 A 
ATOM     36  C   UNL A   1      43.037  25.825  27.550  1.00  0.00     0.049 A 
ATOM     37  N   UNL A   1      45.958  26.366  27.053  1.00  0.00    -0.248 NA
ATOM     38  C   UNL A   1      46.225  24.131  26.436  1.00  0.00     0.031 C 
ATOM     39  C   UNL A   1      41.618  25.607  27.845  1.00  0.00     0.029 A 
ATOM     40  N   UNL A   1      43.233  27.153  27.833  1.00  0.00    -0.354 N 
ATOM     41  C   UNL A   1      47.294  26.126  26.750  1.00  0.00     0.074 A 
ATOM     42  C   UNL A   1      47.412  24.720  26.440  1.00  0.00     0.031 C 
ATOM     43  C   UNL A   1      41.066  26.766  28.235  1.00  0.00     0.029 A 
ATOM     44  C   UNL A   1      42.098  27.797  28.266  1.00  0.00     0.049 A 
ATOM     45  H   UNL A   1      44.103  27.602  27.734  1.00  0.00     0.167 HD
ATOM     46  C   UNL A   1      48.325  27.004  26.717  1.00  0.00     0.031 A 
ATOM     47  C   UNL A   1      41.908  29.074  28.653  1.00  0.00     0.031 A 
ATOM     48  C   UNL A   1      48.197  28.405  27.020  1.00  0.00     0.049 A 
ATOM     49  C   UNL A   1      43.072  30.026  28.616  1.00  0.00     0.074 A 
ATOM     50  C   UNL A   1      49.168  29.389  26.959  1.00  0.00     0.029 A 
ATOM     51  N   UNL A   1      47.030  29.020  27.447  1.00  0.00    -0.354 N 
ATOM     52  N   UNL A   1      44.313  29.797  28.258  1.00  0.00    -0.248 NA
ATOM     53  C   UNL A   1      42.805  31.413  29.019  1.00  0.00     0.031 C 
ATOM     54  C   UNL A   1      48.604  30.586  27.409  1.00  0.00     0.029 A 
ATOM     55  C   UNL A   1      47.263  30.364  27.680  1.00  0.00     0.049 A 
ATOM     56  H   UNL A   1      46.164  28.568  27.566  1.00  0.00     0.167 HD
ATOM     57  C   UNL A   1      44.969  31.019  28.365  1.00  0.00     0.074 A 
ATOM     58  C   UNL A   1      43.982  31.985  28.803  1.00  0.00     0.031 C 
ATOM     59  C   UNL A   1      46.269  31.314  28.119  1.00  0.00     0.031 A 
BRANCH  46  60
ATOM     60  C   UNL A   1      49.687  26.471  26.348  1.00  0.00    -0.014 A 
ATOM     61  C   UNL A   1      50.172  26.551  25.029  1.00  0.00     0.010 A 
ATOM     62  C   UNL A   1      50.516  25.924  27.346  1.00  0.00     0.010 A 
ATOM     63  C   UNL A   1      51.439  26.058  24.708  1.00  0.00     0.020 A 
ATOM     64  C   UNL A   1      51.797  25.460  27.034  1.00  0.00     0.020 A 
ATOM     65  C   UNL A   1      52.245  25.515  25.713  1.00  0.00     0.054 A 
BRANCH  65  66
ATOM     66  S   UNL A   1      53.897  24.911  25.272  1.00  0.00     0.124 S 
ATOM     67  O   UNL A   1      54.245  25.781  24.151  1.00  0.00    -0.237 OA
ATOM     68  O   UNL A   1      54.656  25.135  26.500  1.00  0.00    -0.237 OA
ATOM     69  O   UNL A   1      53.674  23.510  24.927  1.00  0.00    -0.744 OA
ENDBRANCH  65  66
ENDBRANCH  46  60
BRANCH  47  70
ATOM     70  C   UNL A   1      40.560  29.523  29.099  1.00  0.00    -0.014 A 
ATOM     71  C   UNL A   1      39.516  29.690  28.173  1.00  0.00     0.010 A 
ATOM     72  C   UNL A   1      40.308  29.768  30.461  1.00  0.00     0.010 A 
ATOM     73  C   UNL A   1      38.253  30.115  28.597  1.00  0.00     0.020 A 
ATOM     74  C   UNL A   1      39.039  30.161  30.894  1.00  0.00     0.020 A 
ATOM     75  C   UNL A   1      38.022  30.343  29.956  1.00  0.00     0.054 A 
BRANCH  75  76
ATOM     76  S   UNL A   1      36.360  30.841  30.489  1.00  0.00     0.124 S 
ATOM     77  O   UNL A   1      35.566  30.578  29.294  1.00  0.00    -0.237 OA
ATOM     78  O   UNL A   1      36.114  29.952  31.622  1.00  0.00    -0.237 OA
ATOM     79  O   UNL A   1      36.522  32.250  30.838  1.00  0.00    -0.744 OA
ENDBRANCH  75  76
ENDBRANCH  47  70
BRANCH  59  80
ATOM     80  C   UNL A   1      46.696  32.750  28.278  1.00  0.00    -0.014 A 
ATOM     81  C   UNL A   1      46.600  33.668  27.217  1.00  0.00     0.010 A 
ATOM     82  C   UNL A   1      47.155  33.198  29.530  1.00  0.00     0.010 A 
ATOM     83  C   UNL A   1      46.992  34.998  27.395  1.00  0.00     0.020 A 
ATOM     84  C   UNL A   1      47.516  34.534  29.723  1.00  0.00     0.020 A 
ATOM     85  C   UNL A   1      47.447  35.422  28.648  1.00  0.00     0.054 A 
BRANCH  85  86
ATOM     86  S   UNL A   1      47.915  37.160  28.862  1.00  0.00     0.124 S 
ATOM     87  O   UNL A   1      49.163  37.234  28.108  1.00  0.00    -0.237 OA
ATOM     88  O   UNL A   1      46.782  37.870  28.274  1.00  0.00    -0.237 OA
ATOM     89  O   UNL A   1      48.053  37.307  30.309  1.00  0.00    -0.744 OA
ENDBRANCH  85  86
ENDBRANCH  59  80
ENDBRANCH  33  34
ENDBRANCH  25  28
ENDBRANCH  23  24
ENDBRANCH  22  23
ENDBRANCH   1  22
TORSDOF 18
ENDMDL
