MODEL 1
REMARK VINA RESULT:     -11.8      0.000      0.000
REMARK SMILES O=C(CSc1ccc(NC(=O)c2cccc3ccccc23)cc1)NCCCNC(=O)c1ccc(-c2c3nc(c(-c4ccc(S(=O)(=O)[O-])cc4)c4ccc([nH]4)c(-c4ccc(S(=O)(=O)[O-])cc4)c4nc(c(-c5ccc(S(=O)(=O)[O-])cc5)c5ccc2[nH]5)C=C4)C=C3)cc1
REMARK SMILES IDX 25 1 24 2 1 3 2 4 3 6 4 7 5 8 6 9 23 10 7 11 22 12 8 13 9 14
REMARK SMILES IDX 10 15 11 17 12 18 13 19 21 20 14 21 16 22 20 23 15 24 17 25
REMARK SMILES IDX 19 26 18 27 26 28 27 29 28 30 29 31 30 33 31 34 32 35 90 36
REMARK SMILES IDX 33 37 89 38 34 39 35 40 36 41 83 42 37 43 88 44 82 45 84 46
REMARK SMILES IDX 38 47 87 48 81 49 80 50 39 52 69 53 50 54 68 55 51 56 54 57
REMARK SMILES IDX 67 58 85 59 52 60 53 61 66 63 86 64 55 65 40 66 41 67 49 68
REMARK SMILES IDX 42 69 48 70 43 71 44 72 45 73 46 74 47 75 70 76 71 77 79 78
REMARK SMILES IDX 72 79 78 80 73 81 74 82 75 83 76 84 77 85 56 86 57 87 65 88
REMARK SMILES IDX 58 89 64 90 59 91 60 92 61 93 62 94 63 95
REMARK H PARENT 24 5 9 16 28 32 84 51 54 62
REMARK Flexibility Score: inf
ROOT
ATOM      1  C   UNL A   1      40.511  21.864  27.553  1.00  0.00     0.117 C 
ENDROOT
BRANCH   1   2
ATOM      2  N   UNL A   1      39.425  22.616  26.958  1.00  0.00    -0.355 N 
ATOM      3  O   UNL A   1      38.752  21.011  25.457  1.00  0.00    -0.274 OA
ATOM      4  C   UNL A   1      38.604  22.119  25.967  1.00  0.00     0.230 C 
ATOM      5  H   UNL A   1      39.264  23.533  27.278  1.00  0.00     0.163 HD
BRANCH   4   6
ATOM      6  C   UNL A   1      37.543  23.092  25.471  1.00  0.00     0.174 C 
BRANCH   6   7
ATOM      7  S   UNL A   1      36.481  22.367  24.166  1.00  0.00    -0.116 SA
BRANCH   7   8
ATOM      8  C   UNL A   1      34.918  23.060  24.658  1.00  0.00     0.008 A 
ATOM      9  C   UNL A   1      33.864  23.141  23.747  1.00  0.00     0.017 A 
ATOM     10  C   UNL A   1      34.727  23.507  25.965  1.00  0.00     0.017 A 
ATOM     11  C   UNL A   1      32.603  23.584  24.160  1.00  0.00     0.027 A 
ATOM     12  C   UNL A   1      33.462  23.925  26.381  1.00  0.00     0.027 A 
ATOM     13  C   UNL A   1      32.375  23.890  25.498  1.00  0.00     0.041 A 
BRANCH  13  14
ATOM     14  N   UNL A   1      31.112  24.105  26.064  1.00  0.00    -0.322 N 
ATOM     15  C   UNL A   1      30.246  25.170  26.091  1.00  0.00     0.256 C 
ATOM     16  H   UNL A   1      30.770  23.319  26.550  1.00  0.00     0.170 HD
ATOM     17  O   UNL A   1      29.214  25.050  26.758  1.00  0.00    -0.269 OA
BRANCH  15  18
ATOM     18  C   UNL A   1      30.446  26.459  25.384  1.00  0.00     0.048 A 
ATOM     19  C   UNL A   1      29.761  26.540  24.157  1.00  0.00     0.014 A 
ATOM     20  C   UNL A   1      31.326  27.504  25.795  1.00  0.00    -0.006 A 
ATOM     21  C   UNL A   1      29.935  27.631  23.318  1.00  0.00     0.001 A 
ATOM     22  C   UNL A   1      31.480  28.614  24.919  1.00  0.00    -0.018 A 
ATOM     23  C   UNL A   1      32.050  27.548  27.014  1.00  0.00     0.009 A 
ATOM     24  C   UNL A   1      30.803  28.651  23.691  1.00  0.00     0.009 A 
ATOM     25  C   UNL A   1      32.302  29.695  25.280  1.00  0.00     0.009 A 
ATOM     26  C   UNL A   1      32.785  28.674  27.399  1.00  0.00     0.001 A 
ATOM     27  C   UNL A   1      32.921  29.742  26.525  1.00  0.00     0.001 A 
ENDBRANCH  15  18
ENDBRANCH  13  14
ENDBRANCH   7   8
ENDBRANCH   6   7
ENDBRANCH   4   6
ENDBRANCH   1   2
BRANCH   1  28
ATOM     28  C   UNL A   1      41.789  21.932  26.725  1.00  0.00     0.042 C 
BRANCH  28  29
ATOM     29  C   UNL A   1      42.657  23.161  26.985  1.00  0.00     0.118 C 
BRANCH  29  30
ATOM     30  N   UNL A   1      42.698  24.087  25.862  1.00  0.00    -0.352 N 
ATOM     31  C   UNL A   1      42.493  25.448  25.827  1.00  0.00     0.251 C 
ATOM     32  H   UNL A   1      42.905  23.676  24.991  1.00  0.00     0.163 HD
ATOM     33  O   UNL A   1      42.441  26.020  24.744  1.00  0.00    -0.269 OA
BRANCH  31  34
ATOM     34  C   UNL A   1      42.305  26.215  27.080  1.00  0.00     0.039 A 
ATOM     35  C   UNL A   1      43.192  27.255  27.371  1.00  0.00     0.014 A 
ATOM     36  C   UNL A   1      41.272  25.913  27.970  1.00  0.00     0.014 A 
ATOM     37  C   UNL A   1      42.995  28.041  28.510  1.00  0.00     0.010 A 
ATOM     38  C   UNL A   1      41.031  26.745  29.064  1.00  0.00     0.010 A 
ATOM     39  C   UNL A   1      41.886  27.822  29.343  1.00  0.00    -0.014 A 
BRANCH  39  40
ATOM     40  C   UNL A   1      41.588  28.718  30.494  1.00  0.00     0.031 A 
ATOM     41  C   UNL A   1      42.378  28.607  31.770  1.00  0.00     0.074 A 
ATOM     42  C   UNL A   1      40.556  29.583  30.417  1.00  0.00     0.049 A 
ATOM     43  N   UNL A   1      42.208  29.240  32.903  1.00  0.00    -0.248 NA
ATOM     44  C   UNL A   1      43.490  27.643  31.783  1.00  0.00     0.031 C 
ATOM     45  C   UNL A   1      39.692  29.769  29.248  1.00  0.00     0.029 A 
ATOM     46  N   UNL A   1      40.049  30.461  31.343  1.00  0.00    -0.354 N 
ATOM     47  C   UNL A   1      43.177  28.742  33.766  1.00  0.00     0.074 A 
ATOM     48  C   UNL A   1      43.899  27.720  33.042  1.00  0.00     0.031 C 
ATOM     49  C   UNL A   1      38.779  30.717  29.521  1.00  0.00     0.029 A 
ATOM     50  C   UNL A   1      38.957  31.169  30.896  1.00  0.00     0.049 A 
ATOM     51  H   UNL A   1      40.432  30.573  32.244  1.00  0.00     0.167 HD
ATOM     52  C   UNL A   1      43.450  29.111  35.041  1.00  0.00     0.031 A 
ATOM     53  C   UNL A   1      38.174  32.069  31.524  1.00  0.00     0.031 A 
ATOM     54  C   UNL A   1      42.730  30.130  35.758  1.00  0.00     0.049 A 
ATOM     55  C   UNL A   1      38.474  32.436  32.952  1.00  0.00     0.074 A 
ATOM     56  C   UNL A   1      42.965  30.610  37.036  1.00  0.00     0.029 A 
ATOM     57  N   UNL A   1      41.631  30.821  35.269  1.00  0.00    -0.354 N 
ATOM     58  N   UNL A   1      39.435  31.999  33.730  1.00  0.00    -0.248 NA
ATOM     59  C   UNL A   1      37.592  33.427  33.585  1.00  0.00     0.031 C 
ATOM     60  C   UNL A   1      41.971  31.544  37.342  1.00  0.00     0.029 A 
ATOM     61  C   UNL A   1      41.160  31.701  36.230  1.00  0.00     0.049 A 
ATOM     62  H   UNL A   1      41.244  30.704  34.372  1.00  0.00     0.167 HD
ATOM     63  C   UNL A   1      39.291  32.683  34.932  1.00  0.00     0.074 A 
ATOM     64  C   UNL A   1      38.159  33.573  34.775  1.00  0.00     0.031 C 
ATOM     65  C   UNL A   1      40.034  32.586  36.062  1.00  0.00     0.031 A 
BRANCH  52  66
ATOM     66  C   UNL A   1      44.572  28.397  35.751  1.00  0.00    -0.014 A 
ATOM     67  C   UNL A   1      45.844  28.984  35.881  1.00  0.00     0.010 A 
ATOM     68  C   UNL A   1      44.338  27.142  36.342  1.00  0.00     0.010 A 
ATOM     69  C   UNL A   1      46.871  28.312  36.549  1.00  0.00     0.020 A 
ATOM     70  C   UNL A   1      45.352  26.479  37.039  1.00  0.00     0.020 A 
ATOM     71  C   UNL A   1      46.619  27.062  37.123  1.00  0.00     0.054 A 
BRANCH  71  72
ATOM     72  S   UNL A   1      47.965  26.222  38.001  1.00  0.00     0.124 S 
ATOM     73  O   UNL A   1      48.045  24.951  37.283  1.00  0.00    -0.237 OA
ATOM     74  O   UNL A   1      49.092  27.129  37.799  1.00  0.00    -0.237 OA
ATOM     75  O   UNL A   1      47.480  26.130  39.375  1.00  0.00    -0.744 OA
ENDBRANCH  71  72
ENDBRANCH  52  66
BRANCH  53  76
ATOM     76  C   UNL A   1      37.025  32.687  30.803  1.00  0.00    -0.014 A 
ATOM     77  C   UNL A   1      35.738  32.131  30.900  1.00  0.00     0.010 A 
ATOM     78  C   UNL A   1      37.213  33.843  30.022  1.00  0.00     0.010 A 
ATOM     79  C   UNL A   1      34.663  32.708  30.214  1.00  0.00     0.020 A 
ATOM     80  C   UNL A   1      36.135  34.440  29.362  1.00  0.00     0.020 A 
ATOM     81  C   UNL A   1      34.869  33.861  29.453  1.00  0.00     0.054 A 
BRANCH  81  82
ATOM     82  S   UNL A   1      33.450  34.618  28.613  1.00  0.00     0.124 S 
ATOM     83  O   UNL A   1      34.068  35.754  27.936  1.00  0.00    -0.237 OA
ATOM     84  O   UNL A   1      32.987  33.539  27.744  1.00  0.00    -0.237 OA
ATOM     85  O   UNL A   1      32.545  34.959  29.708  1.00  0.00    -0.744 OA
ENDBRANCH  81  82
ENDBRANCH  53  76
BRANCH  65  86
ATOM     86  C   UNL A   1      39.681  33.492  37.214  1.00  0.00    -0.014 A 
ATOM     87  C   UNL A   1      38.725  33.118  38.174  1.00  0.00     0.010 A 
ATOM     88  C   UNL A   1      40.377  34.705  37.376  1.00  0.00     0.010 A 
ATOM     89  C   UNL A   1      38.457  33.951  39.264  1.00  0.00     0.020 A 
ATOM     90  C   UNL A   1      40.134  35.524  38.480  1.00  0.00     0.020 A 
ATOM     91  C   UNL A   1      39.167  35.147  39.413  1.00  0.00     0.054 A 
BRANCH  91  92
ATOM     92  S   UNL A   1      38.845  36.177  40.871  1.00  0.00     0.124 S 
ATOM     93  O   UNL A   1      40.139  36.163  41.547  1.00  0.00    -0.237 OA
ATOM     94  O   UNL A   1      38.458  37.455  40.279  1.00  0.00    -0.237 OA
ATOM     95  O   UNL A   1      37.772  35.470  41.566  1.00  0.00    -0.744 OA
ENDBRANCH  91  92
ENDBRANCH  65  86
ENDBRANCH  39  40
ENDBRANCH  31  34
ENDBRANCH  29  30
ENDBRANCH  28  29
ENDBRANCH   1  28
TORSDOF 17
ENDMDL
MODEL 2
REMARK VINA RESULT:     -11.7      5.766     11.874
REMARK SMILES O=C(CSc1ccc(NC(=O)c2cccc3ccccc23)cc1)NCCCNC(=O)c1ccc(-c2c3nc(c(-c4ccc(S(=O)(=O)[O-])cc4)c4ccc([nH]4)c(-c4ccc(S(=O)(=O)[O-])cc4)c4nc(c(-c5ccc(S(=O)(=O)[O-])cc5)c5ccc2[nH]5)C=C4)C=C3)cc1
REMARK SMILES IDX 25 1 24 2 1 3 2 4 3 6 4 7 5 8 6 9 23 10 7 11 22 12 8 13 9 14
REMARK SMILES IDX 10 15 11 17 12 18 13 19 21 20 14 21 16 22 20 23 15 24 17 25
REMARK SMILES IDX 19 26 18 27 26 28 27 29 28 30 29 31 30 33 31 34 32 35 90 36
REMARK SMILES IDX 33 37 89 38 34 39 35 40 36 41 83 42 37 43 88 44 82 45 84 46
REMARK SMILES IDX 38 47 87 48 81 49 80 50 39 52 69 53 50 54 68 55 51 56 54 57
REMARK SMILES IDX 67 58 85 59 52 60 53 61 66 63 86 64 55 65 40 66 41 67 49 68
REMARK SMILES IDX 42 69 48 70 43 71 44 72 45 73 46 74 47 75 70 76 71 77 79 78
REMARK SMILES IDX 72 79 78 80 73 81 74 82 75 83 76 84 77 85 56 86 57 87 65 88
REMARK SMILES IDX 58 89 64 90 59 91 60 92 61 93 62 94 63 95
REMARK H PARENT 24 5 9 16 28 32 84 51 54 62
REMARK Flexibility Score: inf
ROOT
ATOM      1  C   UNL A   1      34.171  32.296  28.138  1.00  0.00     0.117 C 
ENDROOT
BRANCH   1   2
ATOM      2  N   UNL A   1      33.531  31.203  27.433  1.00  0.00    -0.355 N 
ATOM      3  O   UNL A   1      31.583  32.303  26.906  1.00  0.00    -0.274 OA
ATOM      4  C   UNL A   1      32.289  31.299  26.843  1.00  0.00     0.230 C 
ATOM      5  H   UNL A   1      34.010  30.345  27.373  1.00  0.00     0.163 HD
BRANCH   4   6
ATOM      6  C   UNL A   1      31.799  30.019  26.177  1.00  0.00     0.174 C 
BRANCH   6   7
ATOM      7  S   UNL A   1      32.095  28.534  27.210  1.00  0.00    -0.116 SA
BRANCH   7   8
ATOM      8  C   UNL A   1      32.338  27.336  25.917  1.00  0.00     0.008 A 
ATOM      9  C   UNL A   1      31.279  26.533  25.492  1.00  0.00     0.017 A 
ATOM     10  C   UNL A   1      33.582  27.208  25.302  1.00  0.00     0.017 A 
ATOM     11  C   UNL A   1      31.438  25.669  24.403  1.00  0.00     0.027 A 
ATOM     12  C   UNL A   1      33.732  26.364  24.201  1.00  0.00     0.027 A 
ATOM     13  C   UNL A   1      32.637  25.649  23.699  1.00  0.00     0.041 A 
BRANCH  13  14
ATOM     14  N   UNL A   1      32.828  25.016  22.463  1.00  0.00    -0.322 N 
ATOM     15  C   UNL A   1      33.216  23.754  22.088  1.00  0.00     0.256 C 
ATOM     16  H   UNL A   1      32.643  25.605  21.696  1.00  0.00     0.170 HD
ATOM     17  O   UNL A   1      33.355  23.535  20.880  1.00  0.00    -0.269 OA
BRANCH  15  18
ATOM     18  C   UNL A   1      33.484  22.625  23.012  1.00  0.00     0.048 A 
ATOM     19  C   UNL A   1      32.378  21.774  23.197  1.00  0.00     0.014 A 
ATOM     20  C   UNL A   1      34.682  22.433  23.763  1.00  0.00    -0.006 A 
ATOM     21  C   UNL A   1      32.425  20.738  24.119  1.00  0.00     0.001 A 
ATOM     22  C   UNL A   1      34.706  21.360  24.696  1.00  0.00    -0.018 A 
ATOM     23  C   UNL A   1      35.866  23.206  23.649  1.00  0.00     0.009 A 
ATOM     24  C   UNL A   1      33.577  20.546  24.876  1.00  0.00     0.009 A 
ATOM     25  C   UNL A   1      35.866  21.091  25.441  1.00  0.00     0.009 A 
ATOM     26  C   UNL A   1      37.041  22.864  24.326  1.00  0.00     0.001 A 
ATOM     27  C   UNL A   1      37.037  21.814  25.231  1.00  0.00     0.001 A 
ENDBRANCH  15  18
ENDBRANCH  13  14
ENDBRANCH   7   8
ENDBRANCH   6   7
ENDBRANCH   4   6
ENDBRANCH   1   2
BRANCH   1  28
ATOM     28  C   UNL A   1      35.683  32.309  27.945  1.00  0.00     0.042 C 
BRANCH  28  29
ATOM     29  C   UNL A   1      36.486  32.675  29.191  1.00  0.00     0.118 C 
BRANCH  29  30
ATOM     30  N   UNL A   1      36.052  31.967  30.387  1.00  0.00    -0.352 N 
ATOM     31  C   UNL A   1      36.598  30.871  31.015  1.00  0.00     0.251 C 
ATOM     32  H   UNL A   1      35.241  32.329  30.813  1.00  0.00     0.163 HD
ATOM     33  O   UNL A   1      35.992  30.345  31.942  1.00  0.00    -0.269 OA
BRANCH  31  34
ATOM     34  C   UNL A   1      37.890  30.307  30.561  1.00  0.00     0.039 A 
ATOM     35  C   UNL A   1      38.103  30.134  29.191  1.00  0.00     0.014 A 
ATOM     36  C   UNL A   1      38.885  29.943  31.471  1.00  0.00     0.014 A 
ATOM     37  C   UNL A   1      39.340  29.672  28.730  1.00  0.00     0.010 A 
ATOM     38  C   UNL A   1      40.143  29.556  31.008  1.00  0.00     0.010 A 
ATOM     39  C   UNL A   1      40.387  29.423  29.632  1.00  0.00    -0.014 A 
BRANCH  39  40
ATOM     40  C   UNL A   1      41.747  29.044  29.160  1.00  0.00     0.031 A 
ATOM     41  C   UNL A   1      42.840  30.075  29.080  1.00  0.00     0.074 A 
ATOM     42  C   UNL A   1      41.979  27.786  28.734  1.00  0.00     0.049 A 
ATOM     43  N   UNL A   1      44.058  29.952  28.615  1.00  0.00    -0.248 NA
ATOM     44  C   UNL A   1      42.518  31.428  29.563  1.00  0.00     0.031 C 
ATOM     45  C   UNL A   1      40.998  26.698  28.731  1.00  0.00     0.029 A 
ATOM     46  N   UNL A   1      43.110  27.209  28.208  1.00  0.00    -0.354 N 
ATOM     47  C   UNL A   1      44.639  31.209  28.734  1.00  0.00     0.074 A 
ATOM     48  C   UNL A   1      43.627  32.092  29.269  1.00  0.00     0.031 C 
ATOM     49  C   UNL A   1      41.576  25.584  28.251  1.00  0.00     0.029 A 
ATOM     50  C   UNL A   1      42.949  25.887  27.862  1.00  0.00     0.049 A 
ATOM     51  H   UNL A   1      43.957  27.698  28.089  1.00  0.00     0.167 HD
ATOM     52  C   UNL A   1      45.906  31.590  28.439  1.00  0.00     0.031 A 
ATOM     53  C   UNL A   1      43.801  25.019  27.283  1.00  0.00     0.031 A 
ATOM     54  C   UNL A   1      46.912  30.708  27.909  1.00  0.00     0.049 A 
ATOM     55  C   UNL A   1      45.191  25.476  26.931  1.00  0.00     0.074 A 
ATOM     56  C   UNL A   1      48.238  30.990  27.625  1.00  0.00     0.029 A 
ATOM     57  N   UNL A   1      46.707  29.378  27.574  1.00  0.00    -0.354 N 
ATOM     58  N   UNL A   1      45.741  26.653  27.110  1.00  0.00    -0.248 NA
ATOM     59  C   UNL A   1      46.080  24.485  26.307  1.00  0.00     0.031 C 
ATOM     60  C   UNL A   1      48.816  29.850  27.060  1.00  0.00     0.029 A 
ATOM     61  C   UNL A   1      47.873  28.835  27.058  1.00  0.00     0.049 A 
ATOM     62  H   UNL A   1      45.859  28.892  27.686  1.00  0.00     0.167 HD
ATOM     63  C   UNL A   1      47.048  26.534  26.651  1.00  0.00     0.074 A 
ATOM     64  C   UNL A   1      47.211  25.169  26.197  1.00  0.00     0.031 C 
ATOM     65  C   UNL A   1      48.026  27.473  26.613  1.00  0.00     0.031 A 
BRANCH  52  66
ATOM     66  C   UNL A   1      46.274  33.034  28.672  1.00  0.00    -0.014 A 
ATOM     67  C   UNL A   1      46.130  33.996  27.656  1.00  0.00     0.010 A 
ATOM     68  C   UNL A   1      46.722  33.445  29.941  1.00  0.00     0.010 A 
ATOM     69  C   UNL A   1      46.469  35.332  27.891  1.00  0.00     0.020 A 
ATOM     70  C   UNL A   1      47.032  34.785  30.190  1.00  0.00     0.020 A 
ATOM     71  C   UNL A   1      46.919  35.717  29.157  1.00  0.00     0.054 A 
BRANCH  71  72
ATOM     72  S   UNL A   1      47.332  37.461  29.437  1.00  0.00     0.124 S 
ATOM     73  O   UNL A   1      48.789  37.447  29.323  1.00  0.00    -0.237 OA
ATOM     74  O   UNL A   1      46.624  38.135  28.353  1.00  0.00    -0.237 OA
ATOM     75  O   UNL A   1      46.816  37.729  30.777  1.00  0.00    -0.744 OA
ENDBRANCH  71  72
ENDBRANCH  52  66
BRANCH  53  76
ATOM     76  C   UNL A   1      43.362  23.623  26.999  1.00  0.00    -0.014 A 
ATOM     77  C   UNL A   1      43.145  23.197  25.677  1.00  0.00     0.010 A 
ATOM     78  C   UNL A   1      43.168  22.708  28.052  1.00  0.00     0.010 A 
ATOM     79  C   UNL A   1      42.723  21.889  25.414  1.00  0.00     0.020 A 
ATOM     80  C   UNL A   1      42.779  21.392  27.790  1.00  0.00     0.020 A 
ATOM     81  C   UNL A   1      42.547  20.994  26.472  1.00  0.00     0.054 A 
BRANCH  81  82
ATOM     82  S   UNL A   1      42.047  19.290  26.102  1.00  0.00     0.124 S 
ATOM     83  O   UNL A   1      42.768  19.025  24.861  1.00  0.00    -0.237 OA
ATOM     84  O   UNL A   1      42.520  18.562  27.277  1.00  0.00    -0.237 OA
ATOM     85  O   UNL A   1      40.595  19.379  25.976  1.00  0.00    -0.744 OA
ENDBRANCH  81  82
ENDBRANCH  53  76
BRANCH  65  86
ATOM     86  C   UNL A   1      49.381  27.054  26.102  1.00  0.00    -0.014 A 
ATOM     87  C   UNL A   1      49.695  27.100  24.733  1.00  0.00     0.010 A 
ATOM     88  C   UNL A   1      50.380  26.680  27.021  1.00  0.00     0.010 A 
ATOM     89  C   UNL A   1      50.977  26.760  24.291  1.00  0.00     0.020 A 
ATOM     90  C   UNL A   1      51.670  26.371  26.586  1.00  0.00     0.020 A 
ATOM     91  C   UNL A   1      51.958  26.403  25.221  1.00  0.00     0.054 A 
BRANCH  91  92
ATOM     92  S   UNL A   1      53.630  26.030  24.625  1.00  0.00     0.124 S 
ATOM     93  O   UNL A   1      53.655  26.716  23.337  1.00  0.00    -0.237 OA
ATOM     94  O   UNL A   1      54.476  26.613  25.665  1.00  0.00    -0.237 OA
ATOM     95  O   UNL A   1      53.657  24.571  24.555  1.00  0.00    -0.744 OA
ENDBRANCH  91  92
ENDBRANCH  65  86
ENDBRANCH  39  40
ENDBRANCH  31  34
ENDBRANCH  29  30
ENDBRANCH  28  29
ENDBRANCH   1  28
TORSDOF 17
ENDMDL
MODEL 3
REMARK VINA RESULT:     -11.4      1.026      8.115
REMARK SMILES O=C(CSc1ccc(NC(=O)c2cccc3ccccc23)cc1)NCCCNC(=O)c1ccc(-c2c3nc(c(-c4ccc(S(=O)(=O)[O-])cc4)c4ccc([nH]4)c(-c4ccc(S(=O)(=O)[O-])cc4)c4nc(c(-c5ccc(S(=O)(=O)[O-])cc5)c5ccc2[nH]5)C=C4)C=C3)cc1
REMARK SMILES IDX 25 1 24 2 1 3 2 4 3 6 4 7 5 8 6 9 23 10 7 11 22 12 8 13 9 14
REMARK SMILES IDX 10 15 11 17 12 18 13 19 21 20 14 21 16 22 20 23 15 24 17 25
REMARK SMILES IDX 19 26 18 27 26 28 27 29 28 30 29 31 30 33 31 34 32 35 90 36
REMARK SMILES IDX 33 37 89 38 34 39 35 40 36 41 83 42 37 43 88 44 82 45 84 46
REMARK SMILES IDX 38 47 87 48 81 49 80 50 39 52 69 53 50 54 68 55 51 56 54 57
REMARK SMILES IDX 67 58 85 59 52 60 53 61 66 63 86 64 55 65 40 66 41 67 49 68
REMARK SMILES IDX 42 69 48 70 43 71 44 72 45 73 46 74 47 75 70 76 71 77 79 78
REMARK SMILES IDX 72 79 78 80 73 81 74 82 75 83 76 84 77 85 56 86 57 87 65 88
REMARK SMILES IDX 58 89 64 90 59 91 60 92 61 93 62 94 63 95
REMARK H PARENT 24 5 9 16 28 32 84 51 54 62
REMARK Flexibility Score: inf
ROOT
ATOM      1  C   UNL A   1      41.301  21.712  27.735  1.00  0.00     0.117 C 
ENDROOT
BRANCH   1   2
ATOM      2  N   UNL A   1      40.106  21.981  26.960  1.00  0.00    -0.355 N 
ATOM      3  O   UNL A   1      39.982  19.943  25.907  1.00  0.00    -0.274 OA
ATOM      4  C   UNL A   1      39.517  21.060  26.120  1.00  0.00     0.230 C 
ATOM      5  H   UNL A   1      39.692  22.871  27.037  1.00  0.00     0.163 HD
BRANCH   4   6
ATOM      6  C   UNL A   1      38.283  21.566  25.384  1.00  0.00     0.174 C 
BRANCH   6   7
ATOM      7  S   UNL A   1      37.883  23.306  25.799  1.00  0.00    -0.116 SA
BRANCH   7   8
ATOM      8  C   UNL A   1      36.174  23.326  25.306  1.00  0.00     0.008 A 
ATOM      9  C   UNL A   1      35.175  23.613  26.237  1.00  0.00     0.017 A 
ATOM     10  C   UNL A   1      35.821  23.079  23.980  1.00  0.00     0.017 A 
ATOM     11  C   UNL A   1      33.842  23.737  25.831  1.00  0.00     0.027 A 
ATOM     12  C   UNL A   1      34.494  23.228  23.572  1.00  0.00     0.027 A 
ATOM     13  C   UNL A   1      33.512  23.635  24.483  1.00  0.00     0.041 A 
BRANCH  13  14
ATOM     14  N   UNL A   1      32.268  23.979  23.937  1.00  0.00    -0.322 N 
ATOM     15  C   UNL A   1      31.656  25.169  23.632  1.00  0.00     0.256 C 
ATOM     16  H   UNL A   1      31.711  23.195  23.725  1.00  0.00     0.170 HD
ATOM     17  O   UNL A   1      30.495  25.124  23.214  1.00  0.00    -0.269 OA
BRANCH  15  18
ATOM     18  C   UNL A   1      32.273  26.512  23.762  1.00  0.00     0.048 A 
ATOM     19  C   UNL A   1      32.969  26.926  22.612  1.00  0.00     0.014 A 
ATOM     20  C   UNL A   1      32.296  27.304  24.949  1.00  0.00    -0.006 A 
ATOM     21  C   UNL A   1      33.701  28.105  22.609  1.00  0.00     0.001 A 
ATOM     22  C   UNL A   1      33.048  28.511  24.917  1.00  0.00    -0.018 A 
ATOM     23  C   UNL A   1      31.618  27.006  26.159  1.00  0.00     0.009 A 
ATOM     24  C   UNL A   1      33.752  28.881  23.762  1.00  0.00     0.009 A 
ATOM     25  C   UNL A   1      33.082  29.356  26.039  1.00  0.00     0.009 A 
ATOM     26  C   UNL A   1      31.584  27.906  27.229  1.00  0.00     0.001 A 
ATOM     27  C   UNL A   1      32.327  29.075  27.173  1.00  0.00     0.001 A 
ENDBRANCH  15  18
ENDBRANCH  13  14
ENDBRANCH   7   8
ENDBRANCH   6   7
ENDBRANCH   4   6
ENDBRANCH   1   2
BRANCH   1  28
ATOM     28  C   UNL A   1      42.579  22.020  26.963  1.00  0.00     0.042 C 
BRANCH  28  29
ATOM     29  C   UNL A   1      43.037  23.475  27.037  1.00  0.00     0.118 C 
BRANCH  29  30
ATOM     30  N   UNL A   1      42.484  24.310  25.980  1.00  0.00    -0.352 N 
ATOM     31  C   UNL A   1      41.829  25.518  26.056  1.00  0.00     0.251 C 
ATOM     32  H   UNL A   1      42.598  23.955  25.069  1.00  0.00     0.163 HD
ATOM     33  O   UNL A   1      41.321  25.991  25.046  1.00  0.00    -0.269 OA
BRANCH  31  34
ATOM     34  C   UNL A   1      41.708  26.230  27.349  1.00  0.00     0.039 A 
ATOM     35  C   UNL A   1      42.615  27.253  27.641  1.00  0.00     0.014 A 
ATOM     36  C   UNL A   1      40.718  25.894  28.275  1.00  0.00     0.014 A 
ATOM     37  C   UNL A   1      42.479  27.990  28.821  1.00  0.00     0.010 A 
ATOM     38  C   UNL A   1      40.536  26.679  29.415  1.00  0.00     0.010 A 
ATOM     39  C   UNL A   1      41.410  27.740  29.697  1.00  0.00    -0.014 A 
BRANCH  39  40
ATOM     40  C   UNL A   1      41.175  28.585  30.899  1.00  0.00     0.031 A 
ATOM     41  C   UNL A   1      40.083  29.621  30.901  1.00  0.00     0.074 A 
ATOM     42  C   UNL A   1      41.993  28.472  31.965  1.00  0.00     0.049 A 
ATOM     43  N   UNL A   1      39.785  30.504  31.820  1.00  0.00    -0.248 NA
ATOM     44  C   UNL A   1      39.227  29.689  29.705  1.00  0.00     0.031 C 
ATOM     45  C   UNL A   1      43.109  27.529  32.081  1.00  0.00     0.029 A 
ATOM     46  N   UNL A   1      42.023  29.163  33.153  1.00  0.00    -0.354 N 
ATOM     47  C   UNL A   1      38.722  31.240  31.309  1.00  0.00     0.074 A 
ATOM     48  C   UNL A   1      38.460  30.733  29.980  1.00  0.00     0.031 C 
ATOM     49  C   UNL A   1      43.696  27.685  33.279  1.00  0.00     0.029 A 
ATOM     50  C   UNL A   1      43.037  28.772  33.996  1.00  0.00     0.049 A 
ATOM     51  H   UNL A   1      41.378  29.872  33.378  1.00  0.00     0.167 HD
ATOM     52  C   UNL A   1      38.019  32.239  31.897  1.00  0.00     0.031 A 
ATOM     53  C   UNL A   1      43.409  29.242  35.203  1.00  0.00     0.031 A 
ATOM     54  C   UNL A   1      38.282  32.740  33.221  1.00  0.00     0.049 A 
ATOM     55  C   UNL A   1      42.636  30.376  35.821  1.00  0.00     0.074 A 
ATOM     56  C   UNL A   1      37.593  33.714  33.923  1.00  0.00     0.029 A 
ATOM     57  N   UNL A   1      39.318  32.316  34.040  1.00  0.00    -0.354 N 
ATOM     58  N   UNL A   1      41.594  31.016  35.348  1.00  0.00    -0.248 NA
ATOM     59  C   UNL A   1      43.081  30.844  37.141  1.00  0.00     0.031 C 
ATOM     60  C   UNL A   1      38.249  33.924  35.139  1.00  0.00     0.029 A 
ATOM     61  C   UNL A   1      39.305  33.030  35.227  1.00  0.00     0.049 A 
ATOM     62  H   UNL A   1      39.967  31.612  33.812  1.00  0.00     0.167 HD
ATOM     63  C   UNL A   1      41.241  31.941  36.324  1.00  0.00     0.074 A 
ATOM     64  C   UNL A   1      42.172  31.769  37.420  1.00  0.00     0.031 C 
ATOM     65  C   UNL A   1      40.234  32.848  36.314  1.00  0.00     0.031 A 
BRANCH  52  66
ATOM     66  C   UNL A   1      36.901  32.868  31.106  1.00  0.00    -0.014 A 
ATOM     67  C   UNL A   1      37.165  33.779  30.067  1.00  0.00     0.010 A 
ATOM     68  C   UNL A   1      35.568  32.505  31.370  1.00  0.00     0.010 A 
ATOM     69  C   UNL A   1      36.117  34.348  29.338  1.00  0.00     0.020 A 
ATOM     70  C   UNL A   1      34.517  33.046  30.624  1.00  0.00     0.020 A 
ATOM     71  C   UNL A   1      34.799  33.978  29.623  1.00  0.00     0.054 A 
BRANCH  71  72
ATOM     72  S   UNL A   1      33.461  34.717  28.647  1.00  0.00     0.124 S 
ATOM     73  O   UNL A   1      32.479  35.042  29.680  1.00  0.00    -0.237 OA
ATOM     74  O   UNL A   1      34.116  35.863  28.022  1.00  0.00    -0.237 OA
ATOM     75  O   UNL A   1      33.068  33.650  27.730  1.00  0.00    -0.744 OA
ENDBRANCH  71  72
ENDBRANCH  52  66
BRANCH  53  76
ATOM     76  C   UNL A   1      44.574  28.639  35.910  1.00  0.00    -0.014 A 
ATOM     77  C   UNL A   1      45.865  29.170  35.744  1.00  0.00     0.010 A 
ATOM     78  C   UNL A   1      44.396  27.533  36.763  1.00  0.00     0.010 A 
ATOM     79  C   UNL A   1      46.958  28.596  36.402  1.00  0.00     0.020 A 
ATOM     80  C   UNL A   1      45.481  26.977  37.446  1.00  0.00     0.020 A 
ATOM     81  C   UNL A   1      46.758  27.505  37.251  1.00  0.00     0.054 A 
BRANCH  81  82
ATOM     82  S   UNL A   1      48.184  26.809  38.130  1.00  0.00     0.124 S 
ATOM     83  O   UNL A   1      49.297  27.538  37.530  1.00  0.00    -0.237 OA
ATOM     84  O   UNL A   1      47.887  27.140  39.522  1.00  0.00    -0.237 OA
ATOM     85  O   UNL A   1      48.122  25.385  37.809  1.00  0.00    -0.744 OA
ENDBRANCH  81  82
ENDBRANCH  53  76
BRANCH  65  86
ATOM     86  C   UNL A   1      40.048  33.703  37.542  1.00  0.00    -0.014 A 
ATOM     87  C   UNL A   1      40.702  34.939  37.680  1.00  0.00     0.010 A 
ATOM     88  C   UNL A   1      39.141  33.294  38.538  1.00  0.00     0.010 A 
ATOM     89  C   UNL A   1      40.469  35.740  38.802  1.00  0.00     0.020 A 
ATOM     90  C   UNL A   1      38.882  34.105  39.644  1.00  0.00     0.020 A 
ATOM     91  C   UNL A   1      39.556  35.320  39.775  1.00  0.00     0.054 A 
BRANCH  91  92
ATOM     92  S   UNL A   1      39.224  36.409  41.187  1.00  0.00     0.124 S 
ATOM     93  O   UNL A   1      38.377  35.568  42.028  1.00  0.00    -0.237 OA
ATOM     94  O   UNL A   1      40.563  36.673  41.707  1.00  0.00    -0.237 OA
ATOM     95  O   UNL A   1      38.557  37.562  40.587  1.00  0.00    -0.744 OA
ENDBRANCH  91  92
ENDBRANCH  65  86
ENDBRANCH  39  40
ENDBRANCH  31  34
ENDBRANCH  29  30
ENDBRANCH  28  29
ENDBRANCH   1  28
TORSDOF 17
ENDMDL
