MODEL 1
REMARK VINA RESULT:     -11.9      0.000      0.000
REMARK SMILES O=C(NCCCNC(=O)[C@@H]1[C@@H](C(=O)Nc2cccc([N+](=O)[O-])c2)[C@@H]2C=C[C@H]1O2)c1ccc(-c2c3nc(c(-c4ccc(S(=O)(=O)[O-])cc4)c4ccc([nH]4)c(-c4ccc(S(=O)(=O)[O-])cc4)c4nc(c(-c5ccc(S(=O)(=O)[O-])cc5)c5ccc2[nH]5)C=C4)C=C3)cc1
REMARK SMILES IDX 5 1 4 2 3 3 1 4 2 5 29 7 30 8 88 9 31 10 87 11 32 12 33 13
REMARK SMILES IDX 34 14 81 15 35 16 86 17 80 18 82 19 36 20 85 21 79 22 78 23
REMARK SMILES IDX 37 25 67 26 48 27 66 28 49 29 52 30 65 31 83 32 50 33 51 34
REMARK SMILES IDX 64 36 84 37 53 38 38 39 39 40 47 41 40 42 46 43 41 44 42 45
REMARK SMILES IDX 43 46 44 47 45 48 68 49 69 50 77 51 70 52 76 53 71 54 72 55
REMARK SMILES IDX 73 56 74 57 75 58 54 59 55 60 63 61 56 62 62 63 57 64 58 65
REMARK SMILES IDX 59 66 60 67 61 68 6 69 7 70 8 71 9 73 10 74 11 75 27 76
REMARK SMILES IDX 24 77 26 78 28 79 25 80 12 81 13 82 14 83 15 85 16 86 23 87
REMARK SMILES IDX 17 88 19 89 18 90 20 91 21 92 22 93
REMARK H PARENT 3 6 82 24 52 35 7 72 14 84
REMARK Flexibility Score: inf
ROOT
ATOM      1  C   UNL A   1      34.122  29.969  26.933  1.00  0.00     0.042 C 
ENDROOT
BRANCH   1   2
ATOM      2  C   UNL A   1      35.158  29.656  28.029  1.00  0.00     0.118 C 
BRANCH   2   3
ATOM      3  N   UNL A   1      35.209  30.504  29.198  1.00  0.00    -0.352 N 
ATOM      4  O   UNL A   1      36.204  31.514  30.958  1.00  0.00    -0.269 OA
ATOM      5  C   UNL A   1      36.321  30.799  29.968  1.00  0.00     0.251 C 
ATOM      6  H   UNL A   1      34.360  30.919  29.477  1.00  0.00     0.163 HD
BRANCH   5   7
ATOM      7  C   UNL A   1      37.661  30.253  29.621  1.00  0.00     0.039 A 
ATOM      8  C   UNL A   1      38.061  30.123  28.288  1.00  0.00     0.014 A 
ATOM      9  C   UNL A   1      38.583  30.000  30.643  1.00  0.00     0.014 A 
ATOM     10  C   UNL A   1      39.360  29.681  27.977  1.00  0.00     0.010 A 
ATOM     11  C   UNL A   1      39.887  29.579  30.328  1.00  0.00     0.010 A 
ATOM     12  C   UNL A   1      40.289  29.398  28.992  1.00  0.00    -0.014 A 
BRANCH  12  13
ATOM     13  C   UNL A   1      41.680  28.934  28.689  1.00  0.00     0.031 A 
ATOM     14  C   UNL A   1      42.816  29.924  28.608  1.00  0.00     0.074 A 
ATOM     15  C   UNL A   1      41.929  27.638  28.411  1.00  0.00     0.049 A 
ATOM     16  N   UNL A   1      44.062  29.732  28.252  1.00  0.00    -0.248 NA
ATOM     17  C   UNL A   1      42.500  31.313  28.968  1.00  0.00     0.031 C 
ATOM     18  C   UNL A   1      40.936  26.565  28.441  1.00  0.00     0.029 A 
ATOM     19  N   UNL A   1      43.088  27.009  28.018  1.00  0.00    -0.354 N 
ATOM     20  C   UNL A   1      44.677  30.980  28.322  1.00  0.00     0.074 A 
ATOM     21  C   UNL A   1      43.657  31.921  28.736  1.00  0.00     0.031 C 
ATOM     22  C   UNL A   1      41.522  25.416  28.064  1.00  0.00     0.029 A 
ATOM     23  C   UNL A   1      42.920  25.675  27.723  1.00  0.00     0.049 A 
ATOM     24  H   UNL A   1      43.956  27.469  27.954  1.00  0.00     0.167 HD
ATOM     25  C   UNL A   1      45.965  31.315  28.061  1.00  0.00     0.031 A 
ATOM     26  C   UNL A   1      43.771  24.765  27.203  1.00  0.00     0.031 A 
ATOM     27  C   UNL A   1      46.980  30.387  27.630  1.00  0.00     0.049 A 
ATOM     28  C   UNL A   1      45.188  25.158  26.881  1.00  0.00     0.074 A 
ATOM     29  C   UNL A   1      48.321  30.631  27.384  1.00  0.00     0.029 A 
ATOM     30  N   UNL A   1      46.765  29.044  27.360  1.00  0.00    -0.354 N 
ATOM     31  N   UNL A   1      45.762  26.330  27.008  1.00  0.00    -0.248 NA
ATOM     32  C   UNL A   1      46.074  24.108  26.355  1.00  0.00     0.031 C 
ATOM     33  C   UNL A   1      48.903  29.451  26.910  1.00  0.00     0.029 A 
ATOM     34  C   UNL A   1      47.940  28.454  26.920  1.00  0.00     0.049 A 
ATOM     35  H   UNL A   1      45.904  28.578  27.464  1.00  0.00     0.167 HD
ATOM     36  C   UNL A   1      47.081  26.154  26.599  1.00  0.00     0.074 A 
ATOM     37  C   UNL A   1      47.222  24.763  26.225  1.00  0.00     0.031 C 
ATOM     38  C   UNL A   1      48.081  27.068  26.548  1.00  0.00     0.031 A 
BRANCH  25  39
ATOM     39  C   UNL A   1      46.341  32.771  28.190  1.00  0.00    -0.014 A 
ATOM     40  C   UNL A   1      46.812  33.302  29.404  1.00  0.00     0.010 A 
ATOM     41  C   UNL A   1      46.230  33.618  27.072  1.00  0.00     0.010 A 
ATOM     42  C   UNL A   1      47.095  34.667  29.518  1.00  0.00     0.020 A 
ATOM     43  C   UNL A   1      46.540  34.979  27.173  1.00  0.00     0.020 A 
ATOM     44  C   UNL A   1      46.942  35.499  28.403  1.00  0.00     0.054 A 
BRANCH  44  45
ATOM     45  S   UNL A   1      47.274  37.274  28.587  1.00  0.00     0.124 S 
ATOM     46  O   UNL A   1      47.875  37.599  27.295  1.00  0.00    -0.237 OA
ATOM     47  O   UNL A   1      45.942  37.830  28.817  1.00  0.00    -0.237 OA
ATOM     48  O   UNL A   1      48.180  37.340  29.730  1.00  0.00    -0.744 OA
ENDBRANCH  44  45
ENDBRANCH  25  39
BRANCH  26  49
ATOM     49  C   UNL A   1      43.278  23.384  26.935  1.00  0.00    -0.014 A 
ATOM     50  C   UNL A   1      43.118  22.918  25.620  1.00  0.00     0.010 A 
ATOM     51  C   UNL A   1      43.038  22.504  28.007  1.00  0.00     0.010 A 
ATOM     52  C   UNL A   1      42.747  21.590  25.380  1.00  0.00     0.020 A 
ATOM     53  C   UNL A   1      42.691  21.171  27.771  1.00  0.00     0.020 A 
ATOM     54  C   UNL A   1      42.551  20.721  26.458  1.00  0.00     0.054 A 
BRANCH  54  55
ATOM     55  S   UNL A   1      42.191  18.975  26.120  1.00  0.00     0.124 S 
ATOM     56  O   UNL A   1      43.106  18.682  25.020  1.00  0.00    -0.237 OA
ATOM     57  O   UNL A   1      42.509  18.336  27.395  1.00  0.00    -0.237 OA
ATOM     58  O   UNL A   1      40.773  18.979  25.772  1.00  0.00    -0.744 OA
ENDBRANCH  54  55
ENDBRANCH  26  49
BRANCH  38  59
ATOM     59  C   UNL A   1      49.445  26.603  26.105  1.00  0.00    -0.014 A 
ATOM     60  C   UNL A   1      49.900  26.814  24.793  1.00  0.00     0.010 A 
ATOM     61  C   UNL A   1      50.323  26.039  27.052  1.00  0.00     0.010 A 
ATOM     62  C   UNL A   1      51.207  26.467  24.433  1.00  0.00     0.020 A 
ATOM     63  C   UNL A   1      51.635  25.712  26.702  1.00  0.00     0.020 A 
ATOM     64  C   UNL A   1      52.069  25.925  25.392  1.00  0.00     0.054 A 
BRANCH  64  65
ATOM     65  S   UNL A   1      53.787  25.567  24.925  1.00  0.00     0.124 S 
ATOM     66  O   UNL A   1      53.825  26.018  23.536  1.00  0.00    -0.237 OA
ATOM     67  O   UNL A   1      54.551  26.377  25.870  1.00  0.00    -0.237 OA
ATOM     68  O   UNL A   1      53.904  24.123  25.115  1.00  0.00    -0.744 OA
ENDBRANCH  64  65
ENDBRANCH  38  59
ENDBRANCH  12  13
ENDBRANCH   5   7
ENDBRANCH   2   3
ENDBRANCH   1   2
BRANCH   1  69
ATOM     69  C   UNL A   1      32.589  30.019  27.118  1.00  0.00     0.117 C 
BRANCH  69  70
ATOM     70  N   UNL A   1      31.792  28.802  27.273  1.00  0.00    -0.356 N 
ATOM     71  C   UNL A   1      31.517  27.792  26.367  1.00  0.00     0.227 C 
ATOM     72  H   UNL A   1      31.387  28.683  28.162  1.00  0.00     0.163 HD
ATOM     73  O   UNL A   1      31.297  26.657  26.790  1.00  0.00    -0.275 OA
BRANCH  71  74
ATOM     74  C   UNL A   1      31.359  28.133  24.907  1.00  0.00     0.127 C 
ATOM     75  C   UNL A   1      31.224  26.880  24.028  1.00  0.00     0.127 C 
ATOM     76  C   UNL A   1      32.542  28.781  24.151  1.00  0.00     0.155 C 
ATOM     77  C   UNL A   1      31.704  27.417  22.661  1.00  0.00     0.155 C 
ATOM     78  C   UNL A   1      33.677  27.890  23.652  1.00  0.00     0.004 C 
ATOM     79  O   UNL A   1      31.815  28.860  22.874  1.00  0.00    -0.365 OA
ATOM     80  C   UNL A   1      33.178  27.127  22.660  1.00  0.00     0.004 C 
BRANCH  75  81
ATOM     81  C   UNL A   1      29.926  26.140  24.140  1.00  0.00     0.231 C 
ATOM     82  O   UNL A   1      28.846  26.728  24.122  1.00  0.00    -0.274 OA
ATOM     83  N   UNL A   1      29.964  24.778  24.415  1.00  0.00    -0.325 N 
ATOM     84  H   UNL A   1      29.085  24.361  24.561  1.00  0.00     0.169 HD
BRANCH  83  85
ATOM     85  C   UNL A   1      31.070  23.890  24.519  1.00  0.00     0.048 A 
ATOM     86  C   UNL A   1      31.558  23.298  23.349  1.00  0.00     0.026 A 
ATOM     87  C   UNL A   1      31.661  23.517  25.726  1.00  0.00     0.111 A 
ATOM     88  C   UNL A   1      32.467  22.235  23.385  1.00  0.00     0.009 A 
ATOM     89  C   UNL A   1      32.552  22.433  25.773  1.00  0.00     0.271 A 
ATOM     90  C   UNL A   1      32.947  21.775  24.605  1.00  0.00     0.086 A 
BRANCH  89  91
ATOM     91  N   UNL A   1      33.031  21.950  27.073  1.00  0.00     0.062 N 
ATOM     92  O   UNL A   1      32.713  22.594  28.084  1.00  0.00    -0.258 OA
ATOM     93  O   UNL A   1      33.727  20.924  27.088  1.00  0.00    -0.258 OA
ENDBRANCH  89  91
ENDBRANCH  83  85
ENDBRANCH  75  81
ENDBRANCH  71  74
ENDBRANCH  69  70
ENDBRANCH   1  69
TORSDOF 16
ENDMDL
MODEL 2
REMARK VINA RESULT:     -11.8      5.972      8.066
REMARK SMILES O=C(NCCCNC(=O)[C@@H]1[C@@H](C(=O)Nc2cccc([N+](=O)[O-])c2)[C@@H]2C=C[C@H]1O2)c1ccc(-c2c3nc(c(-c4ccc(S(=O)(=O)[O-])cc4)c4ccc([nH]4)c(-c4ccc(S(=O)(=O)[O-])cc4)c4nc(c(-c5ccc(S(=O)(=O)[O-])cc5)c5ccc2[nH]5)C=C4)C=C3)cc1
REMARK SMILES IDX 5 1 4 2 3 3 1 4 2 5 29 7 30 8 88 9 31 10 87 11 32 12 33 13
REMARK SMILES IDX 34 14 81 15 35 16 86 17 80 18 82 19 36 20 85 21 79 22 78 23
REMARK SMILES IDX 37 25 67 26 48 27 66 28 49 29 52 30 65 31 83 32 50 33 51 34
REMARK SMILES IDX 64 36 84 37 53 38 38 39 39 40 47 41 40 42 46 43 41 44 42 45
REMARK SMILES IDX 43 46 44 47 45 48 68 49 69 50 77 51 70 52 76 53 71 54 72 55
REMARK SMILES IDX 73 56 74 57 75 58 54 59 55 60 63 61 56 62 62 63 57 64 58 65
REMARK SMILES IDX 59 66 60 67 61 68 6 69 7 70 8 71 9 73 10 74 11 75 27 76
REMARK SMILES IDX 24 77 26 78 28 79 25 80 12 81 13 82 14 83 15 85 16 86 23 87
REMARK SMILES IDX 17 88 19 89 18 90 20 91 21 92 22 93
REMARK H PARENT 3 6 82 24 52 35 7 72 14 84
REMARK Flexibility Score: inf
ROOT
ATOM      1  C   UNL A   1      31.547  32.193  26.591  1.00  0.00     0.042 C 
ENDROOT
BRANCH   1   2
ATOM      2  C   UNL A   1      32.770  32.820  27.286  1.00  0.00     0.118 C 
BRANCH   2   3
ATOM      3  N   UNL A   1      32.687  34.191  27.735  1.00  0.00    -0.352 N 
ATOM      4  O   UNL A   1      33.278  35.981  28.981  1.00  0.00    -0.269 OA
ATOM      5  C   UNL A   1      33.490  34.812  28.675  1.00  0.00     0.251 C 
ATOM      6  H   UNL A   1      31.982  34.744  27.326  1.00  0.00     0.163 HD
BRANCH   5   7
ATOM      7  C   UNL A   1      34.606  34.081  29.334  1.00  0.00     0.039 A 
ATOM      8  C   UNL A   1      35.933  34.298  28.949  1.00  0.00     0.014 A 
ATOM      9  C   UNL A   1      34.337  33.276  30.445  1.00  0.00     0.014 A 
ATOM     10  C   UNL A   1      36.983  33.660  29.634  1.00  0.00     0.010 A 
ATOM     11  C   UNL A   1      35.391  32.657  31.141  1.00  0.00     0.010 A 
ATOM     12  C   UNL A   1      36.727  32.828  30.736  1.00  0.00    -0.014 A 
BRANCH  12  13
ATOM     13  C   UNL A   1      37.826  32.144  31.487  1.00  0.00     0.031 A 
ATOM     14  C   UNL A   1      38.266  32.657  32.836  1.00  0.00     0.074 A 
ATOM     15  C   UNL A   1      38.491  31.104  30.942  1.00  0.00     0.049 A 
ATOM     16  N   UNL A   1      39.266  32.271  33.589  1.00  0.00    -0.248 NA
ATOM     17  C   UNL A   1      37.477  33.759  33.406  1.00  0.00     0.031 C 
ATOM     18  C   UNL A   1      38.190  30.499  29.645  1.00  0.00     0.029 A 
ATOM     19  N   UNL A   1      39.579  30.394  31.397  1.00  0.00    -0.354 N 
ATOM     20  C   UNL A   1      39.244  33.095  34.710  1.00  0.00     0.074 A 
ATOM     21  C   UNL A   1      38.140  34.014  34.526  1.00  0.00     0.031 C 
ATOM     22  C   UNL A   1      39.080  29.523  29.400  1.00  0.00     0.029 A 
ATOM     23  C   UNL A   1      40.043  29.460  30.498  1.00  0.00     0.049 A 
ATOM     24  H   UNL A   1      39.987  30.540  32.281  1.00  0.00     0.167 HD
ATOM     25  C   UNL A   1      40.066  33.094  35.790  1.00  0.00     0.031 A 
ATOM     26  C   UNL A   1      41.136  28.667  30.526  1.00  0.00     0.031 A 
ATOM     27  C   UNL A   1      41.177  32.194  35.970  1.00  0.00     0.049 A 
ATOM     28  C   UNL A   1      42.061  28.702  31.712  1.00  0.00     0.074 A 
ATOM     29  C   UNL A   1      42.036  32.094  37.052  1.00  0.00     0.029 A 
ATOM     30  N   UNL A   1      41.599  31.256  35.040  1.00  0.00    -0.354 N 
ATOM     31  N   UNL A   1      41.989  29.450  32.787  1.00  0.00    -0.248 NA
ATOM     32  C   UNL A   1      43.210  27.783  31.695  1.00  0.00     0.031 C 
ATOM     33  C   UNL A   1      43.011  31.137  36.751  1.00  0.00     0.029 A 
ATOM     34  C   UNL A   1      42.723  30.595  35.508  1.00  0.00     0.049 A 
ATOM     35  H   UNL A   1      41.164  31.086  34.173  1.00  0.00     0.167 HD
ATOM     36  C   UNL A   1      43.068  29.077  33.583  1.00  0.00     0.074 A 
ATOM     37  C   UNL A   1      43.775  28.034  32.870  1.00  0.00     0.031 C 
ATOM     38  C   UNL A   1      43.428  29.556  34.799  1.00  0.00     0.031 A 
BRANCH  25  39
ATOM     39  C   UNL A   1      39.818  34.140  36.849  1.00  0.00    -0.014 A 
ATOM     40  C   UNL A   1      40.311  35.450  36.716  1.00  0.00     0.010 A 
ATOM     41  C   UNL A   1      39.070  33.806  37.993  1.00  0.00     0.010 A 
ATOM     42  C   UNL A   1      40.124  36.386  37.739  1.00  0.00     0.020 A 
ATOM     43  C   UNL A   1      38.854  34.746  39.006  1.00  0.00     0.020 A 
ATOM     44  C   UNL A   1      39.409  36.021  38.885  1.00  0.00     0.054 A 
BRANCH  44  45
ATOM     45  S   UNL A   1      39.215  37.239  40.217  1.00  0.00     0.124 S 
ATOM     46  O   UNL A   1      40.606  37.549  40.539  1.00  0.00    -0.237 OA
ATOM     47  O   UNL A   1      38.467  38.312  39.567  1.00  0.00    -0.237 OA
ATOM     48  O   UNL A   1      38.484  36.509  41.249  1.00  0.00    -0.744 OA
ENDBRANCH  44  45
ENDBRANCH  25  39
BRANCH  26  49
ATOM     49  C   UNL A   1      41.415  27.782  29.359  1.00  0.00    -0.014 A 
ATOM     50  C   UNL A   1      42.422  28.106  28.435  1.00  0.00     0.010 A 
ATOM     51  C   UNL A   1      40.718  26.568  29.215  1.00  0.00     0.010 A 
ATOM     52  C   UNL A   1      42.741  27.220  27.399  1.00  0.00     0.020 A 
ATOM     53  C   UNL A   1      41.050  25.671  28.197  1.00  0.00     0.020 A 
ATOM     54  C   UNL A   1      42.063  26.002  27.295  1.00  0.00     0.054 A 
BRANCH  54  55
ATOM     55  S   UNL A   1      42.577  24.818  26.019  1.00  0.00     0.124 S 
ATOM     56  O   UNL A   1      43.957  24.536  26.404  1.00  0.00    -0.237 OA
ATOM     57  O   UNL A   1      41.630  23.722  26.208  1.00  0.00    -0.237 OA
ATOM     58  O   UNL A   1      42.413  25.564  24.774  1.00  0.00    -0.744 OA
ENDBRANCH  54  55
ENDBRANCH  26  49
BRANCH  38  59
ATOM     59  C   UNL A   1      44.627  28.942  35.477  1.00  0.00    -0.014 A 
ATOM     60  C   UNL A   1      45.911  29.494  35.333  1.00  0.00     0.010 A 
ATOM     61  C   UNL A   1      44.442  27.856  36.355  1.00  0.00     0.010 A 
ATOM     62  C   UNL A   1      46.990  28.970  36.054  1.00  0.00     0.020 A 
ATOM     63  C   UNL A   1      45.513  27.345  37.091  1.00  0.00     0.020 A 
ATOM     64  C   UNL A   1      46.783  27.903  36.934  1.00  0.00     0.054 A 
BRANCH  64  65
ATOM     65  S   UNL A   1      48.180  27.299  37.924  1.00  0.00     0.124 S 
ATOM     66  O   UNL A   1      49.246  28.220  37.540  1.00  0.00    -0.237 OA
ATOM     67  O   UNL A   1      47.688  27.442  39.292  1.00  0.00    -0.237 OA
ATOM     68  O   UNL A   1      48.354  25.920  37.473  1.00  0.00    -0.744 OA
ENDBRANCH  64  65
ENDBRANCH  38  59
ENDBRANCH  12  13
ENDBRANCH   5   7
ENDBRANCH   2   3
ENDBRANCH   1   2
BRANCH   1  69
ATOM     69  C   UNL A   1      31.388  30.708  26.195  1.00  0.00     0.117 C 
BRANCH  69  70
ATOM     70  N   UNL A   1      32.486  29.951  25.593  1.00  0.00    -0.356 N 
ATOM     71  C   UNL A   1      32.488  29.078  24.519  1.00  0.00     0.227 C 
ATOM     72  H   UNL A   1      33.363  30.084  26.021  1.00  0.00     0.163 HD
ATOM     73  O   UNL A   1      33.516  28.955  23.854  1.00  0.00    -0.275 OA
BRANCH  71  74
ATOM     74  C   UNL A   1      31.284  28.203  24.277  1.00  0.00     0.127 C 
ATOM     75  C   UNL A   1      31.546  26.736  24.648  1.00  0.00     0.127 C 
ATOM     76  C   UNL A   1      30.806  27.961  22.826  1.00  0.00     0.155 C 
ATOM     77  C   UNL A   1      30.502  26.012  23.769  1.00  0.00     0.155 C 
ATOM     78  C   UNL A   1      31.530  26.920  21.975  1.00  0.00     0.004 C 
ATOM     79  O   UNL A   1      29.685  27.099  23.232  1.00  0.00    -0.365 OA
ATOM     80  C   UNL A   1      31.250  25.712  22.500  1.00  0.00     0.004 C 
BRANCH  75  81
ATOM     81  C   UNL A   1      31.641  26.440  26.114  1.00  0.00     0.231 C 
ATOM     82  O   UNL A   1      31.194  27.214  26.958  1.00  0.00    -0.274 OA
ATOM     83  N   UNL A   1      32.383  25.334  26.516  1.00  0.00    -0.325 N 
ATOM     84  H   UNL A   1      32.482  25.236  27.490  1.00  0.00     0.169 HD
BRANCH  83  85
ATOM     85  C   UNL A   1      33.021  24.323  25.747  1.00  0.00     0.048 A 
ATOM     86  C   UNL A   1      34.249  24.622  25.147  1.00  0.00     0.026 A 
ATOM     87  C   UNL A   1      32.467  23.068  25.495  1.00  0.00     0.111 A 
ATOM     88  C   UNL A   1      34.819  23.786  24.180  1.00  0.00     0.009 A 
ATOM     89  C   UNL A   1      33.019  22.236  24.506  1.00  0.00     0.271 A 
ATOM     90  C   UNL A   1      34.188  22.599  23.831  1.00  0.00     0.086 A 
BRANCH  89  91
ATOM     91  N   UNL A   1      32.325  20.997  24.139  1.00  0.00     0.062 N 
ATOM     92  O   UNL A   1      32.167  20.756  22.933  1.00  0.00    -0.258 OA
ATOM     93  O   UNL A   1      31.936  20.259  25.057  1.00  0.00    -0.258 OA
ENDBRANCH  89  91
ENDBRANCH  83  85
ENDBRANCH  75  81
ENDBRANCH  71  74
ENDBRANCH  69  70
ENDBRANCH   1  69
TORSDOF 16
ENDMDL
MODEL 3
REMARK VINA RESULT:     -11.7      6.068     10.458
REMARK SMILES O=C(NCCCNC(=O)[C@@H]1[C@@H](C(=O)Nc2cccc([N+](=O)[O-])c2)[C@@H]2C=C[C@H]1O2)c1ccc(-c2c3nc(c(-c4ccc(S(=O)(=O)[O-])cc4)c4ccc([nH]4)c(-c4ccc(S(=O)(=O)[O-])cc4)c4nc(c(-c5ccc(S(=O)(=O)[O-])cc5)c5ccc2[nH]5)C=C4)C=C3)cc1
REMARK SMILES IDX 5 1 4 2 3 3 1 4 2 5 29 7 30 8 88 9 31 10 87 11 32 12 33 13
REMARK SMILES IDX 34 14 81 15 35 16 86 17 80 18 82 19 36 20 85 21 79 22 78 23
REMARK SMILES IDX 37 25 67 26 48 27 66 28 49 29 52 30 65 31 83 32 50 33 51 34
REMARK SMILES IDX 64 36 84 37 53 38 38 39 39 40 47 41 40 42 46 43 41 44 42 45
REMARK SMILES IDX 43 46 44 47 45 48 68 49 69 50 77 51 70 52 76 53 71 54 72 55
REMARK SMILES IDX 73 56 74 57 75 58 54 59 55 60 63 61 56 62 62 63 57 64 58 65
REMARK SMILES IDX 59 66 60 67 61 68 6 69 7 70 8 71 9 73 10 74 11 75 27 76
REMARK SMILES IDX 24 77 26 78 28 79 25 80 12 81 13 82 14 83 15 85 16 86 23 87
REMARK SMILES IDX 17 88 19 89 18 90 20 91 21 92 22 93
REMARK H PARENT 3 6 82 24 52 35 7 72 14 84
REMARK Flexibility Score: inf
ROOT
ATOM      1  C   UNL A   1      31.789  31.254  26.746  1.00  0.00     0.042 C 
ENDROOT
BRANCH   1   2
ATOM      2  C   UNL A   1      32.935  32.168  27.216  1.00  0.00     0.118 C 
BRANCH   2   3
ATOM      3  N   UNL A   1      32.622  33.517  27.631  1.00  0.00    -0.352 N 
ATOM      4  O   UNL A   1      32.907  35.414  28.826  1.00  0.00    -0.269 OA
ATOM      5  C   UNL A   1      33.313  34.290  28.547  1.00  0.00     0.251 C 
ATOM      6  H   UNL A   1      31.831  33.930  27.216  1.00  0.00     0.163 HD
BRANCH   5   7
ATOM      7  C   UNL A   1      34.542  33.778  29.212  1.00  0.00     0.039 A 
ATOM      8  C   UNL A   1      35.808  34.238  28.836  1.00  0.00     0.014 A 
ATOM      9  C   UNL A   1      34.420  32.934  30.321  1.00  0.00     0.014 A 
ATOM     10  C   UNL A   1      36.954  33.804  29.528  1.00  0.00     0.010 A 
ATOM     11  C   UNL A   1      35.566  32.520  31.023  1.00  0.00     0.010 A 
ATOM     12  C   UNL A   1      36.849  32.936  30.627  1.00  0.00    -0.014 A 
BRANCH  12  13
ATOM     13  C   UNL A   1      38.052  32.467  31.385  1.00  0.00     0.031 A 
ATOM     14  C   UNL A   1      38.902  31.340  30.851  1.00  0.00     0.074 A 
ATOM     15  C   UNL A   1      38.356  32.993  32.590  1.00  0.00     0.049 A 
ATOM     16  N   UNL A   1      39.913  30.723  31.410  1.00  0.00    -0.248 NA
ATOM     17  C   UNL A   1      38.557  30.838  29.513  1.00  0.00     0.031 C 
ATOM     18  C   UNL A   1      37.628  34.080  33.242  1.00  0.00     0.029 A 
ATOM     19  N   UNL A   1      39.338  32.659  33.495  1.00  0.00    -0.354 N 
ATOM     20  C   UNL A   1      40.313  29.744  30.505  1.00  0.00     0.074 A 
ATOM     21  C   UNL A   1      39.419  29.841  29.369  1.00  0.00     0.031 C 
ATOM     22  C   UNL A   1      38.175  34.312  34.447  1.00  0.00     0.029 A 
ATOM     23  C   UNL A   1      39.264  33.363  34.675  1.00  0.00     0.049 A 
ATOM     24  H   UNL A   1      40.029  31.981  33.315  1.00  0.00     0.167 HD
ATOM     25  C   UNL A   1      41.323  28.844  30.608  1.00  0.00     0.031 A 
ATOM     26  C   UNL A   1      39.958  33.243  35.827  1.00  0.00     0.031 A 
ATOM     27  C   UNL A   1      42.204  28.731  31.743  1.00  0.00     0.049 A 
ATOM     28  C   UNL A   1      41.051  32.215  35.943  1.00  0.00     0.074 A 
ATOM     29  C   UNL A   1      43.281  27.877  31.914  1.00  0.00     0.029 A 
ATOM     30  N   UNL A   1      42.098  29.476  32.908  1.00  0.00    -0.354 N 
ATOM     31  N   UNL A   1      41.449  31.337  35.054  1.00  0.00    -0.248 NA
ATOM     32  C   UNL A   1      41.795  32.166  37.211  1.00  0.00     0.031 C 
ATOM     33  C   UNL A   1      43.790  28.065  33.204  1.00  0.00     0.029 A 
ATOM     34  C   UNL A   1      43.070  29.080  33.814  1.00  0.00     0.049 A 
ATOM     35  H   UNL A   1      41.430  30.181  33.069  1.00  0.00     0.167 HD
ATOM     36  C   UNL A   1      42.503  30.647  35.646  1.00  0.00     0.074 A 
ATOM     37  C   UNL A   1      42.684  31.210  36.967  1.00  0.00     0.031 C 
ATOM     38  C   UNL A   1      43.251  29.641  35.130  1.00  0.00     0.031 A 
BRANCH  25  39
ATOM     39  C   UNL A   1      41.501  27.870  29.469  1.00  0.00    -0.014 A 
ATOM     40  C   UNL A   1      40.652  26.760  29.314  1.00  0.00     0.010 A 
ATOM     41  C   UNL A   1      42.532  28.076  28.534  1.00  0.00     0.010 A 
ATOM     42  C   UNL A   1      40.874  25.836  28.287  1.00  0.00     0.020 A 
ATOM     43  C   UNL A   1      42.740  27.171  27.488  1.00  0.00     0.020 A 
ATOM     44  C   UNL A   1      41.928  26.040  27.390  1.00  0.00     0.054 A 
BRANCH  44  45
ATOM     45  S   UNL A   1      42.223  24.805  26.094  1.00  0.00     0.124 S 
ATOM     46  O   UNL A   1      42.269  25.639  24.895  1.00  0.00    -0.237 OA
ATOM     47  O   UNL A   1      43.497  24.213  26.496  1.00  0.00    -0.237 OA
ATOM     48  O   UNL A   1      41.067  23.918  26.191  1.00  0.00    -0.744 OA
ENDBRANCH  44  45
ENDBRANCH  25  39
BRANCH  26  49
ATOM     49  C   UNL A   1      39.607  34.124  36.976  1.00  0.00    -0.014 A 
ATOM     50  C   UNL A   1      38.819  33.647  38.037  1.00  0.00     0.010 A 
ATOM     51  C   UNL A   1      40.130  35.430  37.046  1.00  0.00     0.010 A 
ATOM     52  C   UNL A   1      38.577  34.452  39.156  1.00  0.00     0.020 A 
ATOM     53  C   UNL A   1      39.910  36.227  38.173  1.00  0.00     0.020 A 
ATOM     54  C   UNL A   1      39.137  35.731  39.223  1.00  0.00     0.054 A 
BRANCH  54  55
ATOM     55  S   UNL A   1      38.910  36.708  40.736  1.00  0.00     0.124 S 
ATOM     56  O   UNL A   1      37.907  35.928  41.455  1.00  0.00    -0.237 OA
ATOM     57  O   UNL A   1      40.251  36.704  41.316  1.00  0.00    -0.237 OA
ATOM     58  O   UNL A   1      38.459  38.006  40.241  1.00  0.00    -0.744 OA
ENDBRANCH  54  55
ENDBRANCH  26  49
BRANCH  38  59
ATOM     59  C   UNL A   1      44.375  29.090  35.971  1.00  0.00    -0.014 A 
ATOM     60  C   UNL A   1      44.185  27.977  36.806  1.00  0.00     0.010 A 
ATOM     61  C   UNL A   1      45.667  29.635  35.840  1.00  0.00     0.010 A 
ATOM     62  C   UNL A   1      45.266  27.420  37.499  1.00  0.00     0.020 A 
ATOM     63  C   UNL A   1      46.752  29.068  36.512  1.00  0.00     0.020 A 
ATOM     64  C   UNL A   1      46.545  27.964  37.341  1.00  0.00     0.054 A 
BRANCH  64  65
ATOM     65  S   UNL A   1      47.946  27.169  38.178  1.00  0.00     0.124 S 
ATOM     66  O   UNL A   1      47.378  25.882  38.567  1.00  0.00    -0.237 OA
ATOM     67  O   UNL A   1      48.959  27.117  37.126  1.00  0.00    -0.237 OA
ATOM     68  O   UNL A   1      48.250  28.076  39.282  1.00  0.00    -0.744 OA
ENDBRANCH  64  65
ENDBRANCH  38  59
ENDBRANCH  12  13
ENDBRANCH   5   7
ENDBRANCH   2   3
ENDBRANCH   1   2
BRANCH   1  69
ATOM     69  C   UNL A   1      31.931  30.009  25.842  1.00  0.00     0.117 C 
BRANCH  69  70
ATOM     70  N   UNL A   1      32.708  28.841  26.257  1.00  0.00    -0.356 N 
ATOM     71  C   UNL A   1      32.992  27.668  25.580  1.00  0.00     0.227 C 
ATOM     72  H   UNL A   1      33.090  28.899  27.163  1.00  0.00     0.163 HD
ATOM     73  O   UNL A   1      34.032  27.065  25.843  1.00  0.00    -0.275 OA
BRANCH  71  74
ATOM     74  C   UNL A   1      31.962  27.089  24.643  1.00  0.00     0.127 C 
ATOM     75  C   UNL A   1      31.781  25.577  24.839  1.00  0.00     0.127 C 
ATOM     76  C   UNL A   1      32.255  27.061  23.124  1.00  0.00     0.155 C 
ATOM     77  C   UNL A   1      31.232  25.157  23.457  1.00  0.00     0.155 C 
ATOM     78  C   UNL A   1      33.147  25.955  22.565  1.00  0.00     0.004 C 
ATOM     79  O   UNL A   1      30.969  26.430  22.786  1.00  0.00    -0.365 OA
ATOM     80  C   UNL A   1      32.465  24.799  22.676  1.00  0.00     0.004 C 
BRANCH  75  81
ATOM     81  C   UNL A   1      31.077  25.160  26.094  1.00  0.00     0.231 C 
ATOM     82  O   UNL A   1      30.151  25.820  26.562  1.00  0.00    -0.274 OA
ATOM     83  N   UNL A   1      31.588  24.084  26.812  1.00  0.00    -0.325 N 
ATOM     84  H   UNL A   1      31.138  23.908  27.669  1.00  0.00     0.169 HD
BRANCH  83  85
ATOM     85  C   UNL A   1      32.656  23.197  26.505  1.00  0.00     0.048 A 
ATOM     86  C   UNL A   1      33.960  23.708  26.492  1.00  0.00     0.026 A 
ATOM     87  C   UNL A   1      32.483  21.860  26.151  1.00  0.00     0.111 A 
ATOM     88  C   UNL A   1      35.031  22.979  25.964  1.00  0.00     0.009 A 
ATOM     89  C   UNL A   1      33.547  21.131  25.594  1.00  0.00     0.271 A 
ATOM     90  C   UNL A   1      34.822  21.693  25.482  1.00  0.00     0.086 A 
BRANCH  89  91
ATOM     91  N   UNL A   1      33.301  19.782  25.072  1.00  0.00     0.062 N 
ATOM     92  O   UNL A   1      34.283  19.094  24.757  1.00  0.00    -0.258 OA
ATOM     93  O   UNL A   1      32.123  19.406  24.977  1.00  0.00    -0.258 OA
ENDBRANCH  89  91
ENDBRANCH  83  85
ENDBRANCH  75  81
ENDBRANCH  71  74
ENDBRANCH  69  70
ENDBRANCH   1  69
TORSDOF 16
ENDMDL
