MODEL 1
REMARK VINA RESULT:      -9.1      0.000      0.000
REMARK SMILES Cc1cc(CNS(=O)(=O)c2ccc(C(=O)NCCCNC(=O)c3ccc(-c4c5nc(c(-c6ccc(S(=O)(=O)[O-])cc6)c6ccc([nH]6)c(-c6ccc(S(=O)(=O)[O-])cc6)c6nc(c(-c7ccc(S(=O)(=O)[O-])cc7)c7ccc4[nH]7)C=C6)C=C5)cc3)cc2F)no1
REMARK SMILES IDX 17 1 16 2 14 3 15 4 13 6 10 7 11 8 84 9 12 10 83 11 85 12
REMARK SMILES IDX 7 13 8 14 9 15 6 16 5 18 4 19 1 20 2 21 3 22 87 23 86 24
REMARK SMILES IDX 18 25 19 26 20 27 21 28 22 30 23 31 24 32 82 33 25 34 81 35
REMARK SMILES IDX 26 36 27 37 28 38 75 39 29 40 80 41 74 42 76 43 30 44 79 45
REMARK SMILES IDX 73 46 72 47 31 49 61 50 42 51 60 52 43 53 46 54 59 55 77 56
REMARK SMILES IDX 44 57 45 58 58 60 78 61 47 62 32 63 33 64 41 65 34 66 40 67
REMARK SMILES IDX 35 68 36 69 37 70 38 71 39 72 62 73 63 74 71 75 64 76 70 77
REMARK SMILES IDX 65 78 66 79 67 80 68 81 69 82 48 83 49 84 57 85 50 86 56 87
REMARK SMILES IDX 51 88 52 89 53 90 54 91 55 92
REMARK H PARENT 16 5 6 17 20 29 76 48 46 59
REMARK Flexibility Score: inf
ROOT
ATOM      1  C   UNL A   1      36.140  33.646  30.273  1.00  0.00     0.118 C 
ENDROOT
BRANCH   1   2
ATOM      2  N   UNL A   1      36.141  34.357  31.539  1.00  0.00    -0.352 N 
ATOM      3  C   UNL A   1      36.736  34.116  32.748  1.00  0.00     0.251 C 
ATOM      4  O   UNL A   1      36.594  34.969  33.625  1.00  0.00    -0.269 OA
ATOM      5  H   UNL A   1      35.604  35.181  31.524  1.00  0.00     0.163 HD
BRANCH   3   6
ATOM      6  C   UNL A   1      37.563  32.913  33.054  1.00  0.00     0.042 A 
ATOM      7  C   UNL A   1      39.265  30.787  33.744  1.00  0.00     0.118 A 
ATOM      8  C   UNL A   1      39.740  32.095  33.811  1.00  0.00     0.026 A 
ATOM      9  C   UNL A   1      37.960  30.543  33.341  1.00  0.00     0.144 A 
ATOM     10  C   UNL A   1      38.892  33.148  33.457  1.00  0.00     0.015 A 
ATOM     11  C   UNL A   1      37.100  31.596  33.031  1.00  0.00     0.054 A 
ATOM     12  F   UNL A   1      37.482  29.293  33.273  1.00  0.00    -0.205 F 
BRANCH   7  13
ATOM     13  S   UNL A   1      40.298  29.445  34.228  1.00  0.00     0.243 S 
ATOM     14  O   UNL A   1      39.941  28.313  33.395  1.00  0.00    -0.207 OA
ATOM     15  O   UNL A   1      40.246  29.370  35.668  1.00  0.00    -0.207 OA
BRANCH  13  16
ATOM     16  N   UNL A   1      41.846  29.895  33.789  1.00  0.00    -0.205 NA
ATOM     17  H   UNL A   1      42.012  29.533  32.850  1.00  0.00     0.141 HD
BRANCH  16  18
ATOM     18  C   UNL A   1      42.961  29.450  34.631  1.00  0.00     0.158 C 
BRANCH  18  19
ATOM     19  C   UNL A   1      43.250  28.019  34.320  1.00  0.00     0.099 A 
ATOM     20  C   UNL A   1      43.565  24.375  34.566  1.00  0.00     0.091 C 
ATOM     21  C   UNL A   1      43.482  25.832  34.366  1.00  0.00     0.133 A 
ATOM     22  C   UNL A   1      43.086  26.888  35.150  1.00  0.00     0.073 A 
ATOM     23  O   UNL A   1      43.866  26.298  33.148  1.00  0.00    -0.361 OA
ATOM     24  N   UNL A   1      43.720  27.674  33.112  1.00  0.00    -0.083 NA
ENDBRANCH  18  19
ENDBRANCH  16  18
ENDBRANCH  13  16
ENDBRANCH   7  13
ENDBRANCH   3   6
ENDBRANCH   1   2
BRANCH   1  25
ATOM     25  C   UNL A   1      34.716  33.362  29.792  1.00  0.00     0.042 C 
BRANCH  25  26
ATOM     26  C   UNL A   1      34.630  33.031  28.303  1.00  0.00     0.118 C 
BRANCH  26  27
ATOM     27  N   UNL A   1      33.850  31.826  28.060  1.00  0.00    -0.352 N 
ATOM     28  C   UNL A   1      34.264  30.525  27.912  1.00  0.00     0.251 C 
ATOM     29  H   UNL A   1      32.878  31.964  27.990  1.00  0.00     0.163 HD
ATOM     30  O   UNL A   1      33.470  29.688  27.492  1.00  0.00    -0.269 OA
BRANCH  28  31
ATOM     31  C   UNL A   1      35.649  30.126  28.247  1.00  0.00     0.039 A 
ATOM     32  C   UNL A   1      36.614  30.124  27.233  1.00  0.00     0.014 A 
ATOM     33  C   UNL A   1      35.990  29.698  29.533  1.00  0.00     0.014 A 
ATOM     34  C   UNL A   1      37.927  29.740  27.519  1.00  0.00     0.010 A 
ATOM     35  C   UNL A   1      37.312  29.367  29.829  1.00  0.00     0.010 A 
ATOM     36  C   UNL A   1      38.292  29.380  28.825  1.00  0.00    -0.014 A 
BRANCH  36  37
ATOM     37  C   UNL A   1      39.690  29.009  29.162  1.00  0.00     0.031 A 
ATOM     38  C   UNL A   1      40.611  30.023  29.785  1.00  0.00     0.074 A 
ATOM     39  C   UNL A   1      40.152  27.785  28.841  1.00  0.00     0.049 A 
ATOM     40  N   UNL A   1      41.888  29.920  30.055  1.00  0.00    -0.248 NA
ATOM     41  C   UNL A   1      40.026  31.328  30.129  1.00  0.00     0.031 C 
ATOM     42  C   UNL A   1      39.367  26.722  28.209  1.00  0.00     0.029 A 
ATOM     43  N   UNL A   1      41.399  27.232  28.990  1.00  0.00    -0.354 N 
ATOM     44  C   UNL A   1      42.265  31.153  30.575  1.00  0.00     0.074 A 
ATOM     45  C   UNL A   1      41.089  31.997  30.554  1.00  0.00     0.031 C 
ATOM     46  C   UNL A   1      40.148  25.643  28.034  1.00  0.00     0.029 A 
ATOM     47  C   UNL A   1      41.495  25.949  28.508  1.00  0.00     0.049 A 
ATOM     48  H   UNL A   1      42.154  27.709  29.404  1.00  0.00     0.167 HD
ATOM     49  C   UNL A   1      43.477  31.544  31.039  1.00  0.00     0.031 A 
ATOM     50  C   UNL A   1      42.550  25.113  28.441  1.00  0.00     0.031 A 
ATOM     51  C   UNL A   1      44.640  30.699  31.077  1.00  0.00     0.049 A 
ATOM     52  C   UNL A   1      43.882  25.566  28.967  1.00  0.00     0.074 A 
ATOM     53  C   UNL A   1      45.899  30.988  31.573  1.00  0.00     0.029 A 
ATOM     54  N   UNL A   1      44.686  29.397  30.604  1.00  0.00    -0.354 N 
ATOM     55  N   UNL A   1      44.208  26.723  29.495  1.00  0.00    -0.248 NA
ATOM     56  C   UNL A   1      44.988  24.601  28.898  1.00  0.00     0.031 C 
ATOM     57  C   UNL A   1      46.717  29.872  31.368  1.00  0.00     0.029 A 
ATOM     58  C   UNL A   1      45.955  28.873  30.783  1.00  0.00     0.049 A 
ATOM     59  H   UNL A   1      43.928  28.916  30.199  1.00  0.00     0.167 HD
ATOM     60  C   UNL A   1      45.550  26.615  29.841  1.00  0.00     0.074 A 
ATOM     61  C   UNL A   1      45.973  25.279  29.473  1.00  0.00     0.031 C 
ATOM     62  C   UNL A   1      46.358  27.540  30.414  1.00  0.00     0.031 A 
BRANCH  49  63
ATOM     63  C   UNL A   1      43.604  32.960  31.535  1.00  0.00    -0.014 A 
ATOM     64  C   UNL A   1      44.049  33.989  30.684  1.00  0.00     0.010 A 
ATOM     65  C   UNL A   1      43.247  33.273  32.859  1.00  0.00     0.010 A 
ATOM     66  C   UNL A   1      44.178  35.295  31.161  1.00  0.00     0.020 A 
ATOM     67  C   UNL A   1      43.351  34.583  33.333  1.00  0.00     0.020 A 
ATOM     68  C   UNL A   1      43.836  35.583  32.486  1.00  0.00     0.054 A 
BRANCH  68  69
ATOM     69  S   UNL A   1      44.004  37.289  33.081  1.00  0.00     0.124 S 
ATOM     70  O   UNL A   1      43.771  38.055  31.860  1.00  0.00    -0.237 OA
ATOM     71  O   UNL A   1      42.955  37.384  34.091  1.00  0.00    -0.237 OA
ATOM     72  O   UNL A   1      45.370  37.342  33.598  1.00  0.00    -0.744 OA
ENDBRANCH  68  69
ENDBRANCH  49  63
BRANCH  50  73
ATOM     73  C   UNL A   1      42.381  23.756  27.860  1.00  0.00    -0.014 A 
ATOM     74  C   UNL A   1      42.607  23.535  26.491  1.00  0.00     0.010 A 
ATOM     75  C   UNL A   1      42.015  22.671  28.678  1.00  0.00     0.010 A 
ATOM     76  C   UNL A   1      42.459  22.257  25.945  1.00  0.00     0.020 A 
ATOM     77  C   UNL A   1      41.888  21.387  28.140  1.00  0.00     0.020 A 
ATOM     78  C   UNL A   1      42.101  21.190  26.775  1.00  0.00     0.054 A 
BRANCH  78  79
ATOM     79  S   UNL A   1      41.971  19.526  26.060  1.00  0.00     0.124 S 
ATOM     80  O   UNL A   1      42.375  18.683  27.180  1.00  0.00    -0.237 OA
ATOM     81  O   UNL A   1      40.561  19.450  25.687  1.00  0.00    -0.237 OA
ATOM     82  O   UNL A   1      42.904  19.566  24.936  1.00  0.00    -0.744 OA
ENDBRANCH  78  79
ENDBRANCH  50  73
BRANCH  62  83
ATOM     83  C   UNL A   1      47.775  27.132  30.710  1.00  0.00    -0.014 A 
ATOM     84  C   UNL A   1      48.808  27.379  29.790  1.00  0.00     0.010 A 
ATOM     85  C   UNL A   1      48.083  26.549  31.952  1.00  0.00     0.010 A 
ATOM     86  C   UNL A   1      50.126  27.029  30.100  1.00  0.00     0.020 A 
ATOM     87  C   UNL A   1      49.401  26.217  32.274  1.00  0.00     0.020 A 
ATOM     88  C   UNL A   1      50.413  26.450  31.339  1.00  0.00     0.054 A 
BRANCH  88  89
ATOM     89  S   UNL A   1      52.137  26.054  31.742  1.00  0.00     0.124 S 
ATOM     90  O   UNL A   1      52.051  24.638  32.088  1.00  0.00    -0.237 OA
ATOM     91  O   UNL A   1      52.838  26.355  30.495  1.00  0.00    -0.237 OA
ATOM     92  O   UNL A   1      52.446  26.950  32.854  1.00  0.00    -0.744 OA
ENDBRANCH  88  89
ENDBRANCH  62  83
ENDBRANCH  36  37
ENDBRANCH  28  31
ENDBRANCH  26  27
ENDBRANCH  25  26
ENDBRANCH   1  25
TORSDOF 17
ENDMDL
MODEL 2
REMARK VINA RESULT:      -9.0      5.303     12.017
REMARK SMILES Cc1cc(CNS(=O)(=O)c2ccc(C(=O)NCCCNC(=O)c3ccc(-c4c5nc(c(-c6ccc(S(=O)(=O)[O-])cc6)c6ccc([nH]6)c(-c6ccc(S(=O)(=O)[O-])cc6)c6nc(c(-c7ccc(S(=O)(=O)[O-])cc7)c7ccc4[nH]7)C=C6)C=C5)cc3)cc2F)no1
REMARK SMILES IDX 17 1 16 2 14 3 15 4 13 6 10 7 11 8 84 9 12 10 83 11 85 12
REMARK SMILES IDX 7 13 8 14 9 15 6 16 5 18 4 19 1 20 2 21 3 22 87 23 86 24
REMARK SMILES IDX 18 25 19 26 20 27 21 28 22 30 23 31 24 32 82 33 25 34 81 35
REMARK SMILES IDX 26 36 27 37 28 38 75 39 29 40 80 41 74 42 76 43 30 44 79 45
REMARK SMILES IDX 73 46 72 47 31 49 61 50 42 51 60 52 43 53 46 54 59 55 77 56
REMARK SMILES IDX 44 57 45 58 58 60 78 61 47 62 32 63 33 64 41 65 34 66 40 67
REMARK SMILES IDX 35 68 36 69 37 70 38 71 39 72 62 73 63 74 71 75 64 76 70 77
REMARK SMILES IDX 65 78 66 79 67 80 68 81 69 82 48 83 49 84 57 85 50 86 56 87
REMARK SMILES IDX 51 88 52 89 53 90 54 91 55 92
REMARK H PARENT 16 5 6 17 20 29 76 48 46 59
REMARK Flexibility Score: inf
ROOT
ATOM      1  C   UNL A   1      37.562  22.394  25.513  1.00  0.00     0.118 C 
ENDROOT
BRANCH   1   2
ATOM      2  N   UNL A   1      36.381  21.881  26.183  1.00  0.00    -0.352 N 
ATOM      3  C   UNL A   1      35.039  22.084  26.001  1.00  0.00     0.251 C 
ATOM      4  O   UNL A   1      34.271  21.430  26.709  1.00  0.00    -0.269 OA
ATOM      5  H   UNL A   1      36.588  21.260  26.918  1.00  0.00     0.163 HD
BRANCH   3   6
ATOM      6  C   UNL A   1      34.457  23.012  24.990  1.00  0.00     0.042 A 
ATOM      7  C   UNL A   1      33.420  24.935  23.224  1.00  0.00     0.118 A 
ATOM      8  C   UNL A   1      33.646  25.278  24.555  1.00  0.00     0.026 A 
ATOM      9  C   UNL A   1      33.709  23.654  22.780  1.00  0.00     0.144 A 
ATOM     10  C   UNL A   1      34.153  24.315  25.432  1.00  0.00     0.015 A 
ATOM     11  C   UNL A   1      34.257  22.705  23.643  1.00  0.00     0.054 A 
ATOM     12  F   UNL A   1      33.503  23.304  21.503  1.00  0.00    -0.205 F 
BRANCH   7  13
ATOM     13  S   UNL A   1      32.824  26.143  22.089  1.00  0.00     0.243 S 
ATOM     14  O   UNL A   1      31.849  25.485  21.242  1.00  0.00    -0.207 OA
ATOM     15  O   UNL A   1      33.980  26.808  21.536  1.00  0.00    -0.207 OA
BRANCH  13  16
ATOM     16  N   UNL A   1      31.986  27.251  23.017  1.00  0.00    -0.205 NA
ATOM     17  H   UNL A   1      32.335  27.171  23.972  1.00  0.00     0.141 HD
BRANCH  16  18
ATOM     18  C   UNL A   1      30.524  27.139  23.076  1.00  0.00     0.158 C 
BRANCH  18  19
ATOM     19  C   UNL A   1      29.953  28.501  23.290  1.00  0.00     0.099 A 
ATOM     20  C   UNL A   1      27.723  31.411  23.253  1.00  0.00     0.091 C 
ATOM     21  C   UNL A   1      28.692  30.304  23.324  1.00  0.00     0.133 A 
ATOM     22  C   UNL A   1      28.723  29.023  22.831  1.00  0.00     0.073 A 
ATOM     23  O   UNL A   1      29.831  30.541  24.027  1.00  0.00    -0.361 OA
ATOM     24  N   UNL A   1      30.628  29.410  24.011  1.00  0.00    -0.083 NA
ENDBRANCH  18  19
ENDBRANCH  16  18
ENDBRANCH  13  16
ENDBRANCH   7  13
ENDBRANCH   3   6
ENDBRANCH   1   2
BRANCH   1  25
ATOM     25  C   UNL A   1      37.843  23.845  25.907  1.00  0.00     0.042 C 
BRANCH  25  26
ATOM     26  C   UNL A   1      39.110  24.014  26.745  1.00  0.00     0.118 C 
BRANCH  26  27
ATOM     27  N   UNL A   1      40.220  24.525  25.953  1.00  0.00    -0.352 N 
ATOM     28  C   UNL A   1      40.926  25.696  26.079  1.00  0.00     0.251 C 
ATOM     29  H   UNL A   1      40.508  23.943  25.213  1.00  0.00     0.163 HD
ATOM     30  O   UNL A   1      41.680  26.042  25.173  1.00  0.00    -0.269 OA
BRANCH  28  31
ATOM     31  C   UNL A   1      40.786  26.541  27.286  1.00  0.00     0.039 A 
ATOM     32  C   UNL A   1      39.928  26.119  28.308  1.00  0.00     0.014 A 
ATOM     33  C   UNL A   1      41.443  27.770  27.391  1.00  0.00     0.014 A 
ATOM     34  C   UNL A   1      39.767  26.903  29.453  1.00  0.00     0.010 A 
ATOM     35  C   UNL A   1      41.324  28.526  28.557  1.00  0.00     0.010 A 
ATOM     36  C   UNL A   1      40.482  28.103  29.598  1.00  0.00    -0.014 A 
BRANCH  36  37
ATOM     37  C   UNL A   1      40.360  28.933  30.823  1.00  0.00     0.031 A 
ATOM     38  C   UNL A   1      39.334  30.031  30.893  1.00  0.00     0.074 A 
ATOM     39  C   UNL A   1      41.220  28.746  31.844  1.00  0.00     0.049 A 
ATOM     40  N   UNL A   1      39.145  30.924  31.832  1.00  0.00    -0.248 NA
ATOM     41  C   UNL A   1      38.416  30.155  29.751  1.00  0.00     0.031 C 
ATOM     42  C   UNL A   1      42.278  27.734  31.886  1.00  0.00     0.029 A 
ATOM     43  N   UNL A   1      41.350  29.412  33.036  1.00  0.00    -0.354 N 
ATOM     44  C   UNL A   1      38.106  31.731  31.382  1.00  0.00     0.074 A 
ATOM     45  C   UNL A   1      37.727  31.240  30.075  1.00  0.00     0.031 C 
ATOM     46  C   UNL A   1      42.940  27.839  33.050  1.00  0.00     0.029 A 
ATOM     47  C   UNL A   1      42.380  28.946  33.819  1.00  0.00     0.049 A 
ATOM     48  H   UNL A   1      40.761  30.153  33.307  1.00  0.00     0.167 HD
ATOM     49  C   UNL A   1      37.514  32.779  32.006  1.00  0.00     0.031 A 
ATOM     50  C   UNL A   1      42.833  29.369  35.015  1.00  0.00     0.031 A 
ATOM     51  C   UNL A   1      37.880  33.254  33.314  1.00  0.00     0.049 A 
ATOM     52  C   UNL A   1      42.157  30.529  35.690  1.00  0.00     0.074 A 
ATOM     53  C   UNL A   1      37.307  34.276  34.049  1.00  0.00     0.029 A 
ATOM     54  N   UNL A   1      38.911  32.736  34.082  1.00  0.00    -0.354 N 
ATOM     55  N   UNL A   1      41.147  31.252  35.267  1.00  0.00    -0.248 NA
ATOM     56  C   UNL A   1      42.673  30.924  37.008  1.00  0.00     0.031 C 
ATOM     57  C   UNL A   1      38.015  34.399  35.250  1.00  0.00     0.029 A 
ATOM     58  C   UNL A   1      39.000  33.426  35.279  1.00  0.00     0.049 A 
ATOM     59  H   UNL A   1      39.493  31.988  33.816  1.00  0.00     0.167 HD
ATOM     60  C   UNL A   1      40.894  32.174  36.277  1.00  0.00     0.074 A 
ATOM     61  C   UNL A   1      41.848  31.910  37.335  1.00  0.00     0.031 C 
ATOM     62  C   UNL A   1      39.954  33.149  36.323  1.00  0.00     0.031 A 
BRANCH  49  63
ATOM     63  C   UNL A   1      36.410  33.489  31.269  1.00  0.00    -0.014 A 
ATOM     64  C   UNL A   1      35.122  33.598  31.823  1.00  0.00     0.010 A 
ATOM     65  C   UNL A   1      36.671  34.080  30.019  1.00  0.00     0.010 A 
ATOM     66  C   UNL A   1      34.103  34.246  31.120  1.00  0.00     0.020 A 
ATOM     67  C   UNL A   1      35.661  34.751  29.324  1.00  0.00     0.020 A 
ATOM     68  C   UNL A   1      34.376  34.811  29.871  1.00  0.00     0.054 A 
BRANCH  68  69
ATOM     69  S   UNL A   1      33.039  35.655  28.981  1.00  0.00     0.124 S 
ATOM     70  O   UNL A   1      33.780  36.618  28.172  1.00  0.00    -0.237 OA
ATOM     71  O   UNL A   1      32.407  34.567  28.240  1.00  0.00    -0.237 OA
ATOM     72  O   UNL A   1      32.225  36.233  30.048  1.00  0.00    -0.744 OA
ENDBRANCH  68  69
ENDBRANCH  49  63
BRANCH  50  73
ATOM     73  C   UNL A   1      43.985  28.680  35.653  1.00  0.00    -0.014 A 
ATOM     74  C   UNL A   1      45.299  29.113  35.406  1.00  0.00     0.010 A 
ATOM     75  C   UNL A   1      43.773  27.602  36.531  1.00  0.00     0.010 A 
ATOM     76  C   UNL A   1      46.382  28.473  36.015  1.00  0.00     0.020 A 
ATOM     77  C   UNL A   1      44.852  26.973  37.160  1.00  0.00     0.020 A 
ATOM     78  C   UNL A   1      46.151  27.407  36.889  1.00  0.00     0.054 A 
BRANCH  78  79
ATOM     79  S   UNL A   1      47.566  26.626  37.716  1.00  0.00     0.124 S 
ATOM     80  O   UNL A   1      47.049  26.415  39.064  1.00  0.00    -0.237 OA
ATOM     81  O   UNL A   1      47.771  25.418  36.920  1.00  0.00    -0.237 OA
ATOM     82  O   UNL A   1      48.623  27.628  37.598  1.00  0.00    -0.744 OA
ENDBRANCH  78  79
ENDBRANCH  50  73
BRANCH  62  83
ATOM     83  C   UNL A   1      39.886  33.985  37.570  1.00  0.00    -0.014 A 
ATOM     84  C   UNL A   1      40.607  35.187  37.678  1.00  0.00     0.010 A 
ATOM     85  C   UNL A   1      39.041  33.592  38.624  1.00  0.00     0.010 A 
ATOM     86  C   UNL A   1      40.500  35.972  38.830  1.00  0.00     0.020 A 
ATOM     87  C   UNL A   1      38.915  34.385  39.767  1.00  0.00     0.020 A 
ATOM     88  C   UNL A   1      39.656  35.565  39.867  1.00  0.00     0.054 A 
BRANCH  88  89
ATOM     89  S   UNL A   1      39.490  36.626  41.329  1.00  0.00     0.124 S 
ATOM     90  O   UNL A   1      38.580  35.849  42.166  1.00  0.00    -0.237 OA
ATOM     91  O   UNL A   1      40.865  36.722  41.816  1.00  0.00    -0.237 OA
ATOM     92  O   UNL A   1      38.938  37.868  40.793  1.00  0.00    -0.744 OA
ENDBRANCH  88  89
ENDBRANCH  62  83
ENDBRANCH  36  37
ENDBRANCH  28  31
ENDBRANCH  26  27
ENDBRANCH  25  26
ENDBRANCH   1  25
TORSDOF 17
ENDMDL
MODEL 3
REMARK VINA RESULT:      -8.9      4.819      7.545
REMARK SMILES Cc1cc(CNS(=O)(=O)c2ccc(C(=O)NCCCNC(=O)c3ccc(-c4c5nc(c(-c6ccc(S(=O)(=O)[O-])cc6)c6ccc([nH]6)c(-c6ccc(S(=O)(=O)[O-])cc6)c6nc(c(-c7ccc(S(=O)(=O)[O-])cc7)c7ccc4[nH]7)C=C6)C=C5)cc3)cc2F)no1
REMARK SMILES IDX 17 1 16 2 14 3 15 4 13 6 10 7 11 8 84 9 12 10 83 11 85 12
REMARK SMILES IDX 7 13 8 14 9 15 6 16 5 18 4 19 1 20 2 21 3 22 87 23 86 24
REMARK SMILES IDX 18 25 19 26 20 27 21 28 22 30 23 31 24 32 82 33 25 34 81 35
REMARK SMILES IDX 26 36 27 37 28 38 75 39 29 40 80 41 74 42 76 43 30 44 79 45
REMARK SMILES IDX 73 46 72 47 31 49 61 50 42 51 60 52 43 53 46 54 59 55 77 56
REMARK SMILES IDX 44 57 45 58 58 60 78 61 47 62 32 63 33 64 41 65 34 66 40 67
REMARK SMILES IDX 35 68 36 69 37 70 38 71 39 72 62 73 63 74 71 75 64 76 70 77
REMARK SMILES IDX 65 78 66 79 67 80 68 81 69 82 48 83 49 84 57 85 50 86 56 87
REMARK SMILES IDX 51 88 52 89 53 90 54 91 55 92
REMARK H PARENT 16 5 6 17 20 29 76 48 46 59
REMARK Flexibility Score: inf
ROOT
ATOM      1  C   UNL A   1      34.405  29.430  26.811  1.00  0.00     0.118 C 
ENDROOT
BRANCH   1   2
ATOM      2  N   UNL A   1      33.791  29.612  25.508  1.00  0.00    -0.352 N 
ATOM      3  C   UNL A   1      33.014  28.807  24.718  1.00  0.00     0.251 C 
ATOM      4  O   UNL A   1      32.583  29.294  23.672  1.00  0.00    -0.269 OA
ATOM      5  H   UNL A   1      33.969  30.495  25.112  1.00  0.00     0.163 HD
BRANCH   3   6
ATOM      6  C   UNL A   1      32.637  27.405  25.059  1.00  0.00     0.042 A 
ATOM      7  C   UNL A   1      32.150  24.713  25.696  1.00  0.00     0.118 A 
ATOM      8  C   UNL A   1      33.375  25.075  25.139  1.00  0.00     0.026 A 
ATOM      9  C   UNL A   1      31.184  25.678  25.933  1.00  0.00     0.144 A 
ATOM     10  C   UNL A   1      33.608  26.414  24.815  1.00  0.00     0.015 A 
ATOM     11  C   UNL A   1      31.432  27.021  25.651  1.00  0.00     0.054 A 
ATOM     12  F   UNL A   1      30.001  25.353  26.472  1.00  0.00    -0.205 F 
BRANCH   7  13
ATOM     13  S   UNL A   1      31.848  23.039  26.156  1.00  0.00     0.243 S 
ATOM     14  O   UNL A   1      30.680  22.600  25.418  1.00  0.00    -0.207 OA
ATOM     15  O   UNL A   1      31.896  22.982  27.597  1.00  0.00    -0.207 OA
BRANCH  13  16
ATOM     16  N   UNL A   1      33.146  22.173  25.560  1.00  0.00    -0.205 NA
ATOM     17  H   UNL A   1      32.909  21.887  24.611  1.00  0.00     0.141 HD
BRANCH  16  18
ATOM     18  C   UNL A   1      33.569  20.971  26.286  1.00  0.00     0.158 C 
BRANCH  18  19
ATOM     19  C   UNL A   1      33.351  19.785  25.406  1.00  0.00     0.099 A 
ATOM     20  C   UNL A   1      33.893  16.990  23.096  1.00  0.00     0.091 C 
ATOM     21  C   UNL A   1      33.568  18.086  24.025  1.00  0.00     0.133 A 
ATOM     22  C   UNL A   1      34.292  19.097  24.607  1.00  0.00     0.073 A 
ATOM     23  O   UNL A   1      32.276  18.164  24.440  1.00  0.00    -0.361 OA
ATOM     24  N   UNL A   1      32.134  19.230  25.311  1.00  0.00    -0.083 NA
ENDBRANCH  18  19
ENDBRANCH  16  18
ENDBRANCH  13  16
ENDBRANCH   7  13
ENDBRANCH   3   6
ENDBRANCH   1   2
BRANCH   1  25
ATOM     25  C   UNL A   1      34.407  30.731  27.614  1.00  0.00     0.042 C 
BRANCH  25  26
ATOM     26  C   UNL A   1      35.739  31.020  28.305  1.00  0.00     0.118 C 
BRANCH  26  27
ATOM     27  N   UNL A   1      35.654  30.831  29.746  1.00  0.00    -0.352 N 
ATOM     28  C   UNL A   1      36.535  30.223  30.607  1.00  0.00     0.251 C 
ATOM     29  H   UNL A   1      34.842  31.194  30.168  1.00  0.00     0.163 HD
ATOM     30  O   UNL A   1      36.173  29.972  31.754  1.00  0.00    -0.269 OA
BRANCH  28  31
ATOM     31  C   UNL A   1      37.902  29.866  30.169  1.00  0.00     0.039 A 
ATOM     32  C   UNL A   1      38.848  29.508  31.137  1.00  0.00     0.014 A 
ATOM     33  C   UNL A   1      38.275  29.939  28.824  1.00  0.00     0.014 A 
ATOM     34  C   UNL A   1      40.150  29.177  30.752  1.00  0.00     0.010 A 
ATOM     35  C   UNL A   1      39.559  29.557  28.436  1.00  0.00     0.010 A 
ATOM     36  C   UNL A   1      40.510  29.177  29.395  1.00  0.00    -0.014 A 
BRANCH  36  37
ATOM     37  C   UNL A   1      41.875  28.789  28.958  1.00  0.00     0.031 A 
ATOM     38  C   UNL A   1      42.963  29.824  28.868  1.00  0.00     0.074 A 
ATOM     39  C   UNL A   1      42.117  27.520  28.572  1.00  0.00     0.049 A 
ATOM     40  N   UNL A   1      44.184  29.700  28.412  1.00  0.00    -0.248 NA
ATOM     41  C   UNL A   1      42.628  31.180  29.331  1.00  0.00     0.031 C 
ATOM     42  C   UNL A   1      41.140  26.430  28.586  1.00  0.00     0.029 A 
ATOM     43  N   UNL A   1      43.258  26.938  28.080  1.00  0.00    -0.354 N 
ATOM     44  C   UNL A   1      44.754  30.965  28.508  1.00  0.00     0.074 A 
ATOM     45  C   UNL A   1      43.736  31.847  29.037  1.00  0.00     0.031 C 
ATOM     46  C   UNL A   1      41.726  25.309  28.133  1.00  0.00     0.029 A 
ATOM     47  C   UNL A   1      43.106  25.609  27.764  1.00  0.00     0.049 A 
ATOM     48  H   UNL A   1      44.105  27.426  27.964  1.00  0.00     0.167 HD
ATOM     49  C   UNL A   1      46.014  31.354  28.195  1.00  0.00     0.031 A 
ATOM     50  C   UNL A   1      43.975  24.730  27.226  1.00  0.00     0.031 A 
ATOM     51  C   UNL A   1      47.030  30.472  27.687  1.00  0.00     0.049 A 
ATOM     52  C   UNL A   1      45.368  25.183  26.893  1.00  0.00     0.074 A 
ATOM     53  C   UNL A   1      48.349  30.762  27.386  1.00  0.00     0.029 A 
ATOM     54  N   UNL A   1      46.842  29.128  27.408  1.00  0.00    -0.354 N 
ATOM     55  N   UNL A   1      45.901  26.375  27.031  1.00  0.00    -0.248 NA
ATOM     56  C   UNL A   1      46.281  24.174  26.340  1.00  0.00     0.031 C 
ATOM     57  C   UNL A   1      48.950  29.599  26.892  1.00  0.00     0.029 A 
ATOM     58  C   UNL A   1      48.017  28.576  26.926  1.00  0.00     0.049 A 
ATOM     59  H   UNL A   1      45.998  28.637  27.533  1.00  0.00     0.167 HD
ATOM     60  C   UNL A   1      47.218  26.251  26.603  1.00  0.00     0.074 A 
ATOM     61  C   UNL A   1      47.404  24.868  26.212  1.00  0.00     0.031 C 
ATOM     62  C   UNL A   1      48.186  27.197  26.543  1.00  0.00     0.031 A 
BRANCH  49  63
ATOM     63  C   UNL A   1      46.357  32.808  28.386  1.00  0.00    -0.014 A 
ATOM     64  C   UNL A   1      46.848  33.281  29.617  1.00  0.00     0.010 A 
ATOM     65  C   UNL A   1      46.214  33.707  27.314  1.00  0.00     0.010 A 
ATOM     66  C   UNL A   1      47.146  34.635  29.785  1.00  0.00     0.020 A 
ATOM     67  C   UNL A   1      46.535  35.058  27.471  1.00  0.00     0.020 A 
ATOM     68  C   UNL A   1      46.980  35.518  28.714  1.00  0.00     0.054 A 
BRANCH  68  69
ATOM     69  S   UNL A   1      47.382  37.270  28.954  1.00  0.00     0.124 S 
ATOM     70  O   UNL A   1      46.221  37.743  29.702  1.00  0.00    -0.237 OA
ATOM     71  O   UNL A   1      48.632  37.215  29.707  1.00  0.00    -0.237 OA
ATOM     72  O   UNL A   1      47.501  37.788  27.593  1.00  0.00    -0.744 OA
ENDBRANCH  68  69
ENDBRANCH  49  63
BRANCH  50  73
ATOM     73  C   UNL A   1      43.549  23.328  26.980  1.00  0.00    -0.014 A 
ATOM     74  C   UNL A   1      43.072  22.533  28.037  1.00  0.00     0.010 A 
ATOM     75  C   UNL A   1      43.596  22.787  25.683  1.00  0.00     0.010 A 
ATOM     76  C   UNL A   1      42.661  21.218  27.804  1.00  0.00     0.020 A 
ATOM     77  C   UNL A   1      43.164  21.479  25.442  1.00  0.00     0.020 A 
ATOM     78  C   UNL A   1      42.709  20.699  26.507  1.00  0.00     0.054 A 
BRANCH  78  79
ATOM     79  S   UNL A   1      42.115  19.009  26.213  1.00  0.00     0.124 S 
ATOM     80  O   UNL A   1      42.988  18.565  25.131  1.00  0.00    -0.237 OA
ATOM     81  O   UNL A   1      42.333  18.367  27.507  1.00  0.00    -0.237 OA
ATOM     82  O   UNL A   1      40.713  19.200  25.850  1.00  0.00    -0.744 OA
ENDBRANCH  78  79
ENDBRANCH  50  73
BRANCH  62  83
ATOM     83  C   UNL A   1      49.545  26.767  26.065  1.00  0.00    -0.014 A 
ATOM     84  C   UNL A   1      49.963  27.017  24.747  1.00  0.00     0.010 A 
ATOM     85  C   UNL A   1      50.437  26.160  26.968  1.00  0.00     0.010 A 
ATOM     86  C   UNL A   1      51.246  26.646  24.332  1.00  0.00     0.020 A 
ATOM     87  C   UNL A   1      51.727  25.807  26.563  1.00  0.00     0.020 A 
ATOM     88  C   UNL A   1      52.118  26.042  25.243  1.00  0.00     0.054 A 
BRANCH  88  89
ATOM     89  S   UNL A   1      53.796  25.618  24.699  1.00  0.00     0.124 S 
ATOM     90  O   UNL A   1      53.766  24.159  24.729  1.00  0.00    -0.237 OA
ATOM     91  O   UNL A   1      53.866  26.218  23.368  1.00  0.00    -0.237 OA
ATOM     92  O   UNL A   1      54.653  26.246  25.703  1.00  0.00    -0.744 OA
ENDBRANCH  88  89
ENDBRANCH  62  83
ENDBRANCH  36  37
ENDBRANCH  28  31
ENDBRANCH  26  27
ENDBRANCH  25  26
ENDBRANCH   1  25
TORSDOF 17
ENDMDL
