MODEL 1
REMARK VINA RESULT:     -10.4      0.000      0.000
REMARK SMILES CO[C@@H]1C[C@H](C(=O)NCCCNC(=O)c2ccc(-c3c4nc(c(-c5ccc(S(=O)(=O)[O-])cc5)c5ccc([nH]5)c(-c5ccc(S(=O)(=O)[O-])cc5)c5nc(c(-c6ccc(S(=O)(=O)[O-])cc6)c6ccc3[nH]6)C=C5)C=C4)cc2)N(C(=O)[C@H](CC(C)C)NC(N)=O)C1
REMARK SMILES IDX 9 1 8 2 6 3 7 4 5 6 3 7 4 8 87 9 75 10 2 11 1 12 76 13 77 14
REMARK SMILES IDX 78 15 83 16 84 17 85 19 86 20 79 23 80 24 81 25 82 26 10 27
REMARK SMILES IDX 11 28 12 29 13 30 14 32 15 33 16 34 74 35 17 36 73 37 18 38
REMARK SMILES IDX 19 39 20 40 67 41 21 42 72 43 66 44 68 45 22 46 71 47 65 48
REMARK SMILES IDX 64 49 23 51 53 52 34 53 52 54 35 55 38 56 51 57 69 58 36 59
REMARK SMILES IDX 37 60 50 62 70 63 39 64 24 65 25 66 33 67 26 68 32 69 27 70
REMARK SMILES IDX 28 71 29 72 30 73 31 74 54 75 55 76 63 77 56 78 62 79 57 80
REMARK SMILES IDX 58 81 59 82 60 83 61 84 40 85 41 86 49 87 42 88 48 89 43 90
REMARK SMILES IDX 44 91 45 92 46 93 47 94
REMARK H PARENT 8 5 83 18 85 21 85 22 12 31 68 50 38 61
REMARK Flexibility Score: inf
ROOT
ATOM      1  C   UNL A   1      37.085  23.778  25.772  1.00  0.00     0.117 C 
ENDROOT
BRANCH   1   2
ATOM      2  N   UNL A   1      35.962  23.205  26.501  1.00  0.00    -0.354 N 
ATOM      3  C   UNL A   1      34.634  23.063  26.284  1.00  0.00     0.242 C 
ATOM      4  O   UNL A   1      34.017  22.532  27.222  1.00  0.00    -0.273 OA
ATOM      5  H   UNL A   1      36.238  22.825  27.366  1.00  0.00     0.163 HD
BRANCH   3   6
ATOM      6  C   UNL A   1      33.804  23.570  25.076  1.00  0.00     0.177 C 
ATOM      7  C   UNL A   1      33.195  21.752  23.645  1.00  0.00     0.139 C 
ATOM      8  C   UNL A   1      34.195  22.897  23.764  1.00  0.00     0.069 C 
ATOM      9  C   UNL A   1      31.910  22.348  24.258  1.00  0.00     0.152 C 
ATOM     10  N   UNL A   1      32.349  23.500  25.051  1.00  0.00    -0.326 N 
BRANCH   7  11
ATOM     11  O   UNL A   1      33.591  20.603  24.385  1.00  0.00    -0.380 OA
ATOM     12  C   UNL A   1      32.518  19.789  24.847  1.00  0.00     0.195 C 
ENDBRANCH   7  11
BRANCH  10  13
ATOM     13  C   UNL A   1      31.459  24.530  25.301  1.00  0.00     0.246 C 
ATOM     14  O   UNL A   1      30.437  24.343  25.971  1.00  0.00    -0.272 OA
BRANCH  13  15
ATOM     15  C   UNL A   1      31.731  25.926  24.673  1.00  0.00     0.173 C 
BRANCH  15  16
ATOM     16  N   UNL A   1      31.407  25.840  23.252  1.00  0.00    -0.327 N 
ATOM     17  C   UNL A   1      32.360  25.964  22.292  1.00  0.00     0.312 C 
ATOM     18  H   UNL A   1      30.472  25.687  22.983  1.00  0.00     0.166 HD
ATOM     19  N   UNL A   1      31.868  25.913  21.038  1.00  0.00    -0.352 N 
ATOM     20  O   UNL A   1      33.556  26.151  22.497  1.00  0.00    -0.249 OA
ATOM     21  H   UNL A   1      30.906  25.762  20.892  1.00  0.00     0.161 HD
ATOM     22  H   UNL A   1      32.471  26.026  20.267  1.00  0.00     0.161 HD
ENDBRANCH  15  16
BRANCH  15  23
ATOM     23  C   UNL A   1      30.952  27.030  25.395  1.00  0.00     0.038 C 
BRANCH  23  24
ATOM     24  C   UNL A   1      31.798  28.292  25.696  1.00  0.00    -0.015 C 
ATOM     25  C   UNL A   1      31.334  29.515  24.899  1.00  0.00     0.007 C 
ATOM     26  C   UNL A   1      31.735  28.623  27.189  1.00  0.00     0.007 C 
ENDBRANCH  23  24
ENDBRANCH  15  23
ENDBRANCH  13  15
ENDBRANCH  10  13
ENDBRANCH   3   6
ENDBRANCH   1   2
BRANCH   1  27
ATOM     27  C   UNL A   1      38.456  23.297  26.273  1.00  0.00     0.042 C 
BRANCH  27  28
ATOM     28  C   UNL A   1      39.289  24.316  27.053  1.00  0.00     0.118 C 
BRANCH  28  29
ATOM     29  N   UNL A   1      40.216  25.030  26.193  1.00  0.00    -0.352 N 
ATOM     30  C   UNL A   1      40.692  26.316  26.296  1.00  0.00     0.251 C 
ATOM     31  H   UNL A   1      40.554  24.517  25.424  1.00  0.00     0.163 HD
ATOM     32  O   UNL A   1      41.246  26.820  25.321  1.00  0.00    -0.269 OA
BRANCH  30  33
ATOM     33  C   UNL A   1      40.556  27.103  27.549  1.00  0.00     0.039 A 
ATOM     34  C   UNL A   1      41.242  28.320  27.651  1.00  0.00     0.014 A 
ATOM     35  C   UNL A   1      39.858  26.617  28.659  1.00  0.00     0.014 A 
ATOM     36  C   UNL A   1      41.212  29.050  28.846  1.00  0.00     0.010 A 
ATOM     37  C   UNL A   1      39.785  27.373  29.835  1.00  0.00     0.010 A 
ATOM     38  C   UNL A   1      40.479  28.589  29.950  1.00  0.00    -0.014 A 
BRANCH  38  39
ATOM     39  C   UNL A   1      40.465  29.350  31.232  1.00  0.00     0.031 A 
ATOM     40  C   UNL A   1      41.531  29.112  32.273  1.00  0.00     0.074 A 
ATOM     41  C   UNL A   1      39.483  30.241  31.478  1.00  0.00     0.049 A 
ATOM     42  N   UNL A   1      41.667  29.659  33.456  1.00  0.00    -0.248 NA
ATOM     43  C   UNL A   1      42.568  28.118  31.954  1.00  0.00     0.031 C 
ATOM     44  C   UNL A   1      38.372  30.550  30.575  1.00  0.00     0.029 A 
ATOM     45  N   UNL A   1      39.258  31.049  32.567  1.00  0.00    -0.354 N 
ATOM     46  C   UNL A   1      42.787  29.064  34.027  1.00  0.00     0.074 A 
ATOM     47  C   UNL A   1      43.275  28.089  33.075  1.00  0.00     0.031 C 
ATOM     48  C   UNL A   1      37.596  31.492  31.138  1.00  0.00     0.029 A 
ATOM     49  C   UNL A   1      38.134  31.834  32.452  1.00  0.00     0.049 A 
ATOM     50  H   UNL A   1      39.846  31.064  33.356  1.00  0.00     0.167 HD
ATOM     51  C   UNL A   1      43.369  29.315  35.224  1.00  0.00     0.031 A 
ATOM     52  C   UNL A   1      37.592  32.726  33.304  1.00  0.00     0.031 A 
ATOM     53  C   UNL A   1      42.908  30.305  36.162  1.00  0.00     0.049 A 
ATOM     54  C   UNL A   1      38.264  32.994  34.625  1.00  0.00     0.074 A 
ATOM     55  C   UNL A   1      43.473  30.671  37.374  1.00  0.00     0.029 A 
ATOM     56  N   UNL A   1      41.776  31.087  35.998  1.00  0.00    -0.354 N 
ATOM     57  N   UNL A   1      39.358  32.461  35.115  1.00  0.00    -0.248 NA
ATOM     58  C   UNL A   1      37.635  33.993  35.500  1.00  0.00     0.031 C 
ATOM     59  C   UNL A   1      42.659  31.647  37.959  1.00  0.00     0.029 A 
ATOM     60  C   UNL A   1      41.615  31.921  37.092  1.00  0.00     0.049 A 
ATOM     61  H   UNL A   1      41.176  31.054  35.218  1.00  0.00     0.167 HD
ATOM     62  C   UNL A   1      39.560  33.079  36.345  1.00  0.00     0.074 A 
ATOM     63  C   UNL A   1      38.486  34.035  36.516  1.00  0.00     0.031 C 
ATOM     64  C   UNL A   1      40.545  32.871  37.251  1.00  0.00     0.031 A 
BRANCH  51  65
ATOM     65  C   UNL A   1      44.583  28.504  35.600  1.00  0.00    -0.014 A 
ATOM     66  C   UNL A   1      45.879  28.954  35.291  1.00  0.00     0.010 A 
ATOM     67  C   UNL A   1      44.428  27.312  36.331  1.00  0.00     0.010 A 
ATOM     68  C   UNL A   1      46.998  28.211  35.682  1.00  0.00     0.020 A 
ATOM     69  C   UNL A   1      45.545  26.579  36.745  1.00  0.00     0.020 A 
ATOM     70  C   UNL A   1      46.823  27.027  36.406  1.00  0.00     0.054 A 
BRANCH  70  71
ATOM     71  S   UNL A   1      48.293  26.104  36.934  1.00  0.00     0.124 S 
ATOM     72  O   UNL A   1      49.365  26.836  36.265  1.00  0.00    -0.237 OA
ATOM     73  O   UNL A   1      48.251  26.241  38.388  1.00  0.00    -0.237 OA
ATOM     74  O   UNL A   1      48.053  24.754  36.433  1.00  0.00    -0.744 OA
ENDBRANCH  70  71
ENDBRANCH  51  65
BRANCH  52  75
ATOM     75  C   UNL A   1      36.339  33.443  32.939  1.00  0.00    -0.014 A 
ATOM     76  C   UNL A   1      36.391  34.655  32.228  1.00  0.00     0.010 A 
ATOM     77  C   UNL A   1      35.087  32.922  33.314  1.00  0.00     0.010 A 
ATOM     78  C   UNL A   1      35.216  35.347  31.922  1.00  0.00     0.020 A 
ATOM     79  C   UNL A   1      33.909  33.598  32.986  1.00  0.00     0.020 A 
ATOM     80  C   UNL A   1      33.981  34.814  32.306  1.00  0.00     0.054 A 
BRANCH  80  81
ATOM     81  S   UNL A   1      32.464  35.707  31.868  1.00  0.00     0.124 S 
ATOM     82  O   UNL A   1      31.472  35.054  32.717  1.00  0.00    -0.237 OA
ATOM     83  O   UNL A   1      32.791  37.086  32.223  1.00  0.00    -0.237 OA
ATOM     84  O   UNL A   1      32.325  35.458  30.434  1.00  0.00    -0.744 OA
ENDBRANCH  80  81
ENDBRANCH  52  75
BRANCH  64  85
ATOM     85  C   UNL A   1      40.530  33.715  38.497  1.00  0.00    -0.014 A 
ATOM     86  C   UNL A   1      39.908  33.263  39.674  1.00  0.00     0.010 A 
ATOM     87  C   UNL A   1      41.186  34.960  38.502  1.00  0.00     0.010 A 
ATOM     88  C   UNL A   1      39.912  34.056  40.824  1.00  0.00     0.020 A 
ATOM     89  C   UNL A   1      41.213  35.745  39.657  1.00  0.00     0.020 A 
ATOM     90  C   UNL A   1      40.562  35.295  40.807  1.00  0.00     0.054 A 
BRANCH  90  91
ATOM     91  S   UNL A   1      40.584  36.292  42.322  1.00  0.00     0.124 S 
ATOM     92  O   UNL A   1      41.964  36.767  42.354  1.00  0.00    -0.237 OA
ATOM     93  O   UNL A   1      39.575  37.313  42.052  1.00  0.00    -0.237 OA
ATOM     94  O   UNL A   1      40.228  35.337  43.370  1.00  0.00    -0.744 OA
ENDBRANCH  90  91
ENDBRANCH  64  85
ENDBRANCH  38  39
ENDBRANCH  30  33
ENDBRANCH  28  29
ENDBRANCH  27  28
ENDBRANCH   1  27
TORSDOF 19
ENDMDL
MODEL 2
REMARK VINA RESULT:     -10.3      2.923      9.354
REMARK SMILES CO[C@@H]1C[C@H](C(=O)NCCCNC(=O)c2ccc(-c3c4nc(c(-c5ccc(S(=O)(=O)[O-])cc5)c5ccc([nH]5)c(-c5ccc(S(=O)(=O)[O-])cc5)c5nc(c(-c6ccc(S(=O)(=O)[O-])cc6)c6ccc3[nH]6)C=C5)C=C4)cc2)N(C(=O)[C@H](CC(C)C)NC(N)=O)C1
REMARK SMILES IDX 9 1 8 2 6 3 7 4 5 6 3 7 4 8 87 9 75 10 2 11 1 12 76 13 77 14
REMARK SMILES IDX 78 15 83 16 84 17 85 19 86 20 79 23 80 24 81 25 82 26 10 27
REMARK SMILES IDX 11 28 12 29 13 30 14 32 15 33 16 34 74 35 17 36 73 37 18 38
REMARK SMILES IDX 19 39 20 40 67 41 21 42 72 43 66 44 68 45 22 46 71 47 65 48
REMARK SMILES IDX 64 49 23 51 53 52 34 53 52 54 35 55 38 56 51 57 69 58 36 59
REMARK SMILES IDX 37 60 50 62 70 63 39 64 24 65 25 66 33 67 26 68 32 69 27 70
REMARK SMILES IDX 28 71 29 72 30 73 31 74 54 75 55 76 63 77 56 78 62 79 57 80
REMARK SMILES IDX 58 81 59 82 60 83 61 84 40 85 41 86 49 87 42 88 48 89 43 90
REMARK SMILES IDX 44 91 45 92 46 93 47 94
REMARK H PARENT 8 5 83 18 85 21 85 22 12 31 68 50 38 61
REMARK Flexibility Score: inf
ROOT
ATOM      1  C   UNL A   1      32.474  27.171  26.296  1.00  0.00     0.117 C 
ENDROOT
BRANCH   1   2
ATOM      2  N   UNL A   1      33.550  26.333  25.782  1.00  0.00    -0.354 N 
ATOM      3  C   UNL A   1      33.663  25.367  24.843  1.00  0.00     0.242 C 
ATOM      4  O   UNL A   1      34.798  24.869  24.757  1.00  0.00    -0.273 OA
ATOM      5  H   UNL A   1      34.408  26.517  26.230  1.00  0.00     0.163 HD
BRANCH   3   6
ATOM      6  C   UNL A   1      32.543  24.755  23.962  1.00  0.00     0.177 C 
ATOM      7  C   UNL A   1      32.661  25.610  21.730  1.00  0.00     0.139 C 
ATOM      8  C   UNL A   1      31.892  25.778  23.036  1.00  0.00     0.069 C 
ATOM      9  C   UNL A   1      32.955  24.095  21.693  1.00  0.00     0.152 C 
ATOM     10  N   UNL A   1      32.786  23.627  23.073  1.00  0.00    -0.326 N 
BRANCH   7  11
ATOM     11  O   UNL A   1      33.883  26.337  21.719  1.00  0.00    -0.380 OA
ATOM     12  C   UNL A   1      33.775  27.698  22.127  1.00  0.00     0.195 C 
ENDBRANCH   7  11
BRANCH  10  13
ATOM     13  C   UNL A   1      32.473  22.299  23.304  1.00  0.00     0.246 C 
ATOM     14  O   UNL A   1      32.017  21.584  22.404  1.00  0.00    -0.272 OA
BRANCH  13  15
ATOM     15  C   UNL A   1      32.646  21.725  24.739  1.00  0.00     0.173 C 
BRANCH  15  16
ATOM     16  N   UNL A   1      31.319  21.627  25.336  1.00  0.00    -0.327 N 
ATOM     17  C   UNL A   1      30.914  22.469  26.322  1.00  0.00     0.312 C 
ATOM     18  H   UNL A   1      30.700  20.931  25.016  1.00  0.00     0.166 HD
ATOM     19  N   UNL A   1      29.679  22.192  26.791  1.00  0.00    -0.352 N 
ATOM     20  O   UNL A   1      31.586  23.375  26.804  1.00  0.00    -0.249 OA
ATOM     21  H   UNL A   1      29.154  21.461  26.393  1.00  0.00     0.161 HD
ATOM     22  H   UNL A   1      29.304  22.723  27.531  1.00  0.00     0.161 HD
ENDBRANCH  15  16
BRANCH  15  23
ATOM     23  C   UNL A   1      33.393  20.388  24.724  1.00  0.00     0.038 C 
BRANCH  23  24
ATOM     24  C   UNL A   1      32.459  19.154  24.677  1.00  0.00    -0.015 C 
ATOM     25  C   UNL A   1      32.638  18.329  23.398  1.00  0.00     0.007 C 
ATOM     26  C   UNL A   1      32.716  18.252  25.886  1.00  0.00     0.007 C 
ENDBRANCH  23  24
ENDBRANCH  15  23
ENDBRANCH  13  15
ENDBRANCH  10  13
ENDBRANCH   3   6
ENDBRANCH   1   2
BRANCH   1  27
ATOM     27  C   UNL A   1      32.969  28.394  27.086  1.00  0.00     0.042 C 
BRANCH  27  28
ATOM     28  C   UNL A   1      33.854  29.381  26.322  1.00  0.00     0.118 C 
BRANCH  28  29
ATOM     29  N   UNL A   1      33.629  30.751  26.746  1.00  0.00    -0.352 N 
ATOM     30  C   UNL A   1      34.265  31.481  27.723  1.00  0.00     0.251 C 
ATOM     31  H   UNL A   1      32.916  31.228  26.263  1.00  0.00     0.163 HD
ATOM     32  O   UNL A   1      33.744  32.523  28.116  1.00  0.00    -0.269 OA
BRANCH  30  33
ATOM     33  C   UNL A   1      35.559  31.045  28.309  1.00  0.00     0.039 A 
ATOM     34  C   UNL A   1      35.573  29.910  29.128  1.00  0.00     0.014 A 
ATOM     35  C   UNL A   1      36.732  31.791  28.154  1.00  0.00     0.014 A 
ATOM     36  C   UNL A   1      36.754  29.516  29.771  1.00  0.00     0.010 A 
ATOM     37  C   UNL A   1      37.923  31.366  28.754  1.00  0.00     0.010 A 
ATOM     38  C   UNL A   1      37.944  30.236  29.587  1.00  0.00    -0.014 A 
BRANCH  38  39
ATOM     39  C   UNL A   1      39.197  29.835  30.289  1.00  0.00     0.031 A 
ATOM     40  C   UNL A   1      39.586  30.490  31.592  1.00  0.00     0.074 A 
ATOM     41  C   UNL A   1      40.005  28.901  29.748  1.00  0.00     0.049 A 
ATOM     42  N   UNL A   1      40.649  30.291  32.332  1.00  0.00    -0.248 NA
ATOM     43  C   UNL A   1      38.672  31.513  32.126  1.00  0.00     0.031 C 
ATOM     44  C   UNL A   1      39.770  28.207  28.480  1.00  0.00     0.029 A 
ATOM     45  N   UNL A   1      41.193  28.374  30.197  1.00  0.00    -0.354 N 
ATOM     46  C   UNL A   1      40.542  31.173  33.402  1.00  0.00     0.074 A 
ATOM     47  C   UNL A   1      39.328  31.934  33.198  1.00  0.00     0.031 C 
ATOM     48  C   UNL A   1      40.769  27.335  28.263  1.00  0.00     0.029 A 
ATOM     49  C   UNL A   1      41.731  27.427  29.358  1.00  0.00     0.049 A 
ATOM     50  H   UNL A   1      41.619  28.650  31.041  1.00  0.00     0.167 HD
ATOM     51  C   UNL A   1      41.367  31.328  34.465  1.00  0.00     0.031 A 
ATOM     52  C   UNL A   1      42.870  26.712  29.452  1.00  0.00     0.031 A 
ATOM     53  C   UNL A   1      42.560  30.554  34.690  1.00  0.00     0.049 A 
ATOM     54  C   UNL A   1      43.764  26.895  30.649  1.00  0.00     0.074 A 
ATOM     55  C   UNL A   1      43.423  30.599  35.772  1.00  0.00     0.029 A 
ATOM     56  N   UNL A   1      43.058  29.595  33.822  1.00  0.00    -0.354 N 
ATOM     57  N   UNL A   1      43.609  27.693  31.678  1.00  0.00    -0.248 NA
ATOM     58  C   UNL A   1      44.980  26.070  30.703  1.00  0.00     0.031 C 
ATOM     59  C   UNL A   1      44.465  29.696  35.540  1.00  0.00     0.029 A 
ATOM     60  C   UNL A   1      44.226  29.055  34.336  1.00  0.00     0.049 A 
ATOM     61  H   UNL A   1      42.643  29.336  32.968  1.00  0.00     0.167 HD
ATOM     62  C   UNL A   1      44.695  27.449  32.512  1.00  0.00     0.074 A 
ATOM     63  C   UNL A   1      45.489  26.418  31.877  1.00  0.00     0.031 C 
ATOM     64  C   UNL A   1      45.006  28.027  33.697  1.00  0.00     0.031 A 
BRANCH  51  65
ATOM     65  C   UNL A   1      41.011  32.380  35.484  1.00  0.00    -0.014 A 
ATOM     66  C   UNL A   1      40.178  32.081  36.575  1.00  0.00     0.010 A 
ATOM     67  C   UNL A   1      41.574  33.667  35.385  1.00  0.00     0.010 A 
ATOM     68  C   UNL A   1      39.890  33.057  37.535  1.00  0.00     0.020 A 
ATOM     69  C   UNL A   1      41.307  34.638  36.355  1.00  0.00     0.020 A 
ATOM     70  C   UNL A   1      40.456  34.330  37.417  1.00  0.00     0.054 A 
BRANCH  70  71
ATOM     71  S   UNL A   1      40.097  35.564  38.697  1.00  0.00     0.124 S 
ATOM     72  O   UNL A   1      41.368  35.635  39.413  1.00  0.00    -0.237 OA
ATOM     73  O   UNL A   1      39.751  36.748  37.913  1.00  0.00    -0.237 OA
ATOM     74  O   UNL A   1      38.991  34.975  39.447  1.00  0.00    -0.744 OA
ENDBRANCH  70  71
ENDBRANCH  51  65
BRANCH  52  75
ATOM     75  C   UNL A   1      43.237  25.745  28.381  1.00  0.00    -0.014 A 
ATOM     76  C   UNL A   1      42.855  24.395  28.474  1.00  0.00     0.010 A 
ATOM     77  C   UNL A   1      43.983  26.170  27.266  1.00  0.00     0.010 A 
ATOM     78  C   UNL A   1      43.235  23.482  27.487  1.00  0.00     0.020 A 
ATOM     79  C   UNL A   1      44.343  25.264  26.264  1.00  0.00     0.020 A 
ATOM     80  C   UNL A   1      43.980  23.922  26.389  1.00  0.00     0.054 A 
BRANCH  80  81
ATOM     81  S   UNL A   1      44.434  22.731  25.099  1.00  0.00     0.124 S 
ATOM     82  O   UNL A   1      43.128  22.258  24.650  1.00  0.00    -0.237 OA
ATOM     83  O   UNL A   1      45.170  23.558  24.145  1.00  0.00    -0.237 OA
ATOM     84  O   UNL A   1      45.246  21.748  25.815  1.00  0.00    -0.744 OA
ENDBRANCH  80  81
ENDBRANCH  52  75
BRANCH  64  85
ATOM     85  C   UNL A   1      46.243  27.539  34.404  1.00  0.00    -0.014 A 
ATOM     86  C   UNL A   1      47.496  28.132  34.171  1.00  0.00     0.010 A 
ATOM     87  C   UNL A   1      46.139  26.499  35.347  1.00  0.00     0.010 A 
ATOM     88  C   UNL A   1      48.630  27.670  34.843  1.00  0.00     0.020 A 
ATOM     89  C   UNL A   1      47.268  26.052  36.038  1.00  0.00     0.020 A 
ATOM     90  C   UNL A   1      48.510  26.630  35.770  1.00  0.00     0.054 A 
BRANCH  90  91
ATOM     91  S   UNL A   1      49.991  26.072  36.656  1.00  0.00     0.124 S 
ATOM     92  O   UNL A   1      49.571  24.766  37.157  1.00  0.00    -0.237 OA
ATOM     93  O   UNL A   1      51.005  26.045  35.606  1.00  0.00    -0.237 OA
ATOM     94  O   UNL A   1      50.190  27.098  37.678  1.00  0.00    -0.744 OA
ENDBRANCH  90  91
ENDBRANCH  64  85
ENDBRANCH  38  39
ENDBRANCH  30  33
ENDBRANCH  28  29
ENDBRANCH  27  28
ENDBRANCH   1  27
TORSDOF 19
ENDMDL
MODEL 3
REMARK VINA RESULT:      -9.7      5.261      6.389
REMARK SMILES CO[C@@H]1C[C@H](C(=O)NCCCNC(=O)c2ccc(-c3c4nc(c(-c5ccc(S(=O)(=O)[O-])cc5)c5ccc([nH]5)c(-c5ccc(S(=O)(=O)[O-])cc5)c5nc(c(-c6ccc(S(=O)(=O)[O-])cc6)c6ccc3[nH]6)C=C5)C=C4)cc2)N(C(=O)[C@H](CC(C)C)NC(N)=O)C1
REMARK SMILES IDX 9 1 8 2 6 3 7 4 5 6 3 7 4 8 87 9 75 10 2 11 1 12 76 13 77 14
REMARK SMILES IDX 78 15 83 16 84 17 85 19 86 20 79 23 80 24 81 25 82 26 10 27
REMARK SMILES IDX 11 28 12 29 13 30 14 32 15 33 16 34 74 35 17 36 73 37 18 38
REMARK SMILES IDX 19 39 20 40 67 41 21 42 72 43 66 44 68 45 22 46 71 47 65 48
REMARK SMILES IDX 64 49 23 51 53 52 34 53 52 54 35 55 38 56 51 57 69 58 36 59
REMARK SMILES IDX 37 60 50 62 70 63 39 64 24 65 25 66 33 67 26 68 32 69 27 70
REMARK SMILES IDX 28 71 29 72 30 73 31 74 54 75 55 76 63 77 56 78 62 79 57 80
REMARK SMILES IDX 58 81 59 82 60 83 61 84 40 85 41 86 49 87 42 88 48 89 43 90
REMARK SMILES IDX 44 91 45 92 46 93 47 94
REMARK H PARENT 8 5 83 18 85 21 85 22 12 31 68 50 38 61
REMARK Flexibility Score: inf
ROOT
ATOM      1  C   UNL A   1      36.543  23.376  24.291  1.00  0.00     0.117 C 
ENDROOT
BRANCH   1   2
ATOM      2  N   UNL A   1      35.452  24.033  24.998  1.00  0.00    -0.354 N 
ATOM      3  C   UNL A   1      34.164  24.340  24.723  1.00  0.00     0.242 C 
ATOM      4  O   UNL A   1      33.584  24.964  25.627  1.00  0.00    -0.273 OA
ATOM      5  H   UNL A   1      35.718  24.325  25.899  1.00  0.00     0.163 HD
BRANCH   3   6
ATOM      6  C   UNL A   1      33.384  24.101  23.404  1.00  0.00     0.177 C 
ATOM      7  C   UNL A   1      32.009  22.151  23.575  1.00  0.00     0.139 C 
ATOM      8  C   UNL A   1      33.338  22.631  23.001  1.00  0.00     0.069 C 
ATOM      9  C   UNL A   1      31.096  23.385  23.414  1.00  0.00     0.152 C 
ATOM     10  N   UNL A   1      32.001  24.525  23.234  1.00  0.00    -0.326 N 
BRANCH   7  11
ATOM     11  O   UNL A   1      32.104  21.799  24.950  1.00  0.00    -0.380 OA
ATOM     12  C   UNL A   1      31.048  22.292  25.768  1.00  0.00     0.195 C 
ENDBRANCH   7  11
BRANCH  10  13
ATOM     13  C   UNL A   1      31.547  25.651  22.570  1.00  0.00     0.246 C 
ATOM     14  O   UNL A   1      31.884  25.884  21.403  1.00  0.00    -0.272 OA
BRANCH  13  15
ATOM     15  C   UNL A   1      30.650  26.663  23.336  1.00  0.00     0.173 C 
BRANCH  15  16
ATOM     16  N   UNL A   1      31.219  26.835  24.669  1.00  0.00    -0.327 N 
ATOM     17  C   UNL A   1      30.590  26.370  25.781  1.00  0.00     0.312 C 
ATOM     18  H   UNL A   1      32.081  27.300  24.765  1.00  0.00     0.166 HD
ATOM     19  N   UNL A   1      31.236  26.669  26.926  1.00  0.00    -0.352 N 
ATOM     20  O   UNL A   1      29.518  25.773  25.794  1.00  0.00    -0.249 OA
ATOM     21  H   UNL A   1      32.096  27.149  26.897  1.00  0.00     0.161 HD
ATOM     22  H   UNL A   1      30.848  26.407  27.793  1.00  0.00     0.161 HD
ENDBRANCH  15  16
BRANCH  15  23
ATOM     23  C   UNL A   1      30.512  27.985  22.573  1.00  0.00     0.038 C 
BRANCH  23  24
ATOM     24  C   UNL A   1      29.307  28.844  23.029  1.00  0.00    -0.015 C 
ATOM     25  C   UNL A   1      28.953  29.942  22.021  1.00  0.00     0.007 C 
ATOM     26  C   UNL A   1      28.079  27.956  23.244  1.00  0.00     0.007 C 
ENDBRANCH  23  24
ENDBRANCH  15  23
ENDBRANCH  13  15
ENDBRANCH  10  13
ENDBRANCH   3   6
ENDBRANCH   1   2
BRANCH   1  27
ATOM     27  C   UNL A   1      37.249  22.290  25.119  1.00  0.00     0.042 C 
BRANCH  27  28
ATOM     28  C   UNL A   1      38.269  22.779  26.148  1.00  0.00     0.118 C 
BRANCH  28  29
ATOM     29  N   UNL A   1      39.483  21.982  26.131  1.00  0.00    -0.352 N 
ATOM     30  C   UNL A   1      40.791  22.377  26.281  1.00  0.00     0.251 C 
ATOM     31  H   UNL A   1      39.349  21.017  25.991  1.00  0.00     0.163 HD
ATOM     32  O   UNL A   1      41.685  21.596  25.958  1.00  0.00    -0.269 OA
BRANCH  30  33
ATOM     33  C   UNL A   1      41.149  23.713  26.824  1.00  0.00     0.039 A 
ATOM     34  C   UNL A   1      41.323  24.774  25.927  1.00  0.00     0.014 A 
ATOM     35  C   UNL A   1      41.420  23.914  28.181  1.00  0.00     0.014 A 
ATOM     36  C   UNL A   1      41.747  26.028  26.388  1.00  0.00     0.010 A 
ATOM     37  C   UNL A   1      41.792  25.180  28.648  1.00  0.00     0.010 A 
ATOM     38  C   UNL A   1      41.980  26.247  27.754  1.00  0.00    -0.014 A 
BRANCH  38  39
ATOM     39  C   UNL A   1      42.455  27.572  28.246  1.00  0.00     0.031 A 
ATOM     40  C   UNL A   1      43.931  27.885  28.294  1.00  0.00     0.074 A 
ATOM     41  C   UNL A   1      41.566  28.492  28.675  1.00  0.00     0.049 A 
ATOM     42  N   UNL A   1      44.531  28.971  28.714  1.00  0.00    -0.248 NA
ATOM     43  C   UNL A   1      44.852  26.838  27.826  1.00  0.00     0.031 C 
ATOM     44  C   UNL A   1      40.113  28.314  28.714  1.00  0.00     0.029 A 
ATOM     45  N   UNL A   1      41.757  29.762  29.166  1.00  0.00    -0.354 N 
ATOM     46  C   UNL A   1      45.895  28.731  28.581  1.00  0.00     0.074 A 
ATOM     47  C   UNL A   1      46.035  27.383  28.073  1.00  0.00     0.031 C 
ATOM     48  C   UNL A   1      39.544  29.437  29.183  1.00  0.00     0.029 A 
ATOM     49  C   UNL A   1      40.589  30.404  29.507  1.00  0.00     0.049 A 
ATOM     50  H   UNL A   1      42.646  30.172  29.265  1.00  0.00     0.167 HD
ATOM     51  C   UNL A   1      46.936  29.558  28.842  1.00  0.00     0.031 A 
ATOM     52  C   UNL A   1      40.378  31.631  30.024  1.00  0.00     0.031 A 
ATOM     53  C   UNL A   1      46.803  30.910  29.318  1.00  0.00     0.049 A 
ATOM     54  C   UNL A   1      41.552  32.534  30.294  1.00  0.00     0.074 A 
ATOM     55  C   UNL A   1      47.801  31.842  29.550  1.00  0.00     0.029 A 
ATOM     56  N   UNL A   1      45.602  31.524  29.634  1.00  0.00    -0.354 N 
ATOM     57  N   UNL A   1      42.829  32.305  30.102  1.00  0.00    -0.248 NA
ATOM     58  C   UNL A   1      41.254  33.867  30.838  1.00  0.00     0.031 C 
ATOM     59  C   UNL A   1      47.206  33.008  30.044  1.00  0.00     0.029 A 
ATOM     60  C   UNL A   1      45.835  32.817  30.075  1.00  0.00     0.049 A 
ATOM     61  H   UNL A   1      44.715  31.105  29.556  1.00  0.00     0.167 HD
ATOM     62  C   UNL A   1      43.483  33.473  30.479  1.00  0.00     0.074 A 
ATOM     63  C   UNL A   1      42.462  34.412  30.894  1.00  0.00     0.031 C 
ATOM     64  C   UNL A   1      44.811  33.743  30.483  1.00  0.00     0.031 A 
BRANCH  51  65
ATOM     65  C   UNL A   1      48.329  29.028  28.615  1.00  0.00    -0.014 A 
ATOM     66  C   UNL A   1      48.919  29.063  27.340  1.00  0.00     0.010 A 
ATOM     67  C   UNL A   1      49.081  28.552  29.705  1.00  0.00     0.010 A 
ATOM     68  C   UNL A   1      50.228  28.605  27.153  1.00  0.00     0.020 A 
ATOM     69  C   UNL A   1      50.398  28.116  29.526  1.00  0.00     0.020 A 
ATOM     70  C   UNL A   1      50.958  28.133  28.248  1.00  0.00     0.054 A 
BRANCH  70  71
ATOM     71  S   UNL A   1      52.666  27.583  27.983  1.00  0.00     0.124 S 
ATOM     72  O   UNL A   1      52.808  26.542  28.999  1.00  0.00    -0.237 OA
ATOM     73  O   UNL A   1      52.641  27.111  26.601  1.00  0.00    -0.237 OA
ATOM     74  O   UNL A   1      53.458  28.788  28.211  1.00  0.00    -0.744 OA
ENDBRANCH  70  71
ENDBRANCH  51  65
BRANCH  52  75
ATOM     75  C   UNL A   1      38.993  32.089  30.322  1.00  0.00    -0.014 A 
ATOM     76  C   UNL A   1      38.413  31.841  31.578  1.00  0.00     0.010 A 
ATOM     77  C   UNL A   1      38.243  32.765  29.342  1.00  0.00     0.010 A 
ATOM     78  C   UNL A   1      37.098  32.237  31.841  1.00  0.00     0.020 A 
ATOM     79  C   UNL A   1      36.938  33.186  29.611  1.00  0.00     0.020 A 
ATOM     80  C   UNL A   1      36.368  32.905  30.854  1.00  0.00     0.054 A 
BRANCH  80  81
ATOM     81  S   UNL A   1      34.676  33.444  31.224  1.00  0.00     0.124 S 
ATOM     82  O   UNL A   1      34.192  32.360  32.073  1.00  0.00    -0.237 OA
ATOM     83  O   UNL A   1      34.888  34.725  31.894  1.00  0.00    -0.237 OA
ATOM     84  O   UNL A   1      34.052  33.536  29.905  1.00  0.00    -0.744 OA
ENDBRANCH  80  81
ENDBRANCH  52  75
BRANCH  64  85
ATOM     85  C   UNL A   1      45.237  35.120  30.919  1.00  0.00    -0.014 A 
ATOM     86  C   UNL A   1      45.567  35.388  32.259  1.00  0.00     0.010 A 
ATOM     87  C   UNL A   1      45.351  36.147  29.964  1.00  0.00     0.010 A 
ATOM     88  C   UNL A   1      45.969  36.669  32.643  1.00  0.00     0.020 A 
ATOM     89  C   UNL A   1      45.776  37.423  30.341  1.00  0.00     0.020 A 
ATOM     90  C   UNL A   1      46.068  37.681  31.682  1.00  0.00     0.054 A 
BRANCH  90  91
ATOM     91  S   UNL A   1      46.626  39.328  32.198  1.00  0.00     0.124 S 
ATOM     92  O   UNL A   1      46.495  40.094  30.962  1.00  0.00    -0.237 OA
ATOM     93  O   UNL A   1      45.680  39.673  33.256  1.00  0.00    -0.237 OA
ATOM     94  O   UNL A   1      47.998  39.102  32.649  1.00  0.00    -0.744 OA
ENDBRANCH  90  91
ENDBRANCH  64  85
ENDBRANCH  38  39
ENDBRANCH  30  33
ENDBRANCH  28  29
ENDBRANCH  27  28
ENDBRANCH   1  27
TORSDOF 19
ENDMDL
