MODEL 1
REMARK VINA RESULT:     -10.8      0.000      0.000
REMARK SMILES CC(=O)N[C@@H](CSCc1ccnc2ccccc12)C(=O)NCCCNC(=O)c1ccc(-c2c3nc(c(-c4ccc(S(=O)(=O)[O-])cc4)c4ccc([nH]4)c(-c4ccc(S(=O)(=O)[O-])cc4)c4nc(c(-c5ccc(S(=O)(=O)[O-])cc5)c5ccc2[nH]5)C=C4)C=C3)cc1
REMARK SMILES IDX 22 1 21 2 19 3 20 4 5 6 4 7 1 8 2 9 3 10 6 12 7 13 8 14 9 15
REMARK SMILES IDX 10 16 18 17 11 18 13 19 17 20 12 21 14 22 16 23 15 24 23 25
REMARK SMILES IDX 24 26 25 27 26 28 27 30 28 31 29 32 87 33 30 34 86 35 31 36
REMARK SMILES IDX 32 37 33 38 80 39 34 40 85 41 79 42 81 43 35 44 84 45 78 46
REMARK SMILES IDX 77 47 36 49 66 50 47 51 65 52 48 53 51 54 64 55 82 56 49 57
REMARK SMILES IDX 50 58 63 60 83 61 52 62 37 63 38 64 46 65 39 66 45 67 40 68
REMARK SMILES IDX 41 69 42 70 43 71 44 72 67 73 68 74 76 75 69 76 75 77 70 78
REMARK SMILES IDX 71 79 72 80 73 81 74 82 53 83 54 84 62 85 55 86 61 87 56 88
REMARK SMILES IDX 57 89 58 90 59 91 60 92
REMARK H PARENT 21 5 4 11 25 29 81 48 51 59
REMARK Flexibility Score: inf
ROOT
ATOM      1  C   UNL A   1      34.796  23.451  24.493  1.00  0.00     0.117 C 
ENDROOT
BRANCH   1   2
ATOM      2  N   UNL A   1      34.542  23.176  25.880  1.00  0.00    -0.354 N 
ATOM      3  C   UNL A   1      33.577  22.369  26.404  1.00  0.00     0.243 C 
ATOM      4  O   UNL A   1      33.704  22.029  27.585  1.00  0.00    -0.273 OA
ATOM      5  H   UNL A   1      35.134  23.622  26.527  1.00  0.00     0.163 HD
BRANCH   3   6
ATOM      6  C   UNL A   1      32.351  21.894  25.583  1.00  0.00     0.181 C 
BRANCH   6   7
ATOM      7  N   UNL A   1      32.039  20.489  25.818  1.00  0.00    -0.344 N 
ATOM      8  C   UNL A   1      33.404  19.611  23.951  1.00  0.00     0.114 C 
ATOM      9  C   UNL A   1      32.514  19.400  25.146  1.00  0.00     0.217 C 
ATOM     10  O   UNL A   1      32.211  18.278  25.541  1.00  0.00    -0.275 OA
ATOM     11  H   UNL A   1      31.409  20.303  26.551  1.00  0.00     0.164 HD
ENDBRANCH   6   7
BRANCH   6  12
ATOM     12  C   UNL A   1      31.134  22.838  25.460  1.00  0.00     0.105 C 
BRANCH  12  13
ATOM     13  S   UNL A   1      30.957  24.566  26.088  1.00  0.00    -0.154 SA
BRANCH  13  14
ATOM     14  C   UNL A   1      31.848  25.619  24.891  1.00  0.00     0.105 C 
BRANCH  14  15
ATOM     15  C   UNL A   1      31.402  27.042  24.665  1.00  0.00    -0.027 A 
ATOM     16  C   UNL A   1      30.466  27.374  23.686  1.00  0.00     0.025 A 
ATOM     17  C   UNL A   1      31.905  28.084  25.509  1.00  0.00     0.004 A 
ATOM     18  C   UNL A   1      30.088  28.693  23.545  1.00  0.00     0.112 A 
ATOM     19  C   UNL A   1      31.455  29.401  25.259  1.00  0.00     0.070 A 
ATOM     20  C   UNL A   1      32.821  27.887  26.580  1.00  0.00     0.010 A 
ATOM     21  N   UNL A   1      30.570  29.699  24.295  1.00  0.00    -0.256 NA
ATOM     22  C   UNL A   1      31.937  30.444  26.040  1.00  0.00     0.029 A 
ATOM     23  C   UNL A   1      33.284  28.952  27.354  1.00  0.00     0.001 A 
ATOM     24  C   UNL A   1      32.846  30.237  27.079  1.00  0.00     0.002 A 
ENDBRANCH  14  15
ENDBRANCH  13  14
ENDBRANCH  12  13
ENDBRANCH   6  12
ENDBRANCH   3   6
ENDBRANCH   1   2
BRANCH   1  25
ATOM     25  C   UNL A   1      36.140  22.979  23.986  1.00  0.00     0.042 C 
BRANCH  25  26
ATOM     26  C   UNL A   1      37.300  23.619  24.722  1.00  0.00     0.118 C 
BRANCH  26  27
ATOM     27  N   UNL A   1      38.144  22.635  25.398  1.00  0.00    -0.352 N 
ATOM     28  C   UNL A   1      39.162  22.807  26.302  1.00  0.00     0.251 C 
ATOM     29  H   UNL A   1      37.952  21.698  25.165  1.00  0.00     0.163 HD
ATOM     30  O   UNL A   1      39.866  21.848  26.609  1.00  0.00    -0.269 OA
BRANCH  28  31
ATOM     31  C   UNL A   1      39.421  24.140  26.880  1.00  0.00     0.039 A 
ATOM     32  C   UNL A   1      38.958  24.431  28.165  1.00  0.00     0.014 A 
ATOM     33  C   UNL A   1      40.136  25.099  26.160  1.00  0.00     0.014 A 
ATOM     34  C   UNL A   1      39.285  25.653  28.754  1.00  0.00     0.010 A 
ATOM     35  C   UNL A   1      40.564  26.257  26.790  1.00  0.00     0.010 A 
ATOM     36  C   UNL A   1      40.130  26.556  28.088  1.00  0.00    -0.014 A 
BRANCH  36  37
ATOM     37  C   UNL A   1      40.555  27.834  28.708  1.00  0.00     0.031 A 
ATOM     38  C   UNL A   1      41.949  27.965  29.263  1.00  0.00     0.074 A 
ATOM     39  C   UNL A   1      39.672  28.845  28.830  1.00  0.00     0.049 A 
ATOM     40  N   UNL A   1      42.484  28.960  29.924  1.00  0.00    -0.248 NA
ATOM     41  C   UNL A   1      42.853  26.815  29.082  1.00  0.00     0.031 C 
ATOM     42  C   UNL A   1      38.281  28.822  28.369  1.00  0.00     0.029 A 
ATOM     43  N   UNL A   1      39.814  30.091  29.385  1.00  0.00    -0.354 N 
ATOM     44  C   UNL A   1      43.772  28.549  30.244  1.00  0.00     0.074 A 
ATOM     45  C   UNL A   1      43.917  27.191  29.774  1.00  0.00     0.031 C 
ATOM     46  C   UNL A   1      37.712  30.012  28.624  1.00  0.00     0.029 A 
ATOM     47  C   UNL A   1      38.678  30.863  29.310  1.00  0.00     0.049 A 
ATOM     48  H   UNL A   1      40.650  30.404  29.801  1.00  0.00     0.167 HD
ATOM     49  C   UNL A   1      44.761  29.252  30.846  1.00  0.00     0.031 A 
ATOM     50  C   UNL A   1      38.441  32.113  29.750  1.00  0.00     0.031 A 
ATOM     51  C   UNL A   1      44.618  30.609  31.296  1.00  0.00     0.049 A 
ATOM     52  C   UNL A   1      39.548  32.862  30.442  1.00  0.00     0.074 A 
ATOM     53  C   UNL A   1      45.567  31.423  31.886  1.00  0.00     0.029 A 
ATOM     54  N   UNL A   1      43.454  31.354  31.196  1.00  0.00    -0.354 N 
ATOM     55  N   UNL A   1      40.777  32.473  30.692  1.00  0.00    -0.248 NA
ATOM     56  C   UNL A   1      39.241  34.223  30.902  1.00  0.00     0.031 C 
ATOM     57  C   UNL A   1      44.963  32.648  32.186  1.00  0.00     0.029 A 
ATOM     58  C   UNL A   1      43.655  32.617  31.727  1.00  0.00     0.049 A 
ATOM     59  H   UNL A   1      42.609  31.033  30.805  1.00  0.00     0.167 HD
ATOM     60  C   UNL A   1      41.397  33.555  31.306  1.00  0.00     0.074 A 
ATOM     61  C   UNL A   1      40.415  34.617  31.374  1.00  0.00     0.031 C 
ATOM     62  C   UNL A   1      42.665  33.662  31.773  1.00  0.00     0.031 A 
BRANCH  49  63
ATOM     63  C   UNL A   1      46.089  28.564  31.029  1.00  0.00    -0.014 A 
ATOM     64  C   UNL A   1      47.106  28.690  30.065  1.00  0.00     0.010 A 
ATOM     65  C   UNL A   1      46.341  27.815  32.193  1.00  0.00     0.010 A 
ATOM     66  C   UNL A   1      48.334  28.051  30.241  1.00  0.00     0.020 A 
ATOM     67  C   UNL A   1      47.581  27.199  32.388  1.00  0.00     0.020 A 
ATOM     68  C   UNL A   1      48.564  27.309  31.403  1.00  0.00     0.054 A 
BRANCH  68  69
ATOM     69  S   UNL A   1      50.182  26.518  31.618  1.00  0.00     0.124 S 
ATOM     70  O   UNL A   1      51.004  27.248  30.656  1.00  0.00    -0.237 OA
ATOM     71  O   UNL A   1      50.481  26.779  33.024  1.00  0.00    -0.237 OA
ATOM     72  O   UNL A   1      49.931  25.118  31.286  1.00  0.00    -0.744 OA
ENDBRANCH  68  69
ENDBRANCH  49  63
BRANCH  50  73
ATOM     73  C   UNL A   1      37.110  32.748  29.538  1.00  0.00    -0.014 A 
ATOM     74  C   UNL A   1      36.850  33.480  28.365  1.00  0.00     0.010 A 
ATOM     75  C   UNL A   1      36.103  32.644  30.514  1.00  0.00     0.010 A 
ATOM     76  C   UNL A   1      35.623  34.127  28.189  1.00  0.00     0.020 A 
ATOM     77  C   UNL A   1      34.863  33.263  30.327  1.00  0.00     0.020 A 
ATOM     78  C   UNL A   1      34.638  34.017  29.175  1.00  0.00     0.054 A 
BRANCH  78  79
ATOM     79  S   UNL A   1      33.048  34.852  28.917  1.00  0.00     0.124 S 
ATOM     80  O   UNL A   1      33.468  36.141  28.377  1.00  0.00    -0.237 OA
ATOM     81  O   UNL A   1      32.373  33.961  27.978  1.00  0.00    -0.237 OA
ATOM     82  O   UNL A   1      32.464  34.892  30.256  1.00  0.00    -0.744 OA
ENDBRANCH  78  79
ENDBRANCH  50  73
BRANCH  62  83
ATOM     83  C   UNL A   1      43.080  34.988  32.353  1.00  0.00    -0.014 A 
ATOM     84  C   UNL A   1      43.655  35.989  31.551  1.00  0.00     0.010 A 
ATOM     85  C   UNL A   1      42.837  35.251  33.714  1.00  0.00     0.010 A 
ATOM     86  C   UNL A   1      44.012  37.219  32.109  1.00  0.00     0.020 A 
ATOM     87  C   UNL A   1      43.163  36.491  34.267  1.00  0.00     0.020 A 
ATOM     88  C   UNL A   1      43.762  37.463  33.463  1.00  0.00     0.054 A 
BRANCH  88  89
ATOM     89  S   UNL A   1      44.192  39.085  34.150  1.00  0.00     0.124 S 
ATOM     90  O   UNL A   1      44.450  38.762  35.551  1.00  0.00    -0.237 OA
ATOM     91  O   UNL A   1      45.364  39.464  33.365  1.00  0.00    -0.237 OA
ATOM     92  O   UNL A   1      42.999  39.892  33.906  1.00  0.00    -0.744 OA
ENDBRANCH  88  89
ENDBRANCH  62  83
ENDBRANCH  36  37
ENDBRANCH  28  31
ENDBRANCH  26  27
ENDBRANCH  25  26
ENDBRANCH   1  25
TORSDOF 18
ENDMDL
MODEL 2
REMARK VINA RESULT:     -10.7      3.357      3.959
REMARK SMILES CC(=O)N[C@@H](CSCc1ccnc2ccccc12)C(=O)NCCCNC(=O)c1ccc(-c2c3nc(c(-c4ccc(S(=O)(=O)[O-])cc4)c4ccc([nH]4)c(-c4ccc(S(=O)(=O)[O-])cc4)c4nc(c(-c5ccc(S(=O)(=O)[O-])cc5)c5ccc2[nH]5)C=C4)C=C3)cc1
REMARK SMILES IDX 22 1 21 2 19 3 20 4 5 6 4 7 1 8 2 9 3 10 6 12 7 13 8 14 9 15
REMARK SMILES IDX 10 16 18 17 11 18 13 19 17 20 12 21 14 22 16 23 15 24 23 25
REMARK SMILES IDX 24 26 25 27 26 28 27 30 28 31 29 32 87 33 30 34 86 35 31 36
REMARK SMILES IDX 32 37 33 38 80 39 34 40 85 41 79 42 81 43 35 44 84 45 78 46
REMARK SMILES IDX 77 47 36 49 66 50 47 51 65 52 48 53 51 54 64 55 82 56 49 57
REMARK SMILES IDX 50 58 63 60 83 61 52 62 37 63 38 64 46 65 39 66 45 67 40 68
REMARK SMILES IDX 41 69 42 70 43 71 44 72 67 73 68 74 76 75 69 76 75 77 70 78
REMARK SMILES IDX 71 79 72 80 73 81 74 82 53 83 54 84 62 85 55 86 61 87 56 88
REMARK SMILES IDX 57 89 58 90 59 91 60 92
REMARK H PARENT 21 5 4 11 25 29 81 48 51 59
REMARK Flexibility Score: inf
ROOT
ATOM      1  C   UNL A   1      36.375  23.106  25.733  1.00  0.00     0.117 C 
ENDROOT
BRANCH   1   2
ATOM      2  N   UNL A   1      35.538  22.871  26.877  1.00  0.00    -0.354 N 
ATOM      3  C   UNL A   1      34.241  22.452  26.886  1.00  0.00     0.243 C 
ATOM      4  O   UNL A   1      33.792  22.026  27.956  1.00  0.00    -0.273 OA
ATOM      5  H   UNL A   1      35.949  23.031  27.756  1.00  0.00     0.163 HD
BRANCH   3   6
ATOM      6  C   UNL A   1      33.338  22.509  25.628  1.00  0.00     0.181 C 
BRANCH   6   7
ATOM      7  N   UNL A   1      32.472  21.342  25.516  1.00  0.00    -0.344 N 
ATOM      8  C   UNL A   1      34.229  19.799  24.708  1.00  0.00     0.114 C 
ATOM      9  C   UNL A   1      32.817  20.074  25.148  1.00  0.00     0.217 C 
ATOM     10  O   UNL A   1      31.967  19.188  25.194  1.00  0.00    -0.275 OA
ATOM     11  H   UNL A   1      31.523  21.486  25.732  1.00  0.00     0.164 HD
ENDBRANCH   6   7
BRANCH   6  12
ATOM     12  C   UNL A   1      32.694  23.860  25.243  1.00  0.00     0.105 C 
BRANCH  12  13
ATOM     13  S   UNL A   1      33.316  25.129  24.054  1.00  0.00    -0.154 SA
BRANCH  13  14
ATOM     14  C   UNL A   1      33.901  26.521  25.082  1.00  0.00     0.105 C 
BRANCH  14  15
ATOM     15  C   UNL A   1      33.066  27.772  25.197  1.00  0.00    -0.027 A 
ATOM     16  C   UNL A   1      31.861  27.918  24.510  1.00  0.00     0.025 A 
ATOM     17  C   UNL A   1      33.484  28.825  26.072  1.00  0.00     0.004 A 
ATOM     18  C   UNL A   1      31.137  29.080  24.675  1.00  0.00     0.112 A 
ATOM     19  C   UNL A   1      32.666  29.976  26.148  1.00  0.00     0.070 A 
ATOM     20  C   UNL A   1      34.659  28.792  26.874  1.00  0.00     0.010 A 
ATOM     21  N   UNL A   1      31.520  30.102  25.460  1.00  0.00    -0.256 NA
ATOM     22  C   UNL A   1      33.048  31.030  26.968  1.00  0.00     0.029 A 
ATOM     23  C   UNL A   1      35.017  29.862  27.696  1.00  0.00     0.001 A 
ATOM     24  C   UNL A   1      34.211  30.988  27.738  1.00  0.00     0.002 A 
ENDBRANCH  14  15
ENDBRANCH  13  14
ENDBRANCH  12  13
ENDBRANCH   6  12
ENDBRANCH   3   6
ENDBRANCH   1   2
BRANCH   1  25
ATOM     25  C   UNL A   1      37.852  22.875  25.967  1.00  0.00     0.042 C 
BRANCH  25  26
ATOM     26  C   UNL A   1      38.562  24.111  26.479  1.00  0.00     0.118 C 
BRANCH  26  27
ATOM     27  N   UNL A   1      39.962  24.164  26.062  1.00  0.00    -0.352 N 
ATOM     28  C   UNL A   1      40.947  25.070  26.364  1.00  0.00     0.251 C 
ATOM     29  H   UNL A   1      40.243  23.432  25.466  1.00  0.00     0.163 HD
ATOM     30  O   UNL A   1      42.015  25.028  25.756  1.00  0.00    -0.269 OA
BRANCH  28  31
ATOM     31  C   UNL A   1      40.715  26.100  27.395  1.00  0.00     0.039 A 
ATOM     32  C   UNL A   1      39.862  25.818  28.464  1.00  0.00     0.014 A 
ATOM     33  C   UNL A   1      41.350  27.341  27.315  1.00  0.00     0.014 A 
ATOM     34  C   UNL A   1      39.715  26.751  29.492  1.00  0.00     0.010 A 
ATOM     35  C   UNL A   1      41.301  28.211  28.393  1.00  0.00     0.010 A 
ATOM     36  C   UNL A   1      40.471  27.934  29.486  1.00  0.00    -0.014 A 
BRANCH  36  37
ATOM     37  C   UNL A   1      40.394  28.919  30.593  1.00  0.00     0.031 A 
ATOM     38  C   UNL A   1      41.303  28.772  31.784  1.00  0.00     0.074 A 
ATOM     39  C   UNL A   1      39.466  29.896  30.556  1.00  0.00     0.049 A 
ATOM     40  N   UNL A   1      41.329  29.468  32.892  1.00  0.00    -0.248 NA
ATOM     41  C   UNL A   1      42.292  27.681  31.741  1.00  0.00     0.031 C 
ATOM     42  C   UNL A   1      38.501  30.115  29.474  1.00  0.00     0.029 A 
ATOM     43  N   UNL A   1      39.181  30.890  31.457  1.00  0.00    -0.354 N 
ATOM     44  C   UNL A   1      42.322  28.891  33.675  1.00  0.00     0.074 A 
ATOM     45  C   UNL A   1      42.824  27.745  32.952  1.00  0.00     0.031 C 
ATOM     46  C   UNL A   1      37.759  31.198  29.757  1.00  0.00     0.029 A 
ATOM     47  C   UNL A   1      38.159  31.721  31.059  1.00  0.00     0.049 A 
ATOM     48  H   UNL A   1      39.661  30.998  32.310  1.00  0.00     0.167 HD
ATOM     49  C   UNL A   1      42.800  29.298  34.874  1.00  0.00     0.031 A 
ATOM     50  C   UNL A   1      37.605  32.780  31.678  1.00  0.00     0.031 A 
ATOM     51  C   UNL A   1      42.310  30.449  35.581  1.00  0.00     0.049 A 
ATOM     52  C   UNL A   1      38.134  33.195  33.025  1.00  0.00     0.074 A 
ATOM     53  C   UNL A   1      42.747  30.968  36.786  1.00  0.00     0.029 A 
ATOM     54  N   UNL A   1      41.279  31.265  35.142  1.00  0.00    -0.354 N 
ATOM     55  N   UNL A   1      39.108  32.664  33.727  1.00  0.00    -0.248 NA
ATOM     56  C   UNL A   1      37.497  34.357  33.658  1.00  0.00     0.031 C 
ATOM     57  C   UNL A   1      41.949  32.073  37.099  1.00  0.00     0.029 A 
ATOM     58  C   UNL A   1      41.055  32.277  36.059  1.00  0.00     0.049 A 
ATOM     59  H   UNL A   1      40.780  31.142  34.302  1.00  0.00     0.167 HD
ATOM     60  C   UNL A   1      39.222  33.452  34.868  1.00  0.00     0.074 A 
ATOM     61  C   UNL A   1      38.231  34.501  34.752  1.00  0.00     0.031 C 
ATOM     62  C   UNL A   1      40.070  33.319  35.917  1.00  0.00     0.031 A 
BRANCH  49  63
ATOM     63  C   UNL A   1      43.924  28.500  35.481  1.00  0.00    -0.014 A 
ATOM     64  C   UNL A   1      43.662  27.488  36.424  1.00  0.00     0.010 A 
ATOM     65  C   UNL A   1      45.252  28.733  35.082  1.00  0.00     0.010 A 
ATOM     66  C   UNL A   1      44.708  26.751  36.982  1.00  0.00     0.020 A 
ATOM     67  C   UNL A   1      46.299  27.976  35.615  1.00  0.00     0.020 A 
ATOM     68  C   UNL A   1      46.021  27.000  36.574  1.00  0.00     0.054 A 
BRANCH  68  69
ATOM     69  S   UNL A   1      47.355  26.003  37.293  1.00  0.00     0.124 S 
ATOM     70  O   UNL A   1      48.508  26.429  36.504  1.00  0.00    -0.237 OA
ATOM     71  O   UNL A   1      47.356  26.432  38.689  1.00  0.00    -0.237 OA
ATOM     72  O   UNL A   1      46.920  24.627  37.067  1.00  0.00    -0.744 OA
ENDBRANCH  68  69
ENDBRANCH  49  63
BRANCH  50  73
ATOM     73  C   UNL A   1      36.497  33.538  31.030  1.00  0.00    -0.014 A 
ATOM     74  C   UNL A   1      35.367  33.923  31.776  1.00  0.00     0.010 A 
ATOM     75  C   UNL A   1      36.554  33.861  29.662  1.00  0.00     0.010 A 
ATOM     76  C   UNL A   1      34.300  34.581  31.157  1.00  0.00     0.020 A 
ATOM     77  C   UNL A   1      35.503  34.548  29.049  1.00  0.00     0.020 A 
ATOM     78  C   UNL A   1      34.374  34.886  29.796  1.00  0.00     0.054 A 
BRANCH  78  79
ATOM     79  S   UNL A   1      32.983  35.755  29.019  1.00  0.00     0.124 S 
ATOM     80  O   UNL A   1      33.659  36.839  28.315  1.00  0.00    -0.237 OA
ATOM     81  O   UNL A   1      32.397  34.717  28.173  1.00  0.00    -0.237 OA
ATOM     82  O   UNL A   1      32.158  36.161  30.154  1.00  0.00    -0.744 OA
ENDBRANCH  78  79
ENDBRANCH  50  73
BRANCH  62  83
ATOM     83  C   UNL A   1      39.999  34.361  37.001  1.00  0.00    -0.014 A 
ATOM     84  C   UNL A   1      40.735  35.556  36.915  1.00  0.00     0.010 A 
ATOM     85  C   UNL A   1      39.137  34.161  38.094  1.00  0.00     0.010 A 
ATOM     86  C   UNL A   1      40.635  36.518  37.924  1.00  0.00     0.020 A 
ATOM     87  C   UNL A   1      39.011  35.134  39.088  1.00  0.00     0.020 A 
ATOM     88  C   UNL A   1      39.773  36.301  39.003  1.00  0.00     0.054 A 
BRANCH  88  89
ATOM     89  S   UNL A   1      39.626  37.587  40.273  1.00  0.00     0.124 S 
ATOM     90  O   UNL A   1      38.254  38.048  40.081  1.00  0.00    -0.237 OA
ATOM     91  O   UNL A   1      39.874  36.844  41.507  1.00  0.00    -0.237 OA
ATOM     92  O   UNL A   1      40.664  38.550  39.914  1.00  0.00    -0.744 OA
ENDBRANCH  88  89
ENDBRANCH  62  83
ENDBRANCH  36  37
ENDBRANCH  28  31
ENDBRANCH  26  27
ENDBRANCH  25  26
ENDBRANCH   1  25
TORSDOF 18
ENDMDL
MODEL 3
REMARK VINA RESULT:     -10.6      3.778      5.078
REMARK SMILES CC(=O)N[C@@H](CSCc1ccnc2ccccc12)C(=O)NCCCNC(=O)c1ccc(-c2c3nc(c(-c4ccc(S(=O)(=O)[O-])cc4)c4ccc([nH]4)c(-c4ccc(S(=O)(=O)[O-])cc4)c4nc(c(-c5ccc(S(=O)(=O)[O-])cc5)c5ccc2[nH]5)C=C4)C=C3)cc1
REMARK SMILES IDX 22 1 21 2 19 3 20 4 5 6 4 7 1 8 2 9 3 10 6 12 7 13 8 14 9 15
REMARK SMILES IDX 10 16 18 17 11 18 13 19 17 20 12 21 14 22 16 23 15 24 23 25
REMARK SMILES IDX 24 26 25 27 26 28 27 30 28 31 29 32 87 33 30 34 86 35 31 36
REMARK SMILES IDX 32 37 33 38 80 39 34 40 85 41 79 42 81 43 35 44 84 45 78 46
REMARK SMILES IDX 77 47 36 49 66 50 47 51 65 52 48 53 51 54 64 55 82 56 49 57
REMARK SMILES IDX 50 58 63 60 83 61 52 62 37 63 38 64 46 65 39 66 45 67 40 68
REMARK SMILES IDX 41 69 42 70 43 71 44 72 67 73 68 74 76 75 69 76 75 77 70 78
REMARK SMILES IDX 71 79 72 80 73 81 74 82 53 83 54 84 62 85 55 86 61 87 56 88
REMARK SMILES IDX 57 89 58 90 59 91 60 92
REMARK H PARENT 21 5 4 11 25 29 81 48 51 59
REMARK Flexibility Score: inf
ROOT
ATOM      1  C   UNL A   1      36.909  20.846  25.129  1.00  0.00     0.117 C 
ENDROOT
BRANCH   1   2
ATOM      2  N   UNL A   1      35.768  19.977  25.062  1.00  0.00    -0.354 N 
ATOM      3  C   UNL A   1      34.456  20.333  24.959  1.00  0.00     0.243 C 
ATOM      4  O   UNL A   1      33.657  19.455  24.618  1.00  0.00    -0.273 OA
ATOM      5  H   UNL A   1      35.954  19.012  25.094  1.00  0.00     0.163 HD
BRANCH   3   6
ATOM      6  C   UNL A   1      33.955  21.768  25.265  1.00  0.00     0.181 C 
BRANCH   6   7
ATOM      7  N   UNL A   1      33.894  22.599  24.069  1.00  0.00    -0.344 N 
ATOM      8  C   UNL A   1      35.150  24.506  25.020  1.00  0.00     0.114 C 
ATOM      9  C   UNL A   1      34.449  23.830  23.873  1.00  0.00     0.217 C 
ATOM     10  O   UNL A   1      34.371  24.349  22.762  1.00  0.00    -0.275 OA
ATOM     11  H   UNL A   1      33.391  22.226  23.310  1.00  0.00     0.164 HD
ENDBRANCH   6   7
BRANCH   6  12
ATOM     12  C   UNL A   1      32.790  21.945  26.264  1.00  0.00     0.105 C 
BRANCH  12  13
ATOM     13  S   UNL A   1      31.169  22.791  25.996  1.00  0.00    -0.154 SA
BRANCH  13  14
ATOM     14  C   UNL A   1      31.459  24.548  26.398  1.00  0.00     0.105 C 
BRANCH  14  15
ATOM     15  C   UNL A   1      31.356  25.593  25.315  1.00  0.00    -0.027 A 
ATOM     16  C   UNL A   1      31.078  25.255  23.991  1.00  0.00     0.025 A 
ATOM     17  C   UNL A   1      31.494  26.978  25.651  1.00  0.00     0.004 A 
ATOM     18  C   UNL A   1      30.978  26.261  23.053  1.00  0.00     0.112 A 
ATOM     19  C   UNL A   1      31.387  27.919  24.600  1.00  0.00     0.070 A 
ATOM     20  C   UNL A   1      31.726  27.473  26.964  1.00  0.00     0.010 A 
ATOM     21  N   UNL A   1      31.139  27.567  23.329  1.00  0.00    -0.256 NA
ATOM     22  C   UNL A   1      31.537  29.271  24.880  1.00  0.00     0.029 A 
ATOM     23  C   UNL A   1      31.867  28.838  27.219  1.00  0.00     0.001 A 
ATOM     24  C   UNL A   1      31.778  29.740  26.172  1.00  0.00     0.002 A 
ENDBRANCH  14  15
ENDBRANCH  13  14
ENDBRANCH  12  13
ENDBRANCH   6  12
ENDBRANCH   3   6
ENDBRANCH   1   2
BRANCH   1  25
ATOM     25  C   UNL A   1      38.239  20.170  24.881  1.00  0.00     0.042 C 
BRANCH  25  26
ATOM     26  C   UNL A   1      39.307  20.604  25.866  1.00  0.00     0.118 C 
BRANCH  26  27
ATOM     27  N   UNL A   1      40.295  19.556  26.116  1.00  0.00    -0.352 N 
ATOM     28  C   UNL A   1      41.648  19.641  26.324  1.00  0.00     0.251 C 
ATOM     29  H   UNL A   1      39.930  18.642  26.138  1.00  0.00     0.163 HD
ATOM     30  O   UNL A   1      42.324  18.614  26.334  1.00  0.00    -0.269 OA
BRANCH  28  31
ATOM     31  C   UNL A   1      42.288  20.958  26.509  1.00  0.00     0.039 A 
ATOM     32  C   UNL A   1      42.585  21.738  25.390  1.00  0.00     0.014 A 
ATOM     33  C   UNL A   1      42.580  21.431  27.789  1.00  0.00     0.014 A 
ATOM     34  C   UNL A   1      43.099  23.024  25.563  1.00  0.00     0.010 A 
ATOM     35  C   UNL A   1      42.971  22.750  27.964  1.00  0.00     0.010 A 
ATOM     36  C   UNL A   1      43.251  23.556  26.854  1.00  0.00    -0.014 A 
BRANCH  36  37
ATOM     37  C   UNL A   1      43.730  24.942  27.079  1.00  0.00     0.031 A 
ATOM     38  C   UNL A   1      45.188  25.266  26.884  1.00  0.00     0.074 A 
ATOM     39  C   UNL A   1      42.872  25.883  27.521  1.00  0.00     0.049 A 
ATOM     40  N   UNL A   1      45.821  26.387  27.118  1.00  0.00    -0.248 NA
ATOM     41  C   UNL A   1      46.055  24.181  26.393  1.00  0.00     0.031 C 
ATOM     42  C   UNL A   1      41.445  25.678  27.787  1.00  0.00     0.029 A 
ATOM     43  N   UNL A   1      43.078  27.203  27.828  1.00  0.00    -0.354 N 
ATOM     44  C   UNL A   1      47.154  26.135  26.815  1.00  0.00     0.074 A 
ATOM     45  C   UNL A   1      47.254  24.740  26.455  1.00  0.00     0.031 C 
ATOM     46  C   UNL A   1      40.898  26.841  28.178  1.00  0.00     0.029 A 
ATOM     47  C   UNL A   1      41.941  27.859  28.239  1.00  0.00     0.049 A 
ATOM     48  H   UNL A   1      43.957  27.642  27.762  1.00  0.00     0.167 HD
ATOM     49  C   UNL A   1      48.199  26.997  26.805  1.00  0.00     0.031 A 
ATOM     50  C   UNL A   1      41.762  29.137  28.627  1.00  0.00     0.031 A 
ATOM     51  C   UNL A   1      48.091  28.388  27.147  1.00  0.00     0.049 A 
ATOM     52  C   UNL A   1      42.945  30.067  28.635  1.00  0.00     0.074 A 
ATOM     53  C   UNL A   1      49.080  29.355  27.136  1.00  0.00     0.029 A 
ATOM     54  N   UNL A   1      46.922  29.012  27.553  1.00  0.00    -0.354 N 
ATOM     55  N   UNL A   1      44.190  29.821  28.298  1.00  0.00    -0.248 NA
ATOM     56  C   UNL A   1      42.698  31.449  29.065  1.00  0.00     0.031 C 
ATOM     57  C   UNL A   1      48.518  30.556  27.581  1.00  0.00     0.029 A 
ATOM     58  C   UNL A   1      47.166  30.350  27.809  1.00  0.00     0.049 A 
ATOM     59  H   UNL A   1      46.047  28.569  27.645  1.00  0.00     0.167 HD
ATOM     60  C   UNL A   1      44.865  31.028  28.442  1.00  0.00     0.074 A 
ATOM     61  C   UNL A   1      43.887  32.003  28.880  1.00  0.00     0.031 C 
ATOM     62  C   UNL A   1      46.175  31.306  28.232  1.00  0.00     0.031 A 
BRANCH  49  63
ATOM     63  C   UNL A   1      49.541  26.455  26.389  1.00  0.00    -0.014 A 
ATOM     64  C   UNL A   1      50.055  26.710  25.103  1.00  0.00     0.010 A 
ATOM     65  C   UNL A   1      50.318  25.717  27.301  1.00  0.00     0.010 A 
ATOM     66  C   UNL A   1      51.300  26.205  24.725  1.00  0.00     0.020 A 
ATOM     67  C   UNL A   1      51.580  25.237  26.935  1.00  0.00     0.020 A 
ATOM     68  C   UNL A   1      52.056  25.472  25.644  1.00  0.00     0.054 A 
BRANCH  68  69
ATOM     69  S   UNL A   1      53.684  24.859  25.132  1.00  0.00     0.124 S 
ATOM     70  O   UNL A   1      54.525  25.263  26.256  1.00  0.00    -0.237 OA
ATOM     71  O   UNL A   1      53.457  23.421  25.002  1.00  0.00    -0.237 OA
ATOM     72  O   UNL A   1      53.941  25.563  23.878  1.00  0.00    -0.744 OA
ENDBRANCH  68  69
ENDBRANCH  49  63
BRANCH  50  73
ATOM     73  C   UNL A   1      40.410  29.621  29.025  1.00  0.00    -0.014 A 
ATOM     74  C   UNL A   1      40.112  29.866  30.378  1.00  0.00     0.010 A 
ATOM     75  C   UNL A   1      39.408  29.821  28.059  1.00  0.00     0.010 A 
ATOM     76  C   UNL A   1      38.828  30.263  30.761  1.00  0.00     0.020 A 
ATOM     77  C   UNL A   1      38.132  30.250  28.435  1.00  0.00     0.020 A 
ATOM     78  C   UNL A   1      37.844  30.449  29.787  1.00  0.00     0.054 A 
BRANCH  78  79
ATOM     79  S   UNL A   1      36.189  30.980  30.306  1.00  0.00     0.124 S 
ATOM     80  O   UNL A   1      36.404  32.392  30.604  1.00  0.00    -0.237 OA
ATOM     81  O   UNL A   1      35.382  30.698  29.122  1.00  0.00    -0.237 OA
ATOM     82  O   UNL A   1      35.906  30.131  31.461  1.00  0.00    -0.744 OA
ENDBRANCH  78  79
ENDBRANCH  50  73
BRANCH  62  83
ATOM     83  C   UNL A   1      46.619  32.732  28.424  1.00  0.00    -0.014 A 
ATOM     84  C   UNL A   1      46.559  33.663  27.373  1.00  0.00     0.010 A 
ATOM     85  C   UNL A   1      47.052  33.154  29.694  1.00  0.00     0.010 A 
ATOM     86  C   UNL A   1      46.958  34.986  27.581  1.00  0.00     0.020 A 
ATOM     87  C   UNL A   1      47.420  34.483  29.914  1.00  0.00     0.020 A 
ATOM     88  C   UNL A   1      47.384  35.387  28.851  1.00  0.00     0.054 A 
BRANCH  88  89
ATOM     89  S   UNL A   1      47.850  37.121  29.106  1.00  0.00     0.124 S 
ATOM     90  O   UNL A   1      47.143  37.788  28.015  1.00  0.00    -0.237 OA
ATOM     91  O   UNL A   1      47.339  37.395  30.447  1.00  0.00    -0.237 OA
ATOM     92  O   UNL A   1      49.306  37.110  28.991  1.00  0.00    -0.744 OA
ENDBRANCH  88  89
ENDBRANCH  62  83
ENDBRANCH  36  37
ENDBRANCH  28  31
ENDBRANCH  26  27
ENDBRANCH  25  26
ENDBRANCH   1  25
TORSDOF 18
ENDMDL
