MODEL 1
REMARK VINA RESULT:     -11.6      0.000      0.000
REMARK SMILES Cc1ccc(Cl)c(Nc2ccccc2C(=O)N[C@@H](C)C(=O)NCCCNC(=O)c2ccc(-c3c4nc(c(-c5ccc(S(=O)(=O)[O-])cc5)c5ccc([nH]5)c(-c5ccc(S(=O)(=O)[O-])cc5)c5nc(c(-c6ccc(S(=O)(=O)[O-])cc6)c6ccc3[nH]6)C=C5)C=C4)cc2)c1Cl
REMARK SMILES IDX 23 1 22 2 20 3 21 4 18 6 19 7 17 8 15 9 16 10 14 12 9 13
REMARK SMILES IDX 10 14 11 15 13 16 12 17 8 18 7 20 1 21 2 22 3 23 89 24 4 25
REMARK SMILES IDX 90 26 5 27 6 28 24 29 25 30 26 31 27 32 28 34 29 35 30 36
REMARK SMILES IDX 88 37 31 38 87 39 32 40 33 41 34 42 81 43 35 44 86 45 80 46
REMARK SMILES IDX 82 47 36 48 85 49 79 50 78 51 37 53 67 54 48 55 66 56 49 57
REMARK SMILES IDX 52 58 65 59 83 60 50 61 51 62 64 64 84 65 53 66 38 67 39 68
REMARK SMILES IDX 47 69 40 70 46 71 41 72 42 73 43 74 44 75 45 76 68 77 69 78
REMARK SMILES IDX 77 79 70 80 76 81 71 82 72 83 73 84 74 85 75 86 54 87 55 88
REMARK SMILES IDX 63 89 56 90 62 91 57 92 58 93 59 94 60 95 61 96
REMARK H PARENT 22 5 17 11 8 19 26 33 82 52 52 63
REMARK Flexibility Score: inf
ROOT
ATOM      1  C   UNL A   1      31.493  28.120  25.833  1.00  0.00     0.117 C 
ENDROOT
BRANCH   1   2
ATOM      2  N   UNL A   1      30.687  26.920  26.008  1.00  0.00    -0.354 N 
ATOM      3  C   UNL A   1      30.274  26.251  24.886  1.00  0.00     0.242 C 
ATOM      4  O   UNL A   1      29.288  26.686  24.291  1.00  0.00    -0.273 OA
ATOM      5  H   UNL A   1      30.446  26.600  26.908  1.00  0.00     0.163 HD
BRANCH   3   6
ATOM      6  C   UNL A   1      31.024  24.965  24.460  1.00  0.00     0.168 C 
ATOM      7  C   UNL A   1      30.541  24.347  23.158  1.00  0.00     0.041 C 
BRANCH   6   8
ATOM      8  N   UNL A   1      30.866  24.057  25.587  1.00  0.00    -0.340 N 
ATOM      9  C   UNL A   1      31.827  23.640  26.479  1.00  0.00     0.254 C 
ATOM     10  O   UNL A   1      31.479  23.571  27.662  1.00  0.00    -0.269 OA
ATOM     11  H   UNL A   1      29.960  23.698  25.728  1.00  0.00     0.164 HD
BRANCH   9  12
ATOM     12  C   UNL A   1      33.103  22.974  26.075  1.00  0.00     0.063 A 
ATOM     13  C   UNL A   1      33.329  21.731  25.454  1.00  0.00     0.051 A 
ATOM     14  C   UNL A   1      34.674  21.324  25.255  1.00  0.00     0.027 A 
ATOM     15  C   UNL A   1      35.760  22.134  25.585  1.00  0.00     0.002 A 
ATOM     16  C   UNL A   1      34.224  23.787  26.387  1.00  0.00     0.016 A 
ATOM     17  C   UNL A   1      35.534  23.382  26.135  1.00  0.00     0.001 A 
BRANCH  13  18
ATOM     18  N   UNL A   1      32.379  20.861  24.888  1.00  0.00    -0.352 N 
ATOM     19  H   UNL A   1      31.453  21.165  25.027  1.00  0.00     0.167 HD
BRANCH  18  20
ATOM     20  C   UNL A   1      32.455  19.644  24.161  1.00  0.00     0.077 A 
ATOM     21  C   UNL A   1      33.567  15.975  24.398  1.00  0.00     0.046 C 
ATOM     22  C   UNL A   1      33.039  17.276  23.854  1.00  0.00    -0.030 A 
ATOM     23  C   UNL A   1      32.865  17.405  22.467  1.00  0.00     0.006 A 
ATOM     24  C   UNL A   1      32.785  18.382  24.701  1.00  0.00     0.069 A 
ATOM     25  C   UNL A   1      32.460  18.615  21.920  1.00  0.00     0.023 A 
ATOM     26  Cl  UNL A   1      32.771  18.103  26.416  1.00  0.00    -0.082 Cl
ATOM     27  C   UNL A   1      32.276  19.717  22.755  1.00  0.00     0.066 A 
ATOM     28  Cl  UNL A   1      31.845  21.220  21.995  1.00  0.00    -0.082 Cl
ENDBRANCH  18  20
ENDBRANCH  13  18
ENDBRANCH   9  12
ENDBRANCH   6   8
ENDBRANCH   3   6
ENDBRANCH   1   2
BRANCH   1  29
ATOM     29  C   UNL A   1      32.984  27.848  25.595  1.00  0.00     0.042 C 
BRANCH  29  30
ATOM     30  C   UNL A   1      33.892  28.246  26.756  1.00  0.00     0.118 C 
BRANCH  30  31
ATOM     31  N   UNL A   1      33.740  29.654  27.101  1.00  0.00    -0.352 N 
ATOM     32  C   UNL A   1      34.542  30.450  27.878  1.00  0.00     0.251 C 
ATOM     33  H   UNL A   1      32.948  30.098  26.722  1.00  0.00     0.163 HD
ATOM     34  O   UNL A   1      34.100  31.518  28.307  1.00  0.00    -0.269 OA
BRANCH  32  35
ATOM     35  C   UNL A   1      35.919  30.033  28.207  1.00  0.00     0.039 A 
ATOM     36  C   UNL A   1      36.909  30.101  27.223  1.00  0.00     0.014 A 
ATOM     37  C   UNL A   1      36.225  29.525  29.473  1.00  0.00     0.014 A 
ATOM     38  C   UNL A   1      38.217  29.709  27.525  1.00  0.00     0.010 A 
ATOM     39  C   UNL A   1      37.541  29.206  29.794  1.00  0.00     0.010 A 
ATOM     40  C   UNL A   1      38.549  29.280  28.821  1.00  0.00    -0.014 A 
BRANCH  40  41
ATOM     41  C   UNL A   1      39.937  28.886  29.174  1.00  0.00     0.031 A 
ATOM     42  C   UNL A   1      40.848  29.868  29.862  1.00  0.00     0.074 A 
ATOM     43  C   UNL A   1      40.396  27.668  28.824  1.00  0.00     0.049 A 
ATOM     44  N   UNL A   1      42.106  29.731  30.198  1.00  0.00    -0.248 NA
ATOM     45  C   UNL A   1      40.281  31.185  30.194  1.00  0.00     0.031 C 
ATOM     46  C   UNL A   1      39.625  26.642  28.119  1.00  0.00     0.029 A 
ATOM     47  N   UNL A   1      41.628  27.090  29.005  1.00  0.00    -0.354 N 
ATOM     48  C   UNL A   1      42.485  30.948  30.754  1.00  0.00     0.074 A 
ATOM     49  C   UNL A   1      41.338  31.825  30.670  1.00  0.00     0.031 C 
ATOM     50  C   UNL A   1      40.392  25.551  27.954  1.00  0.00     0.029 A 
ATOM     51  C   UNL A   1      41.718  25.813  28.504  1.00  0.00     0.049 A 
ATOM     52  H   UNL A   1      42.377  27.547  29.453  1.00  0.00     0.167 HD
ATOM     53  C   UNL A   1      43.673  31.299  31.302  1.00  0.00     0.031 A 
ATOM     54  C   UNL A   1      42.753  24.949  28.486  1.00  0.00     0.031 A 
ATOM     55  C   UNL A   1      44.805  30.416  31.402  1.00  0.00     0.049 A 
ATOM     56  C   UNL A   1      44.060  25.361  29.106  1.00  0.00     0.074 A 
ATOM     57  C   UNL A   1      46.033  30.657  31.994  1.00  0.00     0.029 A 
ATOM     58  N   UNL A   1      44.849  29.125  30.899  1.00  0.00    -0.354 N 
ATOM     59  N   UNL A   1      44.378  26.494  29.686  1.00  0.00    -0.248 NA
ATOM     60  C   UNL A   1      45.145  24.369  29.083  1.00  0.00     0.031 C 
ATOM     61  C   UNL A   1      46.835  29.525  31.808  1.00  0.00     0.029 A 
ATOM     62  C   UNL A   1      46.088  28.561  31.152  1.00  0.00     0.049 A 
ATOM     63  H   UNL A   1      44.108  28.676  30.432  1.00  0.00     0.167 HD
ATOM     64  C   UNL A   1      45.687  26.338  30.126  1.00  0.00     0.074 A 
ATOM     65  C   UNL A   1      46.098  24.999  29.756  1.00  0.00     0.031 C 
ATOM     66  C   UNL A   1      46.478  27.224  30.782  1.00  0.00     0.031 A 
BRANCH  53  67
ATOM     67  C   UNL A   1      43.808  32.703  31.834  1.00  0.00    -0.014 A 
ATOM     68  C   UNL A   1      43.487  33.010  33.168  1.00  0.00     0.010 A 
ATOM     69  C   UNL A   1      44.299  33.722  30.997  1.00  0.00     0.010 A 
ATOM     70  C   UNL A   1      43.610  34.319  33.644  1.00  0.00     0.020 A 
ATOM     71  C   UNL A   1      44.453  35.026  31.477  1.00  0.00     0.020 A 
ATOM     72  C   UNL A   1      44.089  35.320  32.794  1.00  0.00     0.054 A 
BRANCH  72  73
ATOM     73  S   UNL A   1      44.256  37.005  33.443  1.00  0.00     0.124 S 
ATOM     74  O   UNL A   1      45.551  36.940  34.116  1.00  0.00    -0.237 OA
ATOM     75  O   UNL A   1      44.219  37.821  32.232  1.00  0.00    -0.237 OA
ATOM     76  O   UNL A   1      43.102  37.154  34.326  1.00  0.00    -0.744 OA
ENDBRANCH  72  73
ENDBRANCH  53  67
BRANCH  54  77
ATOM     77  C   UNL A   1      42.585  23.597  27.886  1.00  0.00    -0.014 A 
ATOM     78  C   UNL A   1      43.094  23.323  26.604  1.00  0.00     0.010 A 
ATOM     79  C   UNL A   1      41.924  22.576  28.592  1.00  0.00     0.010 A 
ATOM     80  C   UNL A   1      42.926  22.059  26.030  1.00  0.00     0.020 A 
ATOM     81  C   UNL A   1      41.779  21.303  28.034  1.00  0.00     0.020 A 
ATOM     82  C   UNL A   1      42.270  21.056  26.750  1.00  0.00     0.054 A 
BRANCH  82  83
ATOM     83  S   UNL A   1      42.103  19.411  26.003  1.00  0.00     0.124 S 
ATOM     84  O   UNL A   1      42.929  19.536  24.806  1.00  0.00    -0.237 OA
ATOM     85  O   UNL A   1      42.631  18.535  27.047  1.00  0.00    -0.237 OA
ATOM     86  O   UNL A   1      40.667  19.287  25.766  1.00  0.00    -0.744 OA
ENDBRANCH  82  83
ENDBRANCH  54  77
BRANCH  66  87
ATOM     87  C   UNL A   1      47.851  26.759  31.188  1.00  0.00    -0.014 A 
ATOM     88  C   UNL A   1      48.961  26.928  30.342  1.00  0.00     0.010 A 
ATOM     89  C   UNL A   1      48.038  26.192  32.462  1.00  0.00     0.010 A 
ATOM     90  C   UNL A   1      50.229  26.505  30.750  1.00  0.00     0.020 A 
ATOM     91  C   UNL A   1      49.309  25.793  32.884  1.00  0.00     0.020 A 
ATOM     92  C   UNL A   1      50.395  25.938  32.019  1.00  0.00     0.054 A 
BRANCH  92  93
ATOM     93  S   UNL A   1      52.055  25.434  32.542  1.00  0.00     0.124 S 
ATOM     94  O   UNL A   1      52.088  25.889  33.930  1.00  0.00    -0.237 OA
ATOM     95  O   UNL A   1      52.026  23.985  32.357  1.00  0.00    -0.237 OA
ATOM     96  O   UNL A   1      52.940  26.154  31.630  1.00  0.00    -0.744 OA
ENDBRANCH  92  93
ENDBRANCH  66  87
ENDBRANCH  40  41
ENDBRANCH  32  35
ENDBRANCH  30  31
ENDBRANCH  29  30
ENDBRANCH   1  29
TORSDOF 17
ENDMDL
MODEL 2
REMARK VINA RESULT:     -11.4      3.362      4.961
REMARK SMILES Cc1ccc(Cl)c(Nc2ccccc2C(=O)N[C@@H](C)C(=O)NCCCNC(=O)c2ccc(-c3c4nc(c(-c5ccc(S(=O)(=O)[O-])cc5)c5ccc([nH]5)c(-c5ccc(S(=O)(=O)[O-])cc5)c5nc(c(-c6ccc(S(=O)(=O)[O-])cc6)c6ccc3[nH]6)C=C5)C=C4)cc2)c1Cl
REMARK SMILES IDX 23 1 22 2 20 3 21 4 18 6 19 7 17 8 15 9 16 10 14 12 9 13
REMARK SMILES IDX 10 14 11 15 13 16 12 17 8 18 7 20 1 21 2 22 3 23 89 24 4 25
REMARK SMILES IDX 90 26 5 27 6 28 24 29 25 30 26 31 27 32 28 34 29 35 30 36
REMARK SMILES IDX 88 37 31 38 87 39 32 40 33 41 34 42 81 43 35 44 86 45 80 46
REMARK SMILES IDX 82 47 36 48 85 49 79 50 78 51 37 53 67 54 48 55 66 56 49 57
REMARK SMILES IDX 52 58 65 59 83 60 50 61 51 62 64 64 84 65 53 66 38 67 39 68
REMARK SMILES IDX 47 69 40 70 46 71 41 72 42 73 43 74 44 75 45 76 68 77 69 78
REMARK SMILES IDX 77 79 70 80 76 81 71 82 72 83 73 84 74 85 75 86 54 87 55 88
REMARK SMILES IDX 63 89 56 90 62 91 57 92 58 93 59 94 60 95 61 96
REMARK H PARENT 22 5 17 11 8 19 26 33 82 52 52 63
REMARK Flexibility Score: inf
ROOT
ATOM      1  C   UNL A   1      34.263  29.910  27.107  1.00  0.00     0.117 C 
ENDROOT
BRANCH   1   2
ATOM      2  N   UNL A   1      33.035  29.327  27.632  1.00  0.00    -0.354 N 
ATOM      3  C   UNL A   1      32.254  28.591  26.779  1.00  0.00     0.242 C 
ATOM      4  O   UNL A   1      31.503  29.204  26.021  1.00  0.00    -0.273 OA
ATOM      5  H   UNL A   1      32.775  29.458  28.572  1.00  0.00     0.163 HD
BRANCH   3   6
ATOM      6  C   UNL A   1      32.316  27.046  26.849  1.00  0.00     0.168 C 
ATOM      7  C   UNL A   1      33.397  26.411  25.990  1.00  0.00     0.041 C 
BRANCH   6   8
ATOM      8  N   UNL A   1      30.983  26.608  26.461  1.00  0.00    -0.340 N 
ATOM      9  C   UNL A   1      30.513  25.319  26.353  1.00  0.00     0.254 C 
ATOM     10  O   UNL A   1      29.368  25.120  26.771  1.00  0.00    -0.269 OA
ATOM     11  H   UNL A   1      30.338  27.322  26.250  1.00  0.00     0.164 HD
BRANCH   9  12
ATOM     12  C   UNL A   1      31.147  24.273  25.494  1.00  0.00     0.063 A 
ATOM     13  C   UNL A   1      31.170  24.131  24.093  1.00  0.00     0.051 A 
ATOM     14  C   UNL A   1      31.799  22.978  23.555  1.00  0.00     0.027 A 
ATOM     15  C   UNL A   1      32.446  22.033  24.352  1.00  0.00     0.002 A 
ATOM     16  C   UNL A   1      31.825  23.307  26.283  1.00  0.00     0.016 A 
ATOM     17  C   UNL A   1      32.477  22.209  25.723  1.00  0.00     0.001 A 
BRANCH  13  18
ATOM     18  N   UNL A   1      30.742  25.054  23.123  1.00  0.00    -0.352 N 
ATOM     19  H   UNL A   1      30.393  24.620  22.311  1.00  0.00     0.167 HD
BRANCH  18  20
ATOM     20  C   UNL A   1      30.700  26.471  23.050  1.00  0.00     0.077 A 
ATOM     21  C   UNL A   1      28.321  29.485  22.928  1.00  0.00     0.046 C 
ATOM     22  C   UNL A   1      29.578  28.654  22.922  1.00  0.00    -0.030 A 
ATOM     23  C   UNL A   1      30.784  29.261  22.541  1.00  0.00     0.006 A 
ATOM     24  C   UNL A   1      29.550  27.271  23.225  1.00  0.00     0.069 A 
ATOM     25  C   UNL A   1      31.947  28.510  22.442  1.00  0.00     0.023 A 
ATOM     26  Cl  UNL A   1      28.100  26.624  23.930  1.00  0.00    -0.082 Cl
ATOM     27  C   UNL A   1      31.898  27.136  22.678  1.00  0.00     0.066 A 
ATOM     28  Cl  UNL A   1      33.374  26.244  22.461  1.00  0.00    -0.082 Cl
ENDBRANCH  18  20
ENDBRANCH  13  18
ENDBRANCH   9  12
ENDBRANCH   6   8
ENDBRANCH   3   6
ENDBRANCH   1   2
BRANCH   1  29
ATOM     29  C   UNL A   1      34.542  31.336  27.597  1.00  0.00     0.042 C 
BRANCH  29  30
ATOM     30  C   UNL A   1      35.836  31.488  28.392  1.00  0.00     0.118 C 
BRANCH  30  31
ATOM     31  N   UNL A   1      35.662  31.101  29.786  1.00  0.00    -0.352 N 
ATOM     32  C   UNL A   1      36.409  30.242  30.550  1.00  0.00     0.251 C 
ATOM     33  H   UNL A   1      34.898  31.518  30.246  1.00  0.00     0.163 HD
ATOM     34  O   UNL A   1      35.938  29.804  31.603  1.00  0.00    -0.269 OA
BRANCH  32  35
ATOM     35  C   UNL A   1      37.760  29.835  30.117  1.00  0.00     0.039 A 
ATOM     36  C   UNL A   1      38.045  29.748  28.752  1.00  0.00     0.014 A 
ATOM     37  C   UNL A   1      38.734  29.488  31.058  1.00  0.00     0.014 A 
ATOM     38  C   UNL A   1      39.321  29.364  28.332  1.00  0.00     0.010 A 
ATOM     39  C   UNL A   1      40.025  29.179  30.640  1.00  0.00     0.010 A 
ATOM     40  C   UNL A   1      40.330  29.099  29.273  1.00  0.00    -0.014 A 
BRANCH  40  41
ATOM     41  C   UNL A   1      41.702  28.717  28.852  1.00  0.00     0.031 A 
ATOM     42  C   UNL A   1      42.793  29.755  28.806  1.00  0.00     0.074 A 
ATOM     43  C   UNL A   1      41.953  27.455  28.453  1.00  0.00     0.049 A 
ATOM     44  N   UNL A   1      44.035  29.630  28.410  1.00  0.00    -0.248 NA
ATOM     45  C   UNL A   1      42.437  31.117  29.236  1.00  0.00     0.031 C 
ATOM     46  C   UNL A   1      40.972  26.367  28.413  1.00  0.00     0.029 A 
ATOM     47  N   UNL A   1      43.109  26.873  27.997  1.00  0.00    -0.354 N 
ATOM     48  C   UNL A   1      44.597  30.897  28.520  1.00  0.00     0.074 A 
ATOM     49  C   UNL A   1      43.550  31.785  28.975  1.00  0.00     0.031 C 
ATOM     50  C   UNL A   1      41.575  25.246  27.986  1.00  0.00     0.029 A 
ATOM     51  C   UNL A   1      42.972  25.541  27.683  1.00  0.00     0.049 A 
ATOM     52  H   UNL A   1      43.959  27.364  27.903  1.00  0.00     0.167 HD
ATOM     53  C   UNL A   1      45.873  31.284  28.282  1.00  0.00     0.031 A 
ATOM     54  C   UNL A   1      43.869  24.657  27.203  1.00  0.00     0.031 A 
ATOM     55  C   UNL A   1      46.917  30.393  27.847  1.00  0.00     0.049 A 
ATOM     56  C   UNL A   1      45.281  25.111  26.951  1.00  0.00     0.074 A 
ATOM     57  C   UNL A   1      48.255  30.675  27.636  1.00  0.00     0.029 A 
ATOM     58  N   UNL A   1      46.740  29.049  27.559  1.00  0.00    -0.354 N 
ATOM     59  N   UNL A   1      45.809  26.298  27.123  1.00  0.00    -0.248 NA
ATOM     60  C   UNL A   1      46.223  24.097  26.454  1.00  0.00     0.031 C 
ATOM     61  C   UNL A   1      48.878  29.509  27.177  1.00  0.00     0.029 A 
ATOM     62  C   UNL A   1      47.941  28.489  27.156  1.00  0.00     0.049 A 
ATOM     63  H   UNL A   1      45.887  28.563  27.631  1.00  0.00     0.167 HD
ATOM     64  C   UNL A   1      47.152  26.167  26.788  1.00  0.00     0.074 A 
ATOM     65  C   UNL A   1      47.357  24.782  26.415  1.00  0.00     0.031 C 
ATOM     66  C   UNL A   1      48.129  27.108  26.794  1.00  0.00     0.031 A 
BRANCH  53  67
ATOM     67  C   UNL A   1      46.210  32.739  28.482  1.00  0.00    -0.014 A 
ATOM     68  C   UNL A   1      46.203  33.643  27.404  1.00  0.00     0.010 A 
ATOM     69  C   UNL A   1      46.501  33.218  29.773  1.00  0.00     0.010 A 
ATOM     70  C   UNL A   1      46.526  34.988  27.605  1.00  0.00     0.020 A 
ATOM     71  C   UNL A   1      46.795  34.568  29.983  1.00  0.00     0.020 A 
ATOM     72  C   UNL A   1      46.824  35.442  28.892  1.00  0.00     0.054 A 
BRANCH  72  73
ATOM     73  S   UNL A   1      47.221  37.196  29.126  1.00  0.00     0.124 S 
ATOM     74  O   UNL A   1      47.979  37.168  30.375  1.00  0.00    -0.237 OA
ATOM     75  O   UNL A   1      47.995  37.512  27.929  1.00  0.00    -0.237 OA
ATOM     76  O   UNL A   1      45.913  37.841  29.206  1.00  0.00    -0.744 OA
ENDBRANCH  72  73
ENDBRANCH  53  67
BRANCH  54  77
ATOM     77  C   UNL A   1      43.465  23.245  26.957  1.00  0.00    -0.014 A 
ATOM     78  C   UNL A   1      43.631  22.672  25.684  1.00  0.00     0.010 A 
ATOM     79  C   UNL A   1      42.921  22.464  27.993  1.00  0.00     0.010 A 
ATOM     80  C   UNL A   1      43.240  21.351  25.444  1.00  0.00     0.020 A 
ATOM     81  C   UNL A   1      42.555  21.135  27.765  1.00  0.00     0.020 A 
ATOM     82  C   UNL A   1      42.705  20.590  26.488  1.00  0.00     0.054 A 
BRANCH  82  83
ATOM     83  S   UNL A   1      42.246  18.865  26.165  1.00  0.00     0.124 S 
ATOM     84  O   UNL A   1      40.844  18.990  25.780  1.00  0.00    -0.237 OA
ATOM     85  O   UNL A   1      43.165  18.489  25.092  1.00  0.00    -0.237 OA
ATOM     86  O   UNL A   1      42.490  18.201  27.443  1.00  0.00    -0.744 OA
ENDBRANCH  82  83
ENDBRANCH  54  77
BRANCH  66  87
ATOM     87  C   UNL A   1      49.522  26.663  26.432  1.00  0.00    -0.014 A 
ATOM     88  C   UNL A   1      50.409  26.172  27.406  1.00  0.00     0.010 A 
ATOM     89  C   UNL A   1      49.926  26.690  25.085  1.00  0.00     0.010 A 
ATOM     90  C   UNL A   1      51.690  25.748  27.042  1.00  0.00     0.020 A 
ATOM     91  C   UNL A   1      51.196  26.241  24.714  1.00  0.00     0.020 A 
ATOM     92  C   UNL A   1      52.076  25.787  25.698  1.00  0.00     0.054 A 
BRANCH  92  93
ATOM     93  S   UNL A   1      53.728  25.194  25.244  1.00  0.00     0.124 S 
ATOM     94  O   UNL A   1      53.883  25.728  23.894  1.00  0.00    -0.237 OA
ATOM     95  O   UNL A   1      54.581  25.803  26.262  1.00  0.00    -0.237 OA
ATOM     96  O   UNL A   1      53.610  23.740  25.329  1.00  0.00    -0.744 OA
ENDBRANCH  92  93
ENDBRANCH  66  87
ENDBRANCH  40  41
ENDBRANCH  32  35
ENDBRANCH  30  31
ENDBRANCH  29  30
ENDBRANCH   1  29
TORSDOF 17
ENDMDL
MODEL 3
REMARK VINA RESULT:     -11.4      3.626      9.302
REMARK SMILES Cc1ccc(Cl)c(Nc2ccccc2C(=O)N[C@@H](C)C(=O)NCCCNC(=O)c2ccc(-c3c4nc(c(-c5ccc(S(=O)(=O)[O-])cc5)c5ccc([nH]5)c(-c5ccc(S(=O)(=O)[O-])cc5)c5nc(c(-c6ccc(S(=O)(=O)[O-])cc6)c6ccc3[nH]6)C=C5)C=C4)cc2)c1Cl
REMARK SMILES IDX 23 1 22 2 20 3 21 4 18 6 19 7 17 8 15 9 16 10 14 12 9 13
REMARK SMILES IDX 10 14 11 15 13 16 12 17 8 18 7 20 1 21 2 22 3 23 89 24 4 25
REMARK SMILES IDX 90 26 5 27 6 28 24 29 25 30 26 31 27 32 28 34 29 35 30 36
REMARK SMILES IDX 88 37 31 38 87 39 32 40 33 41 34 42 81 43 35 44 86 45 80 46
REMARK SMILES IDX 82 47 36 48 85 49 79 50 78 51 37 53 67 54 48 55 66 56 49 57
REMARK SMILES IDX 52 58 65 59 83 60 50 61 51 62 64 64 84 65 53 66 38 67 39 68
REMARK SMILES IDX 47 69 40 70 46 71 41 72 42 73 43 74 44 75 45 76 68 77 69 78
REMARK SMILES IDX 77 79 70 80 76 81 71 82 72 83 73 84 74 85 75 86 54 87 55 88
REMARK SMILES IDX 63 89 56 90 62 91 57 92 58 93 59 94 60 95 61 96
REMARK H PARENT 22 5 17 11 8 19 26 33 82 52 52 63
REMARK Flexibility Score: inf
ROOT
ATOM      1  C   UNL A   1      33.519  29.637  26.794  1.00  0.00     0.117 C 
ENDROOT
BRANCH   1   2
ATOM      2  N   UNL A   1      33.208  28.578  27.744  1.00  0.00    -0.354 N 
ATOM      3  C   UNL A   1      32.127  27.777  27.487  1.00  0.00     0.242 C 
ATOM      4  O   UNL A   1      31.013  28.209  27.781  1.00  0.00    -0.273 OA
ATOM      5  H   UNL A   1      33.760  28.442  28.548  1.00  0.00     0.163 HD
BRANCH   3   6
ATOM      6  C   UNL A   1      32.362  26.365  26.898  1.00  0.00     0.168 C 
ATOM      7  C   UNL A   1      33.267  26.326  25.678  1.00  0.00     0.041 C 
BRANCH   6   8
ATOM      8  N   UNL A   1      31.027  25.863  26.603  1.00  0.00    -0.340 N 
ATOM      9  C   UNL A   1      30.641  24.561  26.387  1.00  0.00     0.254 C 
ATOM     10  O   UNL A   1      29.570  24.218  26.897  1.00  0.00    -0.269 OA
ATOM     11  H   UNL A   1      30.313  26.540  26.552  1.00  0.00     0.164 HD
BRANCH   9  12
ATOM     12  C   UNL A   1      31.243  23.677  25.342  1.00  0.00     0.063 A 
ATOM     13  C   UNL A   1      31.175  23.746  23.937  1.00  0.00     0.051 A 
ATOM     14  C   UNL A   1      31.797  22.711  23.192  1.00  0.00     0.027 A 
ATOM     15  C   UNL A   1      32.523  21.683  23.795  1.00  0.00     0.002 A 
ATOM     16  C   UNL A   1      32.000  22.632  25.931  1.00  0.00     0.016 A 
ATOM     17  C   UNL A   1      32.642  21.655  25.172  1.00  0.00     0.001 A 
BRANCH  13  18
ATOM     18  N   UNL A   1      30.656  24.787  23.145  1.00  0.00    -0.352 N 
ATOM     19  H   UNL A   1      29.945  24.484  22.535  1.00  0.00     0.167 HD
BRANCH  18  20
ATOM     20  C   UNL A   1      30.927  26.175  23.027  1.00  0.00     0.077 A 
ATOM     21  C   UNL A   1      33.735  28.732  22.451  1.00  0.00     0.046 C 
ATOM     22  C   UNL A   1      32.379  28.135  22.725  1.00  0.00    -0.030 A 
ATOM     23  C   UNL A   1      31.352  28.977  23.176  1.00  0.00     0.006 A 
ATOM     24  C   UNL A   1      32.148  26.742  22.604  1.00  0.00     0.069 A 
ATOM     25  C   UNL A   1      30.114  28.450  23.520  1.00  0.00     0.023 A 
ATOM     26  Cl  UNL A   1      33.360  25.785  21.808  1.00  0.00    -0.082 Cl
ATOM     27  C   UNL A   1      29.914  27.071  23.460  1.00  0.00     0.066 A 
ATOM     28  Cl  UNL A   1      28.367  26.473  23.979  1.00  0.00    -0.082 Cl
ENDBRANCH  18  20
ENDBRANCH  13  18
ENDBRANCH   9  12
ENDBRANCH   6   8
ENDBRANCH   3   6
ENDBRANCH   1   2
BRANCH   1  29
ATOM     29  C   UNL A   1      34.319  30.803  27.388  1.00  0.00     0.042 C 
BRANCH  29  30
ATOM     30  C   UNL A   1      35.691  30.413  27.933  1.00  0.00     0.118 C 
BRANCH  30  31
ATOM     31  N   UNL A   1      35.675  30.268  29.383  1.00  0.00    -0.352 N 
ATOM     32  C   UNL A   1      36.594  29.673  30.208  1.00  0.00     0.251 C 
ATOM     33  H   UNL A   1      34.891  30.654  29.836  1.00  0.00     0.163 HD
ATOM     34  O   UNL A   1      36.270  29.376  31.360  1.00  0.00    -0.269 OA
BRANCH  32  35
ATOM     35  C   UNL A   1      37.958  29.382  29.724  1.00  0.00     0.039 A 
ATOM     36  C   UNL A   1      38.240  29.495  28.361  1.00  0.00     0.014 A 
ATOM     37  C   UNL A   1      38.948  28.947  30.610  1.00  0.00     0.014 A 
ATOM     38  C   UNL A   1      39.529  29.223  27.893  1.00  0.00     0.010 A 
ATOM     39  C   UNL A   1      40.249  28.748  30.154  1.00  0.00     0.010 A 
ATOM     40  C   UNL A   1      40.550  28.869  28.789  1.00  0.00    -0.014 A 
BRANCH  40  41
ATOM     41  C   UNL A   1      41.935  28.602  28.321  1.00  0.00     0.031 A 
ATOM     42  C   UNL A   1      42.330  27.215  27.888  1.00  0.00     0.074 A 
ATOM     43  C   UNL A   1      42.850  29.590  28.342  1.00  0.00     0.049 A 
ATOM     44  N   UNL A   1      43.501  26.772  27.505  1.00  0.00    -0.248 NA
ATOM     45  C   UNL A   1      41.280  26.183  27.914  1.00  0.00     0.031 C 
ATOM     46  C   UNL A   1      42.604  30.967  28.777  1.00  0.00     0.029 A 
ATOM     47  N   UNL A   1      44.179  29.587  27.995  1.00  0.00    -0.354 N 
ATOM     48  C   UNL A   1      43.334  25.411  27.270  1.00  0.00     0.074 A 
ATOM     49  C   UNL A   1      41.961  25.093  27.596  1.00  0.00     0.031 C 
ATOM     50  C   UNL A   1      43.734  31.681  28.643  1.00  0.00     0.029 A 
ATOM     51  C   UNL A   1      44.795  30.806  28.154  1.00  0.00     0.049 A 
ATOM     52  H   UNL A   1      44.647  28.786  27.665  1.00  0.00     0.167 HD
ATOM     53  C   UNL A   1      44.234  24.512  26.807  1.00  0.00     0.031 A 
ATOM     54  C   UNL A   1      46.070  31.179  27.932  1.00  0.00     0.031 A 
ATOM     55  C   UNL A   1      45.593  24.837  26.465  1.00  0.00     0.049 A 
ATOM     56  C   UNL A   1      47.051  30.162  27.413  1.00  0.00     0.074 A 
ATOM     57  C   UNL A   1      46.567  24.010  25.930  1.00  0.00     0.029 A 
ATOM     58  N   UNL A   1      46.171  26.087  26.622  1.00  0.00    -0.354 N 
ATOM     59  N   UNL A   1      46.855  28.896  27.134  1.00  0.00    -0.248 NA
ATOM     60  C   UNL A   1      48.421  30.631  27.162  1.00  0.00     0.031 C 
ATOM     61  C   UNL A   1      47.747  24.752  25.807  1.00  0.00     0.029 A 
ATOM     62  C   UNL A   1      47.493  26.052  26.211  1.00  0.00     0.049 A 
ATOM     63  H   UNL A   1      45.710  26.882  26.973  1.00  0.00     0.167 HD
ATOM     64  C   UNL A   1      48.068  28.426  26.645  1.00  0.00     0.074 A 
ATOM     65  C   UNL A   1      48.987  29.546  26.654  1.00  0.00     0.031 C 
ATOM     66  C   UNL A   1      48.392  27.178  26.221  1.00  0.00     0.031 A 
BRANCH  53  67
ATOM     67  C   UNL A   1      43.776  23.085  26.647  1.00  0.00    -0.014 A 
ATOM     68  C   UNL A   1      42.962  22.469  27.615  1.00  0.00     0.010 A 
ATOM     69  C   UNL A   1      44.134  22.361  25.495  1.00  0.00     0.010 A 
ATOM     70  C   UNL A   1      42.553  21.142  27.457  1.00  0.00     0.020 A 
ATOM     71  C   UNL A   1      43.701  21.043  25.318  1.00  0.00     0.020 A 
ATOM     72  C   UNL A   1      42.928  20.436  26.311  1.00  0.00     0.054 A 
BRANCH  72  73
ATOM     73  S   UNL A   1      42.367  18.721  26.123  1.00  0.00     0.124 S 
ATOM     74  O   UNL A   1      43.254  18.229  25.072  1.00  0.00    -0.237 OA
ATOM     75  O   UNL A   1      42.596  18.161  27.452  1.00  0.00    -0.237 OA
ATOM     76  O   UNL A   1      40.963  18.855  25.740  1.00  0.00    -0.744 OA
ENDBRANCH  72  73
ENDBRANCH  53  67
BRANCH  54  77
ATOM     77  C   UNL A   1      46.488  32.588  28.172  1.00  0.00    -0.014 A 
ATOM     78  C   UNL A   1      46.401  33.539  27.140  1.00  0.00     0.010 A 
ATOM     79  C   UNL A   1      46.966  32.989  29.433  1.00  0.00     0.010 A 
ATOM     80  C   UNL A   1      46.806  34.860  27.356  1.00  0.00     0.020 A 
ATOM     81  C   UNL A   1      47.345  34.315  29.661  1.00  0.00     0.020 A 
ATOM     82  C   UNL A   1      47.275  35.240  28.617  1.00  0.00     0.054 A 
BRANCH  82  83
ATOM     83  S   UNL A   1      47.752  36.969  28.887  1.00  0.00     0.124 S 
ATOM     84  O   UNL A   1      46.475  37.587  29.230  1.00  0.00    -0.237 OA
ATOM     85  O   UNL A   1      48.718  36.864  29.979  1.00  0.00    -0.237 OA
ATOM     86  O   UNL A   1      48.320  37.372  27.602  1.00  0.00    -0.744 OA
ENDBRANCH  82  83
ENDBRANCH  54  77
BRANCH  66  87
ATOM     87  C   UNL A   1      49.783  26.967  25.684  1.00  0.00    -0.014 A 
ATOM     88  C   UNL A   1      50.092  27.216  24.335  1.00  0.00     0.010 A 
ATOM     89  C   UNL A   1      50.806  26.564  26.560  1.00  0.00     0.010 A 
ATOM     90  C   UNL A   1      51.395  27.031  23.865  1.00  0.00     0.020 A 
ATOM     91  C   UNL A   1      52.115  26.404  26.100  1.00  0.00     0.020 A 
ATOM     92  C   UNL A   1      52.399  26.624  24.751  1.00  0.00     0.054 A 
BRANCH  92  93
ATOM     93  S   UNL A   1      54.090  26.429  24.128  1.00  0.00     0.124 S 
ATOM     94  O   UNL A   1      54.718  27.676  24.557  1.00  0.00    -0.237 OA
ATOM     95  O   UNL A   1      54.551  25.225  24.815  1.00  0.00    -0.237 OA
ATOM     96  O   UNL A   1      53.913  26.285  22.684  1.00  0.00    -0.744 OA
ENDBRANCH  92  93
ENDBRANCH  66  87
ENDBRANCH  40  41
ENDBRANCH  32  35
ENDBRANCH  30  31
ENDBRANCH  29  30
ENDBRANCH   1  29
TORSDOF 17
ENDMDL
