MODEL 1
REMARK VINA RESULT:     -11.6      0.000      0.000
REMARK SMILES O=C(NCCCNC(=O)c1cccc(-c2cc(NCc3ccccn3)nc3[nH]ccc23)c1)c1ccc(-c2c3nc(c(-c4ccc(S(=O)(=O)[O-])cc4)c4ccc([nH]4)c(-c4ccc(S(=O)(=O)[O-])cc4)c4nc(c(-c5ccc(S(=O)(=O)[O-])cc5)c5ccc2[nH]5)C=C4)C=C3)cc1
REMARK SMILES IDX 5 1 4 2 3 3 1 4 2 5 33 7 34 8 92 9 35 10 91 11 36 12 37 13
REMARK SMILES IDX 38 14 85 15 39 16 90 17 84 18 86 19 40 20 89 21 83 22 82 23
REMARK SMILES IDX 41 25 71 26 52 27 70 28 53 29 56 30 69 31 87 32 54 33 55 34
REMARK SMILES IDX 68 36 88 37 57 38 42 39 43 40 51 41 44 42 50 43 45 44 46 45
REMARK SMILES IDX 47 46 48 47 49 48 72 49 73 50 81 51 74 52 80 53 75 54 76 55
REMARK SMILES IDX 77 56 78 57 79 58 58 59 59 60 67 61 60 62 66 63 61 64 62 65
REMARK SMILES IDX 63 66 64 67 65 68 6 69 7 70 8 71 9 73 10 74 11 75 32 76
REMARK SMILES IDX 12 77 14 78 13 79 15 80 16 81 31 82 17 83 27 84 30 85 26 86
REMARK SMILES IDX 28 87 29 88 18 90 19 92 20 93 21 94 25 95 22 96 24 97 23 98
REMARK H PARENT 3 6 86 24 56 35 7 72 28 89 18 91
REMARK Flexibility Score: inf
ROOT
ATOM      1  C   UNL A   1      33.087  27.981  27.129  1.00  0.00     0.042 C 
ENDROOT
BRANCH   1   2
ATOM      2  C   UNL A   1      34.053  28.920  26.423  1.00  0.00     0.118 C 
BRANCH   2   3
ATOM      3  N   UNL A   1      33.802  30.322  26.722  1.00  0.00    -0.352 N 
ATOM      4  O   UNL A   1      33.933  32.268  27.838  1.00  0.00    -0.269 OA
ATOM      5  C   UNL A   1      34.425  31.164  27.609  1.00  0.00     0.251 C 
ATOM      6  H   UNL A   1      33.068  30.730  26.208  1.00  0.00     0.163 HD
BRANCH   5   7
ATOM      7  C   UNL A   1      35.664  30.748  28.302  1.00  0.00     0.039 A 
ATOM      8  C   UNL A   1      36.894  31.341  28.005  1.00  0.00     0.014 A 
ATOM      9  C   UNL A   1      35.582  29.772  29.299  1.00  0.00     0.014 A 
ATOM     10  C   UNL A   1      38.059  30.863  28.599  1.00  0.00     0.010 A 
ATOM     11  C   UNL A   1      36.742  29.351  29.955  1.00  0.00     0.010 A 
ATOM     12  C   UNL A   1      37.994  29.872  29.590  1.00  0.00    -0.014 A 
BRANCH  12  13
ATOM     13  C   UNL A   1      39.225  29.423  30.285  1.00  0.00     0.031 A 
ATOM     14  C   UNL A   1      39.711  30.128  31.520  1.00  0.00     0.074 A 
ATOM     15  C   UNL A   1      39.931  28.397  29.772  1.00  0.00     0.049 A 
ATOM     16  N   UNL A   1      40.811  29.933  32.200  1.00  0.00    -0.248 NA
ATOM     17  C   UNL A   1      38.855  31.198  32.053  1.00  0.00     0.031 C 
ATOM     18  C   UNL A   1      39.559  27.633  28.579  1.00  0.00     0.029 A 
ATOM     19  N   UNL A   1      41.114  27.832  30.175  1.00  0.00    -0.354 N 
ATOM     20  C   UNL A   1      40.797  30.874  33.224  1.00  0.00     0.074 A 
ATOM     21  C   UNL A   1      39.586  31.651  33.061  1.00  0.00     0.031 C 
ATOM     22  C   UNL A   1      40.490  26.696  28.351  1.00  0.00     0.029 A 
ATOM     23  C   UNL A   1      41.555  26.836  29.337  1.00  0.00     0.049 A 
ATOM     24  H   UNL A   1      41.598  28.111  30.985  1.00  0.00     0.167 HD
ATOM     25  C   UNL A   1      41.712  31.072  34.205  1.00  0.00     0.031 A 
ATOM     26  C   UNL A   1      42.706  26.136  29.331  1.00  0.00     0.031 A 
ATOM     27  C   UNL A   1      42.920  30.302  34.347  1.00  0.00     0.049 A 
ATOM     28  C   UNL A   1      43.727  26.397  30.400  1.00  0.00     0.074 A 
ATOM     29  C   UNL A   1      43.893  30.399  35.325  1.00  0.00     0.029 A 
ATOM     30  N   UNL A   1      43.328  29.300  33.477  1.00  0.00    -0.354 N 
ATOM     31  N   UNL A   1      43.679  27.264  31.382  1.00  0.00    -0.248 NA
ATOM     32  C   UNL A   1      44.951  25.587  30.365  1.00  0.00     0.031 C 
ATOM     33  C   UNL A   1      44.918  29.501  35.013  1.00  0.00     0.029 A 
ATOM     34  C   UNL A   1      44.552  28.793  33.878  1.00  0.00     0.049 A 
ATOM     35  H   UNL A   1      42.822  28.996  32.689  1.00  0.00     0.167 HD
ATOM     36  C   UNL A   1      44.855  27.086  32.101  1.00  0.00     0.074 A 
ATOM     37  C   UNL A   1      45.592  26.028  31.440  1.00  0.00     0.031 C 
ATOM     38  C   UNL A   1      45.276  27.736  33.214  1.00  0.00     0.031 A 
BRANCH  25  39
ATOM     39  C   UNL A   1      41.460  32.205  35.168  1.00  0.00    -0.014 A 
ATOM     40  C   UNL A   1      40.754  32.009  36.368  1.00  0.00     0.010 A 
ATOM     41  C   UNL A   1      41.943  33.492  34.864  1.00  0.00     0.010 A 
ATOM     42  C   UNL A   1      40.474  33.089  37.210  1.00  0.00     0.020 A 
ATOM     43  C   UNL A   1      41.692  34.569  35.718  1.00  0.00     0.020 A 
ATOM     44  C   UNL A   1      40.934  34.366  36.872  1.00  0.00     0.054 A 
BRANCH  44  45
ATOM     45  S   UNL A   1      40.525  35.757  37.963  1.00  0.00     0.124 S 
ATOM     46  O   UNL A   1      41.841  36.131  38.476  1.00  0.00    -0.237 OA
ATOM     47  O   UNL A   1      39.914  36.714  37.047  1.00  0.00    -0.237 OA
ATOM     48  O   UNL A   1      39.617  35.172  38.947  1.00  0.00    -0.744 OA
ENDBRANCH  44  45
ENDBRANCH  25  39
BRANCH  26  49
ATOM     49  C   UNL A   1      42.936  25.141  28.251  1.00  0.00    -0.014 A 
ATOM     50  C   UNL A   1      43.590  25.508  27.064  1.00  0.00     0.010 A 
ATOM     51  C   UNL A   1      42.586  23.791  28.452  1.00  0.00     0.010 A 
ATOM     52  C   UNL A   1      43.903  24.542  26.103  1.00  0.00     0.020 A 
ATOM     53  C   UNL A   1      42.920  22.820  27.507  1.00  0.00     0.020 A 
ATOM     54  C   UNL A   1      43.576  23.202  26.336  1.00  0.00     0.054 A 
BRANCH  54  55
ATOM     55  S   UNL A   1      44.091  21.954  25.123  1.00  0.00     0.124 S 
ATOM     56  O   UNL A   1      43.121  20.888  25.354  1.00  0.00    -0.237 OA
ATOM     57  O   UNL A   1      43.956  22.671  23.858  1.00  0.00    -0.237 OA
ATOM     58  O   UNL A   1      45.466  21.645  25.512  1.00  0.00    -0.744 OA
ENDBRANCH  54  55
ENDBRANCH  26  49
BRANCH  38  59
ATOM     59  C   UNL A   1      46.579  27.301  33.830  1.00  0.00    -0.014 A 
ATOM     60  C   UNL A   1      47.794  27.915  33.483  1.00  0.00     0.010 A 
ATOM     61  C   UNL A   1      46.563  26.335  34.853  1.00  0.00     0.010 A 
ATOM     62  C   UNL A   1      48.973  27.568  34.150  1.00  0.00     0.020 A 
ATOM     63  C   UNL A   1      47.734  26.004  35.538  1.00  0.00     0.020 A 
ATOM     64  C   UNL A   1      48.933  26.622  35.179  1.00  0.00     0.054 A 
BRANCH  64  65
ATOM     65  S   UNL A   1      50.458  26.262  36.095  1.00  0.00     0.124 S 
ATOM     66  O   UNL A   1      51.288  27.420  35.773  1.00  0.00    -0.237 OA
ATOM     67  O   UNL A   1      49.992  26.187  37.477  1.00  0.00    -0.237 OA
ATOM     68  O   UNL A   1      50.912  24.994  35.528  1.00  0.00    -0.744 OA
ENDBRANCH  64  65
ENDBRANCH  38  59
ENDBRANCH  12  13
ENDBRANCH   5   7
ENDBRANCH   2   3
ENDBRANCH   1   2
BRANCH   1  69
ATOM     69  C   UNL A   1      31.657  28.036  26.610  1.00  0.00     0.118 C 
BRANCH  69  70
ATOM     70  N   UNL A   1      30.921  26.804  26.863  1.00  0.00    -0.352 N 
ATOM     71  C   UNL A   1      30.988  25.587  26.235  1.00  0.00     0.251 C 
ATOM     72  H   UNL A   1      30.271  26.854  27.601  1.00  0.00     0.163 HD
ATOM     73  O   UNL A   1      30.150  24.723  26.486  1.00  0.00    -0.269 OA
BRANCH  71  74
ATOM     74  C   UNL A   1      32.062  25.297  25.263  1.00  0.00     0.040 A 
ATOM     75  C   UNL A   1      32.151  26.069  24.104  1.00  0.00     0.014 A 
ATOM     76  C   UNL A   1      32.947  24.234  25.467  1.00  0.00     0.022 A 
ATOM     77  C   UNL A   1      33.161  25.807  23.180  1.00  0.00     0.001 A 
ATOM     78  C   UNL A   1      33.996  23.982  24.570  1.00  0.00    -0.017 A 
ATOM     79  C   UNL A   1      34.080  24.779  23.417  1.00  0.00     0.009 A 
BRANCH  78  80
ATOM     80  C   UNL A   1      34.969  22.924  24.862  1.00  0.00    -0.004 A 
ATOM     81  C   UNL A   1      34.673  21.560  24.686  1.00  0.00     0.056 A 
ATOM     82  C   UNL A   1      36.230  23.220  25.418  1.00  0.00     0.027 A 
ATOM     83  C   UNL A   1      35.582  20.562  25.045  1.00  0.00     0.129 A 
ATOM     84  C   UNL A   1      37.063  22.144  25.697  1.00  0.00     0.140 A 
ATOM     85  C   UNL A   1      36.936  24.388  25.834  1.00  0.00     0.030 A 
ATOM     86  N   UNL A   1      36.810  20.838  25.512  1.00  0.00    -0.213 NA
ATOM     87  N   UNL A   1      38.224  22.626  26.234  1.00  0.00    -0.346 N 
ATOM     88  C   UNL A   1      38.162  23.993  26.324  1.00  0.00     0.085 A 
ATOM     89  H   UNL A   1      38.990  22.075  26.513  1.00  0.00     0.167 HD
BRANCH  83  90
ATOM     90  N   UNL A   1      35.183  19.241  24.864  1.00  0.00    -0.364 N 
ATOM     91  H   UNL A   1      35.848  18.516  24.897  1.00  0.00     0.162 HD
BRANCH  90  92
ATOM     92  C   UNL A   1      33.779  18.930  24.625  1.00  0.00     0.170 C 
BRANCH  92  93
ATOM     93  C   UNL A   1      33.472  17.480  24.964  1.00  0.00     0.059 A 
ATOM     94  C   UNL A   1      34.432  16.489  24.757  1.00  0.00     0.026 A 
ATOM     95  N   UNL A   1      32.235  17.193  25.447  1.00  0.00    -0.259 NA
ATOM     96  C   UNL A   1      34.110  15.165  25.044  1.00  0.00     0.004 A 
ATOM     97  C   UNL A   1      31.949  15.901  25.713  1.00  0.00     0.111 A 
ATOM     98  C   UNL A   1      32.845  14.861  25.530  1.00  0.00     0.020 A 
ENDBRANCH  92  93
ENDBRANCH  90  92
ENDBRANCH  83  90
ENDBRANCH  78  80
ENDBRANCH  71  74
ENDBRANCH  69  70
ENDBRANCH   1  69
TORSDOF 17
ENDMDL
MODEL 2
REMARK VINA RESULT:     -11.5      4.918      9.040
REMARK SMILES O=C(NCCCNC(=O)c1cccc(-c2cc(NCc3ccccn3)nc3[nH]ccc23)c1)c1ccc(-c2c3nc(c(-c4ccc(S(=O)(=O)[O-])cc4)c4ccc([nH]4)c(-c4ccc(S(=O)(=O)[O-])cc4)c4nc(c(-c5ccc(S(=O)(=O)[O-])cc5)c5ccc2[nH]5)C=C4)C=C3)cc1
REMARK SMILES IDX 5 1 4 2 3 3 1 4 2 5 33 7 34 8 92 9 35 10 91 11 36 12 37 13
REMARK SMILES IDX 38 14 85 15 39 16 90 17 84 18 86 19 40 20 89 21 83 22 82 23
REMARK SMILES IDX 41 25 71 26 52 27 70 28 53 29 56 30 69 31 87 32 54 33 55 34
REMARK SMILES IDX 68 36 88 37 57 38 42 39 43 40 51 41 44 42 50 43 45 44 46 45
REMARK SMILES IDX 47 46 48 47 49 48 72 49 73 50 81 51 74 52 80 53 75 54 76 55
REMARK SMILES IDX 77 56 78 57 79 58 58 59 59 60 67 61 60 62 66 63 61 64 62 65
REMARK SMILES IDX 63 66 64 67 65 68 6 69 7 70 8 71 9 73 10 74 11 75 32 76
REMARK SMILES IDX 12 77 14 78 13 79 15 80 16 81 31 82 17 83 27 84 30 85 26 86
REMARK SMILES IDX 28 87 29 88 18 90 19 92 20 93 21 94 25 95 22 96 24 97 23 98
REMARK H PARENT 3 6 86 24 56 35 7 72 28 89 18 91
REMARK Flexibility Score: inf
ROOT
ATOM      1  C   UNL A   1      34.084  29.127  27.585  1.00  0.00     0.042 C 
ENDROOT
BRANCH   1   2
ATOM      2  C   UNL A   1      35.451  29.658  27.994  1.00  0.00     0.118 C 
BRANCH   2   3
ATOM      3  N   UNL A   1      35.518  30.023  29.401  1.00  0.00    -0.352 N 
ATOM      4  O   UNL A   1      36.352  30.135  31.485  1.00  0.00    -0.269 OA
ATOM      5  C   UNL A   1      36.562  29.943  30.288  1.00  0.00     0.251 C 
ATOM      6  H   UNL A   1      34.683  30.386  29.775  1.00  0.00     0.163 HD
BRANCH   5   7
ATOM      7  C   UNL A   1      37.925  29.607  29.822  1.00  0.00     0.039 A 
ATOM      8  C   UNL A   1      38.872  29.056  30.690  1.00  0.00     0.014 A 
ATOM      9  C   UNL A   1      38.246  29.810  28.477  1.00  0.00     0.014 A 
ATOM     10  C   UNL A   1      40.177  28.842  30.252  1.00  0.00     0.010 A 
ATOM     11  C   UNL A   1      39.533  29.515  28.018  1.00  0.00     0.010 A 
ATOM     12  C   UNL A   1      40.517  29.056  28.909  1.00  0.00    -0.014 A 
BRANCH  12  13
ATOM     13  C   UNL A   1      41.884  28.746  28.422  1.00  0.00     0.031 A 
ATOM     14  C   UNL A   1      42.245  27.357  27.976  1.00  0.00     0.074 A 
ATOM     15  C   UNL A   1      42.816  29.718  28.423  1.00  0.00     0.049 A 
ATOM     16  N   UNL A   1      43.409  26.886  27.611  1.00  0.00    -0.248 NA
ATOM     17  C   UNL A   1      41.157  26.367  27.947  1.00  0.00     0.031 C 
ATOM     18  C   UNL A   1      42.586  31.106  28.831  1.00  0.00     0.029 A 
ATOM     19  N   UNL A   1      44.146  29.686  28.086  1.00  0.00    -0.354 N 
ATOM     20  C   UNL A   1      43.204  25.538  27.338  1.00  0.00     0.074 A 
ATOM     21  C   UNL A   1      41.806  25.265  27.599  1.00  0.00     0.031 C 
ATOM     22  C   UNL A   1      43.731  31.793  28.715  1.00  0.00     0.029 A 
ATOM     23  C   UNL A   1      44.789  30.883  28.291  1.00  0.00     0.049 A 
ATOM     24  H   UNL A   1      44.594  28.885  27.732  1.00  0.00     0.167 HD
ATOM     25  C   UNL A   1      44.101  24.614  26.913  1.00  0.00     0.031 A 
ATOM     26  C   UNL A   1      46.092  31.211  28.192  1.00  0.00     0.031 A 
ATOM     27  C   UNL A   1      45.493  24.895  26.672  1.00  0.00     0.049 A 
ATOM     28  C   UNL A   1      47.078  30.165  27.761  1.00  0.00     0.074 A 
ATOM     29  C   UNL A   1      46.475  24.039  26.207  1.00  0.00     0.029 A 
ATOM     30  N   UNL A   1      46.104  26.122  26.891  1.00  0.00    -0.354 N 
ATOM     31  N   UNL A   1      46.861  28.905  27.469  1.00  0.00    -0.248 NA
ATOM     32  C   UNL A   1      48.481  30.582  27.639  1.00  0.00     0.031 C 
ATOM     33  C   UNL A   1      47.691  24.731  26.203  1.00  0.00     0.029 A 
ATOM     34  C   UNL A   1      47.454  26.038  26.599  1.00  0.00     0.049 A 
ATOM     35  H   UNL A   1      45.644  26.933  27.208  1.00  0.00     0.167 HD
ATOM     36  C   UNL A   1      48.095  28.383  27.103  1.00  0.00     0.074 A 
ATOM     37  C   UNL A   1      49.054  29.465  27.209  1.00  0.00     0.031 C 
ATOM     38  C   UNL A   1      48.400  27.123  26.705  1.00  0.00     0.031 A 
BRANCH  25  39
ATOM     39  C   UNL A   1      43.608  23.200  26.736  1.00  0.00    -0.014 A 
ATOM     40  C   UNL A   1      43.122  22.448  27.820  1.00  0.00     0.010 A 
ATOM     41  C   UNL A   1      43.629  22.615  25.455  1.00  0.00     0.010 A 
ATOM     42  C   UNL A   1      42.736  21.116  27.641  1.00  0.00     0.020 A 
ATOM     43  C   UNL A   1      43.215  21.294  25.267  1.00  0.00     0.020 A 
ATOM     44  C   UNL A   1      42.797  20.544  26.367  1.00  0.00     0.054 A 
BRANCH  44  45
ATOM     45  S   UNL A   1      42.325  18.803  26.170  1.00  0.00     0.124 S 
ATOM     46  O   UNL A   1      43.322  18.330  25.212  1.00  0.00    -0.237 OA
ATOM     47  O   UNL A   1      42.459  18.278  27.525  1.00  0.00    -0.237 OA
ATOM     48  O   UNL A   1      40.956  18.870  25.662  1.00  0.00    -0.744 OA
ENDBRANCH  44  45
ENDBRANCH  25  39
BRANCH  26  49
ATOM     49  C   UNL A   1      46.512  32.595  28.533  1.00  0.00    -0.014 A 
ATOM     50  C   UNL A   1      46.950  32.913  29.829  1.00  0.00     0.010 A 
ATOM     51  C   UNL A   1      46.570  33.581  27.528  1.00  0.00     0.010 A 
ATOM     52  C   UNL A   1      47.450  34.187  30.111  1.00  0.00     0.020 A 
ATOM     53  C   UNL A   1      47.093  34.846  27.800  1.00  0.00     0.020 A 
ATOM     54  C   UNL A   1      47.529  35.142  29.092  1.00  0.00     0.054 A 
BRANCH  54  55
ATOM     55  S   UNL A   1      48.284  36.751  29.460  1.00  0.00     0.124 S 
ATOM     56  O   UNL A   1      47.163  37.665  29.261  1.00  0.00    -0.237 OA
ATOM     57  O   UNL A   1      48.727  36.583  30.841  1.00  0.00    -0.237 OA
ATOM     58  O   UNL A   1      49.361  36.858  28.477  1.00  0.00    -0.744 OA
ENDBRANCH  54  55
ENDBRANCH  26  49
BRANCH  38  59
ATOM     59  C   UNL A   1      49.823  26.838  26.306  1.00  0.00    -0.014 A 
ATOM     60  C   UNL A   1      50.286  27.107  25.007  1.00  0.00     0.010 A 
ATOM     61  C   UNL A   1      50.733  26.395  27.284  1.00  0.00     0.010 A 
ATOM     62  C   UNL A   1      51.638  26.937  24.693  1.00  0.00     0.020 A 
ATOM     63  C   UNL A   1      52.088  26.247  26.980  1.00  0.00     0.020 A 
ATOM     64  C   UNL A   1      52.531  26.518  25.685  1.00  0.00     0.054 A 
BRANCH  64  65
ATOM     65  S   UNL A   1      54.296  26.399  25.278  1.00  0.00     0.124 S 
ATOM     66  O   UNL A   1      54.721  25.263  26.090  1.00  0.00    -0.237 OA
ATOM     67  O   UNL A   1      54.278  26.170  23.836  1.00  0.00    -0.237 OA
ATOM     68  O   UNL A   1      54.835  27.694  25.691  1.00  0.00    -0.744 OA
ENDBRANCH  64  65
ENDBRANCH  38  59
ENDBRANCH  12  13
ENDBRANCH   5   7
ENDBRANCH   2   3
ENDBRANCH   1   2
BRANCH   1  69
ATOM     69  C   UNL A   1      33.779  29.247  26.098  1.00  0.00     0.118 C 
BRANCH  69  70
ATOM     70  N   UNL A   1      32.356  29.120  25.806  1.00  0.00    -0.352 N 
ATOM     71  C   UNL A   1      31.714  28.420  24.817  1.00  0.00     0.251 C 
ATOM     72  H   UNL A   1      31.763  29.617  26.414  1.00  0.00     0.163 HD
ATOM     73  O   UNL A   1      30.510  28.587  24.634  1.00  0.00    -0.269 OA
BRANCH  71  74
ATOM     74  C   UNL A   1      32.452  27.459  23.972  1.00  0.00     0.040 A 
ATOM     75  C   UNL A   1      32.897  27.868  22.714  1.00  0.00     0.014 A 
ATOM     76  C   UNL A   1      32.659  26.142  24.395  1.00  0.00     0.022 A 
ATOM     77  C   UNL A   1      33.596  26.971  21.907  1.00  0.00     0.001 A 
ATOM     78  C   UNL A   1      33.397  25.238  23.616  1.00  0.00    -0.017 A 
ATOM     79  C   UNL A   1      33.851  25.672  22.360  1.00  0.00     0.009 A 
BRANCH  78  80
ATOM     80  C   UNL A   1      33.684  23.895  24.130  1.00  0.00    -0.004 A 
ATOM     81  C   UNL A   1      32.798  22.817  23.954  1.00  0.00     0.056 A 
ATOM     82  C   UNL A   1      34.832  23.636  24.905  1.00  0.00     0.027 A 
ATOM     83  C   UNL A   1      33.048  21.565  24.520  1.00  0.00     0.129 A 
ATOM     84  C   UNL A   1      34.991  22.341  25.380  1.00  0.00     0.140 A 
ATOM     85  C   UNL A   1      35.942  24.382  25.403  1.00  0.00     0.030 A 
ATOM     86  N   UNL A   1      34.172  21.292  25.202  1.00  0.00    -0.213 NA
ATOM     87  N   UNL A   1      36.147  22.289  26.111  1.00  0.00    -0.346 N 
ATOM     88  C   UNL A   1      36.737  23.526  26.134  1.00  0.00     0.085 A 
ATOM     89  H   UNL A   1      36.501  21.485  26.553  1.00  0.00     0.167 HD
BRANCH  83  90
ATOM     90  N   UNL A   1      32.094  20.571  24.318  1.00  0.00    -0.364 N 
ATOM     91  H   UNL A   1      31.274  20.556  24.862  1.00  0.00     0.162 HD
BRANCH  90  92
ATOM     92  C   UNL A   1      32.309  19.551  23.298  1.00  0.00     0.170 C 
BRANCH  92  93
ATOM     93  C   UNL A   1      32.736  18.232  23.921  1.00  0.00     0.059 A 
ATOM     94  C   UNL A   1      33.684  17.427  23.289  1.00  0.00     0.026 A 
ATOM     95  N   UNL A   1      32.146  17.865  25.089  1.00  0.00    -0.259 NA
ATOM     96  C   UNL A   1      34.029  16.207  23.865  1.00  0.00     0.004 A 
ATOM     97  C   UNL A   1      32.496  16.676  25.622  1.00  0.00     0.111 A 
ATOM     98  C   UNL A   1      33.424  15.821  25.054  1.00  0.00     0.020 A 
ENDBRANCH  92  93
ENDBRANCH  90  92
ENDBRANCH  83  90
ENDBRANCH  78  80
ENDBRANCH  71  74
ENDBRANCH  69  70
ENDBRANCH   1  69
TORSDOF 17
ENDMDL
MODEL 3
REMARK VINA RESULT:     -11.3      2.395      9.041
REMARK SMILES O=C(NCCCNC(=O)c1cccc(-c2cc(NCc3ccccn3)nc3[nH]ccc23)c1)c1ccc(-c2c3nc(c(-c4ccc(S(=O)(=O)[O-])cc4)c4ccc([nH]4)c(-c4ccc(S(=O)(=O)[O-])cc4)c4nc(c(-c5ccc(S(=O)(=O)[O-])cc5)c5ccc2[nH]5)C=C4)C=C3)cc1
REMARK SMILES IDX 5 1 4 2 3 3 1 4 2 5 33 7 34 8 92 9 35 10 91 11 36 12 37 13
REMARK SMILES IDX 38 14 85 15 39 16 90 17 84 18 86 19 40 20 89 21 83 22 82 23
REMARK SMILES IDX 41 25 71 26 52 27 70 28 53 29 56 30 69 31 87 32 54 33 55 34
REMARK SMILES IDX 68 36 88 37 57 38 42 39 43 40 51 41 44 42 50 43 45 44 46 45
REMARK SMILES IDX 47 46 48 47 49 48 72 49 73 50 81 51 74 52 80 53 75 54 76 55
REMARK SMILES IDX 77 56 78 57 79 58 58 59 59 60 67 61 60 62 66 63 61 64 62 65
REMARK SMILES IDX 63 66 64 67 65 68 6 69 7 70 8 71 9 73 10 74 11 75 32 76
REMARK SMILES IDX 12 77 14 78 13 79 15 80 16 81 31 82 17 83 27 84 30 85 26 86
REMARK SMILES IDX 28 87 29 88 18 90 19 92 20 93 21 94 25 95 22 96 24 97 23 98
REMARK H PARENT 3 6 86 24 56 35 7 72 28 89 18 91
REMARK Flexibility Score: inf
ROOT
ATOM      1  C   UNL A   1      34.881  29.965  27.200  1.00  0.00     0.042 C 
ENDROOT
BRANCH   1   2
ATOM      2  C   UNL A   1      33.751  30.607  27.993  1.00  0.00     0.118 C 
BRANCH   2   3
ATOM      3  N   UNL A   1      33.612  32.031  27.729  1.00  0.00    -0.352 N 
ATOM      4  O   UNL A   1      33.920  34.240  28.006  1.00  0.00    -0.269 OA
ATOM      5  C   UNL A   1      34.323  33.098  28.219  1.00  0.00     0.251 C 
ATOM      6  H   UNL A   1      32.893  32.267  27.098  1.00  0.00     0.163 HD
BRANCH   5   7
ATOM      7  C   UNL A   1      35.551  32.884  29.017  1.00  0.00     0.039 A 
ATOM      8  C   UNL A   1      36.743  33.541  28.701  1.00  0.00     0.014 A 
ATOM      9  C   UNL A   1      35.493  32.038  30.127  1.00  0.00     0.014 A 
ATOM     10  C   UNL A   1      37.908  33.247  29.404  1.00  0.00     0.010 A 
ATOM     11  C   UNL A   1      36.645  31.808  30.885  1.00  0.00     0.010 A 
ATOM     12  C   UNL A   1      37.868  32.387  30.512  1.00  0.00    -0.014 A 
BRANCH  12  13
ATOM     13  C   UNL A   1      39.092  32.140  31.315  1.00  0.00     0.031 A 
ATOM     14  C   UNL A   1      40.119  31.141  30.862  1.00  0.00     0.074 A 
ATOM     15  C   UNL A   1      39.253  32.794  32.481  1.00  0.00     0.049 A 
ATOM     16  N   UNL A   1      41.196  30.731  31.480  1.00  0.00    -0.248 NA
ATOM     17  C   UNL A   1      39.901  30.514  29.550  1.00  0.00     0.031 C 
ATOM     18  C   UNL A   1      38.326  33.788  33.025  1.00  0.00     0.029 A 
ATOM     19  N   UNL A   1      40.244  32.708  33.427  1.00  0.00    -0.354 N 
ATOM     20  C   UNL A   1      41.771  29.775  30.649  1.00  0.00     0.074 A 
ATOM     21  C   UNL A   1      40.909  29.655  29.491  1.00  0.00     0.031 C 
ATOM     22  C   UNL A   1      38.793  34.225  34.203  1.00  0.00     0.029 A 
ATOM     23  C   UNL A   1      40.014  33.496  34.529  1.00  0.00     0.049 A 
ATOM     24  H   UNL A   1      41.040  32.140  33.325  1.00  0.00     0.167 HD
ATOM     25  C   UNL A   1      42.908  29.063  30.836  1.00  0.00     0.031 A 
ATOM     26  C   UNL A   1      40.681  33.595  35.695  1.00  0.00     0.031 A 
ATOM     27  C   UNL A   1      43.749  29.181  32.000  1.00  0.00     0.049 A 
ATOM     28  C   UNL A   1      41.915  32.768  35.904  1.00  0.00     0.074 A 
ATOM     29  C   UNL A   1      44.940  28.531  32.271  1.00  0.00     0.029 A 
ATOM     30  N   UNL A   1      43.479  29.991  33.094  1.00  0.00    -0.354 N 
ATOM     31  N   UNL A   1      42.465  31.898  35.091  1.00  0.00    -0.248 NA
ATOM     32  C   UNL A   1      42.622  32.936  37.180  1.00  0.00     0.031 C 
ATOM     33  C   UNL A   1      45.358  28.902  33.553  1.00  0.00     0.029 A 
ATOM     34  C   UNL A   1      44.465  29.836  34.054  1.00  0.00     0.049 A 
ATOM     35  H   UNL A   1      42.701  30.589  33.175  1.00  0.00     0.167 HD
ATOM     36  C   UNL A   1      43.600  31.434  35.745  1.00  0.00     0.074 A 
ATOM     37  C   UNL A   1      43.657  32.120  37.021  1.00  0.00     0.031 C 
ATOM     38  C   UNL A   1      44.514  30.528  35.319  1.00  0.00     0.031 A 
BRANCH  25  39
ATOM     39  C   UNL A   1      43.276  28.053  29.779  1.00  0.00    -0.014 A 
ATOM     40  C   UNL A   1      42.875  26.708  29.873  1.00  0.00     0.010 A 
ATOM     41  C   UNL A   1      44.036  28.462  28.667  1.00  0.00     0.010 A 
ATOM     42  C   UNL A   1      43.288  25.778  28.914  1.00  0.00     0.020 A 
ATOM     43  C   UNL A   1      44.425  27.540  27.690  1.00  0.00     0.020 A 
ATOM     44  C   UNL A   1      44.071  26.198  27.835  1.00  0.00     0.054 A 
BRANCH  44  45
ATOM     45  S   UNL A   1      44.624  24.964  26.626  1.00  0.00     0.124 S 
ATOM     46  O   UNL A   1      46.073  24.991  26.812  1.00  0.00    -0.237 OA
ATOM     47  O   UNL A   1      43.956  23.748  27.079  1.00  0.00    -0.237 OA
ATOM     48  O   UNL A   1      44.151  25.493  25.349  1.00  0.00    -0.744 OA
ENDBRANCH  44  45
ENDBRANCH  25  39
BRANCH  26  49
ATOM     49  C   UNL A   1      40.159  34.509  36.746  1.00  0.00    -0.014 A 
ATOM     50  C   UNL A   1      39.349  34.020  37.784  1.00  0.00     0.010 A 
ATOM     51  C   UNL A   1      40.557  35.860  36.764  1.00  0.00     0.010 A 
ATOM     52  C   UNL A   1      38.957  34.862  38.828  1.00  0.00     0.020 A 
ATOM     53  C   UNL A   1      40.189  36.697  37.819  1.00  0.00     0.020 A 
ATOM     54  C   UNL A   1      39.390  36.192  38.846  1.00  0.00     0.054 A 
BRANCH  54  55
ATOM     55  S   UNL A   1      38.957  37.233  40.268  1.00  0.00     0.124 S 
ATOM     56  O   UNL A   1      40.270  37.544  40.826  1.00  0.00    -0.237 OA
ATOM     57  O   UNL A   1      38.255  38.347  39.640  1.00  0.00    -0.237 OA
ATOM     58  O   UNL A   1      38.119  36.360  41.089  1.00  0.00    -0.744 OA
ENDBRANCH  54  55
ENDBRANCH  26  49
BRANCH  38  59
ATOM     59  C   UNL A   1      45.692  30.247  36.213  1.00  0.00    -0.014 A 
ATOM     60  C   UNL A   1      46.846  31.048  36.176  1.00  0.00     0.010 A 
ATOM     61  C   UNL A   1      45.592  29.228  37.178  1.00  0.00     0.010 A 
ATOM     62  C   UNL A   1      47.880  30.833  37.092  1.00  0.00     0.020 A 
ATOM     63  C   UNL A   1      46.612  29.027  38.110  1.00  0.00     0.020 A 
ATOM     64  C   UNL A   1      47.752  29.831  38.059  1.00  0.00     0.054 A 
BRANCH  64  65
ATOM     65  S   UNL A   1      49.065  29.637  39.297  1.00  0.00     0.124 S 
ATOM     66  O   UNL A   1      48.529  30.388  40.429  1.00  0.00    -0.237 OA
ATOM     67  O   UNL A   1      49.126  28.189  39.476  1.00  0.00    -0.237 OA
ATOM     68  O   UNL A   1      50.237  30.230  38.656  1.00  0.00    -0.744 OA
ENDBRANCH  64  65
ENDBRANCH  38  59
ENDBRANCH  12  13
ENDBRANCH   5   7
ENDBRANCH   2   3
ENDBRANCH   1   2
BRANCH   1  69
ATOM     69  C   UNL A   1      34.457  28.784  26.339  1.00  0.00     0.118 C 
BRANCH  69  70
ATOM     70  N   UNL A   1      33.325  28.058  26.901  1.00  0.00    -0.352 N 
ATOM     71  C   UNL A   1      32.696  26.922  26.462  1.00  0.00     0.251 C 
ATOM     72  H   UNL A   1      32.953  28.445  27.726  1.00  0.00     0.163 HD
ATOM     73  O   UNL A   1      31.640  26.568  26.984  1.00  0.00    -0.269 OA
BRANCH  71  74
ATOM     74  C   UNL A   1      33.275  26.112  25.370  1.00  0.00     0.040 A 
ATOM     75  C   UNL A   1      32.958  26.432  24.049  1.00  0.00     0.014 A 
ATOM     76  C   UNL A   1      34.086  25.007  25.648  1.00  0.00     0.022 A 
ATOM     77  C   UNL A   1      33.499  25.677  23.010  1.00  0.00     0.001 A 
ATOM     78  C   UNL A   1      34.675  24.262  24.616  1.00  0.00    -0.017 A 
ATOM     79  C   UNL A   1      34.356  24.609  23.292  1.00  0.00     0.009 A 
BRANCH  78  80
ATOM     80  C   UNL A   1      35.601  23.172  24.938  1.00  0.00    -0.004 A 
ATOM     81  C   UNL A   1      36.959  23.399  25.227  1.00  0.00     0.056 A 
ATOM     82  C   UNL A   1      35.192  21.824  24.891  1.00  0.00     0.027 A 
ATOM     83  C   UNL A   1      37.845  22.343  25.452  1.00  0.00     0.129 A 
ATOM     84  C   UNL A   1      36.156  20.864  25.173  1.00  0.00     0.140 A 
ATOM     85  C   UNL A   1      33.994  21.109  24.587  1.00  0.00     0.030 A 
ATOM     86  N   UNL A   1      37.448  21.060  25.476  1.00  0.00    -0.213 NA
ATOM     87  N   UNL A   1      35.576  19.629  25.069  1.00  0.00    -0.346 N 
ATOM     88  C   UNL A   1      34.259  19.762  24.712  1.00  0.00     0.085 A 
ATOM     89  H   UNL A   1      36.036  18.774  25.226  1.00  0.00     0.167 HD
BRANCH  83  90
ATOM     90  N   UNL A   1      39.176  22.668  25.697  1.00  0.00    -0.364 N 
ATOM     91  H   UNL A   1      39.837  22.619  24.969  1.00  0.00     0.162 HD
BRANCH  90  92
ATOM     92  C   UNL A   1      39.592  23.083  27.031  1.00  0.00     0.170 C 
BRANCH  92  93
ATOM     93  C   UNL A   1      39.840  24.583  27.088  1.00  0.00     0.059 A 
ATOM     94  C   UNL A   1      40.609  25.207  26.105  1.00  0.00     0.026 A 
ATOM     95  N   UNL A   1      39.309  25.271  28.131  1.00  0.00    -0.259 NA
ATOM     96  C   UNL A   1      40.849  26.575  26.203  1.00  0.00     0.004 A 
ATOM     97  C   UNL A   1      39.561  26.595  28.202  1.00  0.00     0.111 A 
ATOM     98  C   UNL A   1      40.318  27.286  27.271  1.00  0.00     0.020 A 
ENDBRANCH  92  93
ENDBRANCH  90  92
ENDBRANCH  83  90
ENDBRANCH  78  80
ENDBRANCH  71  74
ENDBRANCH  69  70
ENDBRANCH   1  69
TORSDOF 17
ENDMDL
