MODEL 1
REMARK VINA RESULT:     -14.1      0.000      0.000
REMARK SMILES O=C(NCCCNC(=O)[C@]1(NC(=O)C2CCN(C(=O)C3CC3)CC2)CCCc2ccccc21)c1ccc(-c2c3nc(c(-c4ccc(S(=O)(=O)[O-])cc4)c4ccc([nH]4)c(-c4ccc(S(=O)(=O)[O-])cc4)c4nc(c(-c5ccc(S(=O)(=O)[O-])cc5)c5ccc2[nH]5)C=C4)C=C3)cc1
REMARK SMILES IDX 5 1 4 2 3 3 1 4 2 5 34 7 35 8 93 9 36 10 92 11 37 12 38 13
REMARK SMILES IDX 39 14 86 15 40 16 91 17 85 18 87 19 41 20 90 21 84 22 83 23
REMARK SMILES IDX 42 25 72 26 53 27 71 28 54 29 57 30 70 31 88 32 55 33 56 34
REMARK SMILES IDX 69 36 89 37 58 38 43 39 44 40 52 41 45 42 51 43 46 44 47 45
REMARK SMILES IDX 48 46 49 47 50 48 73 49 74 50 82 51 75 52 81 53 76 54 77 55
REMARK SMILES IDX 78 56 79 57 80 58 59 59 60 60 68 61 61 62 67 63 62 64 63 65
REMARK SMILES IDX 64 66 65 67 66 68 6 69 7 70 8 71 9 73 10 74 25 75 33 76
REMARK SMILES IDX 26 77 28 78 32 79 27 80 29 81 31 82 30 83 11 84 12 85 13 87
REMARK SMILES IDX 14 88 15 89 24 90 16 91 23 92 17 93 18 94 19 95 20 96 21 97
REMARK SMILES IDX 22 98
REMARK H PARENT 3 6 87 24 57 35 7 72 11 86
REMARK Flexibility Score: inf
ROOT
ATOM      1  C   UNL A   1      35.198  30.473  27.382  1.00  0.00     0.042 C 
ENDROOT
BRANCH   1   2
ATOM      2  C   UNL A   1      35.269  31.388  29.299  1.00  0.00     0.118 C 
BRANCH   2   3
ATOM      3  N   UNL A   1      35.796  30.830  30.775  1.00  0.00    -0.352 N 
ATOM      4  O   UNL A   1      36.614  29.686  32.513  1.00  0.00    -0.269 OA
ATOM      5  C   UNL A   1      36.816  30.131  31.382  1.00  0.00     0.251 C 
ATOM      6  H   UNL A   1      35.144  31.097  31.464  1.00  0.00     0.163 HD
BRANCH   5   7
ATOM      7  C   UNL A   1      38.115  29.873  30.747  1.00  0.00     0.039 A 
ATOM      8  C   UNL A   1      38.289  30.247  29.428  1.00  0.00     0.014 A 
ATOM      9  C   UNL A   1      39.204  29.369  31.487  1.00  0.00     0.014 A 
ATOM     10  C   UNL A   1      39.508  30.000  28.813  1.00  0.00     0.010 A 
ATOM     11  C   UNL A   1      40.456  29.170  30.873  1.00  0.00     0.010 A 
ATOM     12  C   UNL A   1      40.611  29.453  29.512  1.00  0.00    -0.014 A 
BRANCH  12  13
ATOM     13  C   UNL A   1      41.850  29.221  28.711  1.00  0.00     0.031 A 
ATOM     14  C   UNL A   1      43.019  30.171  28.726  1.00  0.00     0.074 A 
ATOM     15  C   UNL A   1      42.034  27.977  28.228  1.00  0.00     0.049 A 
ATOM     16  N   UNL A   1      44.298  29.888  28.701  1.00  0.00    -0.248 NA
ATOM     17  C   UNL A   1      42.732  31.609  28.812  1.00  0.00     0.031 C 
ATOM     18  C   UNL A   1      40.993  26.950  28.160  1.00  0.00     0.029 A 
ATOM     19  N   UNL A   1      43.175  27.336  27.828  1.00  0.00    -0.354 N 
ATOM     20  C   UNL A   1      44.961  31.092  28.910  1.00  0.00     0.074 A 
ATOM     21  C   UNL A   1      43.947  32.120  28.985  1.00  0.00     0.031 C 
ATOM     22  C   UNL A   1      41.564  25.777  27.858  1.00  0.00     0.029 A 
ATOM     23  C   UNL A   1      42.991  25.989  27.627  1.00  0.00     0.049 A 
ATOM     24  H   UNL A   1      44.039  27.792  27.698  1.00  0.00     0.167 HD
ATOM     25  C   UNL A   1      46.294  31.320  29.016  1.00  0.00     0.031 A 
ATOM     26  C   UNL A   1      43.864  25.025  27.284  1.00  0.00     0.031 A 
ATOM     27  C   UNL A   1      47.302  30.348  28.683  1.00  0.00     0.049 A 
ATOM     28  C   UNL A   1      45.311  25.374  27.127  1.00  0.00     0.074 A 
ATOM     29  C   UNL A   1      48.677  30.511  28.648  1.00  0.00     0.029 A 
ATOM     30  N   UNL A   1      47.042  29.065  28.227  1.00  0.00    -0.354 N 
ATOM     31  N   UNL A   1      45.927  26.485  27.452  1.00  0.00    -0.248 NA
ATOM     32  C   UNL A   1      46.175  24.348  26.535  1.00  0.00     0.031 C 
ATOM     33  C   UNL A   1      49.235  29.375  28.048  1.00  0.00     0.029 A 
ATOM     34  C   UNL A   1      48.218  28.467  27.801  1.00  0.00     0.049 A 
ATOM     35  H   UNL A   1      46.154  28.641  28.208  1.00  0.00     0.167 HD
ATOM     36  C   UNL A   1      47.258  26.295  27.097  1.00  0.00     0.074 A 
ATOM     37  C   UNL A   1      47.355  24.952  26.558  1.00  0.00     0.031 C 
ATOM     38  C   UNL A   1      48.300  27.154  27.210  1.00  0.00     0.031 A 
BRANCH  25  39
ATOM     39  C   UNL A   1      46.753  32.699  29.412  1.00  0.00    -0.014 A 
ATOM     40  C   UNL A   1      46.944  33.700  28.443  1.00  0.00     0.010 A 
ATOM     41  C   UNL A   1      46.882  33.031  30.772  1.00  0.00     0.010 A 
ATOM     42  C   UNL A   1      47.262  35.010  28.829  1.00  0.00     0.020 A 
ATOM     43  C   UNL A   1      47.191  34.337  31.162  1.00  0.00     0.020 A 
ATOM     44  C   UNL A   1      47.386  35.319  30.188  1.00  0.00     0.054 A 
BRANCH  44  45
ATOM     45  S   UNL A   1      47.773  37.028  30.667  1.00  0.00     0.124 S 
ATOM     46  O   UNL A   1      48.201  37.608  29.396  1.00  0.00    -0.237 OA
ATOM     47  O   UNL A   1      46.496  37.514  31.180  1.00  0.00    -0.237 OA
ATOM     48  O   UNL A   1      48.828  36.878  31.667  1.00  0.00    -0.744 OA
ENDBRANCH  44  45
ENDBRANCH  25  39
BRANCH  26  49
ATOM     49  C   UNL A   1      43.338  23.673  26.960  1.00  0.00    -0.014 A 
ATOM     50  C   UNL A   1      43.079  23.263  25.644  1.00  0.00     0.010 A 
ATOM     51  C   UNL A   1      43.152  22.756  28.015  1.00  0.00     0.010 A 
ATOM     52  C   UNL A   1      42.664  21.950  25.389  1.00  0.00     0.020 A 
ATOM     53  C   UNL A   1      42.778  21.440  27.762  1.00  0.00     0.020 A 
ATOM     54  C   UNL A   1      42.530  21.045  26.449  1.00  0.00     0.054 A 
BRANCH  54  55
ATOM     55  S   UNL A   1      42.093  19.320  26.102  1.00  0.00     0.124 S 
ATOM     56  O   UNL A   1      42.960  19.012  24.969  1.00  0.00    -0.237 OA
ATOM     57  O   UNL A   1      42.423  18.648  27.355  1.00  0.00    -0.237 OA
ATOM     58  O   UNL A   1      40.665  19.387  25.798  1.00  0.00    -0.744 OA
ENDBRANCH  54  55
ENDBRANCH  26  49
BRANCH  38  59
ATOM     59  C   UNL A   1      49.639  26.666  26.725  1.00  0.00    -0.014 A 
ATOM     60  C   UNL A   1      50.043  26.855  25.390  1.00  0.00     0.010 A 
ATOM     61  C   UNL A   1      50.502  26.002  27.615  1.00  0.00     0.010 A 
ATOM     62  C   UNL A   1      51.258  26.331  24.940  1.00  0.00     0.020 A 
ATOM     63  C   UNL A   1      51.731  25.505  27.176  1.00  0.00     0.020 A 
ATOM     64  C   UNL A   1      52.089  25.650  25.833  1.00  0.00     0.054 A 
BRANCH  64  65
ATOM     65  S   UNL A   1      53.652  24.962  25.225  1.00  0.00     0.124 S 
ATOM     66  O   UNL A   1      53.736  25.539  23.886  1.00  0.00    -0.237 OA
ATOM     67  O   UNL A   1      54.625  25.470  26.190  1.00  0.00    -0.237 OA
ATOM     68  O   UNL A   1      53.436  23.518  25.269  1.00  0.00    -0.744 OA
ENDBRANCH  64  65
ENDBRANCH  38  59
ENDBRANCH  12  13
ENDBRANCH   5   7
ENDBRANCH   2   3
ENDBRANCH   1   2
BRANCH   1  69
ATOM     69  C   UNL A   1      34.155  29.051  26.746  1.00  0.00     0.117 C 
BRANCH  69  70
ATOM     70  N   UNL A   1      32.922  28.452  27.531  1.00  0.00    -0.354 N 
ATOM     71  C   UNL A   1      31.809  27.664  27.209  1.00  0.00     0.250 C 
ATOM     72  H   UNL A   1      32.942  28.691  28.486  1.00  0.00     0.163 HD
ATOM     73  O   UNL A   1      30.786  27.757  27.887  1.00  0.00    -0.272 OA
BRANCH  71  74
ATOM     74  C   UNL A   1      32.060  26.511  26.209  1.00  0.00     0.145 C 
ATOM     75  C   UNL A   1      33.456  25.841  26.106  1.00  0.00     0.044 C 
ATOM     76  C   UNL A   1      31.624  27.122  24.847  1.00  0.00    -0.010 A 
ATOM     77  C   UNL A   1      34.491  26.519  25.237  1.00  0.00     0.008 C 
ATOM     78  C   UNL A   1      32.614  27.485  23.900  1.00  0.00    -0.042 A 
ATOM     79  C   UNL A   1      30.353  27.721  24.711  1.00  0.00     0.007 A 
ATOM     80  C   UNL A   1      33.947  26.793  23.853  1.00  0.00     0.036 C 
ATOM     81  C   UNL A   1      32.372  28.519  22.979  1.00  0.00     0.004 A 
ATOM     82  C   UNL A   1      30.142  28.781  23.823  1.00  0.00     0.000 A 
ATOM     83  C   UNL A   1      31.162  29.201  22.981  1.00  0.00     0.000 A 
BRANCH  74  84
ATOM     84  N   UNL A   1      31.234  25.505  26.833  1.00  0.00    -0.338 N 
ATOM     85  C   UNL A   1      30.259  24.933  26.048  1.00  0.00     0.224 C 
ATOM     86  H   UNL A   1      31.361  25.240  27.773  1.00  0.00     0.164 HD
ATOM     87  O   UNL A   1      29.126  25.250  26.437  1.00  0.00    -0.275 OA
BRANCH  85  88
ATOM     88  C   UNL A   1      30.481  23.867  24.676  1.00  0.00     0.082 C 
ATOM     89  C   UNL A   1      31.049  22.457  25.835  1.00  0.00     0.035 C 
ATOM     90  C   UNL A   1      31.630  24.050  23.030  1.00  0.00     0.035 C 
ATOM     91  C   UNL A   1      32.850  22.112  26.004  1.00  0.00     0.120 C 
ATOM     92  C   UNL A   1      33.561  23.511  23.173  1.00  0.00     0.120 C 
ATOM     93  N   UNL A   1      33.981  22.417  24.639  1.00  0.00    -0.342 N 
ATOM     94  C   UNL A   1      35.183  21.817  25.012  1.00  0.00     0.225 C 
ATOM     95  O   UNL A   1      35.231  21.090  26.004  1.00  0.00    -0.275 OA
BRANCH  94  96
ATOM     96  C   UNL A   1      36.444  21.994  24.303  1.00  0.00     0.079 C 
ATOM     97  C   UNL A   1      36.822  22.886  23.175  1.00  0.00     0.014 C 
ATOM     98  C   UNL A   1      37.186  23.282  24.575  1.00  0.00     0.014 C 
ENDBRANCH  94  96
ENDBRANCH  85  88
ENDBRANCH  74  84
ENDBRANCH  71  74
ENDBRANCH  69  70
ENDBRANCH   1  69
TORSDOF 16
ENDMDL
MODEL 2
REMARK VINA RESULT:     -13.8      1.498      2.122
REMARK SMILES O=C(NCCCNC(=O)[C@]1(NC(=O)C2CCN(C(=O)C3CC3)CC2)CCCc2ccccc21)c1ccc(-c2c3nc(c(-c4ccc(S(=O)(=O)[O-])cc4)c4ccc([nH]4)c(-c4ccc(S(=O)(=O)[O-])cc4)c4nc(c(-c5ccc(S(=O)(=O)[O-])cc5)c5ccc2[nH]5)C=C4)C=C3)cc1
REMARK SMILES IDX 5 1 4 2 3 3 1 4 2 5 34 7 35 8 93 9 36 10 92 11 37 12 38 13
REMARK SMILES IDX 39 14 86 15 40 16 91 17 85 18 87 19 41 20 90 21 84 22 83 23
REMARK SMILES IDX 42 25 72 26 53 27 71 28 54 29 57 30 70 31 88 32 55 33 56 34
REMARK SMILES IDX 69 36 89 37 58 38 43 39 44 40 52 41 45 42 51 43 46 44 47 45
REMARK SMILES IDX 48 46 49 47 50 48 73 49 74 50 82 51 75 52 81 53 76 54 77 55
REMARK SMILES IDX 78 56 79 57 80 58 59 59 60 60 68 61 61 62 67 63 62 64 63 65
REMARK SMILES IDX 64 66 65 67 66 68 6 69 7 70 8 71 9 73 10 74 25 75 33 76
REMARK SMILES IDX 26 77 28 78 32 79 27 80 29 81 31 82 30 83 11 84 12 85 13 87
REMARK SMILES IDX 14 88 15 89 24 90 16 91 23 92 17 93 18 94 19 95 20 96 21 97
REMARK SMILES IDX 22 98
REMARK H PARENT 3 6 87 24 57 35 7 72 11 86
REMARK Flexibility Score: inf
ROOT
ATOM      1  C   UNL A   1      35.800  29.687  27.444  1.00  0.00     0.042 C 
ENDROOT
BRANCH   1   2
ATOM      2  C   UNL A   1      36.211  30.164  29.473  1.00  0.00     0.118 C 
BRANCH   2   3
ATOM      3  N   UNL A   1      37.086  29.370  30.644  1.00  0.00    -0.352 N 
ATOM      4  O   UNL A   1      38.341  27.984  31.870  1.00  0.00    -0.269 OA
ATOM      5  C   UNL A   1      38.258  28.678  30.855  1.00  0.00     0.251 C 
ATOM      6  H   UNL A   1      36.586  29.409  31.493  1.00  0.00     0.163 HD
BRANCH   5   7
ATOM      7  C   UNL A   1      39.399  28.710  29.931  1.00  0.00     0.039 A 
ATOM      8  C   UNL A   1      40.652  28.393  30.422  1.00  0.00     0.014 A 
ATOM      9  C   UNL A   1      39.219  28.938  28.552  1.00  0.00     0.014 A 
ATOM     10  C   UNL A   1      41.741  28.430  29.563  1.00  0.00     0.010 A 
ATOM     11  C   UNL A   1      40.319  28.921  27.674  1.00  0.00     0.010 A 
ATOM     12  C   UNL A   1      41.604  28.699  28.179  1.00  0.00    -0.014 A 
BRANCH  12  13
ATOM     13  C   UNL A   1      42.869  28.729  27.385  1.00  0.00     0.031 A 
ATOM     14  C   UNL A   1      43.860  29.859  27.474  1.00  0.00     0.074 A 
ATOM     15  C   UNL A   1      43.262  27.566  26.831  1.00  0.00     0.049 A 
ATOM     16  N   UNL A   1      45.169  29.797  27.453  1.00  0.00    -0.248 NA
ATOM     17  C   UNL A   1      43.335  31.220  27.642  1.00  0.00     0.031 C 
ATOM     18  C   UNL A   1      42.409  26.384  26.685  1.00  0.00     0.029 A 
ATOM     19  N   UNL A   1      44.497  27.152  26.411  1.00  0.00    -0.354 N 
ATOM     20  C   UNL A   1      45.618  31.080  27.744  1.00  0.00     0.074 A 
ATOM     21  C   UNL A   1      44.445  31.917  27.864  1.00  0.00     0.031 C 
ATOM     22  C   UNL A   1      43.171  25.345  26.323  1.00  0.00     0.029 A 
ATOM     23  C   UNL A   1      44.543  25.808  26.127  1.00  0.00     0.049 A 
ATOM     24  H   UNL A   1      45.272  27.753  26.322  1.00  0.00     0.167 HD
ATOM     25  C   UNL A   1      46.892  31.521  27.884  1.00  0.00     0.031 A 
ATOM     26  C   UNL A   1      45.568  25.026  25.741  1.00  0.00     0.031 A 
ATOM     27  C   UNL A   1      48.052  30.755  27.510  1.00  0.00     0.049 A 
ATOM     28  C   UNL A   1      46.937  25.623  25.628  1.00  0.00     0.074 A 
ATOM     29  C   UNL A   1      49.380  31.149  27.506  1.00  0.00     0.029 A 
ATOM     30  N   UNL A   1      48.015  29.478  26.973  1.00  0.00    -0.354 N 
ATOM     31  N   UNL A   1      47.355  26.800  26.028  1.00  0.00    -0.248 NA
ATOM     32  C   UNL A   1      47.964  24.795  24.988  1.00  0.00     0.031 C 
ATOM     33  C   UNL A   1      50.125  30.162  26.847  1.00  0.00     0.029 A 
ATOM     34  C   UNL A   1      49.277  29.112  26.531  1.00  0.00     0.049 A 
ATOM     35  H   UNL A   1      47.211  28.912  26.915  1.00  0.00     0.167 HD
ATOM     36  C   UNL A   1      48.700  26.858  25.683  1.00  0.00     0.074 A 
ATOM     37  C   UNL A   1      49.026  25.586  25.066  1.00  0.00     0.031 C 
ATOM     38  C   UNL A   1      49.583  27.871  25.864  1.00  0.00     0.031 A 
BRANCH  25  39
ATOM     39  C   UNL A   1      47.110  32.930  28.369  1.00  0.00    -0.014 A 
ATOM     40  C   UNL A   1      47.136  34.008  27.464  1.00  0.00     0.010 A 
ATOM     41  C   UNL A   1      47.174  33.195  29.748  1.00  0.00     0.010 A 
ATOM     42  C   UNL A   1      47.226  35.326  27.934  1.00  0.00     0.020 A 
ATOM     43  C   UNL A   1      47.256  34.509  30.221  1.00  0.00     0.020 A 
ATOM     44  C   UNL A   1      47.288  35.567  29.310  1.00  0.00     0.054 A 
BRANCH  44  45
ATOM     45  S   UNL A   1      47.379  37.284  29.896  1.00  0.00     0.124 S 
ATOM     46  O   UNL A   1      47.346  37.111  31.347  1.00  0.00    -0.237 OA
ATOM     47  O   UNL A   1      48.652  37.743  29.348  1.00  0.00    -0.237 OA
ATOM     48  O   UNL A   1      46.192  37.912  29.320  1.00  0.00    -0.744 OA
ENDBRANCH  44  45
ENDBRANCH  25  39
BRANCH  26  49
ATOM     49  C   UNL A   1      45.280  23.628  25.328  1.00  0.00    -0.014 A 
ATOM     50  C   UNL A   1      44.780  23.308  24.057  1.00  0.00     0.010 A 
ATOM     51  C   UNL A   1      45.578  22.588  26.232  1.00  0.00     0.010 A 
ATOM     52  C   UNL A   1      44.605  21.967  23.692  1.00  0.00     0.020 A 
ATOM     53  C   UNL A   1      45.444  21.254  25.858  1.00  0.00     0.020 A 
ATOM     54  C   UNL A   1      44.951  20.950  24.591  1.00  0.00     0.054 A 
BRANCH  54  55
ATOM     55  S   UNL A   1      44.820  19.218  24.074  1.00  0.00     0.124 S 
ATOM     56  O   UNL A   1      43.727  18.735  24.912  1.00  0.00    -0.237 OA
ATOM     57  O   UNL A   1      44.525  19.330  22.649  1.00  0.00    -0.237 OA
ATOM     58  O   UNL A   1      46.139  18.670  24.387  1.00  0.00    -0.744 OA
ENDBRANCH  54  55
ENDBRANCH  26  49
BRANCH  38  59
ATOM     59  C   UNL A   1      50.987  27.646  25.372  1.00  0.00    -0.014 A 
ATOM     60  C   UNL A   1      51.943  26.992  26.171  1.00  0.00     0.010 A 
ATOM     61  C   UNL A   1      51.359  28.102  24.094  1.00  0.00     0.010 A 
ATOM     62  C   UNL A   1      53.261  26.856  25.727  1.00  0.00     0.020 A 
ATOM     63  C   UNL A   1      52.667  27.940  23.634  1.00  0.00     0.020 A 
ATOM     64  C   UNL A   1      53.617  27.341  24.466  1.00  0.00     0.054 A 
BRANCH  64  65
ATOM     65  S   UNL A   1      55.336  27.172  23.915  1.00  0.00     0.124 S 
ATOM     66  O   UNL A   1      55.788  26.018  24.687  1.00  0.00    -0.237 OA
ATOM     67  O   UNL A   1      55.194  26.949  22.478  1.00  0.00    -0.237 OA
ATOM     68  O   UNL A   1      55.946  28.446  24.285  1.00  0.00    -0.744 OA
ENDBRANCH  64  65
ENDBRANCH  38  59
ENDBRANCH  12  13
ENDBRANCH   5   7
ENDBRANCH   2   3
ENDBRANCH   1   2
BRANCH   1  69
ATOM     69  C   UNL A   1      34.262  28.974  26.644  1.00  0.00     0.117 C 
BRANCH  69  70
ATOM     70  N   UNL A   1      33.019  28.441  27.461  1.00  0.00    -0.354 N 
ATOM     71  C   UNL A   1      31.874  27.686  27.174  1.00  0.00     0.250 C 
ATOM     72  H   UNL A   1      33.060  28.705  28.409  1.00  0.00     0.163 HD
ATOM     73  O   UNL A   1      30.865  27.834  27.862  1.00  0.00    -0.272 OA
BRANCH  71  74
ATOM     74  C   UNL A   1      32.070  26.498  26.204  1.00  0.00     0.145 C 
ATOM     75  C   UNL A   1      33.442  25.781  26.095  1.00  0.00     0.044 C 
ATOM     76  C   UNL A   1      31.629  27.084  24.832  1.00  0.00    -0.010 A 
ATOM     77  C   UNL A   1      34.482  26.401  25.189  1.00  0.00     0.008 C 
ATOM     78  C   UNL A   1      32.612  27.389  23.858  1.00  0.00    -0.042 A 
ATOM     79  C   UNL A   1      30.375  27.719  24.701  1.00  0.00     0.007 A 
ATOM     80  C   UNL A   1      33.922  26.653  23.807  1.00  0.00     0.036 C 
ATOM     81  C   UNL A   1      32.385  28.404  22.912  1.00  0.00     0.004 A 
ATOM     82  C   UNL A   1      30.181  28.761  23.787  1.00  0.00     0.000 A 
ATOM     83  C   UNL A   1      31.198  29.124  22.916  1.00  0.00     0.000 A 
BRANCH  74  84
ATOM     84  N   UNL A   1      31.225  25.536  26.870  1.00  0.00    -0.338 N 
ATOM     85  C   UNL A   1      30.243  24.944  26.108  1.00  0.00     0.224 C 
ATOM     86  H   UNL A   1      31.343  25.315  27.822  1.00  0.00     0.164 HD
ATOM     87  O   UNL A   1      29.115  25.297  26.475  1.00  0.00    -0.275 OA
BRANCH  85  88
ATOM     88  C   UNL A   1      30.454  23.810  24.789  1.00  0.00     0.082 C 
ATOM     89  C   UNL A   1      31.063  22.471  26.010  1.00  0.00     0.035 C 
ATOM     90  C   UNL A   1      31.569  23.920  23.114  1.00  0.00     0.035 C 
ATOM     91  C   UNL A   1      32.872  22.157  26.161  1.00  0.00     0.120 C 
ATOM     92  C   UNL A   1      33.510  23.414  23.247  1.00  0.00     0.120 C 
ATOM     93  N   UNL A   1      33.972  22.404  24.760  1.00  0.00    -0.342 N 
ATOM     94  C   UNL A   1      35.189  21.840  25.140  1.00  0.00     0.225 C 
ATOM     95  O   UNL A   1      35.266  21.167  26.168  1.00  0.00    -0.275 OA
BRANCH  94  96
ATOM     96  C   UNL A   1      36.434  21.995  24.398  1.00  0.00     0.079 C 
ATOM     97  C   UNL A   1      36.758  22.768  23.170  1.00  0.00     0.014 C 
ATOM     98  C   UNL A   1      37.112  23.340  24.510  1.00  0.00     0.014 C 
ENDBRANCH  94  96
ENDBRANCH  85  88
ENDBRANCH  74  84
ENDBRANCH  71  74
ENDBRANCH  69  70
ENDBRANCH   1  69
TORSDOF 16
ENDMDL
MODEL 3
REMARK VINA RESULT:     -13.8      2.534      9.064
REMARK SMILES O=C(NCCCNC(=O)[C@]1(NC(=O)C2CCN(C(=O)C3CC3)CC2)CCCc2ccccc21)c1ccc(-c2c3nc(c(-c4ccc(S(=O)(=O)[O-])cc4)c4ccc([nH]4)c(-c4ccc(S(=O)(=O)[O-])cc4)c4nc(c(-c5ccc(S(=O)(=O)[O-])cc5)c5ccc2[nH]5)C=C4)C=C3)cc1
REMARK SMILES IDX 5 1 4 2 3 3 1 4 2 5 34 7 35 8 93 9 36 10 92 11 37 12 38 13
REMARK SMILES IDX 39 14 86 15 40 16 91 17 85 18 87 19 41 20 90 21 84 22 83 23
REMARK SMILES IDX 42 25 72 26 53 27 71 28 54 29 57 30 70 31 88 32 55 33 56 34
REMARK SMILES IDX 69 36 89 37 58 38 43 39 44 40 52 41 45 42 51 43 46 44 47 45
REMARK SMILES IDX 48 46 49 47 50 48 73 49 74 50 82 51 75 52 81 53 76 54 77 55
REMARK SMILES IDX 78 56 79 57 80 58 59 59 60 60 68 61 61 62 67 63 62 64 63 65
REMARK SMILES IDX 64 66 65 67 66 68 6 69 7 70 8 71 9 73 10 74 25 75 33 76
REMARK SMILES IDX 26 77 28 78 32 79 27 80 29 81 31 82 30 83 11 84 12 85 13 87
REMARK SMILES IDX 14 88 15 89 24 90 16 91 23 92 17 93 18 94 19 95 20 96 21 97
REMARK SMILES IDX 22 98
REMARK H PARENT 3 6 87 24 57 35 7 72 11 86
REMARK Flexibility Score: inf
ROOT
ATOM      1  C   UNL A   1      39.201  21.357  26.088  1.00  0.00     0.042 C 
ENDROOT
BRANCH   1   2
ATOM      2  C   UNL A   1      40.035  19.404  26.043  1.00  0.00     0.118 C 
BRANCH   2   3
ATOM      3  N   UNL A   1      41.611  18.872  26.000  1.00  0.00    -0.352 N 
ATOM      4  O   UNL A   1      43.748  18.406  25.534  1.00  0.00    -0.269 OA
ATOM      5  C   UNL A   1      42.897  19.278  25.719  1.00  0.00     0.251 C 
ATOM      6  H   UNL A   1      41.633  17.926  26.274  1.00  0.00     0.163 HD
BRANCH   5   7
ATOM      7  C   UNL A   1      43.301  20.686  25.613  1.00  0.00     0.039 A 
ATOM      8  C   UNL A   1      43.030  21.530  26.673  1.00  0.00     0.014 A 
ATOM      9  C   UNL A   1      44.053  21.151  24.515  1.00  0.00     0.014 A 
ATOM     10  C   UNL A   1      43.395  22.865  26.581  1.00  0.00     0.010 A 
ATOM     11  C   UNL A   1      44.469  22.495  24.451  1.00  0.00     0.010 A 
ATOM     12  C   UNL A   1      44.113  23.379  25.473  1.00  0.00    -0.014 A 
BRANCH  12  13
ATOM     13  C   UNL A   1      44.415  24.841  25.504  1.00  0.00     0.031 A 
ATOM     14  C   UNL A   1      43.431  25.866  26.004  1.00  0.00     0.074 A 
ATOM     15  C   UNL A   1      45.709  25.194  25.381  1.00  0.00     0.049 A 
ATOM     16  N   UNL A   1      43.667  26.944  26.710  1.00  0.00    -0.248 NA
ATOM     17  C   UNL A   1      42.008  25.648  25.715  1.00  0.00     0.031 C 
ATOM     18  C   UNL A   1      46.773  24.302  24.915  1.00  0.00     0.029 A 
ATOM     19  N   UNL A   1      46.360  26.339  25.752  1.00  0.00    -0.354 N 
ATOM     20  C   UNL A   1      42.422  27.450  27.065  1.00  0.00     0.074 A 
ATOM     21  C   UNL A   1      41.432  26.606  26.435  1.00  0.00     0.031 C 
ATOM     22  C   UNL A   1      47.955  24.887  25.140  1.00  0.00     0.029 A 
ATOM     23  C   UNL A   1      47.728  26.225  25.681  1.00  0.00     0.049 A 
ATOM     24  H   UNL A   1      45.897  27.160  26.041  1.00  0.00     0.167 HD
ATOM     25  C   UNL A   1      42.132  28.529  27.834  1.00  0.00     0.031 A 
ATOM     26  C   UNL A   1      48.700  27.098  26.004  1.00  0.00     0.031 A 
ATOM     27  C   UNL A   1      43.105  29.510  28.239  1.00  0.00     0.049 A 
ATOM     28  C   UNL A   1      48.324  28.419  26.598  1.00  0.00     0.074 A 
ATOM     29  C   UNL A   1      42.899  30.697  28.922  1.00  0.00     0.029 A 
ATOM     30  N   UNL A   1      44.450  29.472  27.906  1.00  0.00    -0.354 N 
ATOM     31  N   UNL A   1      47.156  28.820  27.037  1.00  0.00    -0.248 NA
ATOM     32  C   UNL A   1      49.394  29.415  26.716  1.00  0.00     0.031 C 
ATOM     33  C   UNL A   1      44.090  31.433  28.887  1.00  0.00     0.029 A 
ATOM     34  C   UNL A   1      45.061  30.662  28.268  1.00  0.00     0.049 A 
ATOM     35  H   UNL A   1      44.904  28.712  27.475  1.00  0.00     0.167 HD
ATOM     36  C   UNL A   1      47.347  30.123  27.482  1.00  0.00     0.074 A 
ATOM     37  C   UNL A   1      48.751  30.428  27.281  1.00  0.00     0.031 C 
ATOM     38  C   UNL A   1      46.443  30.984  28.011  1.00  0.00     0.031 A 
BRANCH  25  39
ATOM     39  C   UNL A   1      40.694  28.772  28.210  1.00  0.00    -0.014 A 
ATOM     40  C   UNL A   1      40.241  28.528  29.520  1.00  0.00     0.010 A 
ATOM     41  C   UNL A   1      39.817  29.357  27.282  1.00  0.00     0.010 A 
ATOM     42  C   UNL A   1      38.931  28.863  29.891  1.00  0.00     0.020 A 
ATOM     43  C   UNL A   1      38.511  29.699  27.649  1.00  0.00     0.020 A 
ATOM     44  C   UNL A   1      38.074  29.444  28.951  1.00  0.00     0.054 A 
BRANCH  44  45
ATOM     45  S   UNL A   1      36.389  29.893  29.460  1.00  0.00     0.124 S 
ATOM     46  O   UNL A   1      36.456  31.353  29.475  1.00  0.00    -0.237 OA
ATOM     47  O   UNL A   1      35.568  29.314  28.401  1.00  0.00    -0.237 OA
ATOM     48  O   UNL A   1      36.243  29.266  30.772  1.00  0.00    -0.744 OA
ENDBRANCH  44  45
ENDBRANCH  25  39
BRANCH  26  49
ATOM     49  C   UNL A   1      50.103  26.762  25.648  1.00  0.00    -0.014 A 
ATOM     50  C   UNL A   1      50.640  27.023  24.379  1.00  0.00     0.010 A 
ATOM     51  C   UNL A   1      50.934  26.215  26.647  1.00  0.00     0.010 A 
ATOM     52  C   UNL A   1      51.992  26.762  24.124  1.00  0.00     0.020 A 
ATOM     53  C   UNL A   1      52.287  25.992  26.410  1.00  0.00     0.020 A 
ATOM     54  C   UNL A   1      52.809  26.262  25.146  1.00  0.00     0.054 A 
BRANCH  54  55
ATOM     55  S   UNL A   1      54.579  26.025  24.840  1.00  0.00     0.124 S 
ATOM     56  O   UNL A   1      54.734  26.594  23.505  1.00  0.00    -0.237 OA
ATOM     57  O   UNL A   1      55.196  26.781  25.927  1.00  0.00    -0.237 OA
ATOM     58  O   UNL A   1      54.748  24.576  24.927  1.00  0.00    -0.744 OA
ENDBRANCH  54  55
ENDBRANCH  26  49
BRANCH  38  59
ATOM     59  C   UNL A   1      46.948  32.349  28.395  1.00  0.00    -0.014 A 
ATOM     60  C   UNL A   1      46.917  33.420  27.483  1.00  0.00     0.010 A 
ATOM     61  C   UNL A   1      47.469  32.560  29.684  1.00  0.00     0.010 A 
ATOM     62  C   UNL A   1      47.457  34.661  27.833  1.00  0.00     0.020 A 
ATOM     63  C   UNL A   1      47.980  33.808  30.048  1.00  0.00     0.020 A 
ATOM     64  C   UNL A   1      47.995  34.843  29.110  1.00  0.00     0.054 A 
BRANCH  64  65
ATOM     65  S   UNL A   1      48.707  36.454  29.539  1.00  0.00     0.124 S 
ATOM     66  O   UNL A   1      47.640  37.054  30.336  1.00  0.00    -0.237 OA
ATOM     67  O   UNL A   1      49.913  36.088  30.278  1.00  0.00    -0.237 OA
ATOM     68  O   UNL A   1      48.945  37.084  28.243  1.00  0.00    -0.744 OA
ENDBRANCH  64  65
ENDBRANCH  38  59
ENDBRANCH  12  13
ENDBRANCH   5   7
ENDBRANCH   2   3
ENDBRANCH   1   2
BRANCH   1  69
ATOM     69  C   UNL A   1      37.477  21.959  25.664  1.00  0.00     0.117 C 
BRANCH  69  70
ATOM     70  N   UNL A   1      37.107  22.656  24.295  1.00  0.00    -0.354 N 
ATOM     71  C   UNL A   1      35.926  23.054  23.654  1.00  0.00     0.250 C 
ATOM     72  H   UNL A   1      37.906  22.863  23.758  1.00  0.00     0.163 HD
ATOM     73  O   UNL A   1      35.898  23.120  22.425  1.00  0.00    -0.272 OA
BRANCH  71  74
ATOM     74  C   UNL A   1      34.839  23.678  24.560  1.00  0.00     0.145 C 
ATOM     75  C   UNL A   1      35.036  23.752  26.097  1.00  0.00     0.044 C 
ATOM     76  C   UNL A   1      33.563  22.869  24.191  1.00  0.00    -0.010 A 
ATOM     77  C   UNL A   1      34.683  22.523  26.904  1.00  0.00     0.008 C 
ATOM     78  C   UNL A   1      33.061  21.910  25.105  1.00  0.00    -0.042 A 
ATOM     79  C   UNL A   1      33.168  22.741  22.842  1.00  0.00     0.007 A 
ATOM     80  C   UNL A   1      33.284  22.043  26.585  1.00  0.00     0.036 C 
ATOM     81  C   UNL A   1      32.340  20.796  24.642  1.00  0.00     0.004 A 
ATOM     82  C   UNL A   1      32.493  21.602  22.388  1.00  0.00     0.000 A 
ATOM     83  C   UNL A   1      32.109  20.615  23.284  1.00  0.00     0.000 A 
BRANCH  74  84
ATOM     84  N   UNL A   1      34.961  25.049  24.125  1.00  0.00    -0.338 N 
ATOM     85  C   UNL A   1      33.788  25.745  23.939  1.00  0.00     0.224 C 
ATOM     86  H   UNL A   1      35.839  25.467  23.969  1.00  0.00     0.164 HD
ATOM     87  O   UNL A   1      33.607  26.008  22.743  1.00  0.00    -0.275 OA
BRANCH  85  88
ATOM     88  C   UNL A   1      32.645  26.259  25.163  1.00  0.00     0.082 C 
ATOM     89  C   UNL A   1      31.182  25.822  24.014  1.00  0.00     0.035 C 
ATOM     90  C   UNL A   1      32.415  28.030  26.098  1.00  0.00     0.035 C 
ATOM     91  C   UNL A   1      30.334  27.174  23.094  1.00  0.00     0.120 C 
ATOM     92  C   UNL A   1      31.344  29.450  25.161  1.00  0.00     0.120 C 
ATOM     93  N   UNL A   1      30.239  28.835  23.774  1.00  0.00    -0.342 N 
ATOM     94  C   UNL A   1      29.332  29.517  22.965  1.00  0.00     0.225 C 
ATOM     95  O   UNL A   1      28.665  28.904  22.130  1.00  0.00    -0.275 OA
BRANCH  94  96
ATOM     96  C   UNL A   1      29.104  30.956  23.016  1.00  0.00     0.079 C 
ATOM     97  C   UNL A   1      28.190  31.835  22.240  1.00  0.00     0.014 C 
ATOM     98  C   UNL A   1      27.792  31.400  23.620  1.00  0.00     0.014 C 
ENDBRANCH  94  96
ENDBRANCH  85  88
ENDBRANCH  74  84
ENDBRANCH  71  74
ENDBRANCH  69  70
ENDBRANCH   1  69
TORSDOF 16
ENDMDL
