MODEL 1
REMARK VINA RESULT:     -10.9      0.000      0.000
REMARK SMILES CC(C)(C)OC(=O)N1C[C@H](Oc2ccncc2)C[C@H]1C(=O)NCCCNC(=O)c1ccc(-c2c3nc(c(-c4ccc(S(=O)(=O)[O-])cc4)c4ccc([nH]4)c(-c4ccc(S(=O)(=O)[O-])cc4)c4nc(c(-c5ccc(S(=O)(=O)[O-])cc5)c5ccc2[nH]5)C=C4)C=C3)cc1
REMARK SMILES IDX 24 1 23 2 22 3 20 4 21 5 19 7 8 8 9 9 10 10 18 11 6 12 7 13
REMARK SMILES IDX 5 14 2 15 1 16 3 17 4 18 11 19 12 20 13 21 17 22 14 23 16 24
REMARK SMILES IDX 15 25 25 26 26 27 27 28 28 30 29 31 30 32 88 33 31 34 87 35
REMARK SMILES IDX 32 36 33 37 34 38 81 39 35 40 86 41 80 42 82 43 36 44 85 45
REMARK SMILES IDX 79 46 78 47 37 49 67 50 48 51 66 52 49 53 52 54 65 55 83 56
REMARK SMILES IDX 50 57 51 58 64 60 84 61 53 62 38 63 39 64 47 65 40 66 46 67
REMARK SMILES IDX 41 68 42 69 43 70 44 71 45 72 68 73 69 74 77 75 70 76 76 77
REMARK SMILES IDX 71 78 72 79 73 80 74 81 75 82 54 83 55 84 63 85 56 86 62 87
REMARK SMILES IDX 57 88 58 89 59 90 60 91 61 92
REMARK H PARENT 22 6 26 29 82 48 52 59
REMARK Flexibility Score: inf
ROOT
ATOM      1  C   UNL A   1      33.207  27.223  25.325  1.00  0.00     0.042 C 
ENDROOT
BRANCH   1   2
ATOM      2  C   UNL A   1      33.423  25.738  25.060  1.00  0.00     0.117 C 
BRANCH   2   3
ATOM      3  N   UNL A   1      32.196  24.986  25.216  1.00  0.00    -0.354 N 
ATOM      4  C   UNL A   1      31.920  23.662  25.121  1.00  0.00     0.243 C 
ATOM      5  O   UNL A   1      30.723  23.358  25.229  1.00  0.00    -0.273 OA
ATOM      6  H   UNL A   1      31.413  25.542  25.431  1.00  0.00     0.163 HD
BRANCH   4   7
ATOM      7  C   UNL A   1      32.967  22.548  24.852  1.00  0.00     0.181 C 
ATOM      8  N   UNL A   1      33.761  22.008  25.950  1.00  0.00    -0.292 N 
ATOM      9  C   UNL A   1      33.288  20.694  26.343  1.00  0.00     0.169 C 
ATOM     10  C   UNL A   1      32.769  20.106  25.031  1.00  0.00     0.195 C 
ATOM     11  C   UNL A   1      32.210  21.322  24.282  1.00  0.00     0.082 C 
BRANCH   8  12
ATOM     12  C   UNL A   1      34.959  22.579  26.312  1.00  0.00     0.411 C 
ATOM     13  O   UNL A   1      35.033  23.727  26.719  1.00  0.00    -0.224 OA
BRANCH  12  14
ATOM     14  O   UNL A   1      35.997  21.710  26.209  1.00  0.00    -0.444 OA
BRANCH  14  15
ATOM     15  C   UNL A   1      37.029  21.796  25.178  1.00  0.00     0.106 C 
ATOM     16  C   UNL A   1      37.357  20.345  24.800  1.00  0.00     0.056 C 
ATOM     17  C   UNL A   1      38.269  22.421  25.826  1.00  0.00     0.056 C 
ATOM     18  C   UNL A   1      36.656  22.555  23.898  1.00  0.00     0.056 C 
ENDBRANCH  14  15
ENDBRANCH  12  14
ENDBRANCH   8  12
BRANCH  10  19
ATOM     19  O   UNL A   1      33.702  19.307  24.274  1.00  0.00    -0.488 OA
BRANCH  19  20
ATOM     20  C   UNL A   1      33.821  17.993  24.623  1.00  0.00     0.122 A 
ATOM     21  C   UNL A   1      32.692  17.218  24.849  1.00  0.00     0.066 A 
ATOM     22  C   UNL A   1      35.078  17.403  24.651  1.00  0.00     0.066 A 
ATOM     23  C   UNL A   1      32.875  15.897  25.218  1.00  0.00     0.115 A 
ATOM     24  C   UNL A   1      35.158  16.068  25.003  1.00  0.00     0.115 A 
ATOM     25  N   UNL A   1      34.084  15.305  25.298  1.00  0.00    -0.264 NA
ENDBRANCH  19  20
ENDBRANCH  10  19
ENDBRANCH   4   7
ENDBRANCH   2   3
ENDBRANCH   1   2
BRANCH   1  26
ATOM     26  C   UNL A   1      34.061  27.762  26.459  1.00  0.00     0.118 C 
BRANCH  26  27
ATOM     27  N   UNL A   1      33.738  29.151  26.773  1.00  0.00    -0.352 N 
ATOM     28  C   UNL A   1      34.415  30.071  27.532  1.00  0.00     0.251 C 
ATOM     29  H   UNL A   1      32.900  29.480  26.376  1.00  0.00     0.163 HD
ATOM     30  O   UNL A   1      33.850  31.112  27.859  1.00  0.00    -0.269 OA
BRANCH  28  31
ATOM     31  C   UNL A   1      35.804  29.811  27.959  1.00  0.00     0.039 A 
ATOM     32  C   UNL A   1      36.043  29.368  29.263  1.00  0.00     0.014 A 
ATOM     33  C   UNL A   1      36.872  30.023  27.085  1.00  0.00     0.014 A 
ATOM     34  C   UNL A   1      37.347  29.082  29.667  1.00  0.00     0.010 A 
ATOM     35  C   UNL A   1      38.154  29.639  27.453  1.00  0.00     0.010 A 
ATOM     36  C   UNL A   1      38.408  29.180  28.752  1.00  0.00    -0.014 A 
BRANCH  36  37
ATOM     37  C   UNL A   1      39.797  28.824  29.128  1.00  0.00     0.031 A 
ATOM     38  C   UNL A   1      40.676  29.845  29.798  1.00  0.00     0.074 A 
ATOM     39  C   UNL A   1      40.284  27.613  28.795  1.00  0.00     0.049 A 
ATOM     40  N   UNL A   1      41.940  29.759  30.122  1.00  0.00    -0.248 NA
ATOM     41  C   UNL A   1      40.064  31.146  30.119  1.00  0.00     0.031 C 
ATOM     42  C   UNL A   1      39.536  26.557  28.104  1.00  0.00     0.029 A 
ATOM     43  N   UNL A   1      41.529  27.067  28.980  1.00  0.00    -0.354 N 
ATOM     44  C   UNL A   1      42.277  30.996  30.659  1.00  0.00     0.074 A 
ATOM     45  C   UNL A   1      41.102  31.833  30.567  1.00  0.00     0.031 C 
ATOM     46  C   UNL A   1      40.328  25.484  27.955  1.00  0.00     0.029 A 
ATOM     47  C   UNL A   1      41.651  25.790  28.486  1.00  0.00     0.049 A 
ATOM     48  H   UNL A   1      42.266  27.546  29.426  1.00  0.00     0.167 HD
ATOM     49  C   UNL A   1      43.453  31.391  31.200  1.00  0.00     0.031 A 
ATOM     50  C   UNL A   1      42.714  24.963  28.453  1.00  0.00     0.031 A 
ATOM     51  C   UNL A   1      44.612  30.544  31.295  1.00  0.00     0.049 A 
ATOM     52  C   UNL A   1      44.015  25.430  29.045  1.00  0.00     0.074 A 
ATOM     53  C   UNL A   1      45.836  30.824  31.875  1.00  0.00     0.029 A 
ATOM     54  N   UNL A   1      44.691  29.253  30.794  1.00  0.00    -0.354 N 
ATOM     55  N   UNL A   1      44.296  26.581  29.612  1.00  0.00    -0.248 NA
ATOM     56  C   UNL A   1      45.140  24.487  29.004  1.00  0.00     0.031 C 
ATOM     57  C   UNL A   1      46.676  29.726  31.670  1.00  0.00     0.029 A 
ATOM     58  C   UNL A   1      45.952  28.733  31.027  1.00  0.00     0.049 A 
ATOM     59  H   UNL A   1      43.959  28.777  30.340  1.00  0.00     0.167 HD
ATOM     60  C   UNL A   1      45.620  26.486  30.023  1.00  0.00     0.074 A 
ATOM     61  C   UNL A   1      46.078  25.163  29.653  1.00  0.00     0.031 C 
ATOM     62  C   UNL A   1      46.387  27.409  30.653  1.00  0.00     0.031 A 
BRANCH  49  63
ATOM     63  C   UNL A   1      43.545  32.802  31.722  1.00  0.00    -0.014 A 
ATOM     64  C   UNL A   1      43.239  33.106  33.061  1.00  0.00     0.010 A 
ATOM     65  C   UNL A   1      43.984  33.834  30.872  1.00  0.00     0.010 A 
ATOM     66  C   UNL A   1      43.326  34.420  33.529  1.00  0.00     0.020 A 
ATOM     67  C   UNL A   1      44.105  35.144  31.345  1.00  0.00     0.020 A 
ATOM     68  C   UNL A   1      43.760  35.431  32.666  1.00  0.00     0.054 A 
BRANCH  68  69
ATOM     69  S   UNL A   1      43.892  37.121  33.310  1.00  0.00     0.124 S 
ATOM     70  O   UNL A   1      43.862  37.914  32.084  1.00  0.00    -0.237 OA
ATOM     71  O   UNL A   1      42.708  37.232  34.158  1.00  0.00    -0.237 OA
ATOM     72  O   UNL A   1      45.168  37.125  34.022  1.00  0.00    -0.744 OA
ENDBRANCH  68  69
ENDBRANCH  49  63
BRANCH  50  73
ATOM     73  C   UNL A   1      42.584  23.608  27.849  1.00  0.00    -0.014 A 
ATOM     74  C   UNL A   1      42.161  22.516  28.628  1.00  0.00     0.010 A 
ATOM     75  C   UNL A   1      42.866  23.403  26.486  1.00  0.00     0.010 A 
ATOM     76  C   UNL A   1      42.044  21.243  28.062  1.00  0.00     0.020 A 
ATOM     77  C   UNL A   1      42.719  22.139  25.908  1.00  0.00     0.020 A 
ATOM     78  C   UNL A   1      42.321  21.064  26.704  1.00  0.00     0.054 A 
BRANCH  78  79
ATOM     79  S   UNL A   1      42.117  19.412  25.983  1.00  0.00     0.124 S 
ATOM     80  O   UNL A   1      42.623  18.551  27.046  1.00  0.00    -0.237 OA
ATOM     81  O   UNL A   1      40.675  19.348  25.749  1.00  0.00    -0.237 OA
ATOM     82  O   UNL A   1      42.934  19.462  24.773  1.00  0.00    -0.744 OA
ENDBRANCH  78  79
ENDBRANCH  50  73
BRANCH  62  83
ATOM     83  C   UNL A   1      47.791  27.011  31.026  1.00  0.00    -0.014 A 
ATOM     84  C   UNL A   1      48.070  26.354  32.237  1.00  0.00     0.010 A 
ATOM     85  C   UNL A   1      48.836  27.240  30.112  1.00  0.00     0.010 A 
ATOM     86  C   UNL A   1      49.376  25.955  32.538  1.00  0.00     0.020 A 
ATOM     87  C   UNL A   1      50.136  26.813  30.394  1.00  0.00     0.020 A 
ATOM     88  C   UNL A   1      50.399  26.184  31.612  1.00  0.00     0.054 A 
BRANCH  88  89
ATOM     89  S   UNL A   1      52.072  25.604  32.003  1.00  0.00     0.124 S 
ATOM     90  O   UNL A   1      52.793  25.898  30.767  1.00  0.00    -0.237 OA
ATOM     91  O   UNL A   1      52.434  26.428  33.153  1.00  0.00    -0.237 OA
ATOM     92  O   UNL A   1      51.889  24.184  32.294  1.00  0.00    -0.744 OA
ENDBRANCH  88  89
ENDBRANCH  62  83
ENDBRANCH  36  37
ENDBRANCH  28  31
ENDBRANCH  26  27
ENDBRANCH   1  26
TORSDOF 18
ENDMDL
MODEL 2
REMARK VINA RESULT:     -10.1      4.258      8.609
REMARK SMILES CC(C)(C)OC(=O)N1C[C@H](Oc2ccncc2)C[C@H]1C(=O)NCCCNC(=O)c1ccc(-c2c3nc(c(-c4ccc(S(=O)(=O)[O-])cc4)c4ccc([nH]4)c(-c4ccc(S(=O)(=O)[O-])cc4)c4nc(c(-c5ccc(S(=O)(=O)[O-])cc5)c5ccc2[nH]5)C=C4)C=C3)cc1
REMARK SMILES IDX 24 1 23 2 22 3 20 4 21 5 19 7 8 8 9 9 10 10 18 11 6 12 7 13
REMARK SMILES IDX 5 14 2 15 1 16 3 17 4 18 11 19 12 20 13 21 17 22 14 23 16 24
REMARK SMILES IDX 15 25 25 26 26 27 27 28 28 30 29 31 30 32 88 33 31 34 87 35
REMARK SMILES IDX 32 36 33 37 34 38 81 39 35 40 86 41 80 42 82 43 36 44 85 45
REMARK SMILES IDX 79 46 78 47 37 49 67 50 48 51 66 52 49 53 52 54 65 55 83 56
REMARK SMILES IDX 50 57 51 58 64 60 84 61 53 62 38 63 39 64 47 65 40 66 46 67
REMARK SMILES IDX 41 68 42 69 43 70 44 71 45 72 68 73 69 74 77 75 70 76 76 77
REMARK SMILES IDX 71 78 72 79 73 80 74 81 75 82 54 83 55 84 63 85 56 86 62 87
REMARK SMILES IDX 57 88 58 89 59 90 60 91 61 92
REMARK H PARENT 22 6 26 29 82 48 52 59
REMARK Flexibility Score: inf
ROOT
ATOM      1  C   UNL A   1      33.820  33.612  28.108  1.00  0.00     0.042 C 
ENDROOT
BRANCH   1   2
ATOM      2  C   UNL A   1      34.844  34.704  28.392  1.00  0.00     0.117 C 
BRANCH   2   3
ATOM      3  N   UNL A   1      36.187  34.170  28.451  1.00  0.00    -0.354 N 
ATOM      4  C   UNL A   1      37.080  34.056  29.466  1.00  0.00     0.243 C 
ATOM      5  O   UNL A   1      38.196  33.621  29.148  1.00  0.00    -0.273 OA
ATOM      6  H   UNL A   1      36.516  33.824  27.591  1.00  0.00     0.163 HD
BRANCH   4   7
ATOM      7  C   UNL A   1      36.813  34.462  30.940  1.00  0.00     0.181 C 
ATOM      8  N   UNL A   1      36.017  33.599  31.805  1.00  0.00    -0.292 N 
ATOM      9  C   UNL A   1      36.857  32.876  32.742  1.00  0.00     0.169 C 
ATOM     10  C   UNL A   1      38.008  33.850  32.997  1.00  0.00     0.195 C 
ATOM     11  C   UNL A   1      38.184  34.566  31.653  1.00  0.00     0.082 C 
BRANCH   8  12
ATOM     12  C   UNL A   1      34.648  33.725  31.876  1.00  0.00     0.411 C 
ATOM     13  O   UNL A   1      33.935  32.829  32.295  1.00  0.00    -0.224 OA
BRANCH  12  14
ATOM     14  O   UNL A   1      34.223  34.953  31.482  1.00  0.00    -0.444 OA
BRANCH  14  15
ATOM     15  C   UNL A   1      33.614  35.928  32.383  1.00  0.00     0.106 C 
ATOM     16  C   UNL A   1      34.388  35.812  33.704  1.00  0.00     0.056 C 
ATOM     17  C   UNL A   1      32.168  35.483  32.627  1.00  0.00     0.056 C 
ATOM     18  C   UNL A   1      33.650  37.395  31.931  1.00  0.00     0.056 C 
ENDBRANCH  14  15
ENDBRANCH  12  14
ENDBRANCH   8  12
BRANCH  10  19
ATOM     19  O   UNL A   1      37.864  34.727  34.134  1.00  0.00    -0.488 OA
BRANCH  19  20
ATOM     20  C   UNL A   1      38.401  34.305  35.316  1.00  0.00     0.122 A 
ATOM     21  C   UNL A   1      37.627  33.609  36.234  1.00  0.00     0.066 A 
ATOM     22  C   UNL A   1      39.758  34.484  35.554  1.00  0.00     0.066 A 
ATOM     23  C   UNL A   1      38.222  33.222  37.422  1.00  0.00     0.115 A 
ATOM     24  C   UNL A   1      40.266  34.038  36.761  1.00  0.00     0.115 A 
ATOM     25  N   UNL A   1      39.525  33.420  37.705  1.00  0.00    -0.264 NA
ENDBRANCH  19  20
ENDBRANCH  10  19
ENDBRANCH   4   7
ENDBRANCH   2   3
ENDBRANCH   1   2
BRANCH   1  26
ATOM     26  C   UNL A   1      34.140  32.295  28.791  1.00  0.00     0.118 C 
BRANCH  26  27
ATOM     27  N   UNL A   1      33.697  31.148  28.003  1.00  0.00    -0.352 N 
ATOM     28  C   UNL A   1      34.405  30.085  27.505  1.00  0.00     0.251 C 
ATOM     29  H   UNL A   1      32.735  31.136  27.796  1.00  0.00     0.163 HD
ATOM     30  O   UNL A   1      33.880  29.352  26.671  1.00  0.00    -0.269 OA
BRANCH  28  31
ATOM     31  C   UNL A   1      35.785  29.827  27.961  1.00  0.00     0.039 A 
ATOM     32  C   UNL A   1      35.995  29.334  29.251  1.00  0.00     0.014 A 
ATOM     33  C   UNL A   1      36.874  30.091  27.127  1.00  0.00     0.014 A 
ATOM     34  C   UNL A   1      37.291  29.050  29.680  1.00  0.00     0.010 A 
ATOM     35  C   UNL A   1      38.151  29.710  27.515  1.00  0.00     0.010 A 
ATOM     36  C   UNL A   1      38.375  29.201  28.801  1.00  0.00    -0.014 A 
BRANCH  36  37
ATOM     37  C   UNL A   1      39.759  28.850  29.201  1.00  0.00     0.031 A 
ATOM     38  C   UNL A   1      40.611  29.863  29.917  1.00  0.00     0.074 A 
ATOM     39  C   UNL A   1      40.267  27.653  28.849  1.00  0.00     0.049 A 
ATOM     40  N   UNL A   1      41.868  29.782  30.269  1.00  0.00    -0.248 NA
ATOM     41  C   UNL A   1      39.977  31.149  30.255  1.00  0.00     0.031 C 
ATOM     42  C   UNL A   1      39.547  26.607  28.115  1.00  0.00     0.029 A 
ATOM     43  N   UNL A   1      41.513  27.115  29.051  1.00  0.00    -0.354 N 
ATOM     44  C   UNL A   1      42.179  31.008  30.844  1.00  0.00     0.074 A 
ATOM     45  C   UNL A   1      40.998  31.836  30.745  1.00  0.00     0.031 C 
ATOM     46  C   UNL A   1      40.354  25.546  27.958  1.00  0.00     0.029 A 
ATOM     47  C   UNL A   1      41.661  25.853  28.529  1.00  0.00     0.049 A 
ATOM     48  H   UNL A   1      42.234  27.590  29.527  1.00  0.00     0.167 HD
ATOM     49  C   UNL A   1      43.337  31.402  31.423  1.00  0.00     0.031 A 
ATOM     50  C   UNL A   1      42.732  25.038  28.501  1.00  0.00     0.031 A 
ATOM     51  C   UNL A   1      44.502  30.564  31.525  1.00  0.00     0.049 A 
ATOM     52  C   UNL A   1      44.014  25.503  29.136  1.00  0.00     0.074 A 
ATOM     53  C   UNL A   1      45.709  30.842  32.141  1.00  0.00     0.029 A 
ATOM     54  N   UNL A   1      44.608  29.287  30.994  1.00  0.00    -0.354 N 
ATOM     55  N   UNL A   1      44.269  26.642  29.738  1.00  0.00    -0.248 NA
ATOM     56  C   UNL A   1      45.150  24.572  29.098  1.00  0.00     0.031 C 
ATOM     57  C   UNL A   1      46.566  29.758  31.929  1.00  0.00     0.029 A 
ATOM     58  C   UNL A   1      45.868  28.774  31.245  1.00  0.00     0.049 A 
ATOM     59  H   UNL A   1      43.891  28.816  30.511  1.00  0.00     0.167 HD
ATOM     60  C   UNL A   1      45.584  26.550  30.178  1.00  0.00     0.074 A 
ATOM     61  C   UNL A   1      46.065  25.241  29.786  1.00  0.00     0.031 C 
ATOM     62  C   UNL A   1      46.326  27.465  30.849  1.00  0.00     0.031 A 
BRANCH  49  63
ATOM     63  C   UNL A   1      43.402  32.800  31.982  1.00  0.00    -0.014 A 
ATOM     64  C   UNL A   1      43.108  33.061  33.333  1.00  0.00     0.010 A 
ATOM     65  C   UNL A   1      43.801  33.866  31.154  1.00  0.00     0.010 A 
ATOM     66  C   UNL A   1      43.170  34.363  33.835  1.00  0.00     0.020 A 
ATOM     67  C   UNL A   1      43.896  35.165  31.660  1.00  0.00     0.020 A 
ATOM     68  C   UNL A   1      43.565  35.408  32.994  1.00  0.00     0.054 A 
BRANCH  68  69
ATOM     69  S   UNL A   1      43.663  37.083  33.681  1.00  0.00     0.124 S 
ATOM     70  O   UNL A   1      44.876  37.006  34.492  1.00  0.00    -0.237 OA
ATOM     71  O   UNL A   1      43.760  37.914  32.484  1.00  0.00    -0.237 OA
ATOM     72  O   UNL A   1      42.420  37.223  34.436  1.00  0.00    -0.744 OA
ENDBRANCH  68  69
ENDBRANCH  49  63
BRANCH  50  73
ATOM     73  C   UNL A   1      42.632  23.697  27.860  1.00  0.00    -0.014 A 
ATOM     74  C   UNL A   1      43.031  23.511  26.525  1.00  0.00     0.010 A 
ATOM     75  C   UNL A   1      42.153  22.592  28.588  1.00  0.00     0.010 A 
ATOM     76  C   UNL A   1      42.931  22.253  25.923  1.00  0.00     0.020 A 
ATOM     77  C   UNL A   1      42.084  21.325  28.001  1.00  0.00     0.020 A 
ATOM     78  C   UNL A   1      42.461  21.167  26.667  1.00  0.00     0.054 A 
BRANCH  78  79
ATOM     79  S   UNL A   1      42.387  19.536  25.877  1.00  0.00     0.124 S 
ATOM     80  O   UNL A   1      40.989  19.462  25.463  1.00  0.00    -0.237 OA
ATOM     81  O   UNL A   1      43.362  19.665  24.796  1.00  0.00    -0.237 OA
ATOM     82  O   UNL A   1      42.773  18.619  26.946  1.00  0.00    -0.744 OA
ENDBRANCH  78  79
ENDBRANCH  50  73
BRANCH  62  83
ATOM     83  C   UNL A   1      47.725  27.072  31.245  1.00  0.00    -0.014 A 
ATOM     84  C   UNL A   1      47.982  26.387  32.445  1.00  0.00     0.010 A 
ATOM     85  C   UNL A   1      48.789  27.335  30.362  1.00  0.00     0.010 A 
ATOM     86  C   UNL A   1      49.284  25.994  32.768  1.00  0.00     0.020 A 
ATOM     87  C   UNL A   1      50.087  26.915  30.665  1.00  0.00     0.020 A 
ATOM     88  C   UNL A   1      50.327  26.257  31.872  1.00  0.00     0.054 A 
BRANCH  88  89
ATOM     89  S   UNL A   1      51.997  25.685  32.289  1.00  0.00     0.124 S 
ATOM     90  O   UNL A   1      52.148  26.162  33.660  1.00  0.00    -0.237 OA
ATOM     91  O   UNL A   1      51.885  24.237  32.136  1.00  0.00    -0.237 OA
ATOM     92  O   UNL A   1      52.847  26.347  31.302  1.00  0.00    -0.744 OA
ENDBRANCH  88  89
ENDBRANCH  62  83
ENDBRANCH  36  37
ENDBRANCH  28  31
ENDBRANCH  26  27
ENDBRANCH   1  26
TORSDOF 18
ENDMDL
MODEL 3
REMARK VINA RESULT:      -9.9      3.304      9.365
REMARK SMILES CC(C)(C)OC(=O)N1C[C@H](Oc2ccncc2)C[C@H]1C(=O)NCCCNC(=O)c1ccc(-c2c3nc(c(-c4ccc(S(=O)(=O)[O-])cc4)c4ccc([nH]4)c(-c4ccc(S(=O)(=O)[O-])cc4)c4nc(c(-c5ccc(S(=O)(=O)[O-])cc5)c5ccc2[nH]5)C=C4)C=C3)cc1
REMARK SMILES IDX 24 1 23 2 22 3 20 4 21 5 19 7 8 8 9 9 10 10 18 11 6 12 7 13
REMARK SMILES IDX 5 14 2 15 1 16 3 17 4 18 11 19 12 20 13 21 17 22 14 23 16 24
REMARK SMILES IDX 15 25 25 26 26 27 27 28 28 30 29 31 30 32 88 33 31 34 87 35
REMARK SMILES IDX 32 36 33 37 34 38 81 39 35 40 86 41 80 42 82 43 36 44 85 45
REMARK SMILES IDX 79 46 78 47 37 49 67 50 48 51 66 52 49 53 52 54 65 55 83 56
REMARK SMILES IDX 50 57 51 58 64 60 84 61 53 62 38 63 39 64 47 65 40 66 46 67
REMARK SMILES IDX 41 68 42 69 43 70 44 71 45 72 68 73 69 74 77 75 70 76 76 77
REMARK SMILES IDX 71 78 72 79 73 80 74 81 75 82 54 83 55 84 63 85 56 86 62 87
REMARK SMILES IDX 57 88 58 89 59 90 60 91 61 92
REMARK H PARENT 22 6 26 29 82 48 52 59
REMARK Flexibility Score: inf
ROOT
ATOM      1  C   UNL A   1      38.051  20.249  24.992  1.00  0.00     0.042 C 
ENDROOT
BRANCH   1   2
ATOM      2  C   UNL A   1      36.866  21.201  24.893  1.00  0.00     0.117 C 
BRANCH   2   3
ATOM      3  N   UNL A   1      36.047  21.156  26.086  1.00  0.00    -0.354 N 
ATOM      4  C   UNL A   1      34.789  21.591  26.345  1.00  0.00     0.243 C 
ATOM      5  O   UNL A   1      34.414  21.470  27.521  1.00  0.00    -0.273 OA
ATOM      6  H   UNL A   1      36.488  20.730  26.856  1.00  0.00     0.163 HD
BRANCH   4   7
ATOM      7  C   UNL A   1      33.838  22.244  25.307  1.00  0.00     0.181 C 
ATOM      8  N   UNL A   1      32.619  21.559  24.895  1.00  0.00    -0.292 N 
ATOM      9  C   UNL A   1      31.448  22.154  25.511  1.00  0.00     0.169 C 
ATOM     10  C   UNL A   1      31.835  23.628  25.638  1.00  0.00     0.195 C 
ATOM     11  C   UNL A   1      33.345  23.587  25.904  1.00  0.00     0.082 C 
BRANCH   8  12
ATOM     12  C   UNL A   1      32.618  20.676  23.839  1.00  0.00     0.411 C 
ATOM     13  O   UNL A   1      31.818  20.764  22.922  1.00  0.00    -0.224 OA
BRANCH  12  14
ATOM     14  O   UNL A   1      33.621  19.766  23.926  1.00  0.00    -0.444 OA
BRANCH  14  15
ATOM     15  C   UNL A   1      33.405  18.339  24.150  1.00  0.00     0.106 C 
ATOM     16  C   UNL A   1      34.791  17.753  24.455  1.00  0.00     0.056 C 
ATOM     17  C   UNL A   1      32.905  17.741  22.830  1.00  0.00     0.056 C 
ATOM     18  C   UNL A   1      32.459  17.961  25.298  1.00  0.00     0.056 C 
ENDBRANCH  14  15
ENDBRANCH  12  14
ENDBRANCH   8  12
BRANCH  10  19
ATOM     19  O   UNL A   1      31.437  24.490  24.551  1.00  0.00    -0.488 OA
BRANCH  19  20
ATOM     20  C   UNL A   1      31.417  25.832  24.799  1.00  0.00     0.122 A 
ATOM     21  C   UNL A   1      31.204  26.737  23.767  1.00  0.00     0.066 A 
ATOM     22  C   UNL A   1      31.507  26.288  26.107  1.00  0.00     0.066 A 
ATOM     23  C   UNL A   1      31.211  28.086  24.076  1.00  0.00     0.115 A 
ATOM     24  C   UNL A   1      31.477  27.655  26.319  1.00  0.00     0.115 A 
ATOM     25  N   UNL A   1      31.342  28.564  25.330  1.00  0.00    -0.264 NA
ENDBRANCH  19  20
ENDBRANCH  10  19
ENDBRANCH   4   7
ENDBRANCH   2   3
ENDBRANCH   1   2
BRANCH   1  26
ATOM     26  C   UNL A   1      39.152  20.752  25.909  1.00  0.00     0.118 C 
BRANCH  26  27
ATOM     27  N   UNL A   1      40.186  19.744  26.127  1.00  0.00    -0.352 N 
ATOM     28  C   UNL A   1      41.542  19.879  26.275  1.00  0.00     0.251 C 
ATOM     29  H   UNL A   1      39.855  18.818  26.176  1.00  0.00     0.163 HD
ATOM     30  O   UNL A   1      42.255  18.880  26.215  1.00  0.00    -0.269 OA
BRANCH  28  31
ATOM     31  C   UNL A   1      42.141  21.210  26.495  1.00  0.00     0.039 A 
ATOM     32  C   UNL A   1      42.348  22.052  25.400  1.00  0.00     0.014 A 
ATOM     33  C   UNL A   1      42.518  21.621  27.776  1.00  0.00     0.014 A 
ATOM     34  C   UNL A   1      42.878  23.327  25.599  1.00  0.00     0.010 A 
ATOM     35  C   UNL A   1      42.946  22.925  27.986  1.00  0.00     0.010 A 
ATOM     36  C   UNL A   1      43.145  23.786  26.899  1.00  0.00    -0.014 A 
BRANCH  36  37
ATOM     37  C   UNL A   1      43.649  25.156  27.154  1.00  0.00     0.031 A 
ATOM     38  C   UNL A   1      45.101  25.476  26.921  1.00  0.00     0.074 A 
ATOM     39  C   UNL A   1      42.817  26.084  27.667  1.00  0.00     0.049 A 
ATOM     40  N   UNL A   1      45.752  26.582  27.168  1.00  0.00    -0.248 NA
ATOM     41  C   UNL A   1      45.940  24.400  26.365  1.00  0.00     0.031 C 
ATOM     42  C   UNL A   1      41.399  25.875  27.975  1.00  0.00     0.029 A 
ATOM     43  N   UNL A   1      43.046  27.386  28.033  1.00  0.00    -0.354 N 
ATOM     44  C   UNL A   1      47.074  26.328  26.823  1.00  0.00     0.074 A 
ATOM     45  C   UNL A   1      47.145  24.947  26.402  1.00  0.00     0.031 C 
ATOM     46  C   UNL A   1      40.880  27.017  28.452  1.00  0.00     0.029 A 
ATOM     47  C   UNL A   1      41.935  28.021  28.536  1.00  0.00     0.049 A 
ATOM     48  H   UNL A   1      43.923  27.825  27.943  1.00  0.00     0.167 HD
ATOM     49  C   UNL A   1      48.130  27.176  26.836  1.00  0.00     0.031 A 
ATOM     50  C   UNL A   1      41.786  29.267  29.023  1.00  0.00     0.031 A 
ATOM     51  C   UNL A   1      48.043  28.551  27.247  1.00  0.00     0.049 A 
ATOM     52  C   UNL A   1      42.977  30.186  29.042  1.00  0.00     0.074 A 
ATOM     53  C   UNL A   1      49.037  29.513  27.244  1.00  0.00     0.029 A 
ATOM     54  N   UNL A   1      46.897  29.159  27.738  1.00  0.00    -0.354 N 
ATOM     55  N   UNL A   1      44.206  29.949  28.646  1.00  0.00    -0.248 NA
ATOM     56  C   UNL A   1      42.761  31.542  29.563  1.00  0.00     0.031 C 
ATOM     57  C   UNL A   1      48.509  30.685  27.793  1.00  0.00     0.029 A 
ATOM     58  C   UNL A   1      47.166  30.476  28.067  1.00  0.00     0.049 A 
ATOM     59  H   UNL A   1      46.022  28.719  27.837  1.00  0.00     0.167 HD
ATOM     60  C   UNL A   1      44.901  31.137  28.840  1.00  0.00     0.074 A 
ATOM     61  C   UNL A   1      43.953  32.092  29.375  1.00  0.00     0.031 C 
ATOM     62  C   UNL A   1      46.205  31.413  28.595  1.00  0.00     0.031 A 
BRANCH  49  63
ATOM     63  C   UNL A   1      49.467  26.635  26.398  1.00  0.00    -0.014 A 
ATOM     64  C   UNL A   1      49.922  26.795  25.076  1.00  0.00     0.010 A 
ATOM     65  C   UNL A   1      50.300  25.993  27.333  1.00  0.00     0.010 A 
ATOM     66  C   UNL A   1      51.163  26.286  24.686  1.00  0.00     0.020 A 
ATOM     67  C   UNL A   1      51.557  25.511  26.955  1.00  0.00     0.020 A 
ATOM     68  C   UNL A   1      51.974  25.647  25.630  1.00  0.00     0.054 A 
BRANCH  68  69
ATOM     69  S   UNL A   1      53.592  25.022  25.101  1.00  0.00     0.124 S 
ATOM     70  O   UNL A   1      53.431  23.581  25.278  1.00  0.00    -0.237 OA
ATOM     71  O   UNL A   1      53.673  25.479  23.716  1.00  0.00    -0.237 OA
ATOM     72  O   UNL A   1      54.530  25.660  26.021  1.00  0.00    -0.744 OA
ENDBRANCH  68  69
ENDBRANCH  49  63
BRANCH  50  73
ATOM     73  C   UNL A   1      40.456  29.719  29.518  1.00  0.00    -0.014 A 
ATOM     74  C   UNL A   1      40.199  29.808  30.898  1.00  0.00     0.010 A 
ATOM     75  C   UNL A   1      39.442  30.081  28.612  1.00  0.00     0.010 A 
ATOM     76  C   UNL A   1      38.949  30.228  31.362  1.00  0.00     0.020 A 
ATOM     77  C   UNL A   1      38.201  30.533  29.071  1.00  0.00     0.020 A 
ATOM     78  C   UNL A   1      37.959  30.591  30.444  1.00  0.00     0.054 A 
BRANCH  78  79
ATOM     79  S   UNL A   1      36.361  31.178  31.072  1.00  0.00     0.124 S 
ATOM     80  O   UNL A   1      36.706  32.494  31.600  1.00  0.00    -0.237 OA
ATOM     81  O   UNL A   1      35.531  31.175  29.869  1.00  0.00    -0.237 OA
ATOM     82  O   UNL A   1      35.997  30.177  32.072  1.00  0.00    -0.744 OA
ENDBRANCH  78  79
ENDBRANCH  50  73
BRANCH  62  83
ATOM     83  C   UNL A   1      46.681  32.817  28.860  1.00  0.00    -0.014 A 
ATOM     84  C   UNL A   1      47.126  33.214  30.132  1.00  0.00     0.010 A 
ATOM     85  C   UNL A   1      46.747  33.733  27.793  1.00  0.00     0.010 A 
ATOM     86  C   UNL A   1      47.604  34.511  30.340  1.00  0.00     0.020 A 
ATOM     87  C   UNL A   1      47.255  35.020  27.988  1.00  0.00     0.020 A 
ATOM     88  C   UNL A   1      47.670  35.404  29.264  1.00  0.00     0.054 A 
BRANCH  88  89
ATOM     89  S   UNL A   1      48.349  37.061  29.548  1.00  0.00     0.124 S 
ATOM     90  O   UNL A   1      49.397  36.796  30.530  1.00  0.00    -0.237 OA
ATOM     91  O   UNL A   1      48.816  37.446  28.220  1.00  0.00    -0.237 OA
ATOM     92  O   UNL A   1      47.207  37.824  30.048  1.00  0.00    -0.744 OA
ENDBRANCH  88  89
ENDBRANCH  62  83
ENDBRANCH  36  37
ENDBRANCH  28  31
ENDBRANCH  26  27
ENDBRANCH   1  26
TORSDOF 18
ENDMDL
