MODEL 1
REMARK VINA RESULT:     -12.6      0.000      0.000
REMARK SMILES O=C(NCCCNC(=O)c1cc(Br)n(Cc2ccn(C3CCCC3)n2)c1)c1ccc(-c2c3nc(c(-c4ccc(S(=O)(=O)[O-])cc4)c4ccc([nH]4)c(-c4ccc(S(=O)(=O)[O-])cc4)c4nc(c(-c5ccc(S(=O)(=O)[O-])cc5)c5ccc2[nH]5)C=C4)C=C3)cc1
REMARK SMILES IDX 5 1 4 2 3 3 1 4 2 5 27 7 28 8 86 9 29 10 85 11 30 12 31 13
REMARK SMILES IDX 32 14 79 15 33 16 84 17 78 18 80 19 34 20 83 21 77 22 76 23
REMARK SMILES IDX 35 25 65 26 46 27 64 28 47 29 50 30 63 31 81 32 48 33 49 34
REMARK SMILES IDX 62 36 82 37 51 38 36 39 37 40 45 41 38 42 44 43 39 44 40 45
REMARK SMILES IDX 41 46 42 47 43 48 66 49 67 50 75 51 68 52 74 53 69 54 70 55
REMARK SMILES IDX 71 56 72 57 73 58 52 59 53 60 61 61 54 62 60 63 55 64 56 65
REMARK SMILES IDX 57 66 58 67 59 68 6 69 7 70 8 71 9 73 10 74 11 75 26 76
REMARK SMILES IDX 12 77 14 78 13 79 15 80 16 81 17 82 25 83 18 84 19 85 20 86
REMARK SMILES IDX 21 87 24 88 22 89 23 90
REMARK H PARENT 3 6 80 24 50 35 7 72
REMARK Flexibility Score: inf
ROOT
ATOM      1  C   UNL A   1      32.884  29.312  25.111  1.00  0.00     0.042 C 
ENDROOT
BRANCH   1   2
ATOM      2  C   UNL A   1      33.054  29.337  26.631  1.00  0.00     0.118 C 
BRANCH   2   3
ATOM      3  N   UNL A   1      33.017  30.657  27.234  1.00  0.00    -0.352 N 
ATOM      4  O   UNL A   1      33.551  32.600  28.139  1.00  0.00    -0.269 OA
ATOM      5  C   UNL A   1      33.953  31.489  27.788  1.00  0.00     0.251 C 
ATOM      6  H   UNL A   1      32.111  31.042  27.249  1.00  0.00     0.163 HD
BRANCH   5   7
ATOM      7  C   UNL A   1      35.380  31.133  28.024  1.00  0.00     0.039 A 
ATOM      8  C   UNL A   1      36.361  32.009  28.488  1.00  0.00     0.014 A 
ATOM      9  C   UNL A   1      35.740  29.794  27.779  1.00  0.00     0.014 A 
ATOM     10  C   UNL A   1      37.678  31.580  28.649  1.00  0.00     0.010 A 
ATOM     11  C   UNL A   1      37.050  29.353  27.967  1.00  0.00     0.010 A 
ATOM     12  C   UNL A   1      38.026  30.254  28.390  1.00  0.00    -0.014 A 
BRANCH  12  13
ATOM     13  C   UNL A   1      39.385  29.827  28.734  1.00  0.00     0.031 A 
ATOM     14  C   UNL A   1      39.716  29.815  30.189  1.00  0.00     0.074 A 
ATOM     15  C   UNL A   1      40.258  29.279  27.867  1.00  0.00     0.049 A 
ATOM     16  N   UNL A   1      40.681  30.418  30.807  1.00  0.00    -0.248 NA
ATOM     17  C   UNL A   1      38.820  29.051  31.073  1.00  0.00     0.031 C 
ATOM     18  C   UNL A   1      39.996  28.878  26.485  1.00  0.00     0.029 A 
ATOM     19  N   UNL A   1      41.536  28.841  28.091  1.00  0.00    -0.354 N 
ATOM     20  C   UNL A   1      40.638  29.957  32.121  1.00  0.00     0.074 A 
ATOM     21  C   UNL A   1      39.406  29.220  32.257  1.00  0.00     0.031 C 
ATOM     22  C   UNL A   1      40.988  28.059  26.073  1.00  0.00     0.029 A 
ATOM     23  C   UNL A   1      42.001  27.974  27.114  1.00  0.00     0.049 A 
ATOM     24  H   UNL A   1      42.072  29.115  28.871  1.00  0.00     0.167 HD
ATOM     25  C   UNL A   1      41.710  30.014  32.960  1.00  0.00     0.031 A 
ATOM     26  C   UNL A   1      43.094  27.174  27.178  1.00  0.00     0.031 A 
ATOM     27  C   UNL A   1      42.722  30.934  32.521  1.00  0.00     0.049 A 
ATOM     28  C   UNL A   1      43.991  27.678  28.242  1.00  0.00     0.074 A 
ATOM     29  C   UNL A   1      42.767  32.281  32.220  1.00  0.00     0.029 A 
ATOM     30  N   UNL A   1      43.903  30.407  32.060  1.00  0.00    -0.354 N 
ATOM     31  N   UNL A   1      44.672  28.785  28.168  1.00  0.00    -0.248 NA
ATOM     32  C   UNL A   1      43.927  27.075  29.566  1.00  0.00     0.031 C 
ATOM     33  C   UNL A   1      43.765  32.411  31.211  1.00  0.00     0.029 A 
ATOM     34  C   UNL A   1      44.276  31.136  30.961  1.00  0.00     0.049 A 
ATOM     35  H   UNL A   1      44.392  29.644  32.446  1.00  0.00     0.167 HD
ATOM     36  C   UNL A   1      44.784  29.227  29.477  1.00  0.00     0.074 A 
ATOM     37  C   UNL A   1      44.439  28.070  30.293  1.00  0.00     0.031 C 
ATOM     38  C   UNL A   1      44.867  30.558  29.771  1.00  0.00     0.031 A 
BRANCH  25  39
ATOM     39  C   UNL A   1      42.008  28.938  33.983  1.00  0.00    -0.014 A 
ATOM     40  C   UNL A   1      42.388  27.653  33.544  1.00  0.00     0.010 A 
ATOM     41  C   UNL A   1      41.628  29.065  35.337  1.00  0.00     0.010 A 
ATOM     42  C   UNL A   1      42.305  26.539  34.393  1.00  0.00     0.020 A 
ATOM     43  C   UNL A   1      41.592  27.972  36.206  1.00  0.00     0.020 A 
ATOM     44  C   UNL A   1      41.885  26.707  35.714  1.00  0.00     0.054 A 
BRANCH  44  45
ATOM     45  S   UNL A   1      41.632  25.253  36.762  1.00  0.00     0.124 S 
ATOM     46  O   UNL A   1      42.894  25.197  37.494  1.00  0.00    -0.237 OA
ATOM     47  O   UNL A   1      40.460  25.630  37.547  1.00  0.00    -0.237 OA
ATOM     48  O   UNL A   1      41.411  24.176  35.801  1.00  0.00    -0.744 OA
ENDBRANCH  44  45
ENDBRANCH  25  39
BRANCH  26  49
ATOM     49  C   UNL A   1      43.304  25.860  26.521  1.00  0.00    -0.014 A 
ATOM     50  C   UNL A   1      44.288  25.697  25.528  1.00  0.00     0.010 A 
ATOM     51  C   UNL A   1      42.703  24.697  27.044  1.00  0.00     0.010 A 
ATOM     52  C   UNL A   1      44.691  24.416  25.114  1.00  0.00     0.020 A 
ATOM     53  C   UNL A   1      43.084  23.419  26.622  1.00  0.00     0.020 A 
ATOM     54  C   UNL A   1      44.095  23.285  25.675  1.00  0.00     0.054 A 
BRANCH  54  55
ATOM     55  S   UNL A   1      44.731  21.636  25.258  1.00  0.00     0.124 S 
ATOM     56  O   UNL A   1      46.092  21.687  25.780  1.00  0.00    -0.237 OA
ATOM     57  O   UNL A   1      43.812  20.751  25.968  1.00  0.00    -0.237 OA
ATOM     58  O   UNL A   1      44.627  21.588  23.799  1.00  0.00    -0.744 OA
ENDBRANCH  54  55
ENDBRANCH  26  49
BRANCH  38  59
ATOM     59  C   UNL A   1      45.295  31.518  28.687  1.00  0.00    -0.014 A 
ATOM     60  C   UNL A   1      44.423  32.023  27.705  1.00  0.00     0.010 A 
ATOM     61  C   UNL A   1      46.610  32.021  28.735  1.00  0.00     0.010 A 
ATOM     62  C   UNL A   1      44.862  32.974  26.774  1.00  0.00     0.020 A 
ATOM     63  C   UNL A   1      47.048  32.985  27.822  1.00  0.00     0.020 A 
ATOM     64  C   UNL A   1      46.175  33.449  26.838  1.00  0.00     0.054 A 
BRANCH  64  65
ATOM     65  S   UNL A   1      46.714  34.720  25.661  1.00  0.00     0.124 S 
ATOM     66  O   UNL A   1      48.089  34.324  25.374  1.00  0.00    -0.237 OA
ATOM     67  O   UNL A   1      45.770  34.563  24.556  1.00  0.00    -0.237 OA
ATOM     68  O   UNL A   1      46.572  35.969  26.408  1.00  0.00    -0.744 OA
ENDBRANCH  64  65
ENDBRANCH  38  59
ENDBRANCH  12  13
ENDBRANCH   5   7
ENDBRANCH   2   3
ENDBRANCH   1   2
BRANCH   1  69
ATOM     69  C   UNL A   1      34.026  28.630  24.355  1.00  0.00     0.118 C 
BRANCH  69  70
ATOM     70  N   UNL A   1      33.570  28.054  23.101  1.00  0.00    -0.352 N 
ATOM     71  C   UNL A   1      33.436  26.742  22.747  1.00  0.00     0.252 C 
ATOM     72  H   UNL A   1      33.322  28.705  22.405  1.00  0.00     0.163 HD
ATOM     73  O   UNL A   1      33.355  26.459  21.545  1.00  0.00    -0.269 OA
BRANCH  71  74
ATOM     74  C   UNL A   1      33.351  25.724  23.778  1.00  0.00     0.058 A 
ATOM     75  C   UNL A   1      32.326  25.531  24.751  1.00  0.00     0.049 A 
ATOM     76  C   UNL A   1      34.216  24.649  23.913  1.00  0.00     0.101 A 
ATOM     77  C   UNL A   1      32.578  24.342  25.396  1.00  0.00     0.086 A 
ATOM     78  N   UNL A   1      33.769  23.839  24.934  1.00  0.00    -0.335 N 
ATOM     79  Br  UNL A   1      31.402  23.578  26.634  1.00  0.00    -0.031 Br
BRANCH  78  80
ATOM     80  C   UNL A   1      34.391  22.570  25.306  1.00  0.00     0.180 C 
BRANCH  80  81
ATOM     81  C   UNL A   1      33.685  21.382  24.733  1.00  0.00     0.082 A 
ATOM     82  C   UNL A   1      32.597  21.356  23.827  1.00  0.00     0.047 A 
ATOM     83  N   UNL A   1      34.123  20.138  24.997  1.00  0.00    -0.176 NA
ATOM     84  C   UNL A   1      32.381  20.030  23.554  1.00  0.00     0.109 A 
ATOM     85  N   UNL A   1      33.305  19.336  24.278  1.00  0.00    -0.269 N 
BRANCH  85  86
ATOM     86  C   UNL A   1      33.454  17.899  24.286  1.00  0.00     0.107 C 
ATOM     87  C   UNL A   1      34.874  17.389  24.528  1.00  0.00     0.027 C 
ATOM     88  C   UNL A   1      32.654  17.189  25.377  1.00  0.00     0.027 C 
ATOM     89  C   UNL A   1      34.665  15.907  24.812  1.00  0.00     0.002 C 
ATOM     90  C   UNL A   1      33.287  15.800  25.468  1.00  0.00     0.002 C 
ENDBRANCH  85  86
ENDBRANCH  80  81
ENDBRANCH  78  80
ENDBRANCH  71  74
ENDBRANCH  69  70
ENDBRANCH   1  69
TORSDOF 16
ENDMDL
MODEL 2
REMARK VINA RESULT:     -12.6      1.783      2.863
REMARK SMILES O=C(NCCCNC(=O)c1cc(Br)n(Cc2ccn(C3CCCC3)n2)c1)c1ccc(-c2c3nc(c(-c4ccc(S(=O)(=O)[O-])cc4)c4ccc([nH]4)c(-c4ccc(S(=O)(=O)[O-])cc4)c4nc(c(-c5ccc(S(=O)(=O)[O-])cc5)c5ccc2[nH]5)C=C4)C=C3)cc1
REMARK SMILES IDX 5 1 4 2 3 3 1 4 2 5 27 7 28 8 86 9 29 10 85 11 30 12 31 13
REMARK SMILES IDX 32 14 79 15 33 16 84 17 78 18 80 19 34 20 83 21 77 22 76 23
REMARK SMILES IDX 35 25 65 26 46 27 64 28 47 29 50 30 63 31 81 32 48 33 49 34
REMARK SMILES IDX 62 36 82 37 51 38 36 39 37 40 45 41 38 42 44 43 39 44 40 45
REMARK SMILES IDX 41 46 42 47 43 48 66 49 67 50 75 51 68 52 74 53 69 54 70 55
REMARK SMILES IDX 71 56 72 57 73 58 52 59 53 60 61 61 54 62 60 63 55 64 56 65
REMARK SMILES IDX 57 66 58 67 59 68 6 69 7 70 8 71 9 73 10 74 11 75 26 76
REMARK SMILES IDX 12 77 14 78 13 79 15 80 16 81 17 82 25 83 18 84 19 85 20 86
REMARK SMILES IDX 21 87 24 88 22 89 23 90
REMARK H PARENT 3 6 80 24 50 35 7 72
REMARK Flexibility Score: inf
ROOT
ATOM      1  C   UNL A   1      33.228  27.934  26.486  1.00  0.00     0.042 C 
ENDROOT
BRANCH   1   2
ATOM      2  C   UNL A   1      33.257  29.259  25.720  1.00  0.00     0.118 C 
BRANCH   2   3
ATOM      3  N   UNL A   1      33.080  30.446  26.536  1.00  0.00    -0.352 N 
ATOM      4  O   UNL A   1      33.394  32.180  27.868  1.00  0.00    -0.269 OA
ATOM      5  C   UNL A   1      33.877  31.145  27.403  1.00  0.00     0.251 C 
ATOM      6  H   UNL A   1      32.182  30.839  26.447  1.00  0.00     0.163 HD
BRANCH   5   7
ATOM      7  C   UNL A   1      35.237  30.727  27.840  1.00  0.00     0.039 A 
ATOM      8  C   UNL A   1      35.667  29.408  27.983  1.00  0.00     0.014 A 
ATOM      9  C   UNL A   1      36.157  31.761  28.099  1.00  0.00     0.014 A 
ATOM     10  C   UNL A   1      36.958  29.125  28.428  1.00  0.00     0.010 A 
ATOM     11  C   UNL A   1      37.459  31.483  28.514  1.00  0.00     0.010 A 
ATOM     12  C   UNL A   1      37.856  30.159  28.694  1.00  0.00    -0.014 A 
BRANCH  12  13
ATOM     13  C   UNL A   1      39.242  29.794  28.998  1.00  0.00     0.031 A 
ATOM     14  C   UNL A   1      39.633  29.857  30.438  1.00  0.00     0.074 A 
ATOM     15  C   UNL A   1      40.099  29.240  28.120  1.00  0.00     0.049 A 
ATOM     16  N   UNL A   1      40.599  30.519  30.989  1.00  0.00    -0.248 NA
ATOM     17  C   UNL A   1      38.802  29.102  31.390  1.00  0.00     0.031 C 
ATOM     18  C   UNL A   1      39.796  28.771  26.768  1.00  0.00     0.029 A 
ATOM     19  N   UNL A   1      41.400  28.856  28.308  1.00  0.00    -0.354 N 
ATOM     20  C   UNL A   1      40.627  30.114  32.322  1.00  0.00     0.074 A 
ATOM     21  C   UNL A   1      39.429  29.342  32.540  1.00  0.00     0.031 C 
ATOM     22  C   UNL A   1      40.799  27.969  26.349  1.00  0.00     0.029 A 
ATOM     23  C   UNL A   1      41.856  27.965  27.349  1.00  0.00     0.049 A 
ATOM     24  H   UNL A   1      41.957  29.182  29.052  1.00  0.00     0.167 HD
ATOM     25  C   UNL A   1      41.729  30.244  33.112  1.00  0.00     0.031 A 
ATOM     26  C   UNL A   1      42.979  27.207  27.400  1.00  0.00     0.031 A 
ATOM     27  C   UNL A   1      42.688  31.179  32.592  1.00  0.00     0.049 A 
ATOM     28  C   UNL A   1      43.899  27.786  28.404  1.00  0.00     0.074 A 
ATOM     29  C   UNL A   1      42.672  32.512  32.234  1.00  0.00     0.029 A 
ATOM     30  N   UNL A   1      43.867  30.673  32.104  1.00  0.00    -0.354 N 
ATOM     31  N   UNL A   1      44.536  28.913  28.255  1.00  0.00    -0.248 NA
ATOM     32  C   UNL A   1      43.912  27.240  29.753  1.00  0.00     0.031 C 
ATOM     33  C   UNL A   1      43.622  32.633  31.179  1.00  0.00     0.029 A 
ATOM     34  C   UNL A   1      44.168  31.367  30.961  1.00  0.00     0.049 A 
ATOM     35  H   UNL A   1      44.399  29.946  32.501  1.00  0.00     0.167 HD
ATOM     36  C   UNL A   1      44.686  29.414  29.538  1.00  0.00     0.074 A 
ATOM     37  C   UNL A   1      44.416  28.282  30.416  1.00  0.00     0.031 C 
ATOM     38  C   UNL A   1      44.732  30.759  29.772  1.00  0.00     0.031 A 
BRANCH  25  39
ATOM     39  C   UNL A   1      42.106  29.224  34.166  1.00  0.00    -0.014 A 
ATOM     40  C   UNL A   1      42.289  27.878  33.790  1.00  0.00     0.010 A 
ATOM     41  C   UNL A   1      41.984  29.493  35.546  1.00  0.00     0.010 A 
ATOM     42  C   UNL A   1      42.260  26.847  34.740  1.00  0.00     0.020 A 
ATOM     43  C   UNL A   1      42.007  28.479  36.506  1.00  0.00     0.020 A 
ATOM     44  C   UNL A   1      42.096  27.157  36.091  1.00  0.00     0.054 A 
BRANCH  44  45
ATOM     45  S   UNL A   1      41.905  25.820  37.298  1.00  0.00     0.124 S 
ATOM     46  O   UNL A   1      40.492  25.936  37.642  1.00  0.00    -0.237 OA
ATOM     47  O   UNL A   1      42.275  24.640  36.521  1.00  0.00    -0.237 OA
ATOM     48  O   UNL A   1      42.845  26.183  38.356  1.00  0.00    -0.744 OA
ENDBRANCH  44  45
ENDBRANCH  25  39
BRANCH  26  49
ATOM     49  C   UNL A   1      43.210  25.873  26.791  1.00  0.00    -0.014 A 
ATOM     50  C   UNL A   1      43.390  25.734  25.402  1.00  0.00     0.010 A 
ATOM     51  C   UNL A   1      43.501  24.758  27.603  1.00  0.00     0.010 A 
ATOM     52  C   UNL A   1      43.891  24.542  24.854  1.00  0.00     0.020 A 
ATOM     53  C   UNL A   1      43.981  23.561  27.063  1.00  0.00     0.020 A 
ATOM     54  C   UNL A   1      44.197  23.467  25.692  1.00  0.00     0.054 A 
BRANCH  54  55
ATOM     55  S   UNL A   1      44.997  21.990  25.000  1.00  0.00     0.124 S 
ATOM     56  O   UNL A   1      44.662  22.091  23.584  1.00  0.00    -0.237 OA
ATOM     57  O   UNL A   1      46.402  22.202  25.337  1.00  0.00    -0.237 OA
ATOM     58  O   UNL A   1      44.353  20.886  25.712  1.00  0.00    -0.744 OA
ENDBRANCH  54  55
ENDBRANCH  26  49
BRANCH  38  59
ATOM     59  C   UNL A   1      45.080  31.685  28.632  1.00  0.00    -0.014 A 
ATOM     60  C   UNL A   1      44.122  32.273  27.785  1.00  0.00     0.010 A 
ATOM     61  C   UNL A   1      46.427  32.070  28.485  1.00  0.00     0.010 A 
ATOM     62  C   UNL A   1      44.503  33.187  26.794  1.00  0.00     0.020 A 
ATOM     63  C   UNL A   1      46.811  32.999  27.513  1.00  0.00     0.020 A 
ATOM     64  C   UNL A   1      45.848  33.545  26.664  1.00  0.00     0.054 A 
BRANCH  64  65
ATOM     65  S   UNL A   1      46.320  34.771  25.413  1.00  0.00     0.124 S 
ATOM     66  O   UNL A   1      45.489  34.397  24.273  1.00  0.00    -0.237 OA
ATOM     67  O   UNL A   1      45.977  36.040  26.053  1.00  0.00    -0.237 OA
ATOM     68  O   UNL A   1      47.754  34.551  25.233  1.00  0.00    -0.744 OA
ENDBRANCH  64  65
ENDBRANCH  38  59
ENDBRANCH  12  13
ENDBRANCH   5   7
ENDBRANCH   2   3
ENDBRANCH   1   2
BRANCH   1  69
ATOM     69  C   UNL A   1      32.527  26.791  25.750  1.00  0.00     0.118 C 
BRANCH  69  70
ATOM     70  N   UNL A   1      31.321  26.368  26.442  1.00  0.00    -0.352 N 
ATOM     71  C   UNL A   1      30.570  25.241  26.265  1.00  0.00     0.252 C 
ATOM     72  H   UNL A   1      30.999  26.982  27.141  1.00  0.00     0.163 HD
ATOM     73  O   UNL A   1      29.416  25.224  26.712  1.00  0.00    -0.269 OA
BRANCH  71  74
ATOM     74  C   UNL A   1      31.149  24.087  25.601  1.00  0.00     0.058 A 
ATOM     75  C   UNL A   1      30.996  23.676  24.245  1.00  0.00     0.049 A 
ATOM     76  C   UNL A   1      32.088  23.233  26.158  1.00  0.00     0.101 A 
ATOM     77  C   UNL A   1      31.868  22.636  24.020  1.00  0.00     0.086 A 
ATOM     78  N   UNL A   1      32.483  22.319  25.206  1.00  0.00    -0.335 N 
ATOM     79  Br  UNL A   1      32.155  21.885  22.331  1.00  0.00    -0.031 Br
BRANCH  78  80
ATOM     80  C   UNL A   1      33.522  21.313  25.416  1.00  0.00     0.180 C 
BRANCH  80  81
ATOM     81  C   UNL A   1      34.902  21.838  25.176  1.00  0.00     0.082 A 
ATOM     82  C   UNL A   1      35.456  22.346  23.976  1.00  0.00     0.047 A 
ATOM     83  N   UNL A   1      35.773  21.952  26.195  1.00  0.00    -0.176 NA
ATOM     84  C   UNL A   1      36.718  22.770  24.306  1.00  0.00     0.109 A 
ATOM     85  N   UNL A   1      36.871  22.509  25.635  1.00  0.00    -0.269 N 
BRANCH  85  86
ATOM     86  C   UNL A   1      38.051  22.805  26.415  1.00  0.00     0.107 C 
ATOM     87  C   UNL A   1      39.304  22.018  26.032  1.00  0.00     0.027 C 
ATOM     88  C   UNL A   1      38.523  24.254  26.318  1.00  0.00     0.027 C 
ATOM     89  C   UNL A   1      40.414  22.761  26.765  1.00  0.00     0.002 C 
ATOM     90  C   UNL A   1      39.961  24.220  26.838  1.00  0.00     0.002 C 
ENDBRANCH  85  86
ENDBRANCH  80  81
ENDBRANCH  78  80
ENDBRANCH  71  74
ENDBRANCH  69  70
ENDBRANCH   1  69
TORSDOF 16
ENDMDL
MODEL 3
REMARK VINA RESULT:     -12.4      2.800      9.738
REMARK SMILES O=C(NCCCNC(=O)c1cc(Br)n(Cc2ccn(C3CCCC3)n2)c1)c1ccc(-c2c3nc(c(-c4ccc(S(=O)(=O)[O-])cc4)c4ccc([nH]4)c(-c4ccc(S(=O)(=O)[O-])cc4)c4nc(c(-c5ccc(S(=O)(=O)[O-])cc5)c5ccc2[nH]5)C=C4)C=C3)cc1
REMARK SMILES IDX 5 1 4 2 3 3 1 4 2 5 27 7 28 8 86 9 29 10 85 11 30 12 31 13
REMARK SMILES IDX 32 14 79 15 33 16 84 17 78 18 80 19 34 20 83 21 77 22 76 23
REMARK SMILES IDX 35 25 65 26 46 27 64 28 47 29 50 30 63 31 81 32 48 33 49 34
REMARK SMILES IDX 62 36 82 37 51 38 36 39 37 40 45 41 38 42 44 43 39 44 40 45
REMARK SMILES IDX 41 46 42 47 43 48 66 49 67 50 75 51 68 52 74 53 69 54 70 55
REMARK SMILES IDX 71 56 72 57 73 58 52 59 53 60 61 61 54 62 60 63 55 64 56 65
REMARK SMILES IDX 57 66 58 67 59 68 6 69 7 70 8 71 9 73 10 74 11 75 26 76
REMARK SMILES IDX 12 77 14 78 13 79 15 80 16 81 17 82 25 83 18 84 19 85 20 86
REMARK SMILES IDX 21 87 24 88 22 89 23 90
REMARK H PARENT 3 6 80 24 50 35 7 72
REMARK Flexibility Score: inf
ROOT
ATOM      1  C   UNL A   1      34.930  21.480  26.156  1.00  0.00     0.042 C 
ENDROOT
BRANCH   1   2
ATOM      2  C   UNL A   1      36.172  22.355  25.975  1.00  0.00     0.118 C 
BRANCH   2   3
ATOM      3  N   UNL A   1      37.418  21.630  25.806  1.00  0.00    -0.352 N 
ATOM      4  O   UNL A   1      39.523  20.964  25.887  1.00  0.00    -0.269 OA
ATOM      5  C   UNL A   1      38.725  21.874  26.128  1.00  0.00     0.251 C 
ATOM      6  H   UNL A   1      37.294  20.763  25.354  1.00  0.00     0.163 HD
BRANCH   5   7
ATOM      7  C   UNL A   1      39.241  23.149  26.699  1.00  0.00     0.039 A 
ATOM      8  C   UNL A   1      38.648  24.401  26.538  1.00  0.00     0.014 A 
ATOM      9  C   UNL A   1      40.406  23.057  27.485  1.00  0.00     0.014 A 
ATOM     10  C   UNL A   1      39.230  25.540  27.093  1.00  0.00     0.010 A 
ATOM     11  C   UNL A   1      40.975  24.189  28.067  1.00  0.00     0.010 A 
ATOM     12  C   UNL A   1      40.393  25.438  27.857  1.00  0.00    -0.014 A 
BRANCH  12  13
ATOM     13  C   UNL A   1      40.862  26.643  28.547  1.00  0.00     0.031 A 
ATOM     14  C   UNL A   1      42.074  27.296  27.970  1.00  0.00     0.074 A 
ATOM     15  C   UNL A   1      40.181  27.285  29.516  1.00  0.00     0.049 A 
ATOM     16  N   UNL A   1      43.197  27.579  28.548  1.00  0.00    -0.248 NA
ATOM     17  C   UNL A   1      42.028  27.645  26.540  1.00  0.00     0.031 C 
ATOM     18  C   UNL A   1      38.818  27.008  29.968  1.00  0.00     0.029 A 
ATOM     19  N   UNL A   1      40.525  28.414  30.209  1.00  0.00    -0.354 N 
ATOM     20  C   UNL A   1      43.927  28.318  27.619  1.00  0.00     0.074 A 
ATOM     21  C   UNL A   1      43.217  28.221  26.368  1.00  0.00     0.031 C 
ATOM     22  C   UNL A   1      38.370  28.066  30.679  1.00  0.00     0.029 A 
ATOM     23  C   UNL A   1      39.448  29.032  30.827  1.00  0.00     0.049 A 
ATOM     24  H   UNL A   1      41.448  28.755  30.263  1.00  0.00     0.167 HD
ATOM     25  C   UNL A   1      44.949  29.146  27.972  1.00  0.00     0.031 A 
ATOM     26  C   UNL A   1      39.408  30.282  31.351  1.00  0.00     0.031 A 
ATOM     27  C   UNL A   1      45.459  28.883  29.289  1.00  0.00     0.049 A 
ATOM     28  C   UNL A   1      40.794  30.742  31.592  1.00  0.00     0.074 A 
ATOM     29  C   UNL A   1      45.996  27.790  29.939  1.00  0.00     0.029 A 
ATOM     30  N   UNL A   1      45.199  29.811  30.267  1.00  0.00    -0.354 N 
ATOM     31  N   UNL A   1      41.578  30.263  32.514  1.00  0.00    -0.248 NA
ATOM     32  C   UNL A   1      41.446  31.579  30.595  1.00  0.00     0.031 C 
ATOM     33  C   UNL A   1      45.625  27.942  31.306  1.00  0.00     0.029 A 
ATOM     34  C   UNL A   1      44.890  29.124  31.412  1.00  0.00     0.049 A 
ATOM     35  H   UNL A   1      45.228  30.790  30.166  1.00  0.00     0.167 HD
ATOM     36  C   UNL A   1      42.860  30.401  32.004  1.00  0.00     0.074 A 
ATOM     37  C   UNL A   1      42.723  31.341  30.899  1.00  0.00     0.031 C 
ATOM     38  C   UNL A   1      43.854  29.527  32.341  1.00  0.00     0.031 A 
BRANCH  25  39
ATOM     39  C   UNL A   1      45.226  30.455  27.261  1.00  0.00    -0.014 A 
ATOM     40  C   UNL A   1      46.550  30.780  26.903  1.00  0.00     0.010 A 
ATOM     41  C   UNL A   1      44.275  31.498  27.214  1.00  0.00     0.010 A 
ATOM     42  C   UNL A   1      46.919  32.099  26.601  1.00  0.00     0.020 A 
ATOM     43  C   UNL A   1      44.622  32.804  26.864  1.00  0.00     0.020 A 
ATOM     44  C   UNL A   1      45.952  33.106  26.608  1.00  0.00     0.054 A 
BRANCH  44  45
ATOM     45  S   UNL A   1      46.455  34.829  26.369  1.00  0.00     0.124 S 
ATOM     46  O   UNL A   1      47.222  35.081  27.585  1.00  0.00    -0.237 OA
ATOM     47  O   UNL A   1      47.229  34.763  25.132  1.00  0.00    -0.237 OA
ATOM     48  O   UNL A   1      45.184  35.541  26.265  1.00  0.00    -0.744 OA
ENDBRANCH  44  45
ENDBRANCH  25  39
BRANCH  26  49
ATOM     49  C   UNL A   1      38.242  31.196  31.446  1.00  0.00    -0.014 A 
ATOM     50  C   UNL A   1      37.036  30.770  32.033  1.00  0.00     0.010 A 
ATOM     51  C   UNL A   1      38.392  32.572  31.183  1.00  0.00     0.010 A 
ATOM     52  C   UNL A   1      36.040  31.694  32.389  1.00  0.00     0.020 A 
ATOM     53  C   UNL A   1      37.396  33.497  31.516  1.00  0.00     0.020 A 
ATOM     54  C   UNL A   1      36.234  33.055  32.141  1.00  0.00     0.054 A 
BRANCH  54  55
ATOM     55  S   UNL A   1      35.019  34.260  32.749  1.00  0.00     0.124 S 
ATOM     56  O   UNL A   1      35.870  35.280  33.352  1.00  0.00    -0.237 OA
ATOM     57  O   UNL A   1      34.323  34.654  31.529  1.00  0.00    -0.237 OA
ATOM     58  O   UNL A   1      34.214  33.486  33.695  1.00  0.00    -0.744 OA
ENDBRANCH  54  55
ENDBRANCH  26  49
BRANCH  38  59
ATOM     59  C   UNL A   1      43.703  28.701  33.596  1.00  0.00    -0.014 A 
ATOM     60  C   UNL A   1      44.088  29.147  34.874  1.00  0.00     0.010 A 
ATOM     61  C   UNL A   1      43.035  27.465  33.493  1.00  0.00     0.010 A 
ATOM     62  C   UNL A   1      43.848  28.364  36.011  1.00  0.00     0.020 A 
ATOM     63  C   UNL A   1      42.773  26.689  34.626  1.00  0.00     0.020 A 
ATOM     64  C   UNL A   1      43.191  27.137  35.879  1.00  0.00     0.054 A 
BRANCH  64  65
ATOM     65  S   UNL A   1      42.839  26.160  37.366  1.00  0.00     0.124 S 
ATOM     66  O   UNL A   1      43.748  26.740  38.350  1.00  0.00    -0.237 OA
ATOM     67  O   UNL A   1      41.418  26.413  37.595  1.00  0.00    -0.237 OA
ATOM     68  O   UNL A   1      43.154  24.789  36.965  1.00  0.00    -0.744 OA
ENDBRANCH  64  65
ENDBRANCH  38  59
ENDBRANCH  12  13
ENDBRANCH   5   7
ENDBRANCH   2   3
ENDBRANCH   1   2
BRANCH   1  69
ATOM     69  C   UNL A   1      33.795  21.780  25.176  1.00  0.00     0.118 C 
BRANCH  69  70
ATOM     70  N   UNL A   1      34.299  22.283  23.909  1.00  0.00    -0.352 N 
ATOM     71  C   UNL A   1      33.835  23.311  23.137  1.00  0.00     0.252 C 
ATOM     72  H   UNL A   1      35.090  21.817  23.555  1.00  0.00     0.163 HD
ATOM     73  O   UNL A   1      34.189  23.368  21.953  1.00  0.00    -0.269 OA
BRANCH  71  74
ATOM     74  C   UNL A   1      32.978  24.324  23.728  1.00  0.00     0.058 A 
ATOM     75  C   UNL A   1      31.722  24.807  23.257  1.00  0.00     0.049 A 
ATOM     76  C   UNL A   1      33.180  24.919  24.963  1.00  0.00     0.101 A 
ATOM     77  C   UNL A   1      31.196  25.627  24.229  1.00  0.00     0.086 A 
ATOM     78  N   UNL A   1      32.117  25.751  25.239  1.00  0.00    -0.335 N 
ATOM     79  Br  UNL A   1      29.475  26.352  24.137  1.00  0.00    -0.031 Br
BRANCH  78  80
ATOM     80  C   UNL A   1      31.953  26.484  26.494  1.00  0.00     0.180 C 
BRANCH  80  81
ATOM     81  C   UNL A   1      32.423  27.902  26.409  1.00  0.00     0.082 A 
ATOM     82  C   UNL A   1      31.697  29.047  26.002  1.00  0.00     0.047 A 
ATOM     83  N   UNL A   1      33.657  28.235  26.827  1.00  0.00    -0.176 NA
ATOM     84  C   UNL A   1      32.553  30.104  26.182  1.00  0.00     0.109 A 
ATOM     85  N   UNL A   1      33.713  29.577  26.666  1.00  0.00    -0.269 N 
BRANCH  85  86
ATOM     86  C   UNL A   1      34.895  30.333  27.014  1.00  0.00     0.107 C 
ATOM     87  C   UNL A   1      34.673  31.478  28.000  1.00  0.00     0.027 C 
ATOM     88  C   UNL A   1      35.989  29.513  27.694  1.00  0.00     0.027 C 
ATOM     89  C   UNL A   1      36.089  31.851  28.419  1.00  0.00     0.002 C 
ATOM     90  C   UNL A   1      36.902  30.557  28.336  1.00  0.00     0.002 C 
ENDBRANCH  85  86
ENDBRANCH  80  81
ENDBRANCH  78  80
ENDBRANCH  71  74
ENDBRANCH  69  70
ENDBRANCH   1  69
TORSDOF 16
ENDMDL
