MODEL 1
REMARK VINA RESULT:     -11.1      0.000      0.000
REMARK SMILES CO[C@H]1C[C@@H](C(=O)NCCCNC(=O)c2ccc(-c3c4nc(c(-c5ccc(S(=O)(=O)[O-])cc5)c5ccc([nH]5)c(-c5ccc(S(=O)(=O)[O-])cc5)c5nc(c(-c6ccc(S(=O)(=O)[O-])cc6)c6ccc3[nH]6)C=C5)C=C4)cc2)N(C(=O)c2cscc2C)C1
REMARK SMILES IDX 10 1 9 2 8 3 6 4 7 5 5 7 3 8 4 9 84 10 75 11 2 12 1 13 76 14
REMARK SMILES IDX 77 15 78 16 79 17 82 18 80 19 81 20 83 21 11 22 12 23 13 24
REMARK SMILES IDX 14 26 15 27 16 28 74 29 17 30 73 31 18 32 19 33 20 34 67 35
REMARK SMILES IDX 21 36 72 37 66 38 68 39 22 40 71 41 65 42 64 43 23 45 53 46
REMARK SMILES IDX 34 47 52 48 35 49 38 50 51 51 69 52 36 53 37 54 50 56 70 57
REMARK SMILES IDX 39 58 24 59 25 60 33 61 26 62 32 63 27 64 28 65 29 66 30 67
REMARK SMILES IDX 31 68 54 69 55 70 63 71 56 72 62 73 57 74 58 75 59 76 60 77
REMARK SMILES IDX 61 78 40 79 41 80 49 81 42 82 48 83 43 84 44 85 45 86 46 87
REMARK SMILES IDX 47 88
REMARK H PARENT 8 6 12 25 68 44 38 55
REMARK Flexibility Score: inf
ROOT
ATOM      1  C   UNL A   1      34.349  30.977  27.344  1.00  0.00     0.042 C 
ENDROOT
BRANCH   1   2
ATOM      2  C   UNL A   1      33.745  31.968  28.335  1.00  0.00     0.117 C 
BRANCH   2   3
ATOM      3  N   UNL A   1      33.924  33.359  27.967  1.00  0.00    -0.354 N 
ATOM      4  C   UNL A   1      34.099  34.495  28.686  1.00  0.00     0.242 C 
ATOM      5  O   UNL A   1      34.545  35.457  28.046  1.00  0.00    -0.273 OA
ATOM      6  H   UNL A   1      33.918  33.510  26.994  1.00  0.00     0.163 HD
BRANCH   4   7
ATOM      7  C   UNL A   1      33.686  34.709  30.158  1.00  0.00     0.177 C 
ATOM      8  C   UNL A   1      33.005  35.920  32.082  1.00  0.00     0.139 C 
ATOM      9  C   UNL A   1      32.982  35.998  30.558  1.00  0.00     0.069 C 
ATOM     10  C   UNL A   1      34.434  35.427  32.317  1.00  0.00     0.152 C 
ATOM     11  N   UNL A   1      34.717  34.526  31.202  1.00  0.00    -0.324 N 
BRANCH   8  12
ATOM     12  O   UNL A   1      32.734  37.206  32.620  1.00  0.00    -0.380 OA
ATOM     13  C   UNL A   1      33.859  38.073  32.563  1.00  0.00     0.195 C 
ENDBRANCH   8  12
BRANCH  11  14
ATOM     14  C   UNL A   1      35.154  33.237  31.509  1.00  0.00     0.255 C 
ATOM     15  O   UNL A   1      34.375  32.292  31.601  1.00  0.00    -0.269 OA
BRANCH  14  16
ATOM     16  C   UNL A   1      36.586  33.079  31.767  1.00  0.00     0.053 A 
ATOM     17  C   UNL A   1      37.107  32.828  33.027  1.00  0.00     0.079 A 
ATOM     18  C   UNL A   1      37.632  33.092  30.766  1.00  0.00    -0.028 A 
ATOM     19  S   UNL A   1      38.803  32.649  33.023  1.00  0.00    -0.151 S 
ATOM     20  C   UNL A   1      38.875  32.878  31.334  1.00  0.00     0.069 A 
ATOM     21  C   UNL A   1      37.409  33.325  29.308  1.00  0.00     0.046 C 
ENDBRANCH  14  16
ENDBRANCH  11  14
ENDBRANCH   4   7
ENDBRANCH   2   3
ENDBRANCH   1   2
BRANCH   1  22
ATOM     22  C   UNL A   1      35.572  30.212  27.866  1.00  0.00     0.118 C 
BRANCH  22  23
ATOM     23  N   UNL A   1      35.601  30.128  29.317  1.00  0.00    -0.352 N 
ATOM     24  C   UNL A   1      36.574  29.720  30.191  1.00  0.00     0.251 C 
ATOM     25  H   UNL A   1      34.767  30.417  29.753  1.00  0.00     0.163 HD
ATOM     26  O   UNL A   1      36.250  29.487  31.355  1.00  0.00    -0.269 OA
BRANCH  24  27
ATOM     27  C   UNL A   1      37.992  29.564  29.790  1.00  0.00     0.039 A 
ATOM     28  C   UNL A   1      38.305  29.648  28.426  1.00  0.00     0.014 A 
ATOM     29  C   UNL A   1      38.984  29.192  30.702  1.00  0.00     0.014 A 
ATOM     30  C   UNL A   1      39.605  29.390  27.982  1.00  0.00     0.010 A 
ATOM     31  C   UNL A   1      40.291  28.957  30.260  1.00  0.00     0.010 A 
ATOM     32  C   UNL A   1      40.610  29.045  28.896  1.00  0.00    -0.014 A 
BRANCH  32  33
ATOM     33  C   UNL A   1      41.985  28.742  28.430  1.00  0.00     0.031 A 
ATOM     34  C   UNL A   1      42.337  27.365  27.943  1.00  0.00     0.074 A 
ATOM     35  C   UNL A   1      42.931  29.698  28.459  1.00  0.00     0.049 A 
ATOM     36  N   UNL A   1      43.509  26.886  27.610  1.00  0.00    -0.248 NA
ATOM     37  C   UNL A   1      41.233  26.403  27.826  1.00  0.00     0.031 C 
ATOM     38  C   UNL A   1      42.732  31.075  28.908  1.00  0.00     0.029 A 
ATOM     39  N   UNL A   1      44.255  29.648  28.101  1.00  0.00    -0.354 N 
ATOM     40  C   UNL A   1      43.293  25.552  27.289  1.00  0.00     0.074 A 
ATOM     41  C   UNL A   1      41.873  25.306  27.440  1.00  0.00     0.031 C 
ATOM     42  C   UNL A   1      43.890  31.744  28.790  1.00  0.00     0.029 A 
ATOM     43  C   UNL A   1      44.915  30.838  28.273  1.00  0.00     0.049 A 
ATOM     44  H   UNL A   1      44.690  28.834  27.755  1.00  0.00     0.167 HD
ATOM     45  C   UNL A   1      44.195  24.610  26.920  1.00  0.00     0.031 A 
ATOM     46  C   UNL A   1      46.200  31.167  28.047  1.00  0.00     0.031 A 
ATOM     47  C   UNL A   1      45.600  24.845  26.732  1.00  0.00     0.049 A 
ATOM     48  C   UNL A   1      47.161  30.135  27.536  1.00  0.00     0.074 A 
ATOM     49  C   UNL A   1      46.594  23.938  26.404  1.00  0.00     0.029 A 
ATOM     50  N   UNL A   1      46.208  26.085  26.832  1.00  0.00    -0.354 N 
ATOM     51  N   UNL A   1      46.949  28.864  27.300  1.00  0.00    -0.248 NA
ATOM     52  C   UNL A   1      48.533  30.585  27.263  1.00  0.00     0.031 C 
ATOM     53  C   UNL A   1      47.804  24.638  26.287  1.00  0.00     0.029 A 
ATOM     54  C   UNL A   1      47.559  25.976  26.545  1.00  0.00     0.049 A 
ATOM     55  H   UNL A   1      45.747  26.922  27.071  1.00  0.00     0.167 HD
ATOM     56  C   UNL A   1      48.166  28.356  26.864  1.00  0.00     0.074 A 
ATOM     57  C   UNL A   1      49.104  29.460  26.849  1.00  0.00     0.031 C 
ATOM     58  C   UNL A   1      48.478  27.083  26.521  1.00  0.00     0.031 A 
BRANCH  45  59
ATOM     59  C   UNL A   1      43.663  23.221  26.727  1.00  0.00    -0.014 A 
ATOM     60  C   UNL A   1      43.006  22.552  27.774  1.00  0.00     0.010 A 
ATOM     61  C   UNL A   1      43.855  22.566  25.498  1.00  0.00     0.010 A 
ATOM     62  C   UNL A   1      42.587  21.228  27.608  1.00  0.00     0.020 A 
ATOM     63  C   UNL A   1      43.434  21.246  25.328  1.00  0.00     0.020 A 
ATOM     64  C   UNL A   1      42.822  20.578  26.393  1.00  0.00     0.054 A 
BRANCH  64  65
ATOM     65  S   UNL A   1      42.317  18.848  26.178  1.00  0.00     0.124 S 
ATOM     66  O   UNL A   1      40.919  18.994  25.779  1.00  0.00    -0.237 OA
ATOM     67  O   UNL A   1      43.216  18.360  25.135  1.00  0.00    -0.237 OA
ATOM     68  O   UNL A   1      42.535  18.272  27.502  1.00  0.00    -0.744 OA
ENDBRANCH  64  65
ENDBRANCH  45  59
BRANCH  46  69
ATOM     69  C   UNL A   1      46.647  32.554  28.316  1.00  0.00    -0.014 A 
ATOM     70  C   UNL A   1      46.534  33.535  27.316  1.00  0.00     0.010 A 
ATOM     71  C   UNL A   1      47.121  32.909  29.589  1.00  0.00     0.010 A 
ATOM     72  C   UNL A   1      46.878  34.861  27.590  1.00  0.00     0.020 A 
ATOM     73  C   UNL A   1      47.462  34.235  29.867  1.00  0.00     0.020 A 
ATOM     74  C   UNL A   1      47.338  35.203  28.866  1.00  0.00     0.054 A 
BRANCH  74  75
ATOM     75  S   UNL A   1      47.691  36.937  29.268  1.00  0.00     0.124 S 
ATOM     76  O   UNL A   1      46.647  37.241  30.240  1.00  0.00    -0.237 OA
ATOM     77  O   UNL A   1      49.053  36.890  29.797  1.00  0.00    -0.237 OA
ATOM     78  O   UNL A   1      47.561  37.600  27.973  1.00  0.00    -0.744 OA
ENDBRANCH  74  75
ENDBRANCH  46  69
BRANCH  58  79
ATOM     79  C   UNL A   1      49.895  26.823  26.102  1.00  0.00    -0.014 A 
ATOM     80  C   UNL A   1      50.851  26.425  27.052  1.00  0.00     0.010 A 
ATOM     81  C   UNL A   1      50.272  26.964  24.757  1.00  0.00     0.010 A 
ATOM     82  C   UNL A   1      52.173  26.191  26.666  1.00  0.00     0.020 A 
ATOM     83  C   UNL A   1      51.594  26.731  24.367  1.00  0.00     0.020 A 
ATOM     84  C   UNL A   1      52.540  26.359  25.327  1.00  0.00     0.054 A 
BRANCH  84  85
ATOM     85  S   UNL A   1      54.251  26.038  24.816  1.00  0.00     0.124 S 
ATOM     86  O   UNL A   1      54.375  24.603  25.057  1.00  0.00    -0.237 OA
ATOM     87  O   UNL A   1      54.265  26.441  23.411  1.00  0.00    -0.237 OA
ATOM     88  O   UNL A   1      55.031  26.893  25.708  1.00  0.00    -0.744 OA
ENDBRANCH  84  85
ENDBRANCH  58  79
ENDBRANCH  32  33
ENDBRANCH  24  27
ENDBRANCH  22  23
ENDBRANCH   1  22
TORSDOF 16
ENDMDL
MODEL 2
REMARK VINA RESULT:     -10.7      5.053     10.924
REMARK SMILES CO[C@H]1C[C@@H](C(=O)NCCCNC(=O)c2ccc(-c3c4nc(c(-c5ccc(S(=O)(=O)[O-])cc5)c5ccc([nH]5)c(-c5ccc(S(=O)(=O)[O-])cc5)c5nc(c(-c6ccc(S(=O)(=O)[O-])cc6)c6ccc3[nH]6)C=C5)C=C4)cc2)N(C(=O)c2cscc2C)C1
REMARK SMILES IDX 10 1 9 2 8 3 6 4 7 5 5 7 3 8 4 9 84 10 75 11 2 12 1 13 76 14
REMARK SMILES IDX 77 15 78 16 79 17 82 18 80 19 81 20 83 21 11 22 12 23 13 24
REMARK SMILES IDX 14 26 15 27 16 28 74 29 17 30 73 31 18 32 19 33 20 34 67 35
REMARK SMILES IDX 21 36 72 37 66 38 68 39 22 40 71 41 65 42 64 43 23 45 53 46
REMARK SMILES IDX 34 47 52 48 35 49 38 50 51 51 69 52 36 53 37 54 50 56 70 57
REMARK SMILES IDX 39 58 24 59 25 60 33 61 26 62 32 63 27 64 28 65 29 66 30 67
REMARK SMILES IDX 31 68 54 69 55 70 63 71 56 72 62 73 57 74 58 75 59 76 60 77
REMARK SMILES IDX 61 78 40 79 41 80 49 81 42 82 48 83 43 84 44 85 45 86 46 87
REMARK SMILES IDX 47 88
REMARK H PARENT 8 6 12 25 68 44 38 55
REMARK Flexibility Score: inf
ROOT
ATOM      1  C   UNL A   1      32.099  28.463  26.100  1.00  0.00     0.042 C 
ENDROOT
BRANCH   1   2
ATOM      2  C   UNL A   1      31.624  27.457  27.144  1.00  0.00     0.117 C 
BRANCH   2   3
ATOM      3  N   UNL A   1      30.875  26.342  26.595  1.00  0.00    -0.354 N 
ATOM      4  C   UNL A   1      31.221  25.279  25.829  1.00  0.00     0.242 C 
ATOM      5  O   UNL A   1      30.401  24.351  25.818  1.00  0.00    -0.273 OA
ATOM      6  H   UNL A   1      29.919  26.360  26.829  1.00  0.00     0.163 HD
BRANCH   4   7
ATOM      7  C   UNL A   1      32.456  25.190  24.906  1.00  0.00     0.177 C 
ATOM      8  C   UNL A   1      33.696  25.382  22.891  1.00  0.00     0.139 C 
ATOM      9  C   UNL A   1      32.457  25.945  23.583  1.00  0.00     0.069 C 
ATOM     10  C   UNL A   1      33.546  23.894  23.212  1.00  0.00     0.152 C 
ATOM     11  N   UNL A   1      32.963  23.847  24.551  1.00  0.00    -0.324 N 
BRANCH   8  12
ATOM     12  O   UNL A   1      33.637  25.691  21.506  1.00  0.00    -0.380 OA
ATOM     13  C   UNL A   1      32.307  25.871  21.040  1.00  0.00     0.195 C 
ENDBRANCH   8  12
BRANCH  11  14
ATOM     14  C   UNL A   1      33.628  23.094  25.519  1.00  0.00     0.255 C 
ATOM     15  O   UNL A   1      34.192  23.619  26.475  1.00  0.00    -0.269 OA
BRANCH  14  16
ATOM     16  C   UNL A   1      33.663  21.646  25.307  1.00  0.00     0.053 A 
ATOM     17  C   UNL A   1      32.544  20.836  25.411  1.00  0.00     0.079 A 
ATOM     18  C   UNL A   1      34.823  20.880  24.902  1.00  0.00    -0.028 A 
ATOM     19  S   UNL A   1      32.873  19.198  25.070  1.00  0.00    -0.151 S 
ATOM     20  C   UNL A   1      34.514  19.540  24.752  1.00  0.00     0.069 A 
ATOM     21  C   UNL A   1      36.187  21.450  24.689  1.00  0.00     0.046 C 
ENDBRANCH  14  16
ENDBRANCH  11  14
ENDBRANCH   4   7
ENDBRANCH   2   3
ENDBRANCH   1   2
BRANCH   1  22
ATOM     22  C   UNL A   1      33.543  28.948  26.287  1.00  0.00     0.118 C 
BRANCH  22  23
ATOM     23  N   UNL A   1      33.614  30.277  26.874  1.00  0.00    -0.352 N 
ATOM     24  C   UNL A   1      34.491  30.838  27.765  1.00  0.00     0.251 C 
ATOM     25  H   UNL A   1      32.901  30.886  26.576  1.00  0.00     0.163 HD
ATOM     26  O   UNL A   1      34.170  31.894  28.308  1.00  0.00    -0.269 OA
BRANCH  24  27
ATOM     27  C   UNL A   1      35.804  30.230  28.082  1.00  0.00     0.039 A 
ATOM     28  C   UNL A   1      35.995  29.705  29.367  1.00  0.00     0.014 A 
ATOM     29  C   UNL A   1      36.886  30.300  27.199  1.00  0.00     0.014 A 
ATOM     30  C   UNL A   1      37.250  29.229  29.757  1.00  0.00     0.010 A 
ATOM     31  C   UNL A   1      38.136  29.801  27.580  1.00  0.00     0.010 A 
ATOM     32  C   UNL A   1      38.331  29.271  28.865  1.00  0.00    -0.014 A 
BRANCH  32  33
ATOM     33  C   UNL A   1      39.673  28.794  29.280  1.00  0.00     0.031 A 
ATOM     34  C   UNL A   1      40.572  29.673  30.104  1.00  0.00     0.074 A 
ATOM     35  C   UNL A   1      40.100  27.575  28.904  1.00  0.00     0.049 A 
ATOM     36  N   UNL A   1      41.816  29.473  30.458  1.00  0.00    -0.248 NA
ATOM     37  C   UNL A   1      40.002  30.941  30.579  1.00  0.00     0.031 C 
ATOM     38  C   UNL A   1      39.336  26.619  28.104  1.00  0.00     0.029 A 
ATOM     39  N   UNL A   1      41.290  26.936  29.148  1.00  0.00    -0.354 N 
ATOM     40  C   UNL A   1      42.196  30.611  31.157  1.00  0.00     0.074 A 
ATOM     41  C   UNL A   1      41.040  31.484  31.202  1.00  0.00     0.031 C 
ATOM     42  C   UNL A   1      40.072  25.509  27.931  1.00  0.00     0.029 A 
ATOM     43  C   UNL A   1      41.364  25.684  28.593  1.00  0.00     0.049 A 
ATOM     44  H   UNL A   1      42.021  27.339  29.671  1.00  0.00     0.167 HD
ATOM     45  C   UNL A   1      43.401  30.913  31.699  1.00  0.00     0.031 A 
ATOM     46  C   UNL A   1      42.358  24.777  28.609  1.00  0.00     0.031 A 
ATOM     47  C   UNL A   1      44.546  30.045  31.694  1.00  0.00     0.049 A 
ATOM     48  C   UNL A   1      43.649  25.089  29.306  1.00  0.00     0.074 A 
ATOM     49  C   UNL A   1      45.820  30.288  32.179  1.00  0.00     0.029 A 
ATOM     50  N   UNL A   1      44.548  28.752  31.199  1.00  0.00    -0.354 N 
ATOM     51  N   UNL A   1      44.008  26.196  29.907  1.00  0.00    -0.248 NA
ATOM     52  C   UNL A   1      44.665  24.028  29.325  1.00  0.00     0.031 C 
ATOM     53  C   UNL A   1      46.589  29.130  31.992  1.00  0.00     0.029 A 
ATOM     54  C   UNL A   1      45.792  28.172  31.390  1.00  0.00     0.049 A 
ATOM     55  H   UNL A   1      43.778  28.309  30.774  1.00  0.00     0.167 HD
ATOM     56  C   UNL A   1      45.300  25.972  30.365  1.00  0.00     0.074 A 
ATOM     57  C   UNL A   1      45.652  24.617  29.989  1.00  0.00     0.031 C 
ATOM     58  C   UNL A   1      46.125  26.821  31.024  1.00  0.00     0.031 A 
BRANCH  45  59
ATOM     59  C   UNL A   1      43.528  32.273  32.319  1.00  0.00    -0.014 A 
ATOM     60  C   UNL A   1      43.914  33.381  31.547  1.00  0.00     0.010 A 
ATOM     61  C   UNL A   1      43.294  32.435  33.697  1.00  0.00     0.010 A 
ATOM     62  C   UNL A   1      44.107  34.626  32.152  1.00  0.00     0.020 A 
ATOM     63  C   UNL A   1      43.483  33.678  34.303  1.00  0.00     0.020 A 
ATOM     64  C   UNL A   1      43.911  34.762  33.529  1.00  0.00     0.054 A 
BRANCH  64  65
ATOM     65  S   UNL A   1      44.195  36.363  34.333  1.00  0.00     0.124 S 
ATOM     66  O   UNL A   1      43.800  36.079  35.711  1.00  0.00    -0.237 OA
ATOM     67  O   UNL A   1      45.623  36.596  34.129  1.00  0.00    -0.237 OA
ATOM     68  O   UNL A   1      43.311  37.264  33.599  1.00  0.00    -0.744 OA
ENDBRANCH  64  65
ENDBRANCH  45  59
BRANCH  46  69
ATOM     69  C   UNL A   1      42.159  23.478  27.924  1.00  0.00    -0.014 A 
ATOM     70  C   UNL A   1      42.647  23.288  26.620  1.00  0.00     0.010 A 
ATOM     71  C   UNL A   1      41.543  22.412  28.599  1.00  0.00     0.010 A 
ATOM     72  C   UNL A   1      42.533  22.041  26.001  1.00  0.00     0.020 A 
ATOM     73  C   UNL A   1      41.431  21.163  27.983  1.00  0.00     0.020 A 
ATOM     74  C   UNL A   1      41.927  20.985  26.688  1.00  0.00     0.054 A 
BRANCH  74  75
ATOM     75  S   UNL A   1      41.863  19.333  25.938  1.00  0.00     0.124 S 
ATOM     76  O   UNL A   1      42.363  18.491  27.019  1.00  0.00    -0.237 OA
ATOM     77  O   UNL A   1      40.449  19.167  25.610  1.00  0.00    -0.237 OA
ATOM     78  O   UNL A   1      42.747  19.471  24.783  1.00  0.00    -0.744 OA
ENDBRANCH  74  75
ENDBRANCH  46  69
BRANCH  58  79
ATOM     79  C   UNL A   1      47.487  26.303  31.378  1.00  0.00    -0.014 A 
ATOM     80  C   UNL A   1      48.538  26.385  30.449  1.00  0.00     0.010 A 
ATOM     81  C   UNL A   1      47.724  25.743  32.644  1.00  0.00     0.010 A 
ATOM     82  C   UNL A   1      49.806  25.895  30.773  1.00  0.00     0.020 A 
ATOM     83  C   UNL A   1      48.991  25.251  32.972  1.00  0.00     0.020 A 
ATOM     84  C   UNL A   1      50.021  25.319  32.029  1.00  0.00     0.054 A 
BRANCH  84  85
ATOM     85  S   UNL A   1      51.670  24.698  32.462  1.00  0.00     0.124 S 
ATOM     86  O   UNL A   1      51.799  25.128  33.851  1.00  0.00    -0.237 OA
ATOM     87  O   UNL A   1      51.551  23.254  32.262  1.00  0.00    -0.237 OA
ATOM     88  O   UNL A   1      52.544  25.380  31.511  1.00  0.00    -0.744 OA
ENDBRANCH  84  85
ENDBRANCH  58  79
ENDBRANCH  32  33
ENDBRANCH  24  27
ENDBRANCH  22  23
ENDBRANCH   1  22
TORSDOF 16
ENDMDL
MODEL 3
REMARK VINA RESULT:     -10.6      1.169      8.252
REMARK SMILES CO[C@H]1C[C@@H](C(=O)NCCCNC(=O)c2ccc(-c3c4nc(c(-c5ccc(S(=O)(=O)[O-])cc5)c5ccc([nH]5)c(-c5ccc(S(=O)(=O)[O-])cc5)c5nc(c(-c6ccc(S(=O)(=O)[O-])cc6)c6ccc3[nH]6)C=C5)C=C4)cc2)N(C(=O)c2cscc2C)C1
REMARK SMILES IDX 10 1 9 2 8 3 6 4 7 5 5 7 3 8 4 9 84 10 75 11 2 12 1 13 76 14
REMARK SMILES IDX 77 15 78 16 79 17 82 18 80 19 81 20 83 21 11 22 12 23 13 24
REMARK SMILES IDX 14 26 15 27 16 28 74 29 17 30 73 31 18 32 19 33 20 34 67 35
REMARK SMILES IDX 21 36 72 37 66 38 68 39 22 40 71 41 65 42 64 43 23 45 53 46
REMARK SMILES IDX 34 47 52 48 35 49 38 50 51 51 69 52 36 53 37 54 50 56 70 57
REMARK SMILES IDX 39 58 24 59 25 60 33 61 26 62 32 63 27 64 28 65 29 66 30 67
REMARK SMILES IDX 31 68 54 69 55 70 63 71 56 72 62 73 57 74 58 75 59 76 60 77
REMARK SMILES IDX 61 78 40 79 41 80 49 81 42 82 48 83 43 84 44 85 45 86 46 87
REMARK SMILES IDX 47 88
REMARK H PARENT 8 6 12 25 68 44 38 55
REMARK Flexibility Score: inf
ROOT
ATOM      1  C   UNL A   1      34.171  30.018  27.160  1.00  0.00     0.042 C 
ENDROOT
BRANCH   1   2
ATOM      2  C   UNL A   1      33.554  31.213  27.883  1.00  0.00     0.117 C 
BRANCH   2   3
ATOM      3  N   UNL A   1      34.042  32.500  27.424  1.00  0.00    -0.354 N 
ATOM      4  C   UNL A   1      34.336  33.661  28.058  1.00  0.00     0.242 C 
ATOM      5  O   UNL A   1      35.038  34.449  27.409  1.00  0.00    -0.273 OA
ATOM      6  H   UNL A   1      34.191  32.537  26.451  1.00  0.00     0.163 HD
BRANCH   4   7
ATOM      7  C   UNL A   1      33.785  34.111  29.428  1.00  0.00     0.177 C 
ATOM      8  C   UNL A   1      32.899  35.609  31.041  1.00  0.00     0.139 C 
ATOM      9  C   UNL A   1      33.014  35.419  29.531  1.00  0.00     0.069 C 
ATOM     10  C   UNL A   1      34.313  35.225  31.481  1.00  0.00     0.152 C 
ATOM     11  N   UNL A   1      34.721  34.157  30.572  1.00  0.00    -0.324 N 
BRANCH   8  12
ATOM     12  O   UNL A   1      32.546  36.957  31.317  1.00  0.00    -0.380 OA
ATOM     13  C   UNL A   1      33.543  37.644  32.063  1.00  0.00     0.195 C 
ENDBRANCH   8  12
BRANCH  11  14
ATOM     14  C   UNL A   1      35.162  32.960  31.139  1.00  0.00     0.255 C 
ATOM     15  O   UNL A   1      34.382  32.147  31.626  1.00  0.00    -0.269 OA
BRANCH  14  16
ATOM     16  C   UNL A   1      36.610  32.749  31.170  1.00  0.00     0.053 A 
ATOM     17  C   UNL A   1      37.429  32.943  30.069  1.00  0.00     0.079 A 
ATOM     18  C   UNL A   1      37.386  32.385  32.336  1.00  0.00    -0.028 A 
ATOM     19  S   UNL A   1      39.077  32.662  30.406  1.00  0.00    -0.151 S 
ATOM     20  C   UNL A   1      38.734  32.301  32.038  1.00  0.00     0.069 A 
ATOM     21  C   UNL A   1      36.812  32.115  33.688  1.00  0.00     0.046 C 
ENDBRANCH  14  16
ENDBRANCH  11  14
ENDBRANCH   4   7
ENDBRANCH   2   3
ENDBRANCH   1   2
BRANCH   1  22
ATOM     22  C   UNL A   1      35.565  29.616  27.660  1.00  0.00     0.118 C 
BRANCH  22  23
ATOM     23  N   UNL A   1      35.684  29.695  29.107  1.00  0.00    -0.352 N 
ATOM     24  C   UNL A   1      36.689  29.331  29.965  1.00  0.00     0.251 C 
ATOM     25  H   UNL A   1      34.896  30.080  29.555  1.00  0.00     0.163 HD
ATOM     26  O   UNL A   1      36.430  29.251  31.164  1.00  0.00    -0.269 OA
BRANCH  24  27
ATOM     27  C   UNL A   1      38.068  29.048  29.501  1.00  0.00     0.039 A 
ATOM     28  C   UNL A   1      38.961  28.458  30.406  1.00  0.00     0.014 A 
ATOM     29  C   UNL A   1      38.537  29.485  28.258  1.00  0.00     0.014 A 
ATOM     30  C   UNL A   1      40.303  28.279  30.061  1.00  0.00     0.010 A 
ATOM     31  C   UNL A   1      39.875  29.285  27.903  1.00  0.00     0.010 A 
ATOM     32  C   UNL A   1      40.771  28.690  28.805  1.00  0.00    -0.014 A 
BRANCH  32  33
ATOM     33  C   UNL A   1      42.200  28.530  28.441  1.00  0.00     0.031 A 
ATOM     34  C   UNL A   1      43.178  29.644  28.691  1.00  0.00     0.074 A 
ATOM     35  C   UNL A   1      42.626  27.391  27.866  1.00  0.00     0.049 A 
ATOM     36  N   UNL A   1      44.435  29.730  28.334  1.00  0.00    -0.248 NA
ATOM     37  C   UNL A   1      42.675  30.812  29.426  1.00  0.00     0.031 C 
ATOM     38  C   UNL A   1      41.789  26.230  27.563  1.00  0.00     0.029 A 
ATOM     39  N   UNL A   1      43.876  27.027  27.434  1.00  0.00    -0.354 N 
ATOM     40  C   UNL A   1      44.861  30.981  28.758  1.00  0.00     0.074 A 
ATOM     41  C   UNL A   1      43.737  31.607  29.424  1.00  0.00     0.031 C 
ATOM     42  C   UNL A   1      42.551  25.277  27.002  1.00  0.00     0.029 A 
ATOM     43  C   UNL A   1      43.924  25.767  26.892  1.00  0.00     0.049 A 
ATOM     44  H   UNL A   1      44.663  27.615  27.504  1.00  0.00     0.167 HD
ATOM     45  C   UNL A   1      46.073  31.567  28.593  1.00  0.00     0.031 A 
ATOM     46  C   UNL A   1      44.953  25.082  26.360  1.00  0.00     0.031 A 
ATOM     47  C   UNL A   1      47.207  30.947  27.966  1.00  0.00     0.049 A 
ATOM     48  C   UNL A   1      46.313  25.709  26.283  1.00  0.00     0.074 A 
ATOM     49  C   UNL A   1      48.459  31.484  27.715  1.00  0.00     0.029 A 
ATOM     50  N   UNL A   1      47.236  29.639  27.511  1.00  0.00    -0.354 N 
ATOM     51  N   UNL A   1      46.680  26.917  26.633  1.00  0.00    -0.248 NA
ATOM     52  C   UNL A   1      47.396  24.878  25.739  1.00  0.00     0.031 C 
ATOM     53  C   UNL A   1      49.252  30.489  27.123  1.00  0.00     0.029 A 
ATOM     54  C   UNL A   1      48.490  29.339  27.006  1.00  0.00     0.049 A 
ATOM     55  H   UNL A   1      46.475  29.014  27.543  1.00  0.00     0.167 HD
ATOM     56  C   UNL A   1      48.035  26.998  26.338  1.00  0.00     0.074 A 
ATOM     57  C   UNL A   1      48.427  25.712  25.800  1.00  0.00     0.031 C 
ATOM     58  C   UNL A   1      48.872  28.053  26.487  1.00  0.00     0.031 A 
BRANCH  45  59
ATOM     59  C   UNL A   1      46.201  32.977  29.087  1.00  0.00    -0.014 A 
ATOM     60  C   UNL A   1      46.621  33.242  30.401  1.00  0.00     0.010 A 
ATOM     61  C   UNL A   1      45.862  34.045  28.238  1.00  0.00     0.010 A 
ATOM     62  C   UNL A   1      46.659  34.557  30.875  1.00  0.00     0.020 A 
ATOM     63  C   UNL A   1      45.903  35.359  28.707  1.00  0.00     0.020 A 
ATOM     64  C   UNL A   1      46.280  35.605  30.031  1.00  0.00     0.054 A 
BRANCH  64  65
ATOM     65  S   UNL A   1      46.288  37.312  30.646  1.00  0.00     0.124 S 
ATOM     66  O   UNL A   1      45.796  38.049  29.484  1.00  0.00    -0.237 OA
ATOM     67  O   UNL A   1      45.378  37.266  31.787  1.00  0.00    -0.237 OA
ATOM     68  O   UNL A   1      47.692  37.537  30.982  1.00  0.00    -0.744 OA
ENDBRANCH  64  65
ENDBRANCH  45  59
BRANCH  46  69
ATOM     69  C   UNL A   1      44.718  23.711  25.850  1.00  0.00    -0.014 A 
ATOM     70  C   UNL A   1      44.758  23.458  24.469  1.00  0.00     0.010 A 
ATOM     71  C   UNL A   1      44.521  22.648  26.747  1.00  0.00     0.010 A 
ATOM     72  C   UNL A   1      44.617  22.154  23.988  1.00  0.00     0.020 A 
ATOM     73  C   UNL A   1      44.384  21.343  26.269  1.00  0.00     0.020 A 
ATOM     74  C   UNL A   1      44.433  21.103  24.893  1.00  0.00     0.054 A 
BRANCH  74  75
ATOM     75  S   UNL A   1      44.351  19.393  24.291  1.00  0.00     0.124 S 
ATOM     76  O   UNL A   1      43.066  18.948  24.820  1.00  0.00    -0.237 OA
ATOM     77  O   UNL A   1      44.420  19.542  22.839  1.00  0.00    -0.237 OA
ATOM     78  O   UNL A   1      45.531  18.782  24.899  1.00  0.00    -0.744 OA
ENDBRANCH  74  75
ENDBRANCH  46  69
BRANCH  58  79
ATOM     79  C   UNL A   1      50.295  27.851  26.059  1.00  0.00    -0.014 A 
ATOM     80  C   UNL A   1      50.681  28.122  24.735  1.00  0.00     0.010 A 
ATOM     81  C   UNL A   1      51.255  27.403  26.982  1.00  0.00     0.010 A 
ATOM     82  C   UNL A   1      52.005  27.927  24.332  1.00  0.00     0.020 A 
ATOM     83  C   UNL A   1      52.580  27.206  26.582  1.00  0.00     0.020 A 
ATOM     84  C   UNL A   1      52.943  27.457  25.256  1.00  0.00     0.054 A 
BRANCH  84  85
ATOM     85  S   UNL A   1      54.668  27.219  24.744  1.00  0.00     0.124 S 
ATOM     86  O   UNL A   1      54.731  25.773  24.557  1.00  0.00    -0.237 OA
ATOM     87  O   UNL A   1      54.770  28.014  23.521  1.00  0.00    -0.237 OA
ATOM     88  O   UNL A   1      55.427  27.739  25.878  1.00  0.00    -0.744 OA
ENDBRANCH  84  85
ENDBRANCH  58  79
ENDBRANCH  32  33
ENDBRANCH  24  27
ENDBRANCH  22  23
ENDBRANCH   1  22
TORSDOF 16
ENDMDL
