MODEL 1
REMARK VINA RESULT:     -13.2      0.000      0.000
REMARK SMILES Cc1ccccc1O[C@@H](C)C(=O)Oc1ccccc1C(=O)NCCCNC(=O)c1ccc(-c2c3nc(c(-c4ccc(S(=O)(=O)[O-])cc4)c4ccc([nH]4)c(-c4ccc(S(=O)(=O)[O-])cc4)c4nc(c(-c5ccc(S(=O)(=O)[O-])cc5)c5ccc2[nH]5)C=C4)C=C3)cc1
REMARK SMILES IDX 23 1 22 2 20 3 21 4 19 6 14 7 15 8 16 9 18 10 17 11 13 12
REMARK SMILES IDX 11 13 12 14 9 15 10 16 8 17 7 18 1 19 2 20 3 21 4 22 6 23
REMARK SMILES IDX 5 24 24 25 25 26 26 27 27 28 28 30 29 31 30 32 88 33 31 34
REMARK SMILES IDX 87 35 32 36 33 37 34 38 81 39 35 40 86 41 80 42 82 43 36 44
REMARK SMILES IDX 85 45 79 46 78 47 37 49 67 50 48 51 66 52 49 53 52 54 65 55
REMARK SMILES IDX 83 56 50 57 51 58 64 60 84 61 53 62 38 63 39 64 47 65 40 66
REMARK SMILES IDX 46 67 41 68 42 69 43 70 44 71 45 72 68 73 69 74 77 75 70 76
REMARK SMILES IDX 76 77 71 78 72 79 73 80 74 81 75 82 54 83 55 84 63 85 56 86
REMARK SMILES IDX 62 87 57 88 58 89 59 90 60 91 61 92
REMARK H PARENT 22 5 26 29 82 48 52 59
REMARK Flexibility Score: inf
ROOT
ATOM      1  C   UNL A   1      36.901  21.288  25.392  1.00  0.00     0.118 C 
ENDROOT
BRANCH   1   2
ATOM      2  N   UNL A   1      35.762  21.530  26.276  1.00  0.00    -0.352 N 
ATOM      3  C   UNL A   1      34.403  21.344  26.194  1.00  0.00     0.255 C 
ATOM      4  O   UNL A   1      33.775  21.465  27.249  1.00  0.00    -0.269 OA
ATOM      5  H   UNL A   1      36.035  21.920  27.137  1.00  0.00     0.163 HD
BRANCH   3   6
ATOM      6  C   UNL A   1      33.649  21.018  24.940  1.00  0.00     0.082 A 
ATOM      7  C   UNL A   1      33.163  22.050  24.109  1.00  0.00     0.143 A 
ATOM      8  C   UNL A   1      32.380  21.789  22.974  1.00  0.00     0.048 A 
ATOM      9  C   UNL A   1      32.067  20.479  22.636  1.00  0.00     0.004 A 
ATOM     10  C   UNL A   1      33.300  19.711  24.577  1.00  0.00     0.018 A 
ATOM     11  C   UNL A   1      32.525  19.442  23.439  1.00  0.00     0.001 A 
BRANCH   7  12
ATOM     12  O   UNL A   1      33.212  23.417  24.454  1.00  0.00    -0.423 OA
BRANCH  12  13
ATOM     13  C   UNL A   1      34.140  24.266  23.881  1.00  0.00     0.352 C 
ATOM     14  O   UNL A   1      34.933  23.945  23.000  1.00  0.00    -0.247 OA
BRANCH  13  15
ATOM     15  C   UNL A   1      34.042  25.699  24.492  1.00  0.00     0.280 C 
ATOM     16  C   UNL A   1      33.164  25.705  25.750  1.00  0.00     0.066 C 
BRANCH  15  17
ATOM     17  O   UNL A   1      33.797  26.947  23.850  1.00  0.00    -0.479 OA
BRANCH  17  18
ATOM     18  C   UNL A   1      32.577  27.548  23.877  1.00  0.00     0.123 A 
ATOM     19  C   UNL A   1      33.192  29.388  25.574  1.00  0.00     0.048 C 
ATOM     20  C   UNL A   1      32.262  28.698  24.617  1.00  0.00    -0.009 A 
ATOM     21  C   UNL A   1      31.018  29.324  24.395  1.00  0.00     0.007 A 
ATOM     22  C   UNL A   1      30.126  28.849  23.435  1.00  0.00     0.001 A 
ATOM     23  C   UNL A   1      31.679  27.087  22.903  1.00  0.00     0.047 A 
ATOM     24  C   UNL A   1      30.461  27.732  22.681  1.00  0.00     0.004 A 
ENDBRANCH  17  18
ENDBRANCH  15  17
ENDBRANCH  13  15
ENDBRANCH  12  13
ENDBRANCH   7  12
ENDBRANCH   3   6
ENDBRANCH   1   2
BRANCH   1  25
ATOM     25  C   UNL A   1      37.641  22.555  24.974  1.00  0.00     0.042 C 
BRANCH  25  26
ATOM     26  C   UNL A   1      37.914  23.482  26.153  1.00  0.00     0.118 C 
BRANCH  26  27
ATOM     27  N   UNL A   1      39.099  23.116  26.925  1.00  0.00    -0.352 N 
ATOM     28  C   UNL A   1      39.990  23.975  27.544  1.00  0.00     0.251 C 
ATOM     29  H   UNL A   1      39.283  22.153  27.015  1.00  0.00     0.163 HD
ATOM     30  O   UNL A   1      41.078  23.614  27.963  1.00  0.00    -0.269 OA
BRANCH  28  31
ATOM     31  C   UNL A   1      39.503  25.344  27.798  1.00  0.00     0.039 A 
ATOM     32  C   UNL A   1      39.950  26.340  26.922  1.00  0.00     0.014 A 
ATOM     33  C   UNL A   1      38.928  25.659  29.026  1.00  0.00     0.014 A 
ATOM     34  C   UNL A   1      39.990  27.661  27.357  1.00  0.00     0.010 A 
ATOM     35  C   UNL A   1      39.046  26.957  29.485  1.00  0.00     0.010 A 
ATOM     36  C   UNL A   1      39.631  27.942  28.674  1.00  0.00    -0.014 A 
BRANCH  36  37
ATOM     37  C   UNL A   1      39.909  29.218  29.324  1.00  0.00     0.031 A 
ATOM     38  C   UNL A   1      38.938  30.330  29.206  1.00  0.00     0.074 A 
ATOM     39  C   UNL A   1      41.008  29.363  30.100  1.00  0.00     0.049 A 
ATOM     40  N   UNL A   1      39.204  31.566  29.471  1.00  0.00    -0.248 NA
ATOM     41  C   UNL A   1      37.589  30.138  28.675  1.00  0.00     0.031 C 
ATOM     42  C   UNL A   1      41.253  30.422  31.077  1.00  0.00     0.029 A 
ATOM     43  N   UNL A   1      42.241  28.712  29.995  1.00  0.00    -0.354 N 
ATOM     44  C   UNL A   1      38.006  32.243  29.488  1.00  0.00     0.074 A 
ATOM     45  C   UNL A   1      37.073  31.360  28.834  1.00  0.00     0.031 C 
ATOM     46  C   UNL A   1      42.578  30.552  31.244  1.00  0.00     0.029 A 
ATOM     47  C   UNL A   1      43.217  29.688  30.267  1.00  0.00     0.049 A 
ATOM     48  H   UNL A   1      42.395  27.765  29.777  1.00  0.00     0.167 HD
ATOM     49  C   UNL A   1      37.900  33.395  30.209  1.00  0.00     0.031 A 
ATOM     50  C   UNL A   1      44.174  30.085  29.378  1.00  0.00     0.031 A 
ATOM     51  C   UNL A   1      39.216  33.917  30.581  1.00  0.00     0.049 A 
ATOM     52  C   UNL A   1      44.142  31.574  29.091  1.00  0.00     0.074 A 
ATOM     53  C   UNL A   1      39.920  33.986  31.770  1.00  0.00     0.029 A 
ATOM     54  N   UNL A   1      40.119  34.239  29.572  1.00  0.00    -0.354 N 
ATOM     55  N   UNL A   1      43.153  32.358  29.422  1.00  0.00    -0.248 NA
ATOM     56  C   UNL A   1      45.193  32.289  28.371  1.00  0.00     0.031 C 
ATOM     57  C   UNL A   1      41.286  34.235  31.453  1.00  0.00     0.029 A 
ATOM     58  C   UNL A   1      41.396  34.366  30.079  1.00  0.00     0.049 A 
ATOM     59  H   UNL A   1      39.879  34.362  28.625  1.00  0.00     0.167 HD
ATOM     60  C   UNL A   1      43.400  33.631  28.986  1.00  0.00     0.074 A 
ATOM     61  C   UNL A   1      44.700  33.541  28.344  1.00  0.00     0.031 C 
ATOM     62  C   UNL A   1      42.511  34.650  29.182  1.00  0.00     0.031 A 
BRANCH  49  63
ATOM     63  C   UNL A   1      36.592  33.905  30.793  1.00  0.00    -0.014 A 
ATOM     64  C   UNL A   1      35.440  33.983  29.981  1.00  0.00     0.010 A 
ATOM     65  C   UNL A   1      36.456  34.447  32.088  1.00  0.00     0.010 A 
ATOM     66  C   UNL A   1      34.253  34.604  30.419  1.00  0.00     0.020 A 
ATOM     67  C   UNL A   1      35.276  35.049  32.548  1.00  0.00     0.020 A 
ATOM     68  C   UNL A   1      34.185  35.146  31.701  1.00  0.00     0.054 A 
BRANCH  68  69
ATOM     69  S   UNL A   1      32.685  36.001  32.250  1.00  0.00     0.124 S 
ATOM     70  O   UNL A   1      32.299  36.751  31.057  1.00  0.00    -0.237 OA
ATOM     71  O   UNL A   1      31.804  34.898  32.617  1.00  0.00    -0.237 OA
ATOM     72  O   UNL A   1      33.144  36.822  33.370  1.00  0.00    -0.744 OA
ENDBRANCH  68  69
ENDBRANCH  49  63
BRANCH  50  73
ATOM     73  C   UNL A   1      44.603  29.029  28.421  1.00  0.00    -0.014 A 
ATOM     74  C   UNL A   1      44.039  29.067  27.127  1.00  0.00     0.010 A 
ATOM     75  C   UNL A   1      45.811  28.338  28.616  1.00  0.00     0.010 A 
ATOM     76  C   UNL A   1      44.757  28.598  26.026  1.00  0.00     0.020 A 
ATOM     77  C   UNL A   1      46.531  27.861  27.510  1.00  0.00     0.020 A 
ATOM     78  C   UNL A   1      46.030  28.064  26.220  1.00  0.00     0.054 A 
BRANCH  78  79
ATOM     79  S   UNL A   1      47.092  27.843  24.759  1.00  0.00     0.124 S 
ATOM     80  O   UNL A   1      48.432  27.916  25.330  1.00  0.00    -0.237 OA
ATOM     81  O   UNL A   1      46.682  26.519  24.287  1.00  0.00    -0.237 OA
ATOM     82  O   UNL A   1      46.711  28.955  23.896  1.00  0.00    -0.744 OA
ENDBRANCH  78  79
ENDBRANCH  50  73
BRANCH  62  83
ATOM     83  C   UNL A   1      42.615  36.040  28.597  1.00  0.00    -0.014 A 
ATOM     84  C   UNL A   1      42.073  36.420  27.358  1.00  0.00     0.010 A 
ATOM     85  C   UNL A   1      43.176  37.069  29.393  1.00  0.00     0.010 A 
ATOM     86  C   UNL A   1      42.140  37.748  26.910  1.00  0.00     0.020 A 
ATOM     87  C   UNL A   1      43.210  38.402  28.974  1.00  0.00     0.020 A 
ATOM     88  C   UNL A   1      42.710  38.731  27.720  1.00  0.00     0.054 A 
BRANCH  88  89
ATOM     89  S   UNL A   1      42.730  40.457  27.173  1.00  0.00     0.124 S 
ATOM     90  O   UNL A   1      41.307  40.733  26.990  1.00  0.00    -0.237 OA
ATOM     91  O   UNL A   1      43.362  41.153  28.292  1.00  0.00    -0.237 OA
ATOM     92  O   UNL A   1      43.525  40.416  25.948  1.00  0.00    -0.744 OA
ENDBRANCH  88  89
ENDBRANCH  62  83
ENDBRANCH  36  37
ENDBRANCH  28  31
ENDBRANCH  26  27
ENDBRANCH  25  26
ENDBRANCH   1  25
TORSDOF 18
ENDMDL
MODEL 2
REMARK VINA RESULT:     -12.3      2.309      4.492
REMARK SMILES Cc1ccccc1O[C@@H](C)C(=O)Oc1ccccc1C(=O)NCCCNC(=O)c1ccc(-c2c3nc(c(-c4ccc(S(=O)(=O)[O-])cc4)c4ccc([nH]4)c(-c4ccc(S(=O)(=O)[O-])cc4)c4nc(c(-c5ccc(S(=O)(=O)[O-])cc5)c5ccc2[nH]5)C=C4)C=C3)cc1
REMARK SMILES IDX 23 1 22 2 20 3 21 4 19 6 14 7 15 8 16 9 18 10 17 11 13 12
REMARK SMILES IDX 11 13 12 14 9 15 10 16 8 17 7 18 1 19 2 20 3 21 4 22 6 23
REMARK SMILES IDX 5 24 24 25 25 26 26 27 27 28 28 30 29 31 30 32 88 33 31 34
REMARK SMILES IDX 87 35 32 36 33 37 34 38 81 39 35 40 86 41 80 42 82 43 36 44
REMARK SMILES IDX 85 45 79 46 78 47 37 49 67 50 48 51 66 52 49 53 52 54 65 55
REMARK SMILES IDX 83 56 50 57 51 58 64 60 84 61 53 62 38 63 39 64 47 65 40 66
REMARK SMILES IDX 46 67 41 68 42 69 43 70 44 71 45 72 68 73 69 74 77 75 70 76
REMARK SMILES IDX 76 77 71 78 72 79 73 80 74 81 75 82 54 83 55 84 63 85 56 86
REMARK SMILES IDX 62 87 57 88 58 89 59 90 60 91 61 92
REMARK H PARENT 22 5 26 29 82 48 52 59
REMARK Flexibility Score: inf
ROOT
ATOM      1  C   UNL A   1      36.412  23.218  23.223  1.00  0.00     0.118 C 
ENDROOT
BRANCH   1   2
ATOM      2  N   UNL A   1      35.009  23.154  22.821  1.00  0.00    -0.352 N 
ATOM      3  C   UNL A   1      33.935  24.009  22.875  1.00  0.00     0.255 C 
ATOM      4  O   UNL A   1      32.943  23.676  22.221  1.00  0.00    -0.269 OA
ATOM      5  H   UNL A   1      34.778  22.288  22.412  1.00  0.00     0.163 HD
BRANCH   3   6
ATOM      6  C   UNL A   1      33.884  25.284  23.660  1.00  0.00     0.082 A 
ATOM      7  C   UNL A   1      34.038  25.268  25.063  1.00  0.00     0.143 A 
ATOM      8  C   UNL A   1      33.912  26.428  25.842  1.00  0.00     0.048 A 
ATOM      9  C   UNL A   1      33.633  27.644  25.233  1.00  0.00     0.004 A 
ATOM     10  C   UNL A   1      33.587  26.526  23.082  1.00  0.00     0.018 A 
ATOM     11  C   UNL A   1      33.468  27.691  23.854  1.00  0.00     0.001 A 
BRANCH   7  12
ATOM     12  O   UNL A   1      34.098  24.083  25.827  1.00  0.00    -0.423 OA
BRANCH  12  13
ATOM     13  C   UNL A   1      32.957  23.350  26.098  1.00  0.00     0.352 C 
ATOM     14  O   UNL A   1      31.891  23.827  26.474  1.00  0.00    -0.247 OA
BRANCH  13  15
ATOM     15  C   UNL A   1      33.198  21.827  25.851  1.00  0.00     0.280 C 
ATOM     16  C   UNL A   1      33.681  21.129  27.129  1.00  0.00     0.066 C 
BRANCH  15  17
ATOM     17  O   UNL A   1      33.876  21.176  24.780  1.00  0.00    -0.479 OA
BRANCH  17  18
ATOM     18  C   UNL A   1      33.478  19.966  24.302  1.00  0.00     0.123 A 
ATOM     19  C   UNL A   1      31.775  20.868  22.592  1.00  0.00     0.048 C 
ATOM     20  C   UNL A   1      32.551  19.773  23.267  1.00  0.00    -0.009 A 
ATOM     21  C   UNL A   1      32.384  18.476  22.741  1.00  0.00     0.007 A 
ATOM     22  C   UNL A   1      33.148  17.403  23.200  1.00  0.00     0.001 A 
ATOM     23  C   UNL A   1      34.252  18.883  24.745  1.00  0.00     0.047 A 
ATOM     24  C   UNL A   1      34.090  17.608  24.199  1.00  0.00     0.004 A 
ENDBRANCH  17  18
ENDBRANCH  15  17
ENDBRANCH  13  15
ENDBRANCH  12  13
ENDBRANCH   7  12
ENDBRANCH   3   6
ENDBRANCH   1   2
BRANCH   1  25
ATOM     25  C   UNL A   1      36.797  22.204  24.296  1.00  0.00     0.042 C 
BRANCH  25  26
ATOM     26  C   UNL A   1      37.307  22.871  25.567  1.00  0.00     0.118 C 
BRANCH  26  27
ATOM     27  N   UNL A   1      38.446  22.185  26.174  1.00  0.00    -0.352 N 
ATOM     28  C   UNL A   1      39.592  22.766  26.690  1.00  0.00     0.251 C 
ATOM     29  H   UNL A   1      38.391  21.204  26.221  1.00  0.00     0.163 HD
ATOM     30  O   UNL A   1      40.595  22.126  26.960  1.00  0.00    -0.269 OA
BRANCH  28  31
ATOM     31  C   UNL A   1      39.498  24.198  27.030  1.00  0.00     0.039 A 
ATOM     32  C   UNL A   1      40.141  25.090  26.165  1.00  0.00     0.014 A 
ATOM     33  C   UNL A   1      39.098  24.582  28.307  1.00  0.00     0.014 A 
ATOM     34  C   UNL A   1      40.552  26.328  26.647  1.00  0.00     0.010 A 
ATOM     35  C   UNL A   1      39.580  25.777  28.807  1.00  0.00     0.010 A 
ATOM     36  C   UNL A   1      40.356  26.620  27.995  1.00  0.00    -0.014 A 
BRANCH  36  37
ATOM     37  C   UNL A   1      40.998  27.741  28.674  1.00  0.00     0.031 A 
ATOM     38  C   UNL A   1      40.229  28.980  28.932  1.00  0.00     0.074 A 
ATOM     39  C   UNL A   1      42.263  27.623  29.139  1.00  0.00     0.049 A 
ATOM     40  N   UNL A   1      40.757  30.118  29.241  1.00  0.00    -0.248 NA
ATOM     41  C   UNL A   1      38.779  29.051  28.764  1.00  0.00     0.031 C 
ATOM     42  C   UNL A   1      42.917  28.489  30.118  1.00  0.00     0.029 A 
ATOM     43  N   UNL A   1      43.304  26.831  28.644  1.00  0.00    -0.354 N 
ATOM     44  C   UNL A   1      39.732  30.942  29.645  1.00  0.00     0.074 A 
ATOM     45  C   UNL A   1      38.531  30.297  29.178  1.00  0.00     0.031 C 
ATOM     46  C   UNL A   1      44.244  28.412  29.937  1.00  0.00     0.029 A 
ATOM     47  C   UNL A   1      44.466  27.616  28.743  1.00  0.00     0.049 A 
ATOM     48  H   UNL A   1      43.237  25.912  28.298  1.00  0.00     0.167 HD
ATOM     49  C   UNL A   1      40.004  31.985  30.481  1.00  0.00     0.031 A 
ATOM     50  C   UNL A   1      45.227  28.001  27.677  1.00  0.00     0.031 A 
ATOM     51  C   UNL A   1      41.440  32.264  30.540  1.00  0.00     0.049 A 
ATOM     52  C   UNL A   1      45.376  29.506  27.561  1.00  0.00     0.074 A 
ATOM     53  C   UNL A   1      42.417  32.067  31.499  1.00  0.00     0.029 A 
ATOM     54  N   UNL A   1      42.105  32.600  29.365  1.00  0.00    -0.354 N 
ATOM     55  N   UNL A   1      44.647  30.362  28.221  1.00  0.00    -0.248 NA
ATOM     56  C   UNL A   1      46.320  30.166  26.663  1.00  0.00     0.031 C 
ATOM     57  C   UNL A   1      43.684  32.170  30.856  1.00  0.00     0.029 A 
ATOM     58  C   UNL A   1      43.471  32.478  29.523  1.00  0.00     0.049 A 
ATOM     59  H   UNL A   1      41.662  32.887  28.533  1.00  0.00     0.167 HD
ATOM     60  C   UNL A   1      44.989  31.639  27.867  1.00  0.00     0.074 A 
ATOM     61  C   UNL A   1      46.055  31.464  26.896  1.00  0.00     0.031 C 
ATOM     62  C   UNL A   1      44.361  32.731  28.395  1.00  0.00     0.031 A 
BRANCH  49  63
ATOM     63  C   UNL A   1      38.986  32.580  31.442  1.00  0.00    -0.014 A 
ATOM     64  C   UNL A   1      38.538  31.828  32.549  1.00  0.00     0.010 A 
ATOM     65  C   UNL A   1      38.330  33.813  31.243  1.00  0.00     0.010 A 
ATOM     66  C   UNL A   1      37.476  32.259  33.369  1.00  0.00     0.020 A 
ATOM     67  C   UNL A   1      37.287  34.267  32.062  1.00  0.00     0.020 A 
ATOM     68  C   UNL A   1      36.848  33.476  33.110  1.00  0.00     0.054 A 
BRANCH  68  69
ATOM     69  S   UNL A   1      35.442  34.008  34.120  1.00  0.00     0.124 S 
ATOM     70  O   UNL A   1      35.860  33.621  35.465  1.00  0.00    -0.237 OA
ATOM     71  O   UNL A   1      35.387  35.443  33.862  1.00  0.00    -0.237 OA
ATOM     72  O   UNL A   1      34.318  33.242  33.582  1.00  0.00    -0.744 OA
ENDBRANCH  68  69
ENDBRANCH  49  63
BRANCH  50  73
ATOM     73  C   UNL A   1      45.221  27.043  26.537  1.00  0.00    -0.014 A 
ATOM     74  C   UNL A   1      46.352  26.211  26.392  1.00  0.00     0.010 A 
ATOM     75  C   UNL A   1      44.009  26.656  25.939  1.00  0.00     0.010 A 
ATOM     76  C   UNL A   1      46.228  24.938  25.832  1.00  0.00     0.020 A 
ATOM     77  C   UNL A   1      43.886  25.378  25.372  1.00  0.00     0.020 A 
ATOM     78  C   UNL A   1      44.978  24.505  25.393  1.00  0.00     0.054 A 
BRANCH  78  79
ATOM     79  S   UNL A   1      44.763  22.730  25.055  1.00  0.00     0.124 S 
ATOM     80  O   UNL A   1      43.729  22.350  26.012  1.00  0.00    -0.237 OA
ATOM     81  O   UNL A   1      44.347  22.739  23.652  1.00  0.00    -0.237 OA
ATOM     82  O   UNL A   1      46.089  22.177  25.306  1.00  0.00    -0.744 OA
ENDBRANCH  78  79
ENDBRANCH  50  73
BRANCH  62  83
ATOM     83  C   UNL A   1      44.549  34.163  27.947  1.00  0.00    -0.014 A 
ATOM     84  C   UNL A   1      43.651  34.859  27.122  1.00  0.00     0.010 A 
ATOM     85  C   UNL A   1      45.625  34.905  28.491  1.00  0.00     0.010 A 
ATOM     86  C   UNL A   1      43.849  36.213  26.808  1.00  0.00     0.020 A 
ATOM     87  C   UNL A   1      45.808  36.264  28.218  1.00  0.00     0.020 A 
ATOM     88  C   UNL A   1      44.929  36.906  27.356  1.00  0.00     0.054 A 
BRANCH  88  89
ATOM     89  S   UNL A   1      45.142  38.671  27.009  1.00  0.00     0.124 S 
ATOM     90  O   UNL A   1      43.805  39.055  26.562  1.00  0.00    -0.237 OA
ATOM     91  O   UNL A   1      45.549  39.216  28.302  1.00  0.00    -0.237 OA
ATOM     92  O   UNL A   1      46.179  38.692  25.980  1.00  0.00    -0.744 OA
ENDBRANCH  88  89
ENDBRANCH  62  83
ENDBRANCH  36  37
ENDBRANCH  28  31
ENDBRANCH  26  27
ENDBRANCH  25  26
ENDBRANCH   1  25
TORSDOF 18
ENDMDL
MODEL 3
REMARK VINA RESULT:     -11.6      1.739      4.028
REMARK SMILES Cc1ccccc1O[C@@H](C)C(=O)Oc1ccccc1C(=O)NCCCNC(=O)c1ccc(-c2c3nc(c(-c4ccc(S(=O)(=O)[O-])cc4)c4ccc([nH]4)c(-c4ccc(S(=O)(=O)[O-])cc4)c4nc(c(-c5ccc(S(=O)(=O)[O-])cc5)c5ccc2[nH]5)C=C4)C=C3)cc1
REMARK SMILES IDX 23 1 22 2 20 3 21 4 19 6 14 7 15 8 16 9 18 10 17 11 13 12
REMARK SMILES IDX 11 13 12 14 9 15 10 16 8 17 7 18 1 19 2 20 3 21 4 22 6 23
REMARK SMILES IDX 5 24 24 25 25 26 26 27 27 28 28 30 29 31 30 32 88 33 31 34
REMARK SMILES IDX 87 35 32 36 33 37 34 38 81 39 35 40 86 41 80 42 82 43 36 44
REMARK SMILES IDX 85 45 79 46 78 47 37 49 67 50 48 51 66 52 49 53 52 54 65 55
REMARK SMILES IDX 83 56 50 57 51 58 64 60 84 61 53 62 38 63 39 64 47 65 40 66
REMARK SMILES IDX 46 67 41 68 42 69 43 70 44 71 45 72 68 73 69 74 77 75 70 76
REMARK SMILES IDX 76 77 71 78 72 79 73 80 74 81 75 82 54 83 55 84 63 85 56 86
REMARK SMILES IDX 62 87 57 88 58 89 59 90 60 91 61 92
REMARK H PARENT 22 5 26 29 82 48 52 59
REMARK Flexibility Score: inf
ROOT
ATOM      1  C   UNL A   1      36.401  23.407  25.110  1.00  0.00     0.118 C 
ENDROOT
BRANCH   1   2
ATOM      2  N   UNL A   1      35.465  23.312  23.992  1.00  0.00    -0.352 N 
ATOM      3  C   UNL A   1      34.483  24.118  23.467  1.00  0.00     0.255 C 
ATOM      4  O   UNL A   1      34.047  23.790  22.361  1.00  0.00    -0.269 OA
ATOM      5  H   UNL A   1      35.561  22.468  23.496  1.00  0.00     0.163 HD
BRANCH   3   6
ATOM      6  C   UNL A   1      33.917  25.336  24.132  1.00  0.00     0.082 A 
ATOM      7  C   UNL A   1      33.509  25.290  25.483  1.00  0.00     0.143 A 
ATOM      8  C   UNL A   1      32.896  26.381  26.116  1.00  0.00     0.048 A 
ATOM      9  C   UNL A   1      32.680  27.558  25.412  1.00  0.00     0.004 A 
ATOM     10  C   UNL A   1      33.667  26.533  23.449  1.00  0.00     0.018 A 
ATOM     11  C   UNL A   1      33.063  27.632  24.078  1.00  0.00     0.001 A 
BRANCH   7  12
ATOM     12  O   UNL A   1      33.462  24.101  26.242  1.00  0.00    -0.423 OA
BRANCH  12  13
ATOM     13  C   UNL A   1      32.471  23.160  26.035  1.00  0.00     0.352 C 
ATOM     14  O   UNL A   1      31.279  23.418  25.891  1.00  0.00    -0.247 OA
BRANCH  13  15
ATOM     15  C   UNL A   1      33.066  21.718  25.998  1.00  0.00     0.280 C 
ATOM     16  C   UNL A   1      33.779  21.378  27.314  1.00  0.00     0.066 C 
BRANCH  15  17
ATOM     17  O   UNL A   1      33.822  21.072  24.977  1.00  0.00    -0.479 OA
BRANCH  17  18
ATOM     18  C   UNL A   1      33.394  19.932  24.370  1.00  0.00     0.123 A 
ATOM     19  C   UNL A   1      31.894  21.076  22.614  1.00  0.00     0.048 C 
ATOM     20  C   UNL A   1      32.545  19.883  23.255  1.00  0.00    -0.009 A 
ATOM     21  C   UNL A   1      32.345  18.644  22.612  1.00  0.00     0.007 A 
ATOM     22  C   UNL A   1      33.002  17.490  23.038  1.00  0.00     0.001 A 
ATOM     23  C   UNL A   1      34.061  18.769  24.782  1.00  0.00     0.047 A 
ATOM     24  C   UNL A   1      33.868  17.554  24.120  1.00  0.00     0.004 A 
ENDBRANCH  17  18
ENDBRANCH  15  17
ENDBRANCH  13  15
ENDBRANCH  12  13
ENDBRANCH   7  12
ENDBRANCH   3   6
ENDBRANCH   1   2
BRANCH   1  25
ATOM     25  C   UNL A   1      37.763  22.776  24.834  1.00  0.00     0.042 C 
BRANCH  25  26
ATOM     26  C   UNL A   1      38.279  21.972  26.021  1.00  0.00     0.118 C 
BRANCH  26  27
ATOM     27  N   UNL A   1      39.731  21.805  26.031  1.00  0.00    -0.352 N 
ATOM     28  C   UNL A   1      40.686  22.806  26.084  1.00  0.00     0.251 C 
ATOM     29  H   UNL A   1      40.065  20.880  25.996  1.00  0.00     0.163 HD
ATOM     30  O   UNL A   1      41.867  22.609  25.849  1.00  0.00    -0.269 OA
BRANCH  28  31
ATOM     31  C   UNL A   1      40.225  24.118  26.577  1.00  0.00     0.039 A 
ATOM     32  C   UNL A   1      40.711  25.245  25.905  1.00  0.00     0.014 A 
ATOM     33  C   UNL A   1      39.635  24.218  27.834  1.00  0.00     0.014 A 
ATOM     34  C   UNL A   1      40.773  26.462  26.574  1.00  0.00     0.010 A 
ATOM     35  C   UNL A   1      39.773  25.407  28.524  1.00  0.00     0.010 A 
ATOM     36  C   UNL A   1      40.395  26.508  27.915  1.00  0.00    -0.014 A 
BRANCH  36  37
ATOM     37  C   UNL A   1      40.691  27.636  28.792  1.00  0.00     0.031 A 
ATOM     38  C   UNL A   1      39.814  28.830  28.773  1.00  0.00     0.074 A 
ATOM     39  C   UNL A   1      41.711  27.563  29.677  1.00  0.00     0.049 A 
ATOM     40  N   UNL A   1      40.134  29.981  29.265  1.00  0.00    -0.248 NA
ATOM     41  C   UNL A   1      38.517  28.839  28.098  1.00  0.00     0.031 C 
ATOM     42  C   UNL A   1      41.925  28.429  30.836  1.00  0.00     0.029 A 
ATOM     43  N   UNL A   1      42.902  26.837  29.578  1.00  0.00    -0.354 N 
ATOM     44  C   UNL A   1      38.989  30.744  29.285  1.00  0.00     0.074 A 
ATOM     45  C   UNL A   1      38.071  30.058  28.411  1.00  0.00     0.031 C 
ATOM     46  C   UNL A   1      43.231  28.420  31.141  1.00  0.00     0.029 A 
ATOM     47  C   UNL A   1      43.907  27.672  30.096  1.00  0.00     0.049 A 
ATOM     48  H   UNL A   1      43.013  25.927  29.219  1.00  0.00     0.167 HD
ATOM     49  C   UNL A   1      38.887  31.772  30.176  1.00  0.00     0.031 A 
ATOM     50  C   UNL A   1      44.976  28.125  29.377  1.00  0.00     0.031 A 
ATOM     51  C   UNL A   1      40.190  32.116  30.747  1.00  0.00     0.049 A 
ATOM     52  C   UNL A   1      45.074  29.638  29.340  1.00  0.00     0.074 A 
ATOM     53  C   UNL A   1      40.771  31.935  31.990  1.00  0.00     0.029 A 
ATOM     54  N   UNL A   1      41.212  32.519  29.892  1.00  0.00    -0.354 N 
ATOM     55  N   UNL A   1      44.112  30.438  29.706  1.00  0.00    -0.248 NA
ATOM     56  C   UNL A   1      46.239  30.368  28.848  1.00  0.00     0.031 C 
ATOM     57  C   UNL A   1      42.176  32.117  31.844  1.00  0.00     0.029 A 
ATOM     58  C   UNL A   1      42.436  32.455  30.527  1.00  0.00     0.049 A 
ATOM     59  H   UNL A   1      41.079  32.810  28.961  1.00  0.00     0.167 HD
ATOM     60  C   UNL A   1      44.488  31.740  29.513  1.00  0.00     0.074 A 
ATOM     61  C   UNL A   1      45.838  31.645  28.986  1.00  0.00     0.031 C 
ATOM     62  C   UNL A   1      43.654  32.785  29.795  1.00  0.00     0.031 A 
BRANCH  49  63
ATOM     63  C   UNL A   1      37.563  32.289  30.716  1.00  0.00    -0.014 A 
ATOM     64  C   UNL A   1      37.202  33.640  30.522  1.00  0.00     0.010 A 
ATOM     65  C   UNL A   1      36.691  31.542  31.535  1.00  0.00     0.010 A 
ATOM     66  C   UNL A   1      36.075  34.212  31.144  1.00  0.00     0.020 A 
ATOM     67  C   UNL A   1      35.554  32.089  32.144  1.00  0.00     0.020 A 
ATOM     68  C   UNL A   1      35.262  33.431  31.965  1.00  0.00     0.054 A 
BRANCH  68  69
ATOM     69  S   UNL A   1      33.848  34.174  32.819  1.00  0.00     0.124 S 
ATOM     70  O   UNL A   1      34.495  34.988  33.844  1.00  0.00    -0.237 OA
ATOM     71  O   UNL A   1      33.181  34.912  31.751  1.00  0.00    -0.237 OA
ATOM     72  O   UNL A   1      33.105  33.021  33.327  1.00  0.00    -0.744 OA
ENDBRANCH  68  69
ENDBRANCH  49  63
BRANCH  50  73
ATOM     73  C   UNL A   1      45.429  27.203  28.299  1.00  0.00    -0.014 A 
ATOM     74  C   UNL A   1      45.046  27.521  26.978  1.00  0.00     0.010 A 
ATOM     75  C   UNL A   1      46.533  26.357  28.503  1.00  0.00     0.010 A 
ATOM     76  C   UNL A   1      45.858  27.165  25.900  1.00  0.00     0.020 A 
ATOM     77  C   UNL A   1      47.346  25.994  27.418  1.00  0.00     0.020 A 
ATOM     78  C   UNL A   1      47.040  26.467  26.137  1.00  0.00     0.054 A 
BRANCH  78  79
ATOM     79  S   UNL A   1      48.260  26.375  24.791  1.00  0.00     0.124 S 
ATOM     80  O   UNL A   1      48.308  27.753  24.315  1.00  0.00    -0.237 OA
ATOM     81  O   UNL A   1      49.455  25.913  25.498  1.00  0.00    -0.237 OA
ATOM     82  O   UNL A   1      47.671  25.409  23.870  1.00  0.00    -0.744 OA
ENDBRANCH  78  79
ENDBRANCH  50  73
BRANCH  62  83
ATOM     83  C   UNL A   1      43.911  34.237  29.462  1.00  0.00    -0.014 A 
ATOM     84  C   UNL A   1      44.235  34.709  28.180  1.00  0.00     0.010 A 
ATOM     85  C   UNL A   1      43.687  35.211  30.465  1.00  0.00     0.010 A 
ATOM     86  C   UNL A   1      44.385  36.082  27.925  1.00  0.00     0.020 A 
ATOM     87  C   UNL A   1      43.793  36.581  30.212  1.00  0.00     0.020 A 
ATOM     88  C   UNL A   1      44.166  37.009  28.944  1.00  0.00     0.054 A 
BRANCH  88  89
ATOM     89  S   UNL A   1      44.288  38.783  28.596  1.00  0.00     0.124 S 
ATOM     90  O   UNL A   1      45.657  38.900  28.100  1.00  0.00    -0.237 OA
ATOM     91  O   UNL A   1      43.242  38.997  27.599  1.00  0.00    -0.237 OA
ATOM     92  O   UNL A   1      44.035  39.402  29.895  1.00  0.00    -0.744 OA
ENDBRANCH  88  89
ENDBRANCH  62  83
ENDBRANCH  36  37
ENDBRANCH  28  31
ENDBRANCH  26  27
ENDBRANCH  25  26
ENDBRANCH   1  25
TORSDOF 18
ENDMDL
