MODEL 1
REMARK VINA RESULT:     -13.4      0.000      0.000
REMARK SMILES Cc1cccc(CNC(=O)N[C@@H](CC2=c3ccccc3=NC2)C(=O)NCCCNC(=O)c2ccc(-c3c4nc(c(-c5ccc(S(=O)(=O)[O-])cc5)c5ccc([nH]5)c(-c5ccc(S(=O)(=O)[O-])cc5)c5nc(c(-c6ccc(S(=O)(=O)[O-])cc6)c6ccc3[nH]6)C=C5)C=C4)cc2)c1
REMARK SMILES IDX 27 1 26 2 25 3 23 4 24 5 12 7 11 8 8 9 9 10 10 12 7 14 6 15
REMARK SMILES IDX 1 16 2 17 3 18 92 19 4 20 5 21 13 22 14 23 15 24 22 25 16 26
REMARK SMILES IDX 20 27 21 28 17 29 19 30 18 31 28 32 29 33 30 34 31 36 32 37
REMARK SMILES IDX 33 38 91 39 34 40 90 41 35 42 36 43 37 44 84 45 38 46 89 47
REMARK SMILES IDX 83 48 85 49 39 50 88 51 82 52 81 53 40 55 70 56 51 57 69 58
REMARK SMILES IDX 52 59 55 60 68 61 86 62 53 63 54 64 67 66 87 67 56 68 41 69
REMARK SMILES IDX 42 70 50 71 43 72 49 73 44 74 45 75 46 76 47 77 48 78 71 79
REMARK SMILES IDX 72 80 80 81 73 82 79 83 74 84 75 85 76 86 77 87 78 88 57 89
REMARK SMILES IDX 58 90 66 91 59 92 65 93 60 94 61 95 62 96 63 97 64 98
REMARK H PARENT 25 6 8 11 11 13 29 35 85 54 55 65
REMARK Flexibility Score: inf
ROOT
ATOM      1  C   UNL A   1      37.202  22.373  26.106  1.00  0.00     0.042 C 
ENDROOT
BRANCH   1   2
ATOM      2  C   UNL A   1      36.899  21.625  24.816  1.00  0.00     0.117 C 
BRANCH   2   3
ATOM      3  N   UNL A   1      35.919  20.562  24.958  1.00  0.00    -0.354 N 
ATOM      4  C   UNL A   1      34.558  20.573  24.853  1.00  0.00     0.242 C 
ATOM      5  O   UNL A   1      34.012  19.472  24.701  1.00  0.00    -0.273 OA
ATOM      6  H   UNL A   1      36.302  19.679  25.165  1.00  0.00     0.163 HD
BRANCH   4   7
ATOM      7  C   UNL A   1      33.681  21.857  24.809  1.00  0.00     0.177 C 
BRANCH   7   8
ATOM      8  N   UNL A   1      32.442  21.687  24.050  1.00  0.00    -0.326 N 
ATOM      9  N   UNL A   1      32.941  22.771  22.021  1.00  0.00    -0.334 N 
ATOM     10  C   UNL A   1      32.248  21.866  22.731  1.00  0.00     0.315 C 
ATOM     11  H   UNL A   1      33.082  22.529  21.077  1.00  0.00     0.165 HD
ATOM     12  O   UNL A   1      31.403  21.180  22.159  1.00  0.00    -0.249 OA
ATOM     13  H   UNL A   1      31.653  21.406  24.569  1.00  0.00     0.166 HD
BRANCH   9  14
ATOM     14  C   UNL A   1      33.515  24.043  22.414  1.00  0.00     0.153 C 
BRANCH  14  15
ATOM     15  C   UNL A   1      32.492  25.131  22.639  1.00  0.00    -0.028 A 
ATOM     16  C   UNL A   1      32.423  28.955  22.753  1.00  0.00     0.044 C 
ATOM     17  C   UNL A   1      31.979  27.523  22.776  1.00  0.00    -0.051 A 
ATOM     18  C   UNL A   1      30.638  27.214  23.023  1.00  0.00     0.003 A 
ATOM     19  C   UNL A   1      32.897  26.478  22.588  1.00  0.00     0.009 A 
ATOM     20  C   UNL A   1      30.217  25.886  23.051  1.00  0.00     0.001 A 
ATOM     21  C   UNL A   1      31.135  24.854  22.854  1.00  0.00     0.005 A 
ENDBRANCH  14  15
ENDBRANCH   9  14
ENDBRANCH   7   8
BRANCH   7  22
ATOM     22  C   UNL A   1      33.460  22.618  26.141  1.00  0.00     0.068 C 
BRANCH  22  23
ATOM     23  C   UNL A   1      32.459  23.721  26.148  1.00  0.00    -0.037 C 
ATOM     24  C   UNL A   1      32.719  25.017  25.995  1.00  0.00     0.001 A 
ATOM     25  C   UNL A   1      31.008  23.506  26.437  1.00  0.00     0.174 C 
ATOM     26  C   UNL A   1      33.911  25.766  25.765  1.00  0.00     0.010 A 
ATOM     27  C   UNL A   1      31.459  25.644  26.428  1.00  0.00     0.065 A 
ATOM     28  N   UNL A   1      30.447  24.858  26.648  1.00  0.00    -0.280 NA
ATOM     29  C   UNL A   1      33.919  27.063  26.102  1.00  0.00     0.001 A 
ATOM     30  C   UNL A   1      31.538  27.084  26.738  1.00  0.00     0.028 A 
ATOM     31  C   UNL A   1      32.736  27.690  26.656  1.00  0.00     0.002 A 
ENDBRANCH  22  23
ENDBRANCH   7  22
ENDBRANCH   4   7
ENDBRANCH   2   3
ENDBRANCH   1   2
BRANCH   1  32
ATOM     32  C   UNL A   1      38.150  23.557  25.896  1.00  0.00     0.118 C 
BRANCH  32  33
ATOM     33  N   UNL A   1      39.460  23.317  26.515  1.00  0.00    -0.352 N 
ATOM     34  C   UNL A   1      40.277  24.164  27.238  1.00  0.00     0.251 C 
ATOM     35  H   UNL A   1      39.813  22.405  26.395  1.00  0.00     0.163 HD
ATOM     36  O   UNL A   1      41.366  23.807  27.676  1.00  0.00    -0.269 OA
BRANCH  34  37
ATOM     37  C   UNL A   1      39.775  25.514  27.515  1.00  0.00     0.039 A 
ATOM     38  C   UNL A   1      40.193  26.557  26.682  1.00  0.00     0.014 A 
ATOM     39  C   UNL A   1      39.198  25.749  28.757  1.00  0.00     0.014 A 
ATOM     40  C   UNL A   1      40.236  27.841  27.201  1.00  0.00     0.010 A 
ATOM     41  C   UNL A   1      39.385  26.991  29.316  1.00  0.00     0.010 A 
ATOM     42  C   UNL A   1      39.952  28.020  28.552  1.00  0.00    -0.014 A 
BRANCH  42  43
ATOM     43  C   UNL A   1      40.227  29.255  29.267  1.00  0.00     0.031 A 
ATOM     44  C   UNL A   1      39.174  30.287  29.282  1.00  0.00     0.074 A 
ATOM     45  C   UNL A   1      41.398  29.412  29.920  1.00  0.00     0.049 A 
ATOM     46  N   UNL A   1      39.370  31.539  29.507  1.00  0.00    -0.248 NA
ATOM     47  C   UNL A   1      37.791  29.970  28.934  1.00  0.00     0.031 C 
ATOM     48  C   UNL A   1      41.738  30.429  30.909  1.00  0.00     0.029 A 
ATOM     49  N   UNL A   1      42.609  28.771  29.648  1.00  0.00    -0.354 N 
ATOM     50  C   UNL A   1      38.130  32.137  29.591  1.00  0.00     0.074 A 
ATOM     51  C   UNL A   1      37.193  31.142  29.135  1.00  0.00     0.031 C 
ATOM     52  C   UNL A   1      43.076  30.501  31.011  1.00  0.00     0.029 A 
ATOM     53  C   UNL A   1      43.642  29.670  29.952  1.00  0.00     0.049 A 
ATOM     54  H   UNL A   1      42.717  27.855  29.305  1.00  0.00     0.167 HD
ATOM     55  C   UNL A   1      38.010  33.357  30.183  1.00  0.00     0.031 A 
ATOM     56  C   UNL A   1      44.464  30.157  28.973  1.00  0.00     0.031 A 
ATOM     57  C   UNL A   1      39.322  33.911  30.505  1.00  0.00     0.049 A 
ATOM     58  C   UNL A   1      44.330  31.652  28.763  1.00  0.00     0.074 A 
ATOM     59  C   UNL A   1      40.074  33.931  31.669  1.00  0.00     0.029 A 
ATOM     60  N   UNL A   1      40.199  34.219  29.467  1.00  0.00    -0.354 N 
ATOM     61  N   UNL A   1      43.306  32.369  29.140  1.00  0.00    -0.248 NA
ATOM     62  C   UNL A   1      45.353  32.445  28.090  1.00  0.00     0.031 C 
ATOM     63  C   UNL A   1      41.432  34.152  31.310  1.00  0.00     0.029 A 
ATOM     64  C   UNL A   1      41.497  34.317  29.936  1.00  0.00     0.049 A 
ATOM     65  H   UNL A   1      39.932  34.350  28.529  1.00  0.00     0.167 HD
ATOM     66  C   UNL A   1      43.506  33.678  28.779  1.00  0.00     0.074 A 
ATOM     67  C   UNL A   1      44.812  33.674  28.143  1.00  0.00     0.031 C 
ATOM     68  C   UNL A   1      42.583  34.657  29.022  1.00  0.00     0.031 A 
BRANCH  55  69
ATOM     69  C   UNL A   1      36.693  33.832  30.762  1.00  0.00    -0.014 A 
ATOM     70  C   UNL A   1      35.560  33.934  29.933  1.00  0.00     0.010 A 
ATOM     71  C   UNL A   1      36.530  34.295  32.084  1.00  0.00     0.010 A 
ATOM     72  C   UNL A   1      34.381  34.570  30.359  1.00  0.00     0.020 A 
ATOM     73  C   UNL A   1      35.383  34.980  32.510  1.00  0.00     0.020 A 
ATOM     74  C   UNL A   1      34.313  35.124  31.636  1.00  0.00     0.054 A 
BRANCH  74  75
ATOM     75  S   UNL A   1      32.830  36.033  32.142  1.00  0.00     0.124 S 
ATOM     76  O   UNL A   1      31.906  34.959  32.500  1.00  0.00    -0.237 OA
ATOM     77  O   UNL A   1      33.324  36.838  33.254  1.00  0.00    -0.237 OA
ATOM     78  O   UNL A   1      32.459  36.787  30.945  1.00  0.00    -0.744 OA
ENDBRANCH  74  75
ENDBRANCH  55  69
BRANCH  56  79
ATOM     79  C   UNL A   1      44.812  29.202  27.880  1.00  0.00    -0.014 A 
ATOM     80  C   UNL A   1      45.747  28.179  28.124  1.00  0.00     0.010 A 
ATOM     81  C   UNL A   1      43.980  29.097  26.753  1.00  0.00     0.010 A 
ATOM     82  C   UNL A   1      45.741  27.006  27.353  1.00  0.00     0.020 A 
ATOM     83  C   UNL A   1      43.942  27.912  26.007  1.00  0.00     0.020 A 
ATOM     84  C   UNL A   1      44.771  26.848  26.362  1.00  0.00     0.054 A 
BRANCH  84  85
ATOM     85  S   UNL A   1      44.425  25.197  25.681  1.00  0.00     0.124 S 
ATOM     86  O   UNL A   1      43.072  25.329  25.150  1.00  0.00    -0.237 OA
ATOM     87  O   UNL A   1      45.475  25.080  24.672  1.00  0.00    -0.237 OA
ATOM     88  O   UNL A   1      44.560  24.328  26.846  1.00  0.00    -0.744 OA
ENDBRANCH  84  85
ENDBRANCH  56  79
BRANCH  68  89
ATOM     89  C   UNL A   1      42.617  36.069  28.475  1.00  0.00    -0.014 A 
ATOM     90  C   UNL A   1      41.917  36.502  27.338  1.00  0.00     0.010 A 
ATOM     91  C   UNL A   1      43.286  37.069  29.225  1.00  0.00     0.010 A 
ATOM     92  C   UNL A   1      41.920  37.850  26.947  1.00  0.00     0.020 A 
ATOM     93  C   UNL A   1      43.251  38.421  28.877  1.00  0.00     0.020 A 
ATOM     94  C   UNL A   1      42.581  38.801  27.722  1.00  0.00     0.054 A 
BRANCH  94  95
ATOM     95  S   UNL A   1      42.488  40.550  27.271  1.00  0.00     0.124 S 
ATOM     96  O   UNL A   1      43.069  40.547  25.932  1.00  0.00    -0.237 OA
ATOM     97  O   UNL A   1      41.054  40.828  27.331  1.00  0.00    -0.237 OA
ATOM     98  O   UNL A   1      43.284  41.212  28.301  1.00  0.00    -0.744 OA
ENDBRANCH  94  95
ENDBRANCH  68  89
ENDBRANCH  42  43
ENDBRANCH  34  37
ENDBRANCH  32  33
ENDBRANCH   1  32
TORSDOF 18
ENDMDL
MODEL 2
REMARK VINA RESULT:     -13.3      4.457     10.938
REMARK SMILES Cc1cccc(CNC(=O)N[C@@H](CC2=c3ccccc3=NC2)C(=O)NCCCNC(=O)c2ccc(-c3c4nc(c(-c5ccc(S(=O)(=O)[O-])cc5)c5ccc([nH]5)c(-c5ccc(S(=O)(=O)[O-])cc5)c5nc(c(-c6ccc(S(=O)(=O)[O-])cc6)c6ccc3[nH]6)C=C5)C=C4)cc2)c1
REMARK SMILES IDX 27 1 26 2 25 3 23 4 24 5 12 7 11 8 8 9 9 10 10 12 7 14 6 15
REMARK SMILES IDX 1 16 2 17 3 18 92 19 4 20 5 21 13 22 14 23 15 24 22 25 16 26
REMARK SMILES IDX 20 27 21 28 17 29 19 30 18 31 28 32 29 33 30 34 31 36 32 37
REMARK SMILES IDX 33 38 91 39 34 40 90 41 35 42 36 43 37 44 84 45 38 46 89 47
REMARK SMILES IDX 83 48 85 49 39 50 88 51 82 52 81 53 40 55 70 56 51 57 69 58
REMARK SMILES IDX 52 59 55 60 68 61 86 62 53 63 54 64 67 66 87 67 56 68 41 69
REMARK SMILES IDX 42 70 50 71 43 72 49 73 44 74 45 75 46 76 47 77 48 78 71 79
REMARK SMILES IDX 72 80 80 81 73 82 79 83 74 84 75 85 76 86 77 87 78 88 57 89
REMARK SMILES IDX 58 90 66 91 59 92 65 93 60 94 61 95 62 96 63 97 64 98
REMARK H PARENT 25 6 8 11 11 13 29 35 85 54 55 65
REMARK Flexibility Score: inf
ROOT
ATOM      1  C   UNL A   1      33.261  29.963  26.271  1.00  0.00     0.042 C 
ENDROOT
BRANCH   1   2
ATOM      2  C   UNL A   1      33.560  29.381  24.896  1.00  0.00     0.117 C 
BRANCH   2   3
ATOM      3  N   UNL A   1      32.386  29.186  24.062  1.00  0.00    -0.354 N 
ATOM      4  C   UNL A   1      31.843  28.055  23.524  1.00  0.00     0.242 C 
ATOM      5  O   UNL A   1      30.671  28.144  23.132  1.00  0.00    -0.273 OA
ATOM      6  H   UNL A   1      31.896  30.013  23.848  1.00  0.00     0.163 HD
BRANCH   4   7
ATOM      7  C   UNL A   1      32.548  26.669  23.470  1.00  0.00     0.177 C 
BRANCH   7   8
ATOM      8  N   UNL A   1      33.129  26.365  22.162  1.00  0.00    -0.326 N 
ATOM      9  N   UNL A   1      32.387  24.164  21.782  1.00  0.00    -0.334 N 
ATOM     10  C   UNL A   1      32.814  25.355  21.332  1.00  0.00     0.315 C 
ATOM     11  H   UNL A   1      31.772  23.692  21.174  1.00  0.00     0.165 HD
ATOM     12  O   UNL A   1      32.925  25.528  20.119  1.00  0.00    -0.249 OA
ATOM     13  H   UNL A   1      33.836  26.976  21.850  1.00  0.00     0.166 HD
BRANCH   9  14
ATOM     14  C   UNL A   1      32.681  23.457  23.014  1.00  0.00     0.153 C 
BRANCH  14  15
ATOM     15  C   UNL A   1      32.507  21.961  22.917  1.00  0.00    -0.028 A 
ATOM     16  C   UNL A   1      32.912  18.921  25.205  1.00  0.00     0.044 C 
ATOM     17  C   UNL A   1      32.603  19.770  24.008  1.00  0.00    -0.051 A 
ATOM     18  C   UNL A   1      32.178  19.167  22.819  1.00  0.00     0.003 A 
ATOM     19  C   UNL A   1      32.767  21.163  24.046  1.00  0.00     0.009 A 
ATOM     20  C   UNL A   1      31.894  19.946  21.700  1.00  0.00     0.001 A 
ATOM     21  C   UNL A   1      32.050  21.332  21.750  1.00  0.00     0.005 A 
ENDBRANCH  14  15
ENDBRANCH   9  14
ENDBRANCH   7   8
BRANCH   7  22
ATOM     22  C   UNL A   1      33.499  26.306  24.639  1.00  0.00     0.068 C 
BRANCH  22  23
ATOM     23  C   UNL A   1      32.945  25.479  25.747  1.00  0.00    -0.037 C 
ATOM     24  C   UNL A   1      33.561  24.470  26.357  1.00  0.00     0.001 A 
ATOM     25  C   UNL A   1      31.546  25.625  26.255  1.00  0.00     0.174 C 
ATOM     26  C   UNL A   1      34.851  23.874  26.224  1.00  0.00     0.010 A 
ATOM     27  C   UNL A   1      32.459  23.823  27.088  1.00  0.00     0.065 A 
ATOM     28  N   UNL A   1      31.315  24.440  27.110  1.00  0.00    -0.280 NA
ATOM     29  C   UNL A   1      35.012  22.614  26.651  1.00  0.00     0.001 A 
ATOM     30  C   UNL A   1      32.729  22.454  27.566  1.00  0.00     0.028 A 
ATOM     31  C   UNL A   1      33.912  21.892  27.259  1.00  0.00     0.002 A 
ENDBRANCH  22  23
ENDBRANCH   7  22
ENDBRANCH   4   7
ENDBRANCH   2   3
ENDBRANCH   1   2
BRANCH   1  32
ATOM     32  C   UNL A   1      34.321  29.597  27.313  1.00  0.00     0.118 C 
BRANCH  32  33
ATOM     33  N   UNL A   1      35.051  30.783  27.781  1.00  0.00    -0.352 N 
ATOM     34  C   UNL A   1      36.344  30.910  28.249  1.00  0.00     0.251 C 
ATOM     35  H   UNL A   1      34.535  31.621  27.758  1.00  0.00     0.163 HD
ATOM     36  O   UNL A   1      36.802  31.984  28.624  1.00  0.00    -0.269 OA
BRANCH  34  37
ATOM     37  C   UNL A   1      37.188  29.709  28.239  1.00  0.00     0.039 A 
ATOM     38  C   UNL A   1      37.277  28.956  29.413  1.00  0.00     0.014 A 
ATOM     39  C   UNL A   1      38.102  29.569  27.201  1.00  0.00     0.014 A 
ATOM     40  C   UNL A   1      38.426  28.215  29.638  1.00  0.00     0.010 A 
ATOM     41  C   UNL A   1      39.300  28.960  27.493  1.00  0.00     0.010 A 
ATOM     42  C   UNL A   1      39.476  28.330  28.732  1.00  0.00    -0.014 A 
BRANCH  42  43
ATOM     43  C   UNL A   1      40.815  27.829  28.997  1.00  0.00     0.031 A 
ATOM     44  C   UNL A   1      41.130  26.455  28.563  1.00  0.00     0.074 A 
ATOM     45  C   UNL A   1      41.731  28.625  29.586  1.00  0.00     0.049 A 
ATOM     46  N   UNL A   1      42.081  25.730  29.040  1.00  0.00    -0.248 NA
ATOM     47  C   UNL A   1      40.297  25.753  27.590  1.00  0.00     0.031 C 
ATOM     48  C   UNL A   1      43.172  28.415  29.672  1.00  0.00     0.029 A 
ATOM     49  N   UNL A   1      41.487  29.720  30.420  1.00  0.00    -0.354 N 
ATOM     50  C   UNL A   1      42.147  24.588  28.271  1.00  0.00     0.074 A 
ATOM     51  C   UNL A   1      40.963  24.609  27.450  1.00  0.00     0.031 C 
ATOM     52  C   UNL A   1      43.662  29.187  30.657  1.00  0.00     0.029 A 
ATOM     53  C   UNL A   1      42.526  29.774  31.362  1.00  0.00     0.049 A 
ATOM     54  H   UNL A   1      40.725  30.339  30.359  1.00  0.00     0.167 HD
ATOM     55  C   UNL A   1      43.273  23.823  28.297  1.00  0.00     0.031 A 
ATOM     56  C   UNL A   1      42.283  29.572  32.692  1.00  0.00     0.031 A 
ATOM     57  C   UNL A   1      44.204  24.301  29.316  1.00  0.00     0.049 A 
ATOM     58  C   UNL A   1      42.947  28.327  33.244  1.00  0.00     0.074 A 
ATOM     59  C   UNL A   1      45.317  25.123  29.260  1.00  0.00     0.029 A 
ATOM     60  N   UNL A   1      43.827  24.243  30.657  1.00  0.00    -0.354 N 
ATOM     61  N   UNL A   1      43.367  27.324  32.522  1.00  0.00    -0.248 NA
ATOM     62  C   UNL A   1      43.171  28.123  34.671  1.00  0.00     0.031 C 
ATOM     63  C   UNL A   1      45.545  25.643  30.565  1.00  0.00     0.029 A 
ATOM     64  C   UNL A   1      44.603  25.097  31.420  1.00  0.00     0.049 A 
ATOM     65  H   UNL A   1      43.108  23.672  31.011  1.00  0.00     0.167 HD
ATOM     66  C   UNL A   1      43.901  26.361  33.341  1.00  0.00     0.074 A 
ATOM     67  C   UNL A   1      43.772  26.921  34.676  1.00  0.00     0.031 C 
ATOM     68  C   UNL A   1      44.397  25.180  32.863  1.00  0.00     0.031 A 
BRANCH  55  69
ATOM     69  C   UNL A   1      43.628  22.892  27.156  1.00  0.00    -0.014 A 
ATOM     70  C   UNL A   1      42.805  21.784  26.874  1.00  0.00     0.010 A 
ATOM     71  C   UNL A   1      44.809  22.989  26.392  1.00  0.00     0.010 A 
ATOM     72  C   UNL A   1      43.198  20.774  25.980  1.00  0.00     0.020 A 
ATOM     73  C   UNL A   1      45.243  21.966  25.537  1.00  0.00     0.020 A 
ATOM     74  C   UNL A   1      44.436  20.853  25.343  1.00  0.00     0.054 A 
BRANCH  74  75
ATOM     75  S   UNL A   1      44.981  19.498  24.271  1.00  0.00     0.124 S 
ATOM     76  O   UNL A   1      44.473  19.904  22.962  1.00  0.00    -0.237 OA
ATOM     77  O   UNL A   1      46.431  19.543  24.428  1.00  0.00    -0.237 OA
ATOM     78  O   UNL A   1      44.330  18.320  24.843  1.00  0.00    -0.744 OA
ENDBRANCH  74  75
ENDBRANCH  55  69
BRANCH  56  79
ATOM     79  C   UNL A   1      40.988  30.109  33.207  1.00  0.00    -0.014 A 
ATOM     80  C   UNL A   1      40.814  31.500  33.333  1.00  0.00     0.010 A 
ATOM     81  C   UNL A   1      39.850  29.285  33.229  1.00  0.00     0.010 A 
ATOM     82  C   UNL A   1      39.528  32.063  33.321  1.00  0.00     0.020 A 
ATOM     83  C   UNL A   1      38.567  29.844  33.176  1.00  0.00     0.020 A 
ATOM     84  C   UNL A   1      38.422  31.231  33.146  1.00  0.00     0.054 A 
BRANCH  84  85
ATOM     85  S   UNL A   1      36.820  31.938  32.654  1.00  0.00     0.124 S 
ATOM     86  O   UNL A   1      36.235  32.362  33.923  1.00  0.00    -0.237 OA
ATOM     87  O   UNL A   1      37.247  33.026  31.777  1.00  0.00    -0.237 OA
ATOM     88  O   UNL A   1      36.155  30.815  31.999  1.00  0.00    -0.744 OA
ENDBRANCH  84  85
ENDBRANCH  56  79
BRANCH  68  89
ATOM     89  C   UNL A   1      44.801  23.981  33.695  1.00  0.00    -0.014 A 
ATOM     90  C   UNL A   1      43.959  22.901  34.001  1.00  0.00     0.010 A 
ATOM     91  C   UNL A   1      46.158  23.857  34.087  1.00  0.00     0.010 A 
ATOM     92  C   UNL A   1      44.433  21.778  34.697  1.00  0.00     0.020 A 
ATOM     93  C   UNL A   1      46.654  22.721  34.731  1.00  0.00     0.020 A 
ATOM     94  C   UNL A   1      45.779  21.693  35.051  1.00  0.00     0.054 A 
BRANCH  94  95
ATOM     95  S   UNL A   1      46.404  20.195  35.850  1.00  0.00     0.124 S 
ATOM     96  O   UNL A   1      47.713  20.042  35.220  1.00  0.00    -0.237 OA
ATOM     97  O   UNL A   1      46.429  20.563  37.264  1.00  0.00    -0.237 OA
ATOM     98  O   UNL A   1      45.415  19.181  35.497  1.00  0.00    -0.744 OA
ENDBRANCH  94  95
ENDBRANCH  68  89
ENDBRANCH  42  43
ENDBRANCH  34  37
ENDBRANCH  32  33
ENDBRANCH   1  32
TORSDOF 18
ENDMDL
MODEL 3
REMARK VINA RESULT:     -13.2      4.224     10.746
REMARK SMILES Cc1cccc(CNC(=O)N[C@@H](CC2=c3ccccc3=NC2)C(=O)NCCCNC(=O)c2ccc(-c3c4nc(c(-c5ccc(S(=O)(=O)[O-])cc5)c5ccc([nH]5)c(-c5ccc(S(=O)(=O)[O-])cc5)c5nc(c(-c6ccc(S(=O)(=O)[O-])cc6)c6ccc3[nH]6)C=C5)C=C4)cc2)c1
REMARK SMILES IDX 27 1 26 2 25 3 23 4 24 5 12 7 11 8 8 9 9 10 10 12 7 14 6 15
REMARK SMILES IDX 1 16 2 17 3 18 92 19 4 20 5 21 13 22 14 23 15 24 22 25 16 26
REMARK SMILES IDX 20 27 21 28 17 29 19 30 18 31 28 32 29 33 30 34 31 36 32 37
REMARK SMILES IDX 33 38 91 39 34 40 90 41 35 42 36 43 37 44 84 45 38 46 89 47
REMARK SMILES IDX 83 48 85 49 39 50 88 51 82 52 81 53 40 55 70 56 51 57 69 58
REMARK SMILES IDX 52 59 55 60 68 61 86 62 53 63 54 64 67 66 87 67 56 68 41 69
REMARK SMILES IDX 42 70 50 71 43 72 49 73 44 74 45 75 46 76 47 77 48 78 71 79
REMARK SMILES IDX 72 80 80 81 73 82 79 83 74 84 75 85 76 86 77 87 78 88 57 89
REMARK SMILES IDX 58 90 66 91 59 92 65 93 60 94 61 95 62 96 63 97 64 98
REMARK H PARENT 25 6 8 11 11 13 29 35 85 54 55 65
REMARK Flexibility Score: inf
ROOT
ATOM      1  C   UNL A   1      32.317  30.499  26.598  1.00  0.00     0.042 C 
ENDROOT
BRANCH   1   2
ATOM      2  C   UNL A   1      32.620  30.103  25.160  1.00  0.00     0.117 C 
BRANCH   2   3
ATOM      3  N   UNL A   1      31.448  30.009  24.306  1.00  0.00    -0.354 N 
ATOM      4  C   UNL A   1      30.655  28.947  23.980  1.00  0.00     0.242 C 
ATOM      5  O   UNL A   1      29.547  29.218  23.498  1.00  0.00    -0.273 OA
ATOM      6  H   UNL A   1      31.177  30.860  23.890  1.00  0.00     0.163 HD
BRANCH   4   7
ATOM      7  C   UNL A   1      31.004  27.458  24.265  1.00  0.00     0.177 C 
BRANCH   7   8
ATOM      8  N   UNL A   1      30.793  27.070  25.660  1.00  0.00    -0.326 N 
ATOM      9  N   UNL A   1      32.995  26.775  26.438  1.00  0.00    -0.334 N 
ATOM     10  C   UNL A   1      31.697  27.040  26.656  1.00  0.00     0.315 C 
ATOM     11  H   UNL A   1      33.613  27.210  27.070  1.00  0.00     0.165 HD
ATOM     12  O   UNL A   1      31.318  27.259  27.805  1.00  0.00    -0.249 OA
ATOM     13  H   UNL A   1      29.877  26.798  25.899  1.00  0.00     0.166 HD
BRANCH   9  14
ATOM     14  C   UNL A   1      33.637  25.956  25.429  1.00  0.00     0.153 C 
BRANCH  14  15
ATOM     15  C   UNL A   1      33.980  24.563  25.899  1.00  0.00    -0.028 A 
ATOM     16  C   UNL A   1      36.892  22.106  25.550  1.00  0.00     0.044 C 
ATOM     17  C   UNL A   1      35.585  22.714  25.965  1.00  0.00    -0.051 A 
ATOM     18  C   UNL A   1      34.699  21.982  26.761  1.00  0.00     0.003 A 
ATOM     19  C   UNL A   1      35.217  23.999  25.538  1.00  0.00     0.009 A 
ATOM     20  C   UNL A   1      33.480  22.536  27.148  1.00  0.00     0.001 A 
ATOM     21  C   UNL A   1      33.127  23.818  26.726  1.00  0.00     0.005 A 
ENDBRANCH  14  15
ENDBRANCH   9  14
ENDBRANCH   7   8
BRANCH   7  22
ATOM     22  C   UNL A   1      30.473  26.396  23.268  1.00  0.00     0.068 C 
BRANCH  22  23
ATOM     23  C   UNL A   1      31.475  25.560  22.551  1.00  0.00    -0.037 C 
ATOM     24  C   UNL A   1      31.689  24.260  22.736  1.00  0.00     0.001 A 
ATOM     25  C   UNL A   1      32.462  26.122  21.577  1.00  0.00     0.174 C 
ATOM     26  C   UNL A   1      31.094  23.270  23.574  1.00  0.00     0.010 A 
ATOM     27  C   UNL A   1      32.975  24.051  22.051  1.00  0.00     0.065 A 
ATOM     28  N   UNL A   1      33.442  25.039  21.347  1.00  0.00    -0.280 NA
ATOM     29  C   UNL A   1      31.808  22.174  23.864  1.00  0.00     0.001 A 
ATOM     30  C   UNL A   1      33.681  22.800  22.388  1.00  0.00     0.028 A 
ATOM     31  C   UNL A   1      33.137  21.990  23.314  1.00  0.00     0.002 A 
ENDBRANCH  22  23
ENDBRANCH   7  22
ENDBRANCH   4   7
ENDBRANCH   2   3
ENDBRANCH   1   2
BRANCH   1  32
ATOM     32  C   UNL A   1      33.440  30.122  27.567  1.00  0.00     0.118 C 
BRANCH  32  33
ATOM     33  N   UNL A   1      34.049  31.310  28.177  1.00  0.00    -0.352 N 
ATOM     34  C   UNL A   1      35.297  31.484  28.744  1.00  0.00     0.251 C 
ATOM     35  H   UNL A   1      33.476  32.111  28.185  1.00  0.00     0.163 HD
ATOM     36  O   UNL A   1      35.650  32.552  29.235  1.00  0.00    -0.269 OA
BRANCH  34  37
ATOM     37  C   UNL A   1      36.226  30.350  28.698  1.00  0.00     0.039 A 
ATOM     38  C   UNL A   1      36.425  29.612  29.869  1.00  0.00     0.014 A 
ATOM     39  C   UNL A   1      37.098  30.270  27.619  1.00  0.00     0.014 A 
ATOM     40  C   UNL A   1      37.635  28.960  30.042  1.00  0.00     0.010 A 
ATOM     41  C   UNL A   1      38.350  29.753  27.855  1.00  0.00     0.010 A 
ATOM     42  C   UNL A   1      38.630  29.145  29.087  1.00  0.00    -0.014 A 
BRANCH  42  43
ATOM     43  C   UNL A   1      40.013  28.746  29.290  1.00  0.00     0.031 A 
ATOM     44  C   UNL A   1      40.408  27.396  28.847  1.00  0.00     0.074 A 
ATOM     45  C   UNL A   1      40.895  29.612  29.831  1.00  0.00     0.049 A 
ATOM     46  N   UNL A   1      41.430  26.746  29.282  1.00  0.00    -0.248 NA
ATOM     47  C   UNL A   1      39.584  26.627  27.918  1.00  0.00     0.031 C 
ATOM     48  C   UNL A   1      42.350  29.509  29.849  1.00  0.00     0.029 A 
ATOM     49  N   UNL A   1      40.611  30.692  30.671  1.00  0.00    -0.354 N 
ATOM     50  C   UNL A   1      41.544  25.606  28.515  1.00  0.00     0.074 A 
ATOM     51  C   UNL A   1      40.325  25.534  27.751  1.00  0.00     0.031 C 
ATOM     52  C   UNL A   1      42.828  30.322  30.807  1.00  0.00     0.029 A 
ATOM     53  C   UNL A   1      41.686  30.829  31.562  1.00  0.00     0.049 A 
ATOM     54  H   UNL A   1      39.803  31.253  30.644  1.00  0.00     0.167 HD
ATOM     55  C   UNL A   1      42.723  24.926  28.490  1.00  0.00     0.031 A 
ATOM     56  C   UNL A   1      41.521  30.620  32.904  1.00  0.00     0.031 A 
ATOM     57  C   UNL A   1      43.664  25.478  29.462  1.00  0.00     0.049 A 
ATOM     58  C   UNL A   1      42.300  29.431  33.429  1.00  0.00     0.074 A 
ATOM     59  C   UNL A   1      44.709  26.380  29.350  1.00  0.00     0.029 A 
ATOM     60  N   UNL A   1      43.356  25.403  30.819  1.00  0.00    -0.354 N 
ATOM     61  N   UNL A   1      42.759  28.456  32.691  1.00  0.00    -0.248 NA
ATOM     62  C   UNL A   1      42.606  29.255  34.844  1.00  0.00     0.031 C 
ATOM     63  C   UNL A   1      44.959  26.925  30.640  1.00  0.00     0.029 A 
ATOM     64  C   UNL A   1      44.102  26.318  31.542  1.00  0.00     0.049 A 
ATOM     65  H   UNL A   1      42.698  24.784  31.210  1.00  0.00     0.167 HD
ATOM     66  C   UNL A   1      43.400  27.542  33.488  1.00  0.00     0.074 A 
ATOM     67  C   UNL A   1      43.293  28.100  34.825  1.00  0.00     0.031 C 
ATOM     68  C   UNL A   1      43.959  26.397  32.992  1.00  0.00     0.031 A 
BRANCH  55  69
ATOM     69  C   UNL A   1      43.092  24.015  27.337  1.00  0.00    -0.014 A 
ATOM     70  C   UNL A   1      42.611  22.692  27.310  1.00  0.00     0.010 A 
ATOM     71  C   UNL A   1      43.990  24.363  26.308  1.00  0.00     0.010 A 
ATOM     72  C   UNL A   1      43.092  21.744  26.390  1.00  0.00     0.020 A 
ATOM     73  C   UNL A   1      44.522  23.420  25.417  1.00  0.00     0.020 A 
ATOM     74  C   UNL A   1      44.076  22.106  25.471  1.00  0.00     0.054 A 
BRANCH  74  75
ATOM     75  S   UNL A   1      44.766  20.855  24.357  1.00  0.00     0.124 S 
ATOM     76  O   UNL A   1      43.969  19.672  24.675  1.00  0.00    -0.237 OA
ATOM     77  O   UNL A   1      44.527  21.443  23.043  1.00  0.00    -0.237 OA
ATOM     78  O   UNL A   1      46.171  20.773  24.755  1.00  0.00    -0.744 OA
ENDBRANCH  74  75
ENDBRANCH  55  69
BRANCH  56  79
ATOM     79  C   UNL A   1      40.216  31.064  33.477  1.00  0.00    -0.014 A 
ATOM     80  C   UNL A   1      40.019  32.424  33.784  1.00  0.00     0.010 A 
ATOM     81  C   UNL A   1      39.092  30.227  33.385  1.00  0.00     0.010 A 
ATOM     82  C   UNL A   1      38.725  32.964  33.840  1.00  0.00     0.020 A 
ATOM     83  C   UNL A   1      37.800  30.769  33.399  1.00  0.00     0.020 A 
ATOM     84  C   UNL A   1      37.633  32.145  33.551  1.00  0.00     0.054 A 
BRANCH  84  85
ATOM     85  S   UNL A   1      36.021  32.886  33.147  1.00  0.00     0.124 S 
ATOM     86  O   UNL A   1      35.340  31.827  32.408  1.00  0.00    -0.237 OA
ATOM     87  O   UNL A   1      35.487  33.149  34.481  1.00  0.00    -0.237 OA
ATOM     88  O   UNL A   1      36.389  34.062  32.365  1.00  0.00    -0.744 OA
ENDBRANCH  84  85
ENDBRANCH  56  79
BRANCH  68  89
ATOM     89  C   UNL A   1      44.489  25.237  33.809  1.00  0.00    -0.014 A 
ATOM     90  C   UNL A   1      43.690  24.348  34.546  1.00  0.00     0.010 A 
ATOM     91  C   UNL A   1      45.870  24.928  33.727  1.00  0.00     0.010 A 
ATOM     92  C   UNL A   1      44.245  23.238  35.201  1.00  0.00     0.020 A 
ATOM     93  C   UNL A   1      46.425  23.796  34.328  1.00  0.00     0.020 A 
ATOM     94  C   UNL A   1      45.608  22.966  35.082  1.00  0.00     0.054 A 
BRANCH  94  95
ATOM     95  S   UNL A   1      46.294  21.472  35.838  1.00  0.00     0.124 S 
ATOM     96  O   UNL A   1      47.705  21.573  35.476  1.00  0.00    -0.237 OA
ATOM     97  O   UNL A   1      45.998  21.657  37.258  1.00  0.00    -0.237 OA
ATOM     98  O   UNL A   1      45.555  20.391  35.192  1.00  0.00    -0.744 OA
ENDBRANCH  94  95
ENDBRANCH  68  89
ENDBRANCH  42  43
ENDBRANCH  34  37
ENDBRANCH  32  33
ENDBRANCH   1  32
TORSDOF 18
ENDMDL
