MODEL 1
REMARK VINA RESULT:     -11.6      0.000      0.000
REMARK SMILES C[C@@H](C(=O)NCCCNC(=O)c1ccc(-c2c3nc(c(-c4ccc(S(=O)(=O)[O-])cc4)c4ccc([nH]4)c(-c4ccc(S(=O)(=O)[O-])cc4)c4nc(c(-c5ccc(S(=O)(=O)[O-])cc5)c5ccc2[nH]5)C=C4)C=C3)cc1)c1ccc(C[C@H]2CCCC2=O)cc1F
REMARK SMILES IDX 7 1 6 2 5 3 3 4 4 5 2 7 1 8 72 9 73 10 84 11 74 12 83 13
REMARK SMILES IDX 85 14 75 15 76 16 77 17 78 18 81 19 79 20 80 21 82 22 8 23
REMARK SMILES IDX 9 24 10 25 11 27 12 28 13 29 71 30 14 31 70 32 15 33 16 34
REMARK SMILES IDX 17 35 64 36 18 37 69 38 63 39 65 40 19 41 68 42 62 43 61 44
REMARK SMILES IDX 20 46 50 47 31 48 49 49 32 50 35 51 48 52 66 53 33 54 34 55
REMARK SMILES IDX 47 57 67 58 36 59 21 60 22 61 30 62 23 63 29 64 24 65 25 66
REMARK SMILES IDX 26 67 27 68 28 69 51 70 52 71 60 72 53 73 59 74 54 75 55 76
REMARK SMILES IDX 56 77 57 78 58 79 37 80 38 81 46 82 39 83 45 84 40 85 41 86
REMARK SMILES IDX 42 87 43 88 44 89
REMARK H PARENT 5 6 9 26 65 45 35 56
REMARK Flexibility Score: inf
ROOT
ATOM      1  C   UNL A   1      32.867  27.850  25.965  1.00  0.00     0.042 C 
ENDROOT
BRANCH   1   2
ATOM      2  C   UNL A   1      31.409  27.459  26.212  1.00  0.00     0.117 C 
BRANCH   2   3
ATOM      3  N   UNL A   1      31.313  26.173  26.879  1.00  0.00    -0.356 N 
ATOM      4  C   UNL A   1      31.331  24.909  26.358  1.00  0.00     0.227 C 
ATOM      5  O   UNL A   1      30.951  23.994  27.090  1.00  0.00    -0.274 OA
ATOM      6  H   UNL A   1      31.221  26.218  27.859  1.00  0.00     0.163 HD
BRANCH   4   7
ATOM      7  C   UNL A   1      31.799  24.687  24.906  1.00  0.00     0.108 C 
ATOM      8  C   UNL A   1      30.569  24.793  23.994  1.00  0.00     0.023 C 
BRANCH   7   9
ATOM      9  C   UNL A   1      32.566  23.375  24.725  1.00  0.00    -0.000 A 
ATOM     10  C   UNL A   1      32.034  22.287  24.017  1.00  0.00     0.008 A 
ATOM     11  C   UNL A   1      33.855  23.223  25.252  1.00  0.00     0.127 A 
ATOM     12  C   UNL A   1      32.717  21.071  23.940  1.00  0.00     0.004 A 
ATOM     13  C   UNL A   1      34.523  21.998  25.222  1.00  0.00     0.043 A 
ATOM     14  F   UNL A   1      34.480  24.268  25.816  1.00  0.00    -0.207 F 
ATOM     15  C   UNL A   1      33.935  20.891  24.602  1.00  0.00    -0.044 A 
BRANCH  15  16
ATOM     16  C   UNL A   1      34.576  19.527  24.659  1.00  0.00     0.047 C 
BRANCH  16  17
ATOM     17  C   UNL A   1      33.688  18.344  24.242  1.00  0.00     0.060 C 
ATOM     18  C   UNL A   1      34.390  17.181  23.532  1.00  0.00     0.012 C 
ATOM     19  C   UNL A   1      33.037  17.645  25.415  1.00  0.00     0.136 C 
ATOM     20  C   UNL A   1      34.658  16.126  24.601  1.00  0.00     0.009 C 
ATOM     21  C   UNL A   1      33.481  16.213  25.561  1.00  0.00     0.076 C 
ATOM     22  O   UNL A   1      32.224  18.182  26.159  1.00  0.00    -0.299 OA
ENDBRANCH  16  17
ENDBRANCH  15  16
ENDBRANCH   7   9
ENDBRANCH   4   7
ENDBRANCH   2   3
ENDBRANCH   1   2
BRANCH   1  23
ATOM     23  C   UNL A   1      33.634  28.243  27.222  1.00  0.00     0.118 C 
BRANCH  23  24
ATOM     24  N   UNL A   1      33.572  29.669  27.483  1.00  0.00    -0.352 N 
ATOM     25  C   UNL A   1      34.511  30.500  28.036  1.00  0.00     0.251 C 
ATOM     26  H   UNL A   1      32.728  30.106  27.224  1.00  0.00     0.163 HD
ATOM     27  O   UNL A   1      34.179  31.644  28.352  1.00  0.00    -0.269 OA
BRANCH  25  28
ATOM     28  C   UNL A   1      35.903  30.046  28.267  1.00  0.00     0.039 A 
ATOM     29  C   UNL A   1      36.241  29.551  29.531  1.00  0.00     0.014 A 
ATOM     30  C   UNL A   1      36.892  30.163  27.284  1.00  0.00     0.014 A 
ATOM     31  C   UNL A   1      37.553  29.160  29.802  1.00  0.00     0.010 A 
ATOM     32  C   UNL A   1      38.184  29.701  27.532  1.00  0.00     0.010 A 
ATOM     33  C   UNL A   1      38.537  29.221  28.801  1.00  0.00    -0.014 A 
BRANCH  33  34
ATOM     34  C   UNL A   1      39.944  28.842  29.091  1.00  0.00     0.031 A 
ATOM     35  C   UNL A   1      40.870  29.826  29.758  1.00  0.00     0.074 A 
ATOM     36  C   UNL A   1      40.400  27.626  28.736  1.00  0.00     0.049 A 
ATOM     37  N   UNL A   1      42.129  29.685  30.084  1.00  0.00    -0.248 NA
ATOM     38  C   UNL A   1      40.313  31.151  30.079  1.00  0.00     0.031 C 
ATOM     39  C   UNL A   1      39.620  26.597  28.044  1.00  0.00     0.029 A 
ATOM     40  N   UNL A   1      41.633  27.049  28.907  1.00  0.00    -0.354 N 
ATOM     41  C   UNL A   1      42.518  30.903  30.633  1.00  0.00     0.074 A 
ATOM     42  C   UNL A   1      41.378  31.788  30.544  1.00  0.00     0.031 C 
ATOM     43  C   UNL A   1      40.387  25.507  27.871  1.00  0.00     0.029 A 
ATOM     44  C   UNL A   1      41.716  25.767  28.416  1.00  0.00     0.049 A 
ATOM     45  H   UNL A   1      42.388  27.509  29.342  1.00  0.00     0.167 HD
ATOM     46  C   UNL A   1      43.706  31.250  31.184  1.00  0.00     0.031 A 
ATOM     47  C   UNL A   1      42.745  24.897  28.407  1.00  0.00     0.031 A 
ATOM     48  C   UNL A   1      44.837  30.367  31.283  1.00  0.00     0.049 A 
ATOM     49  C   UNL A   1      44.046  25.290  29.050  1.00  0.00     0.074 A 
ATOM     50  C   UNL A   1      46.074  30.610  31.855  1.00  0.00     0.029 A 
ATOM     51  N   UNL A   1      44.867  29.065  30.806  1.00  0.00    -0.354 N 
ATOM     52  N   UNL A   1      44.377  26.430  29.609  1.00  0.00    -0.248 NA
ATOM     53  C   UNL A   1      45.103  24.271  29.083  1.00  0.00     0.031 C 
ATOM     54  C   UNL A   1      46.863  29.465  31.692  1.00  0.00     0.029 A 
ATOM     55  C   UNL A   1      46.101  28.493  31.064  1.00  0.00     0.049 A 
ATOM     56  H   UNL A   1      44.120  28.614  30.348  1.00  0.00     0.167 HD
ATOM     57  C   UNL A   1      45.672  26.256  30.083  1.00  0.00     0.074 A 
ATOM     58  C   UNL A   1      46.057  24.897  29.758  1.00  0.00     0.031 C 
ATOM     59  C   UNL A   1      46.470  27.140  30.733  1.00  0.00     0.031 A 
BRANCH  46  60
ATOM     60  C   UNL A   1      43.833  32.652  31.721  1.00  0.00    -0.014 A 
ATOM     61  C   UNL A   1      44.315  33.697  30.909  1.00  0.00     0.010 A 
ATOM     62  C   UNL A   1      43.461  32.934  33.047  1.00  0.00     0.010 A 
ATOM     63  C   UNL A   1      44.475  34.983  31.430  1.00  0.00     0.020 A 
ATOM     64  C   UNL A   1      43.593  34.227  33.563  1.00  0.00     0.020 A 
ATOM     65  C   UNL A   1      44.122  35.237  32.758  1.00  0.00     0.054 A 
BRANCH  65  66
ATOM     66  S   UNL A   1      44.343  36.915  33.411  1.00  0.00     0.124 S 
ATOM     67  O   UNL A   1      45.798  37.046  33.415  1.00  0.00    -0.237 OA
ATOM     68  O   UNL A   1      43.642  37.739  32.430  1.00  0.00    -0.237 OA
ATOM     69  O   UNL A   1      43.719  36.858  34.731  1.00  0.00    -0.744 OA
ENDBRANCH  65  66
ENDBRANCH  46  60
BRANCH  47  70
ATOM     70  C   UNL A   1      42.565  23.552  27.795  1.00  0.00    -0.014 A 
ATOM     71  C   UNL A   1      42.988  23.304  26.477  1.00  0.00     0.010 A 
ATOM     72  C   UNL A   1      42.001  22.504  28.543  1.00  0.00     0.010 A 
ATOM     73  C   UNL A   1      42.837  22.033  25.915  1.00  0.00     0.020 A 
ATOM     74  C   UNL A   1      41.871  21.226  27.992  1.00  0.00     0.020 A 
ATOM     75  C   UNL A   1      42.282  21.001  26.677  1.00  0.00     0.054 A 
BRANCH  75  76
ATOM     76  S   UNL A   1      42.160  19.342  25.951  1.00  0.00     0.124 S 
ATOM     77  O   UNL A   1      42.729  18.507  27.004  1.00  0.00    -0.237 OA
ATOM     78  O   UNL A   1      40.723  19.196  25.734  1.00  0.00    -0.237 OA
ATOM     79  O   UNL A   1      42.958  19.445  24.731  1.00  0.00    -0.744 OA
ENDBRANCH  75  76
ENDBRANCH  47  70
BRANCH  59  80
ATOM     80  C   UNL A   1      47.825  26.654  31.170  1.00  0.00    -0.014 A 
ATOM     81  C   UNL A   1      47.993  25.937  32.368  1.00  0.00     0.010 A 
ATOM     82  C   UNL A   1      48.943  26.889  30.349  1.00  0.00     0.010 A 
ATOM     83  C   UNL A   1      49.261  25.499  32.757  1.00  0.00     0.020 A 
ATOM     84  C   UNL A   1      50.209  26.430  30.721  1.00  0.00     0.020 A 
ATOM     85  C   UNL A   1      50.363  25.754  31.932  1.00  0.00     0.054 A 
BRANCH  85  86
ATOM     86  S   UNL A   1      51.996  25.154  32.443  1.00  0.00     0.124 S 
ATOM     87  O   UNL A   1      51.763  23.718  32.575  1.00  0.00    -0.237 OA
ATOM     88  O   UNL A   1      52.850  25.551  31.327  1.00  0.00    -0.237 OA
ATOM     89  O   UNL A   1      52.249  25.862  33.696  1.00  0.00    -0.744 OA
ENDBRANCH  85  86
ENDBRANCH  59  80
ENDBRANCH  33  34
ENDBRANCH  25  28
ENDBRANCH  23  24
ENDBRANCH   1  23
TORSDOF 16
ENDMDL
MODEL 2
REMARK VINA RESULT:     -11.6      4.099      7.139
REMARK SMILES C[C@@H](C(=O)NCCCNC(=O)c1ccc(-c2c3nc(c(-c4ccc(S(=O)(=O)[O-])cc4)c4ccc([nH]4)c(-c4ccc(S(=O)(=O)[O-])cc4)c4nc(c(-c5ccc(S(=O)(=O)[O-])cc5)c5ccc2[nH]5)C=C4)C=C3)cc1)c1ccc(C[C@H]2CCCC2=O)cc1F
REMARK SMILES IDX 7 1 6 2 5 3 3 4 4 5 2 7 1 8 72 9 73 10 84 11 74 12 83 13
REMARK SMILES IDX 85 14 75 15 76 16 77 17 78 18 81 19 79 20 80 21 82 22 8 23
REMARK SMILES IDX 9 24 10 25 11 27 12 28 13 29 71 30 14 31 70 32 15 33 16 34
REMARK SMILES IDX 17 35 64 36 18 37 69 38 63 39 65 40 19 41 68 42 62 43 61 44
REMARK SMILES IDX 20 46 50 47 31 48 49 49 32 50 35 51 48 52 66 53 33 54 34 55
REMARK SMILES IDX 47 57 67 58 36 59 21 60 22 61 30 62 23 63 29 64 24 65 25 66
REMARK SMILES IDX 26 67 27 68 28 69 51 70 52 71 60 72 53 73 59 74 54 75 55 76
REMARK SMILES IDX 56 77 57 78 58 79 37 80 38 81 46 82 39 83 45 84 40 85 41 86
REMARK SMILES IDX 42 87 43 88 44 89
REMARK H PARENT 5 6 9 26 65 45 35 56
REMARK Flexibility Score: inf
ROOT
ATOM      1  C   UNL A   1      34.751  32.793  30.570  1.00  0.00     0.042 C 
ENDROOT
BRANCH   1   2
ATOM      2  C   UNL A   1      35.145  34.116  31.231  1.00  0.00     0.117 C 
BRANCH   2   3
ATOM      3  N   UNL A   1      36.579  34.336  31.158  1.00  0.00    -0.356 N 
ATOM      4  C   UNL A   1      37.550  34.116  32.096  1.00  0.00     0.227 C 
ATOM      5  O   UNL A   1      38.646  34.644  31.903  1.00  0.00    -0.274 OA
ATOM      6  H   UNL A   1      36.902  34.699  30.302  1.00  0.00     0.163 HD
BRANCH   4   7
ATOM      7  C   UNL A   1      37.237  33.251  33.333  1.00  0.00     0.108 C 
ATOM      8  C   UNL A   1      36.875  34.196  34.487  1.00  0.00     0.023 C 
BRANCH   7   9
ATOM      9  C   UNL A   1      38.372  32.287  33.684  1.00  0.00    -0.000 A 
ATOM     10  C   UNL A   1      39.511  32.695  34.394  1.00  0.00     0.008 A 
ATOM     11  C   UNL A   1      38.298  30.935  33.320  1.00  0.00     0.127 A 
ATOM     12  C   UNL A   1      40.571  31.817  34.626  1.00  0.00     0.004 A 
ATOM     13  C   UNL A   1      39.374  30.064  33.505  1.00  0.00     0.043 A 
ATOM     14  F   UNL A   1      37.179  30.447  32.766  1.00  0.00    -0.207 F 
ATOM     15  C   UNL A   1      40.545  30.513  34.122  1.00  0.00    -0.044 A 
BRANCH  15  16
ATOM     16  C   UNL A   1      41.764  29.632  34.226  1.00  0.00     0.047 C 
BRANCH  16  17
ATOM     17  C   UNL A   1      41.545  28.138  33.939  1.00  0.00     0.060 C 
ATOM     18  C   UNL A   1      42.443  27.510  32.867  1.00  0.00     0.012 C 
ATOM     19  C   UNL A   1      41.825  27.254  35.135  1.00  0.00     0.136 C 
ATOM     20  C   UNL A   1      43.583  26.823  33.611  1.00  0.00     0.009 C 
ATOM     21  C   UNL A   1      42.969  26.301  34.902  1.00  0.00     0.076 C 
ATOM     22  O   UNL A   1      41.181  27.298  36.177  1.00  0.00    -0.299 OA
ENDBRANCH  16  17
ENDBRANCH  15  16
ENDBRANCH   7   9
ENDBRANCH   4   7
ENDBRANCH   2   3
ENDBRANCH   1   2
BRANCH   1  23
ATOM     23  C   UNL A   1      34.781  32.818  29.046  1.00  0.00     0.118 C 
BRANCH  23  24
ATOM     24  N   UNL A   1      34.042  31.715  28.462  1.00  0.00    -0.352 N 
ATOM     25  C   UNL A   1      34.492  30.503  28.007  1.00  0.00     0.251 C 
ATOM     26  H   UNL A   1      33.071  31.856  28.382  1.00  0.00     0.163 HD
ATOM     27  O   UNL A   1      33.722  29.787  27.363  1.00  0.00    -0.269 OA
BRANCH  25  28
ATOM     28  C   UNL A   1      35.880  30.049  28.263  1.00  0.00     0.039 A 
ATOM     29  C   UNL A   1      36.186  29.523  29.522  1.00  0.00     0.014 A 
ATOM     30  C   UNL A   1      36.893  30.194  27.310  1.00  0.00     0.014 A 
ATOM     31  C   UNL A   1      37.493  29.130  29.818  1.00  0.00     0.010 A 
ATOM     32  C   UNL A   1      38.181  29.730  27.580  1.00  0.00     0.010 A 
ATOM     33  C   UNL A   1      38.502  29.220  28.845  1.00  0.00    -0.014 A 
BRANCH  33  34
ATOM     34  C   UNL A   1      39.903  28.839  29.162  1.00  0.00     0.031 A 
ATOM     35  C   UNL A   1      40.811  29.815  29.865  1.00  0.00     0.074 A 
ATOM     36  C   UNL A   1      40.370  27.629  28.800  1.00  0.00     0.049 A 
ATOM     37  N   UNL A   1      42.063  29.672  30.218  1.00  0.00    -0.248 NA
ATOM     38  C   UNL A   1      40.244  31.134  30.193  1.00  0.00     0.031 C 
ATOM     39  C   UNL A   1      39.608  26.609  28.076  1.00  0.00     0.029 A 
ATOM     40  N   UNL A   1      41.600  27.052  28.992  1.00  0.00    -0.354 N 
ATOM     41  C   UNL A   1      42.436  30.882  30.793  1.00  0.00     0.074 A 
ATOM     42  C   UNL A   1      41.296  31.766  30.691  1.00  0.00     0.031 C 
ATOM     43  C   UNL A   1      40.381  25.523  27.905  1.00  0.00     0.029 A 
ATOM     44  C   UNL A   1      41.696  25.777  28.484  1.00  0.00     0.049 A 
ATOM     45  H   UNL A   1      42.343  27.507  29.451  1.00  0.00     0.167 HD
ATOM     46  C   UNL A   1      43.610  31.223  31.377  1.00  0.00     0.031 A 
ATOM     47  C   UNL A   1      42.727  24.910  28.487  1.00  0.00     0.031 A 
ATOM     48  C   UNL A   1      44.741  30.340  31.490  1.00  0.00     0.049 A 
ATOM     49  C   UNL A   1      44.012  25.295  29.166  1.00  0.00     0.074 A 
ATOM     50  C   UNL A   1      45.963  30.577  32.094  1.00  0.00     0.029 A 
ATOM     51  N   UNL A   1      44.784  29.046  30.995  1.00  0.00    -0.354 N 
ATOM     52  N   UNL A   1      44.328  26.428  29.749  1.00  0.00    -0.248 NA
ATOM     53  C   UNL A   1      45.070  24.278  29.209  1.00  0.00     0.031 C 
ATOM     54  C   UNL A   1      46.758  29.436  31.934  1.00  0.00     0.029 A 
ATOM     55  C   UNL A   1      46.013  28.472  31.274  1.00  0.00     0.049 A 
ATOM     56  H   UNL A   1      44.049  28.600  30.514  1.00  0.00     0.167 HD
ATOM     57  C   UNL A   1      45.611  26.248  30.251  1.00  0.00     0.074 A 
ATOM     58  C   UNL A   1      46.007  24.895  29.915  1.00  0.00     0.031 C 
ATOM     59  C   UNL A   1      46.392  27.125  30.931  1.00  0.00     0.031 A 
BRANCH  46  60
ATOM     60  C   UNL A   1      43.721  32.617  31.938  1.00  0.00    -0.014 A 
ATOM     61  C   UNL A   1      43.654  32.847  33.325  1.00  0.00     0.010 A 
ATOM     62  C   UNL A   1      43.902  33.711  31.073  1.00  0.00     0.010 A 
ATOM     63  C   UNL A   1      43.708  34.147  33.832  1.00  0.00     0.020 A 
ATOM     64  C   UNL A   1      43.986  35.012  31.579  1.00  0.00     0.020 A 
ATOM     65  C   UNL A   1      43.864  35.223  32.954  1.00  0.00     0.054 A 
BRANCH  65  66
ATOM     66  S   UNL A   1      43.929  36.902  33.637  1.00  0.00     0.124 S 
ATOM     67  O   UNL A   1      42.527  37.144  33.969  1.00  0.00    -0.237 OA
ATOM     68  O   UNL A   1      44.826  36.752  34.779  1.00  0.00    -0.237 OA
ATOM     69  O   UNL A   1      44.456  37.705  32.536  1.00  0.00    -0.744 OA
ENDBRANCH  65  66
ENDBRANCH  46  60
BRANCH  47  70
ATOM     70  C   UNL A   1      42.565  23.574  27.851  1.00  0.00    -0.014 A 
ATOM     71  C   UNL A   1      42.968  23.360  26.522  1.00  0.00     0.010 A 
ATOM     72  C   UNL A   1      42.036  22.499  28.588  1.00  0.00     0.010 A 
ATOM     73  C   UNL A   1      42.833  22.098  25.937  1.00  0.00     0.020 A 
ATOM     74  C   UNL A   1      41.923  21.229  28.014  1.00  0.00     0.020 A 
ATOM     75  C   UNL A   1      42.315  21.039  26.688  1.00  0.00     0.054 A 
BRANCH  75  76
ATOM     76  S   UNL A   1      42.214  19.392  25.931  1.00  0.00     0.124 S 
ATOM     77  O   UNL A   1      42.790  18.545  26.970  1.00  0.00    -0.237 OA
ATOM     78  O   UNL A   1      40.780  19.234  25.708  1.00  0.00    -0.237 OA
ATOM     79  O   UNL A   1      43.014  19.527  24.715  1.00  0.00    -0.744 OA
ENDBRANCH  75  76
ENDBRANCH  47  70
BRANCH  59  80
ATOM     80  C   UNL A   1      47.737  26.635  31.393  1.00  0.00    -0.014 A 
ATOM     81  C   UNL A   1      47.888  25.955  32.615  1.00  0.00     0.010 A 
ATOM     82  C   UNL A   1      48.863  26.827  30.572  1.00  0.00     0.010 A 
ATOM     83  C   UNL A   1      49.148  25.512  33.026  1.00  0.00     0.020 A 
ATOM     84  C   UNL A   1      50.120  26.364  30.967  1.00  0.00     0.020 A 
ATOM     85  C   UNL A   1      50.258  25.725  32.201  1.00  0.00     0.054 A 
BRANCH  85  86
ATOM     86  S   UNL A   1      51.880  25.119  32.742  1.00  0.00     0.124 S 
ATOM     87  O   UNL A   1      52.178  26.012  33.859  1.00  0.00    -0.237 OA
ATOM     88  O   UNL A   1      51.602  23.732  33.105  1.00  0.00    -0.237 OA
ATOM     89  O   UNL A   1      52.724  25.292  31.562  1.00  0.00    -0.744 OA
ENDBRANCH  85  86
ENDBRANCH  59  80
ENDBRANCH  33  34
ENDBRANCH  25  28
ENDBRANCH  23  24
ENDBRANCH   1  23
TORSDOF 16
ENDMDL
MODEL 3
REMARK VINA RESULT:     -11.5      4.281      7.592
REMARK SMILES C[C@@H](C(=O)NCCCNC(=O)c1ccc(-c2c3nc(c(-c4ccc(S(=O)(=O)[O-])cc4)c4ccc([nH]4)c(-c4ccc(S(=O)(=O)[O-])cc4)c4nc(c(-c5ccc(S(=O)(=O)[O-])cc5)c5ccc2[nH]5)C=C4)C=C3)cc1)c1ccc(C[C@H]2CCCC2=O)cc1F
REMARK SMILES IDX 7 1 6 2 5 3 3 4 4 5 2 7 1 8 72 9 73 10 84 11 74 12 83 13
REMARK SMILES IDX 85 14 75 15 76 16 77 17 78 18 81 19 79 20 80 21 82 22 8 23
REMARK SMILES IDX 9 24 10 25 11 27 12 28 13 29 71 30 14 31 70 32 15 33 16 34
REMARK SMILES IDX 17 35 64 36 18 37 69 38 63 39 65 40 19 41 68 42 62 43 61 44
REMARK SMILES IDX 20 46 50 47 31 48 49 49 32 50 35 51 48 52 66 53 33 54 34 55
REMARK SMILES IDX 47 57 67 58 36 59 21 60 22 61 30 62 23 63 29 64 24 65 25 66
REMARK SMILES IDX 26 67 27 68 28 69 51 70 52 71 60 72 53 73 59 74 54 75 55 76
REMARK SMILES IDX 56 77 57 78 58 79 37 80 38 81 46 82 39 83 45 84 40 85 41 86
REMARK SMILES IDX 42 87 43 88 44 89
REMARK H PARENT 5 6 9 26 65 45 35 56
REMARK Flexibility Score: inf
ROOT
ATOM      1  C   UNL A   1      34.486  34.330  28.093  1.00  0.00     0.042 C 
ENDROOT
BRANCH   1   2
ATOM      2  C   UNL A   1      33.206  34.810  28.780  1.00  0.00     0.117 C 
BRANCH   2   3
ATOM      3  N   UNL A   1      33.408  36.086  29.443  1.00  0.00    -0.356 N 
ATOM      4  C   UNL A   1      33.048  36.491  30.699  1.00  0.00     0.227 C 
ATOM      5  O   UNL A   1      33.076  37.701  30.928  1.00  0.00    -0.274 OA
ATOM      6  H   UNL A   1      33.878  36.765  28.906  1.00  0.00     0.163 HD
BRANCH   4   7
ATOM      7  C   UNL A   1      32.617  35.444  31.746  1.00  0.00     0.108 C 
ATOM      8  C   UNL A   1      31.679  36.138  32.744  1.00  0.00     0.023 C 
BRANCH   7   9
ATOM      9  C   UNL A   1      33.805  34.757  32.420  1.00  0.00    -0.000 A 
ATOM     10  C   UNL A   1      34.182  33.440  32.116  1.00  0.00     0.008 A 
ATOM     11  C   UNL A   1      34.583  35.440  33.364  1.00  0.00     0.127 A 
ATOM     12  C   UNL A   1      35.216  32.806  32.807  1.00  0.00     0.004 A 
ATOM     13  C   UNL A   1      35.586  34.799  34.094  1.00  0.00     0.043 A 
ATOM     14  F   UNL A   1      34.369  36.743  33.599  1.00  0.00    -0.207 F 
ATOM     15  C   UNL A   1      35.882  33.454  33.852  1.00  0.00    -0.044 A 
BRANCH  15  16
ATOM     16  C   UNL A   1      36.873  32.703  34.706  1.00  0.00     0.047 C 
BRANCH  16  17
ATOM     17  C   UNL A   1      37.934  31.886  33.950  1.00  0.00     0.060 C 
ATOM     18  C   UNL A   1      38.931  32.683  33.102  1.00  0.00     0.012 C 
ATOM     19  C   UNL A   1      38.854  31.111  34.867  1.00  0.00     0.136 C 
ATOM     20  C   UNL A   1      40.188  32.838  33.952  1.00  0.00     0.009 C 
ATOM     21  C   UNL A   1      40.290  31.555  34.764  1.00  0.00     0.076 C 
ATOM     22  O   UNL A   1      38.475  30.209  35.606  1.00  0.00    -0.299 OA
ENDBRANCH  16  17
ENDBRANCH  15  16
ENDBRANCH   7   9
ENDBRANCH   4   7
ENDBRANCH   2   3
ENDBRANCH   1   2
BRANCH   1  23
ATOM     23  C   UNL A   1      35.051  33.031  28.654  1.00  0.00     0.118 C 
BRANCH  23  24
ATOM     24  N   UNL A   1      34.233  31.882  28.316  1.00  0.00    -0.352 N 
ATOM     25  C   UNL A   1      34.605  30.592  28.038  1.00  0.00     0.251 C 
ATOM     26  H   UNL A   1      33.264  32.053  28.281  1.00  0.00     0.163 HD
ATOM     27  O   UNL A   1      33.764  29.817  27.578  1.00  0.00    -0.269 OA
BRANCH  25  28
ATOM     28  C   UNL A   1      35.992  30.122  28.269  1.00  0.00     0.039 A 
ATOM     29  C   UNL A   1      36.332  29.650  29.541  1.00  0.00     0.014 A 
ATOM     30  C   UNL A   1      36.975  30.202  27.277  1.00  0.00     0.014 A 
ATOM     31  C   UNL A   1      37.640  29.244  29.811  1.00  0.00     0.010 A 
ATOM     32  C   UNL A   1      38.262  29.726  27.525  1.00  0.00     0.010 A 
ATOM     33  C   UNL A   1      38.616  29.268  28.802  1.00  0.00    -0.014 A 
BRANCH  33  34
ATOM     34  C   UNL A   1      40.020  28.874  29.090  1.00  0.00     0.031 A 
ATOM     35  C   UNL A   1      40.958  29.850  29.753  1.00  0.00     0.074 A 
ATOM     36  C   UNL A   1      40.462  27.652  28.736  1.00  0.00     0.049 A 
ATOM     37  N   UNL A   1      42.217  29.696  30.076  1.00  0.00    -0.248 NA
ATOM     38  C   UNL A   1      40.417  31.181  30.073  1.00  0.00     0.031 C 
ATOM     39  C   UNL A   1      39.669  26.631  28.049  1.00  0.00     0.029 A 
ATOM     40  N   UNL A   1      41.689  27.062  28.907  1.00  0.00    -0.354 N 
ATOM     41  C   UNL A   1      42.620  30.909  30.622  1.00  0.00     0.074 A 
ATOM     42  C   UNL A   1      41.489  31.808  30.534  1.00  0.00     0.031 C 
ATOM     43  C   UNL A   1      40.423  25.532  27.876  1.00  0.00     0.029 A 
ATOM     44  C   UNL A   1      41.756  25.778  28.418  1.00  0.00     0.049 A 
ATOM     45  H   UNL A   1      42.449  27.514  29.339  1.00  0.00     0.167 HD
ATOM     46  C   UNL A   1      43.813  31.245  31.170  1.00  0.00     0.031 A 
ATOM     47  C   UNL A   1      42.775  24.897  28.409  1.00  0.00     0.031 A 
ATOM     48  C   UNL A   1      44.934  30.349  31.269  1.00  0.00     0.049 A 
ATOM     49  C   UNL A   1      44.082  25.277  29.049  1.00  0.00     0.074 A 
ATOM     50  C   UNL A   1      46.175  30.580  31.838  1.00  0.00     0.029 A 
ATOM     51  N   UNL A   1      44.948  29.046  30.795  1.00  0.00    -0.354 N 
ATOM     52  N   UNL A   1      44.427  26.414  29.604  1.00  0.00    -0.248 NA
ATOM     53  C   UNL A   1      45.128  24.246  29.082  1.00  0.00     0.031 C 
ATOM     54  C   UNL A   1      46.951  29.426  31.676  1.00  0.00     0.029 A 
ATOM     55  C   UNL A   1      46.177  28.461  31.052  1.00  0.00     0.049 A 
ATOM     56  H   UNL A   1      44.196  28.603  30.340  1.00  0.00     0.167 HD
ATOM     57  C   UNL A   1      45.721  26.226  30.077  1.00  0.00     0.074 A 
ATOM     58  C   UNL A   1      46.090  24.863  29.754  1.00  0.00     0.031 C 
ATOM     59  C   UNL A   1      46.530  27.104  30.723  1.00  0.00     0.031 A 
BRANCH  46  60
ATOM     60  C   UNL A   1      43.956  32.646  31.704  1.00  0.00    -0.014 A 
ATOM     61  C   UNL A   1      43.694  32.935  33.057  1.00  0.00     0.010 A 
ATOM     62  C   UNL A   1      44.363  33.687  30.850  1.00  0.00     0.010 A 
ATOM     63  C   UNL A   1      43.781  34.246  33.532  1.00  0.00     0.020 A 
ATOM     64  C   UNL A   1      44.479  34.995  31.329  1.00  0.00     0.020 A 
ATOM     65  C   UNL A   1      44.165  35.270  32.661  1.00  0.00     0.054 A 
BRANCH  65  66
ATOM     66  S   UNL A   1      44.268  36.964  33.302  1.00  0.00     0.124 S 
ATOM     67  O   UNL A   1      42.925  37.161  33.844  1.00  0.00    -0.237 OA
ATOM     68  O   UNL A   1      45.336  36.870  34.293  1.00  0.00    -0.237 OA
ATOM     69  O   UNL A   1      44.586  37.763  32.120  1.00  0.00    -0.744 OA
ENDBRANCH  65  66
ENDBRANCH  46  60
BRANCH  47  70
ATOM     70  C   UNL A   1      42.580  23.553  27.800  1.00  0.00    -0.014 A 
ATOM     71  C   UNL A   1      42.974  23.304  26.474  1.00  0.00     0.010 A 
ATOM     72  C   UNL A   1      42.028  22.506  28.559  1.00  0.00     0.010 A 
ATOM     73  C   UNL A   1      42.808  22.034  25.914  1.00  0.00     0.020 A 
ATOM     74  C   UNL A   1      41.884  21.228  28.011  1.00  0.00     0.020 A 
ATOM     75  C   UNL A   1      42.267  21.003  26.687  1.00  0.00     0.054 A 
BRANCH  75  76
ATOM     76  S   UNL A   1      42.125  19.345  25.963  1.00  0.00     0.124 S 
ATOM     77  O   UNL A   1      42.956  19.463  24.769  1.00  0.00    -0.237 OA
ATOM     78  O   UNL A   1      42.656  18.491  27.022  1.00  0.00    -0.237 OA
ATOM     79  O   UNL A   1      40.691  19.201  25.719  1.00  0.00    -0.744 OA
ENDBRANCH  75  76
ENDBRANCH  47  70
BRANCH  59  80
ATOM     80  C   UNL A   1      47.880  26.603  31.158  1.00  0.00    -0.014 A 
ATOM     81  C   UNL A   1      49.031  26.837  30.384  1.00  0.00     0.010 A 
ATOM     82  C   UNL A   1      48.003  25.920  32.382  1.00  0.00     0.010 A 
ATOM     83  C   UNL A   1      50.274  26.359  30.806  1.00  0.00     0.020 A 
ATOM     84  C   UNL A   1      49.249  25.464  32.820  1.00  0.00     0.020 A 
ATOM     85  C   UNL A   1      50.374  25.670  32.020  1.00  0.00     0.054 A 
BRANCH  85  86
ATOM     86  S   UNL A   1      52.002  25.082  32.562  1.00  0.00     0.124 S 
ATOM     87  O   UNL A   1      52.850  25.456  31.433  1.00  0.00    -0.237 OA
ATOM     88  O   UNL A   1      52.225  25.836  33.793  1.00  0.00    -0.237 OA
ATOM     89  O   UNL A   1      51.806  23.645  32.746  1.00  0.00    -0.744 OA
ENDBRANCH  85  86
ENDBRANCH  59  80
ENDBRANCH  33  34
ENDBRANCH  25  28
ENDBRANCH  23  24
ENDBRANCH   1  23
TORSDOF 16
ENDMDL
