MODEL 1
REMARK VINA RESULT:     -12.5      0.000      0.000
REMARK SMILES CCCn1ncc(C(=O)N2CCC(C(=O)NCCCNC(=O)c3ccc(-c4c5nc(c(-c6ccc(S(=O)(=O)[O-])cc6)c6ccc([nH]6)c(-c6ccc(S(=O)(=O)[O-])cc6)c6nc(c(-c7ccc(S(=O)(=O)[O-])cc7)c7ccc4[nH]7)C=C6)C=C5)cc3)CC2)c1C
REMARK SMILES IDX 18 1 17 2 16 3 14 4 15 5 13 7 8 8 9 9 10 10 11 11 84 12
REMARK SMILES IDX 12 13 83 14 7 15 4 16 5 17 85 18 6 19 86 20 3 21 2 22 1 23
REMARK SMILES IDX 19 24 20 25 21 26 22 28 23 29 24 30 82 31 25 32 81 33 26 34
REMARK SMILES IDX 27 35 28 36 75 37 29 38 80 39 74 40 76 41 30 42 79 43 73 44
REMARK SMILES IDX 72 45 31 47 61 48 42 49 60 50 43 51 46 52 59 53 77 54 44 55
REMARK SMILES IDX 45 56 58 58 78 59 47 60 32 61 33 62 41 63 34 64 40 65 35 66
REMARK SMILES IDX 36 67 37 68 38 69 39 70 62 71 63 72 71 73 64 74 70 75 65 76
REMARK SMILES IDX 66 77 67 78 68 79 69 80 48 81 49 82 57 83 50 84 56 85 51 86
REMARK SMILES IDX 52 87 53 88 54 89 55 90
REMARK H PARENT 16 6 20 27 76 46 46 57
REMARK Flexibility Score: inf
ROOT
ATOM      1  C   UNL A   1      37.347  21.891  24.801  1.00  0.00     0.042 C 
ENDROOT
BRANCH   1   2
ATOM      2  C   UNL A   1      36.174  21.024  25.261  1.00  0.00     0.117 C 
BRANCH   2   3
ATOM      3  N   UNL A   1      35.551  21.468  26.503  1.00  0.00    -0.356 N 
ATOM      4  C   UNL A   1      34.400  22.161  26.733  1.00  0.00     0.223 C 
ATOM      5  O   UNL A   1      34.041  22.319  27.901  1.00  0.00    -0.275 OA
ATOM      6  H   UNL A   1      36.049  21.224  27.317  1.00  0.00     0.163 HD
BRANCH   4   7
ATOM      7  C   UNL A   1      33.566  22.736  25.595  1.00  0.00     0.082 C 
ATOM      8  C   UNL A   1      31.124  25.754  25.693  1.00  0.00     0.257 C 
ATOM      9  O   UNL A   1      30.707  25.492  26.820  1.00  0.00    -0.269 OA
ATOM     10  N   UNL A   1      31.698  24.783  24.881  1.00  0.00    -0.338 N 
ATOM     11  C   UNL A   1      31.211  23.421  24.978  1.00  0.00     0.120 C 
ATOM     12  C   UNL A   1      33.042  24.925  24.342  1.00  0.00     0.120 C 
ATOM     13  C   UNL A   1      32.072  22.606  25.918  1.00  0.00     0.035 C 
ATOM     14  C   UNL A   1      34.055  24.136  25.174  1.00  0.00     0.035 C 
BRANCH   8  15
ATOM     15  C   UNL A   1      30.905  27.058  25.079  1.00  0.00     0.080 A 
ATOM     16  N   UNL A   1      30.212  28.645  23.708  1.00  0.00    -0.269 N 
ATOM     17  N   UNL A   1      31.287  29.183  24.324  1.00  0.00    -0.180 NA
ATOM     18  C   UNL A   1      29.880  27.406  24.203  1.00  0.00     0.048 A 
ATOM     19  C   UNL A   1      31.713  28.212  25.132  1.00  0.00     0.149 A 
ATOM     20  C   UNL A   1      28.683  26.625  23.806  1.00  0.00     0.067 C 
BRANCH  16  21
ATOM     21  C   UNL A   1      29.536  29.451  22.704  1.00  0.00     0.144 C 
BRANCH  21  22
ATOM     22  C   UNL A   1      29.124  30.862  23.142  1.00  0.00     0.020 C 
ATOM     23  C   UNL A   1      27.655  30.997  23.519  1.00  0.00     0.006 C 
ENDBRANCH  21  22
ENDBRANCH  16  21
ENDBRANCH   8  15
ENDBRANCH   4   7
ENDBRANCH   2   3
ENDBRANCH   1   2
BRANCH   1  24
ATOM     24  C   UNL A   1      38.304  22.237  25.924  1.00  0.00     0.118 C 
BRANCH  24  25
ATOM     25  N   UNL A   1      39.670  21.767  25.687  1.00  0.00    -0.352 N 
ATOM     26  C   UNL A   1      40.850  22.428  25.971  1.00  0.00     0.251 C 
ATOM     27  H   UNL A   1      39.759  20.876  25.276  1.00  0.00     0.163 HD
ATOM     28  O   UNL A   1      41.906  22.081  25.449  1.00  0.00    -0.269 OA
BRANCH  26  29
ATOM     29  C   UNL A   1      40.807  23.570  26.902  1.00  0.00     0.039 A 
ATOM     30  C   UNL A   1      41.558  23.584  28.080  1.00  0.00     0.014 A 
ATOM     31  C   UNL A   1      40.049  24.674  26.529  1.00  0.00     0.014 A 
ATOM     32  C   UNL A   1      41.617  24.761  28.825  1.00  0.00     0.010 A 
ATOM     33  C   UNL A   1      40.246  25.874  27.163  1.00  0.00     0.010 A 
ATOM     34  C   UNL A   1      40.981  25.916  28.343  1.00  0.00    -0.014 A 
BRANCH  34  35
ATOM     35  C   UNL A   1      41.156  27.212  28.996  1.00  0.00     0.031 A 
ATOM     36  C   UNL A   1      42.228  28.068  28.420  1.00  0.00     0.074 A 
ATOM     37  C   UNL A   1      40.263  27.709  29.881  1.00  0.00     0.049 A 
ATOM     38  N   UNL A   1      43.351  28.401  28.965  1.00  0.00    -0.248 NA
ATOM     39  C   UNL A   1      42.098  28.501  27.018  1.00  0.00     0.031 C 
ATOM     40  C   UNL A   1      38.987  27.119  30.310  1.00  0.00     0.029 A 
ATOM     41  N   UNL A   1      40.243  28.925  30.490  1.00  0.00    -0.354 N 
ATOM     42  C   UNL A   1      43.968  29.274  28.073  1.00  0.00     0.074 A 
ATOM     43  C   UNL A   1      43.255  29.139  26.828  1.00  0.00     0.031 C 
ATOM     44  C   UNL A   1      38.219  28.066  30.891  1.00  0.00     0.029 A 
ATOM     45  C   UNL A   1      39.017  29.265  31.054  1.00  0.00     0.049 A 
ATOM     46  H   UNL A   1      41.031  29.516  30.530  1.00  0.00     0.167 HD
ATOM     47  C   UNL A   1      44.847  30.225  28.499  1.00  0.00     0.031 A 
ATOM     48  C   UNL A   1      38.675  30.451  31.612  1.00  0.00     0.031 A 
ATOM     49  C   UNL A   1      45.231  30.011  29.871  1.00  0.00     0.049 A 
ATOM     50  C   UNL A   1      39.935  31.135  31.973  1.00  0.00     0.074 A 
ATOM     51  C   UNL A   1      45.876  29.011  30.567  1.00  0.00     0.029 A 
ATOM     52  N   UNL A   1      44.570  30.773  30.806  1.00  0.00    -0.354 N 
ATOM     53  N   UNL A   1      40.753  30.692  32.886  1.00  0.00    -0.248 NA
ATOM     54  C   UNL A   1      40.507  32.088  31.036  1.00  0.00     0.031 C 
ATOM     55  C   UNL A   1      45.219  28.958  31.832  1.00  0.00     0.029 A 
ATOM     56  C   UNL A   1      44.255  29.970  31.871  1.00  0.00     0.049 A 
ATOM     57  H   UNL A   1      44.358  31.731  30.725  1.00  0.00     0.167 HD
ATOM     58  C   UNL A   1      42.018  30.951  32.382  1.00  0.00     0.074 A 
ATOM     59  C   UNL A   1      41.804  31.928  31.317  1.00  0.00     0.031 C 
ATOM     60  C   UNL A   1      43.072  30.139  32.690  1.00  0.00     0.031 A 
BRANCH  47  61
ATOM     61  C   UNL A   1      45.026  31.577  27.840  1.00  0.00    -0.014 A 
ATOM     62  C   UNL A   1      46.299  31.922  27.336  1.00  0.00     0.010 A 
ATOM     63  C   UNL A   1      44.084  32.620  27.952  1.00  0.00     0.010 A 
ATOM     64  C   UNL A   1      46.634  33.251  27.040  1.00  0.00     0.020 A 
ATOM     65  C   UNL A   1      44.393  33.941  27.616  1.00  0.00     0.020 A 
ATOM     66  C   UNL A   1      45.679  34.255  27.200  1.00  0.00     0.054 A 
BRANCH  66  67
ATOM     67  S   UNL A   1      46.149  35.980  26.926  1.00  0.00     0.124 S 
ATOM     68  O   UNL A   1      47.209  35.847  25.931  1.00  0.00    -0.237 OA
ATOM     69  O   UNL A   1      44.901  36.570  26.450  1.00  0.00    -0.237 OA
ATOM     70  O   UNL A   1      46.581  36.430  28.248  1.00  0.00    -0.744 OA
ENDBRANCH  66  67
ENDBRANCH  47  61
BRANCH  48  71
ATOM     71  C   UNL A   1      37.359  31.132  31.650  1.00  0.00    -0.014 A 
ATOM     72  C   UNL A   1      36.722  31.393  32.878  1.00  0.00     0.010 A 
ATOM     73  C   UNL A   1      36.877  31.794  30.503  1.00  0.00     0.010 A 
ATOM     74  C   UNL A   1      35.693  32.345  32.970  1.00  0.00     0.020 A 
ATOM     75  C   UNL A   1      35.848  32.743  30.587  1.00  0.00     0.020 A 
ATOM     76  C   UNL A   1      35.282  33.034  31.826  1.00  0.00     0.054 A 
BRANCH  76  77
ATOM     77  S   UNL A   1      34.105  34.411  31.994  1.00  0.00     0.124 S 
ATOM     78  O   UNL A   1      33.152  33.889  32.970  1.00  0.00    -0.237 OA
ATOM     79  O   UNL A   1      34.956  35.502  32.464  1.00  0.00    -0.237 OA
ATOM     80  O   UNL A   1      33.579  34.581  30.641  1.00  0.00    -0.744 OA
ENDBRANCH  76  77
ENDBRANCH  48  71
BRANCH  60  81
ATOM     81  C   UNL A   1      42.914  29.184  33.853  1.00  0.00    -0.014 A 
ATOM     82  C   UNL A   1      43.224  29.506  35.190  1.00  0.00     0.010 A 
ATOM     83  C   UNL A   1      42.310  27.944  33.586  1.00  0.00     0.010 A 
ATOM     84  C   UNL A   1      42.964  28.594  36.224  1.00  0.00     0.020 A 
ATOM     85  C   UNL A   1      42.031  27.040  34.613  1.00  0.00     0.020 A 
ATOM     86  C   UNL A   1      42.371  27.363  35.927  1.00  0.00     0.054 A 
BRANCH  86  87
ATOM     87  S   UNL A   1      42.008  26.195  37.269  1.00  0.00     0.124 S 
ATOM     88  O   UNL A   1      40.656  26.577  37.665  1.00  0.00    -0.237 OA
ATOM     89  O   UNL A   1      42.128  24.896  36.611  1.00  0.00    -0.237 OA
ATOM     90  O   UNL A   1      43.045  26.473  38.263  1.00  0.00    -0.744 OA
ENDBRANCH  86  87
ENDBRANCH  60  81
ENDBRANCH  34  35
ENDBRANCH  26  29
ENDBRANCH  24  25
ENDBRANCH   1  24
TORSDOF 16
ENDMDL
MODEL 2
REMARK VINA RESULT:     -12.4      2.929      9.727
REMARK SMILES CCCn1ncc(C(=O)N2CCC(C(=O)NCCCNC(=O)c3ccc(-c4c5nc(c(-c6ccc(S(=O)(=O)[O-])cc6)c6ccc([nH]6)c(-c6ccc(S(=O)(=O)[O-])cc6)c6nc(c(-c7ccc(S(=O)(=O)[O-])cc7)c7ccc4[nH]7)C=C6)C=C5)cc3)CC2)c1C
REMARK SMILES IDX 18 1 17 2 16 3 14 4 15 5 13 7 8 8 9 9 10 10 11 11 84 12
REMARK SMILES IDX 12 13 83 14 7 15 4 16 5 17 85 18 6 19 86 20 3 21 2 22 1 23
REMARK SMILES IDX 19 24 20 25 21 26 22 28 23 29 24 30 82 31 25 32 81 33 26 34
REMARK SMILES IDX 27 35 28 36 75 37 29 38 80 39 74 40 76 41 30 42 79 43 73 44
REMARK SMILES IDX 72 45 31 47 61 48 42 49 60 50 43 51 46 52 59 53 77 54 44 55
REMARK SMILES IDX 45 56 58 58 78 59 47 60 32 61 33 62 41 63 34 64 40 65 35 66
REMARK SMILES IDX 36 67 37 68 38 69 39 70 62 71 63 72 71 73 64 74 70 75 65 76
REMARK SMILES IDX 66 77 67 78 68 79 69 80 48 81 49 82 57 83 50 84 56 85 51 86
REMARK SMILES IDX 52 87 53 88 54 89 55 90
REMARK H PARENT 16 6 20 27 76 46 46 57
REMARK Flexibility Score: inf
ROOT
ATOM      1  C   UNL A   1      32.268  29.533  26.914  1.00  0.00     0.042 C 
ENDROOT
BRANCH   1   2
ATOM      2  C   UNL A   1      31.943  29.853  25.455  1.00  0.00     0.117 C 
BRANCH   2   3
ATOM      3  N   UNL A   1      33.033  29.578  24.524  1.00  0.00    -0.356 N 
ATOM      4  C   UNL A   1      33.304  28.483  23.758  1.00  0.00     0.223 C 
ATOM      5  O   UNL A   1      34.246  28.550  22.965  1.00  0.00    -0.275 OA
ATOM      6  H   UNL A   1      33.685  30.310  24.434  1.00  0.00     0.163 HD
BRANCH   4   7
ATOM      7  C   UNL A   1      32.483  27.205  23.861  1.00  0.00     0.082 C 
ATOM      8  C   UNL A   1      33.618  23.558  23.157  1.00  0.00     0.257 C 
ATOM      9  O   UNL A   1      34.331  23.871  22.206  1.00  0.00    -0.269 OA
ATOM     10  N   UNL A   1      32.561  24.359  23.573  1.00  0.00    -0.338 N 
ATOM     11  C   UNL A   1      31.836  25.123  22.579  1.00  0.00     0.120 C 
ATOM     12  C   UNL A   1      32.466  24.863  24.935  1.00  0.00     0.120 C 
ATOM     13  C   UNL A   1      32.374  26.534  22.486  1.00  0.00     0.035 C 
ATOM     14  C   UNL A   1      32.959  26.309  25.022  1.00  0.00     0.035 C 
BRANCH   8  15
ATOM     15  C   UNL A   1      33.736  22.260  23.810  1.00  0.00     0.080 A 
ATOM     16  N   UNL A   1      33.265  20.242  24.576  1.00  0.00    -0.269 N 
ATOM     17  N   UNL A   1      34.314  20.648  25.326  1.00  0.00    -0.180 NA
ATOM     18  C   UNL A   1      32.948  21.135  23.580  1.00  0.00     0.048 A 
ATOM     19  C   UNL A   1      34.577  21.874  24.874  1.00  0.00     0.149 A 
ATOM     20  C   UNL A   1      31.924  20.910  22.531  1.00  0.00     0.067 C 
BRANCH  16  21
ATOM     21  C   UNL A   1      32.695  18.936  24.863  1.00  0.00     0.144 C 
BRANCH  21  22
ATOM     22  C   UNL A   1      33.641  17.740  24.701  1.00  0.00     0.020 C 
ATOM     23  C   UNL A   1      33.809  17.265  23.264  1.00  0.00     0.006 C 
ENDBRANCH  21  22
ENDBRANCH  16  21
ENDBRANCH   8  15
ENDBRANCH   4   7
ENDBRANCH   2   3
ENDBRANCH   1   2
BRANCH   1  24
ATOM     24  C   UNL A   1      33.696  29.871  27.292  1.00  0.00     0.118 C 
BRANCH  24  25
ATOM     25  N   UNL A   1      34.013  31.293  27.145  1.00  0.00    -0.352 N 
ATOM     26  C   UNL A   1      35.084  31.978  27.688  1.00  0.00     0.251 C 
ATOM     27  H   UNL A   1      33.390  31.823  26.596  1.00  0.00     0.163 HD
ATOM     28  O   UNL A   1      35.074  33.204  27.758  1.00  0.00    -0.269 OA
BRANCH  26  29
ATOM     29  C   UNL A   1      36.229  31.201  28.194  1.00  0.00     0.039 A 
ATOM     30  C   UNL A   1      36.437  29.873  27.817  1.00  0.00     0.014 A 
ATOM     31  C   UNL A   1      37.145  31.862  29.005  1.00  0.00     0.014 A 
ATOM     32  C   UNL A   1      37.631  29.250  28.181  1.00  0.00     0.010 A 
ATOM     33  C   UNL A   1      38.383  31.311  29.214  1.00  0.00     0.010 A 
ATOM     34  C   UNL A   1      38.617  29.987  28.856  1.00  0.00    -0.014 A 
BRANCH  34  35
ATOM     35  C   UNL A   1      39.945  29.433  29.108  1.00  0.00     0.031 A 
ATOM     36  C   UNL A   1      40.273  29.207  30.542  1.00  0.00     0.074 A 
ATOM     37  C   UNL A   1      40.722  28.927  28.124  1.00  0.00     0.049 A 
ATOM     38  N   UNL A   1      41.140  29.837  31.263  1.00  0.00    -0.248 NA
ATOM     39  C   UNL A   1      39.448  28.255  31.304  1.00  0.00     0.031 C 
ATOM     40  C   UNL A   1      40.401  28.787  26.696  1.00  0.00     0.029 A 
ATOM     41  N   UNL A   1      41.926  28.300  28.217  1.00  0.00    -0.354 N 
ATOM     42  C   UNL A   1      41.137  29.209  32.505  1.00  0.00     0.074 A 
ATOM     43  C   UNL A   1      39.953  28.389  32.533  1.00  0.00     0.031 C 
ATOM     44  C   UNL A   1      41.252  27.910  26.121  1.00  0.00     0.029 A 
ATOM     45  C   UNL A   1      42.289  27.584  27.080  1.00  0.00     0.049 A 
ATOM     46  H   UNL A   1      42.494  28.350  29.020  1.00  0.00     0.167 HD
ATOM     47  C   UNL A   1      42.239  29.212  33.308  1.00  0.00     0.031 A 
ATOM     48  C   UNL A   1      43.363  26.772  26.935  1.00  0.00     0.031 A 
ATOM     49  C   UNL A   1      43.232  30.143  32.836  1.00  0.00     0.049 A 
ATOM     50  C   UNL A   1      44.337  27.157  27.979  1.00  0.00     0.074 A 
ATOM     51  C   UNL A   1      43.289  31.507  32.644  1.00  0.00     0.029 A 
ATOM     52  N   UNL A   1      44.261  29.602  32.101  1.00  0.00    -0.354 N 
ATOM     53  N   UNL A   1      44.938  28.313  28.005  1.00  0.00    -0.248 NA
ATOM     54  C   UNL A   1      44.339  26.427  29.236  1.00  0.00     0.031 C 
ATOM     55  C   UNL A   1      44.069  31.682  31.462  1.00  0.00     0.029 A 
ATOM     56  C   UNL A   1      44.505  30.425  31.032  1.00  0.00     0.049 A 
ATOM     57  H   UNL A   1      44.741  28.767  32.306  1.00  0.00     0.167 HD
ATOM     58  C   UNL A   1      44.996  28.651  29.347  1.00  0.00     0.074 A 
ATOM     59  C   UNL A   1      44.742  27.400  30.059  1.00  0.00     0.031 C 
ATOM     60  C   UNL A   1      44.966  29.958  29.740  1.00  0.00     0.031 A 
BRANCH  47  61
ATOM     61  C   UNL A   1      42.610  28.086  34.252  1.00  0.00    -0.014 A 
ATOM     62  C   UNL A   1      42.897  28.399  35.598  1.00  0.00     0.010 A 
ATOM     63  C   UNL A   1      42.962  26.795  33.810  1.00  0.00     0.010 A 
ATOM     64  C   UNL A   1      43.575  27.496  36.430  1.00  0.00     0.020 A 
ATOM     65  C   UNL A   1      43.597  25.871  34.645  1.00  0.00     0.020 A 
ATOM     66  C   UNL A   1      43.935  26.242  35.938  1.00  0.00     0.054 A 
BRANCH  66  67
ATOM     67  S   UNL A   1      44.909  25.125  36.977  1.00  0.00     0.124 S 
ATOM     68  O   UNL A   1      44.641  23.831  36.357  1.00  0.00    -0.237 OA
ATOM     69  O   UNL A   1      46.263  25.644  36.806  1.00  0.00    -0.237 OA
ATOM     70  O   UNL A   1      44.337  25.313  38.309  1.00  0.00    -0.744 OA
ENDBRANCH  66  67
ENDBRANCH  47  61
BRANCH  48  71
ATOM     71  C   UNL A   1      43.518  25.548  26.113  1.00  0.00    -0.014 A 
ATOM     72  C   UNL A   1      44.700  25.317  25.385  1.00  0.00     0.010 A 
ATOM     73  C   UNL A   1      42.630  24.467  26.289  1.00  0.00     0.010 A 
ATOM     74  C   UNL A   1      45.023  24.032  24.920  1.00  0.00     0.020 A 
ATOM     75  C   UNL A   1      42.944  23.183  25.823  1.00  0.00     0.020 A 
ATOM     76  C   UNL A   1      44.154  22.966  25.167  1.00  0.00     0.054 A 
BRANCH  76  77
ATOM     77  S   UNL A   1      44.680  21.276  24.751  1.00  0.00     0.124 S 
ATOM     78  O   UNL A   1      43.611  20.466  25.328  1.00  0.00    -0.237 OA
ATOM     79  O   UNL A   1      44.730  21.307  23.292  1.00  0.00    -0.237 OA
ATOM     80  O   UNL A   1      45.980  21.148  25.408  1.00  0.00    -0.744 OA
ENDBRANCH  76  77
ENDBRANCH  48  71
BRANCH  60  81
ATOM     81  C   UNL A   1      45.225  31.019  28.693  1.00  0.00    -0.014 A 
ATOM     82  C   UNL A   1      44.228  31.580  27.869  1.00  0.00     0.010 A 
ATOM     83  C   UNL A   1      46.523  31.554  28.631  1.00  0.00     0.010 A 
ATOM     84  C   UNL A   1      44.535  32.625  26.985  1.00  0.00     0.020 A 
ATOM     85  C   UNL A   1      46.830  32.607  27.768  1.00  0.00     0.020 A 
ATOM     86  C   UNL A   1      45.838  33.130  26.938  1.00  0.00     0.054 A 
BRANCH  86  87
ATOM     87  S   UNL A   1      46.228  34.502  25.815  1.00  0.00     0.124 S 
ATOM     88  O   UNL A   1      47.643  34.285  25.529  1.00  0.00    -0.237 OA
ATOM     89  O   UNL A   1      45.317  34.276  24.695  1.00  0.00    -0.237 OA
ATOM     90  O   UNL A   1      45.934  35.696  26.608  1.00  0.00    -0.744 OA
ENDBRANCH  86  87
ENDBRANCH  60  81
ENDBRANCH  34  35
ENDBRANCH  26  29
ENDBRANCH  24  25
ENDBRANCH   1  24
TORSDOF 16
ENDMDL
MODEL 3
REMARK VINA RESULT:     -12.3      2.828      7.247
REMARK SMILES CCCn1ncc(C(=O)N2CCC(C(=O)NCCCNC(=O)c3ccc(-c4c5nc(c(-c6ccc(S(=O)(=O)[O-])cc6)c6ccc([nH]6)c(-c6ccc(S(=O)(=O)[O-])cc6)c6nc(c(-c7ccc(S(=O)(=O)[O-])cc7)c7ccc4[nH]7)C=C6)C=C5)cc3)CC2)c1C
REMARK SMILES IDX 18 1 17 2 16 3 14 4 15 5 13 7 8 8 9 9 10 10 11 11 84 12
REMARK SMILES IDX 12 13 83 14 7 15 4 16 5 17 85 18 6 19 86 20 3 21 2 22 1 23
REMARK SMILES IDX 19 24 20 25 21 26 22 28 23 29 24 30 82 31 25 32 81 33 26 34
REMARK SMILES IDX 27 35 28 36 75 37 29 38 80 39 74 40 76 41 30 42 79 43 73 44
REMARK SMILES IDX 72 45 31 47 61 48 42 49 60 50 43 51 46 52 59 53 77 54 44 55
REMARK SMILES IDX 45 56 58 58 78 59 47 60 32 61 33 62 41 63 34 64 40 65 35 66
REMARK SMILES IDX 36 67 37 68 38 69 39 70 62 71 63 72 71 73 64 74 70 75 65 76
REMARK SMILES IDX 66 77 67 78 68 79 69 80 48 81 49 82 57 83 50 84 56 85 51 86
REMARK SMILES IDX 52 87 53 88 54 89 55 90
REMARK H PARENT 16 6 20 27 76 46 46 57
REMARK Flexibility Score: inf
ROOT
ATOM      1  C   UNL A   1      37.537  20.113  24.988  1.00  0.00     0.042 C 
ENDROOT
BRANCH   1   2
ATOM      2  C   UNL A   1      36.541  21.270  24.907  1.00  0.00     0.117 C 
BRANCH   2   3
ATOM      3  N   UNL A   1      35.913  21.611  26.179  1.00  0.00    -0.356 N 
ATOM      4  C   UNL A   1      34.751  22.269  26.459  1.00  0.00     0.223 C 
ATOM      5  O   UNL A   1      34.392  22.334  27.636  1.00  0.00    -0.275 OA
ATOM      6  H   UNL A   1      36.416  21.316  26.973  1.00  0.00     0.163 HD
BRANCH   4   7
ATOM      7  C   UNL A   1      33.908  22.913  25.367  1.00  0.00     0.082 C 
ATOM      8  C   UNL A   1      31.316  25.784  25.713  1.00  0.00     0.257 C 
ATOM      9  O   UNL A   1      30.895  25.391  26.800  1.00  0.00    -0.269 OA
ATOM     10  N   UNL A   1      31.950  24.928  24.822  1.00  0.00    -0.338 N 
ATOM     11  C   UNL A   1      31.531  23.541  24.772  1.00  0.00     0.120 C 
ATOM     12  C   UNL A   1      33.294  25.189  24.326  1.00  0.00     0.120 C 
ATOM     13  C   UNL A   1      32.417  22.679  25.645  1.00  0.00     0.035 C 
ATOM     14  C   UNL A   1      34.333  24.370  25.097  1.00  0.00     0.035 C 
BRANCH   8  15
ATOM     15  C   UNL A   1      31.041  27.131  25.227  1.00  0.00     0.080 A 
ATOM     16  N   UNL A   1      30.311  28.811  23.993  1.00  0.00    -0.269 N 
ATOM     17  N   UNL A   1      31.318  29.344  24.720  1.00  0.00    -0.180 NA
ATOM     18  C   UNL A   1      30.038  27.509  24.339  1.00  0.00     0.048 A 
ATOM     19  C   UNL A   1      31.768  28.319  25.444  1.00  0.00     0.149 A 
ATOM     20  C   UNL A   1      28.915  26.704  23.798  1.00  0.00     0.067 C 
BRANCH  16  21
ATOM     21  C   UNL A   1      29.632  29.678  23.044  1.00  0.00     0.144 C 
BRANCH  21  22
ATOM     22  C   UNL A   1      29.120  31.012  23.601  1.00  0.00     0.020 C 
ATOM     23  C   UNL A   1      27.684  31.342  23.215  1.00  0.00     0.006 C 
ENDBRANCH  21  22
ENDBRANCH  16  21
ENDBRANCH   8  15
ENDBRANCH   4   7
ENDBRANCH   2   3
ENDBRANCH   1   2
BRANCH   1  24
ATOM     24  C   UNL A   1      38.840  20.498  25.660  1.00  0.00     0.118 C 
BRANCH  24  25
ATOM     25  N   UNL A   1      39.802  19.398  25.733  1.00  0.00    -0.352 N 
ATOM     26  C   UNL A   1      41.158  19.479  25.987  1.00  0.00     0.251 C 
ATOM     27  H   UNL A   1      39.441  18.493  25.582  1.00  0.00     0.163 HD
ATOM     28  O   UNL A   1      41.906  18.543  25.715  1.00  0.00    -0.269 OA
BRANCH  26  29
ATOM     29  C   UNL A   1      41.687  20.722  26.576  1.00  0.00     0.039 A 
ATOM     30  C   UNL A   1      42.253  21.724  25.785  1.00  0.00     0.014 A 
ATOM     31  C   UNL A   1      41.532  20.900  27.946  1.00  0.00     0.014 A 
ATOM     32  C   UNL A   1      42.568  22.948  26.375  1.00  0.00     0.010 A 
ATOM     33  C   UNL A   1      41.679  22.153  28.485  1.00  0.00     0.010 A 
ATOM     34  C   UNL A   1      42.249  23.168  27.724  1.00  0.00    -0.014 A 
BRANCH  34  35
ATOM     35  C   UNL A   1      42.400  24.484  28.340  1.00  0.00     0.031 A 
ATOM     36  C   UNL A   1      41.300  25.445  28.051  1.00  0.00     0.074 A 
ATOM     37  C   UNL A   1      43.320  24.741  29.296  1.00  0.00     0.049 A 
ATOM     38  N   UNL A   1      41.358  26.520  27.337  1.00  0.00    -0.248 NA
ATOM     39  C   UNL A   1      39.940  25.105  28.501  1.00  0.00     0.031 C 
ATOM     40  C   UNL A   1      44.268  23.804  29.917  1.00  0.00     0.029 A 
ATOM     41  N   UNL A   1      43.514  25.876  30.019  1.00  0.00    -0.354 N 
ATOM     42  C   UNL A   1      40.104  27.116  27.436  1.00  0.00     0.074 A 
ATOM     43  C   UNL A   1      39.230  26.113  27.990  1.00  0.00     0.031 C 
ATOM     44  C   UNL A   1      44.741  24.329  31.068  1.00  0.00     0.029 A 
ATOM     45  C   UNL A   1      44.291  25.704  31.161  1.00  0.00     0.049 A 
ATOM     46  H   UNL A   1      43.138  26.748  29.757  1.00  0.00     0.167 HD
ATOM     47  C   UNL A   1      39.941  28.463  27.299  1.00  0.00     0.031 A 
ATOM     48  C   UNL A   1      44.544  26.623  32.123  1.00  0.00     0.031 A 
ATOM     49  C   UNL A   1      41.134  29.087  26.784  1.00  0.00     0.049 A 
ATOM     50  C   UNL A   1      44.288  27.951  31.526  1.00  0.00     0.074 A 
ATOM     51  C   UNL A   1      41.870  28.993  25.622  1.00  0.00     0.029 A 
ATOM     52  N   UNL A   1      41.951  29.683  27.716  1.00  0.00    -0.354 N 
ATOM     53  N   UNL A   1      45.003  28.449  30.556  1.00  0.00    -0.248 NA
ATOM     54  C   UNL A   1      42.983  28.564  31.713  1.00  0.00     0.031 C 
ATOM     55  C   UNL A   1      43.229  29.132  26.034  1.00  0.00     0.029 A 
ATOM     56  C   UNL A   1      43.250  29.372  27.411  1.00  0.00     0.049 A 
ATOM     57  H   UNL A   1      41.654  30.237  28.474  1.00  0.00     0.167 HD
ATOM     58  C   UNL A   1      44.090  29.105  29.746  1.00  0.00     0.074 A 
ATOM     59  C   UNL A   1      42.897  29.260  30.575  1.00  0.00     0.031 C 
ATOM     60  C   UNL A   1      44.296  29.204  28.399  1.00  0.00     0.031 A 
BRANCH  47  61
ATOM     61  C   UNL A   1      38.887  29.273  28.024  1.00  0.00    -0.014 A 
ATOM     62  C   UNL A   1      37.631  29.456  27.405  1.00  0.00     0.010 A 
ATOM     63  C   UNL A   1      39.171  30.089  29.137  1.00  0.00     0.010 A 
ATOM     64  C   UNL A   1      36.746  30.459  27.829  1.00  0.00     0.020 A 
ATOM     65  C   UNL A   1      38.277  31.060  29.596  1.00  0.00     0.020 A 
ATOM     66  C   UNL A   1      37.087  31.265  28.914  1.00  0.00     0.054 A 
BRANCH  66  67
ATOM     67  S   UNL A   1      35.995  32.629  29.385  1.00  0.00     0.124 S 
ATOM     68  O   UNL A   1      36.930  33.558  30.013  1.00  0.00    -0.237 OA
ATOM     69  O   UNL A   1      35.451  33.049  28.097  1.00  0.00    -0.237 OA
ATOM     70  O   UNL A   1      35.033  32.001  30.288  1.00  0.00    -0.744 OA
ENDBRANCH  66  67
ENDBRANCH  47  61
BRANCH  48  71
ATOM     71  C   UNL A   1      44.769  26.433  33.576  1.00  0.00    -0.014 A 
ATOM     72  C   UNL A   1      45.816  27.106  34.234  1.00  0.00     0.010 A 
ATOM     73  C   UNL A   1      43.771  25.829  34.369  1.00  0.00     0.010 A 
ATOM     74  C   UNL A   1      45.820  27.242  35.632  1.00  0.00     0.020 A 
ATOM     75  C   UNL A   1      43.773  25.959  35.764  1.00  0.00     0.020 A 
ATOM     76  C   UNL A   1      44.782  26.690  36.386  1.00  0.00     0.054 A 
BRANCH  76  77
ATOM     77  S   UNL A   1      44.685  27.056  38.165  1.00  0.00     0.124 S 
ATOM     78  O   UNL A   1      43.447  26.386  38.554  1.00  0.00    -0.237 OA
ATOM     79  O   UNL A   1      45.914  26.459  38.681  1.00  0.00    -0.237 OA
ATOM     80  O   UNL A   1      44.643  28.517  38.215  1.00  0.00    -0.744 OA
ENDBRANCH  76  77
ENDBRANCH  48  71
BRANCH  60  81
ATOM     81  C   UNL A   1      45.683  28.908  27.871  1.00  0.00    -0.014 A 
ATOM     82  C   UNL A   1      46.114  27.633  27.451  1.00  0.00     0.010 A 
ATOM     83  C   UNL A   1      46.543  30.002  27.681  1.00  0.00     0.010 A 
ATOM     84  C   UNL A   1      47.388  27.459  26.888  1.00  0.00     0.020 A 
ATOM     85  C   UNL A   1      47.803  29.838  27.103  1.00  0.00     0.020 A 
ATOM     86  C   UNL A   1      48.226  28.565  26.721  1.00  0.00     0.054 A 
BRANCH  86  87
ATOM     87  S   UNL A   1      49.863  28.344  25.965  1.00  0.00     0.124 S 
ATOM     88  O   UNL A   1      50.482  27.348  26.834  1.00  0.00    -0.237 OA
ATOM     89  O   UNL A   1      49.539  27.889  24.615  1.00  0.00    -0.237 OA
ATOM     90  O   UNL A   1      50.459  29.679  26.032  1.00  0.00    -0.744 OA
ENDBRANCH  86  87
ENDBRANCH  60  81
ENDBRANCH  34  35
ENDBRANCH  26  29
ENDBRANCH  24  25
ENDBRANCH   1  24
TORSDOF 16
ENDMDL
