MODEL 1
REMARK VINA RESULT:      -9.0      0.000      0.000
REMARK SMILES CC(C)[C@@H](C[NH+](C)C)C(=O)NCCCNC(=O)c1ccc(-c2c3nc(c(-c4ccc(S(=O)(=O)[O-])cc4)c4ccc([nH]4)c(-c4ccc(S(=O)(=O)[O-])cc4)c4nc(c(-c5ccc(S(=O)(=O)[O-])cc5)c5ccc2[nH]5)C=C4)C=C3)cc1
REMARK SMILES IDX 13 1 12 2 11 3 9 4 10 5 4 7 2 8 1 9 3 10 5 11 6 12 7 13 8 14
REMARK SMILES IDX 14 16 15 17 16 18 17 20 18 21 19 22 77 23 20 24 76 25 21 26
REMARK SMILES IDX 22 27 23 28 70 29 24 30 75 31 69 32 71 33 25 34 74 35 68 36
REMARK SMILES IDX 67 37 26 39 56 40 37 41 55 42 38 43 41 44 54 45 72 46 39 47
REMARK SMILES IDX 40 48 53 50 73 51 42 52 27 53 28 54 36 55 29 56 35 57 30 58
REMARK SMILES IDX 31 59 32 60 33 61 34 62 57 63 58 64 66 65 59 66 65 67 60 68
REMARK SMILES IDX 61 69 62 70 63 71 64 72 43 73 44 74 52 75 45 76 51 77 46 78
REMARK SMILES IDX 47 79 48 80 49 81 50 82
REMARK H PARENT 11 6 6 15 15 19 71 38 41 49
REMARK Flexibility Score: inf
ROOT
ATOM      1  C   UNL A   1      35.004  32.962  28.113  1.00  0.00     0.042 C 
ENDROOT
BRANCH   1   2
ATOM      2  C   UNL A   1      35.689  33.284  29.421  1.00  0.00     0.117 C 
BRANCH   2   3
ATOM      3  N   UNL A   1      35.068  32.708  30.590  1.00  0.00    -0.356 N 
ATOM      4  C   UNL A   1      34.573  33.360  31.679  1.00  0.00     0.229 C 
ATOM      5  O   UNL A   1      33.899  32.702  32.479  1.00  0.00    -0.275 OA
ATOM      6  H   UNL A   1      34.994  31.726  30.601  1.00  0.00     0.163 HD
BRANCH   4   7
ATOM      7  C   UNL A   1      34.872  34.842  31.957  1.00  0.00     0.136 C 
BRANCH   7   8
ATOM      8  C   UNL A   1      33.609  35.741  31.878  1.00  0.00     0.001 C 
ATOM      9  C   UNL A   1      33.871  37.142  32.443  1.00  0.00     0.008 C 
ATOM     10  C   UNL A   1      33.113  35.902  30.429  1.00  0.00     0.008 C 
ENDBRANCH   7   8
BRANCH   7  11
ATOM     11  C   UNL A   1      35.890  35.046  33.127  1.00  0.00     0.275 C 
BRANCH  11  12
ATOM     12  N   UNL A   1      36.923  34.035  33.425  1.00  0.00    -0.339 N 
ATOM     13  C   UNL A   1      38.275  34.576  33.274  1.00  0.00     0.332 C 
ATOM     14  C   UNL A   1      36.805  33.407  34.742  1.00  0.00     0.332 C 
ATOM     15  H   UNL A   1      36.756  33.306  32.731  1.00  0.00     0.347 HD
ENDBRANCH  11  12
ENDBRANCH   7  11
ENDBRANCH   4   7
ENDBRANCH   2   3
ENDBRANCH   1   2
BRANCH   1  16
ATOM     16  C   UNL A   1      33.688  32.235  28.281  1.00  0.00     0.118 C 
BRANCH  16  17
ATOM     17  N   UNL A   1      33.541  31.107  27.365  1.00  0.00    -0.352 N 
ATOM     18  C   UNL A   1      34.403  30.080  27.062  1.00  0.00     0.251 C 
ATOM     19  H   UNL A   1      32.683  31.078  26.883  1.00  0.00     0.163 HD
ATOM     20  O   UNL A   1      34.149  29.333  26.119  1.00  0.00    -0.269 OA
BRANCH  18  21
ATOM     21  C   UNL A   1      35.644  29.892  27.843  1.00  0.00     0.039 A 
ATOM     22  C   UNL A   1      35.561  29.477  29.175  1.00  0.00     0.014 A 
ATOM     23  C   UNL A   1      36.892  30.110  27.261  1.00  0.00     0.014 A 
ATOM     24  C   UNL A   1      36.730  29.200  29.887  1.00  0.00     0.010 A 
ATOM     25  C   UNL A   1      38.043  29.707  27.921  1.00  0.00     0.010 A 
ATOM     26  C   UNL A   1      37.979  29.265  29.249  1.00  0.00    -0.014 A 
BRANCH  26  27
ATOM     27  C   UNL A   1      39.238  28.902  29.948  1.00  0.00     0.031 A 
ATOM     28  C   UNL A   1      39.656  29.664  31.179  1.00  0.00     0.074 A 
ATOM     29  C   UNL A   1      40.038  27.945  29.436  1.00  0.00     0.049 A 
ATOM     30  N   UNL A   1      40.755  29.558  31.881  1.00  0.00    -0.248 NA
ATOM     31  C   UNL A   1      38.738  30.710  31.665  1.00  0.00     0.031 C 
ATOM     32  C   UNL A   1      39.768  27.172  28.221  1.00  0.00     0.029 A 
ATOM     33  N   UNL A   1      41.247  27.464  29.870  1.00  0.00    -0.354 N 
ATOM     34  C   UNL A   1      40.667  30.532  32.870  1.00  0.00     0.074 A 
ATOM     35  C   UNL A   1      39.443  31.263  32.639  1.00  0.00     0.031 C 
ATOM     36  C   UNL A   1      40.761  26.289  28.030  1.00  0.00     0.029 A 
ATOM     37  C   UNL A   1      41.763  26.466  29.076  1.00  0.00     0.049 A 
ATOM     38  H   UNL A   1      41.703  27.801  30.675  1.00  0.00     0.167 HD
ATOM     39  C   UNL A   1      41.515  30.779  33.895  1.00  0.00     0.031 A 
ATOM     40  C   UNL A   1      42.915  25.776  29.173  1.00  0.00     0.031 A 
ATOM     41  C   UNL A   1      42.722  30.034  34.131  1.00  0.00     0.049 A 
ATOM     42  C   UNL A   1      43.845  26.073  30.319  1.00  0.00     0.074 A 
ATOM     43  C   UNL A   1      43.620  30.162  35.176  1.00  0.00     0.029 A 
ATOM     44  N   UNL A   1      43.200  29.021  33.312  1.00  0.00    -0.354 N 
ATOM     45  N   UNL A   1      43.709  26.950  31.284  1.00  0.00    -0.248 NA
ATOM     46  C   UNL A   1      45.078  25.276  30.395  1.00  0.00     0.031 C 
ATOM     47  C   UNL A   1      44.671  29.266  34.957  1.00  0.00     0.029 A 
ATOM     48  C   UNL A   1      44.393  28.533  33.813  1.00  0.00     0.049 A 
ATOM     49  H   UNL A   1      42.754  28.698  32.495  1.00  0.00     0.167 HD
ATOM     50  C   UNL A   1      44.825  26.791  32.099  1.00  0.00     0.074 A 
ATOM     51  C   UNL A   1      45.615  25.723  31.522  1.00  0.00     0.031 C 
ATOM     52  C   UNL A   1      45.164  27.467  33.225  1.00  0.00     0.031 A 
BRANCH  39  53
ATOM     53  C   UNL A   1      41.165  31.903  34.836  1.00  0.00    -0.014 A 
ATOM     54  C   UNL A   1      41.590  33.221  34.586  1.00  0.00     0.010 A 
ATOM     55  C   UNL A   1      40.369  31.646  35.967  1.00  0.00     0.010 A 
ATOM     56  C   UNL A   1      41.261  34.252  35.470  1.00  0.00     0.020 A 
ATOM     57  C   UNL A   1      40.010  32.680  36.835  1.00  0.00     0.020 A 
ATOM     58  C   UNL A   1      40.472  33.975  36.590  1.00  0.00     0.054 A 
BRANCH  58  59
ATOM     59  S   UNL A   1      40.037  35.338  37.702  1.00  0.00     0.124 S 
ATOM     60  O   UNL A   1      39.904  36.456  36.771  1.00  0.00    -0.237 OA
ATOM     61  O   UNL A   1      38.790  34.873  38.305  1.00  0.00    -0.237 OA
ATOM     62  O   UNL A   1      41.175  35.421  38.614  1.00  0.00    -0.744 OA
ENDBRANCH  58  59
ENDBRANCH  39  53
BRANCH  40  63
ATOM     63  C   UNL A   1      43.246  24.728  28.169  1.00  0.00    -0.014 A 
ATOM     64  C   UNL A   1      42.805  23.404  28.343  1.00  0.00     0.010 A 
ATOM     65  C   UNL A   1      43.998  25.051  27.023  1.00  0.00     0.010 A 
ATOM     66  C   UNL A   1      43.128  22.419  27.404  1.00  0.00     0.020 A 
ATOM     67  C   UNL A   1      44.295  24.076  26.067  1.00  0.00     0.020 A 
ATOM     68  C   UNL A   1      43.868  22.762  26.270  1.00  0.00     0.054 A 
BRANCH  68  69
ATOM     69  S   UNL A   1      44.235  21.477  25.043  1.00  0.00     0.124 S 
ATOM     70  O   UNL A   1      45.578  21.058  25.432  1.00  0.00    -0.237 OA
ATOM     71  O   UNL A   1      43.173  20.502  25.281  1.00  0.00    -0.237 OA
ATOM     72  O   UNL A   1      44.144  22.185  23.768  1.00  0.00    -0.744 OA
ENDBRANCH  68  69
ENDBRANCH  40  63
BRANCH  52  73
ATOM     73  C   UNL A   1      46.426  27.049  33.933  1.00  0.00    -0.014 A 
ATOM     74  C   UNL A   1      47.661  27.661  33.652  1.00  0.00     0.010 A 
ATOM     75  C   UNL A   1      46.360  26.066  34.938  1.00  0.00     0.010 A 
ATOM     76  C   UNL A   1      48.811  27.274  34.342  1.00  0.00     0.020 A 
ATOM     77  C   UNL A   1      47.503  25.701  35.653  1.00  0.00     0.020 A 
ATOM     78  C   UNL A   1      48.724  26.298  35.341  1.00  0.00     0.054 A 
BRANCH  78  79
ATOM     79  S   UNL A   1      50.226  25.849  36.253  1.00  0.00     0.124 S 
ATOM     80  O   UNL A   1      51.207  25.724  35.180  1.00  0.00    -0.237 OA
ATOM     81  O   UNL A   1      50.411  26.991  37.145  1.00  0.00    -0.237 OA
ATOM     82  O   UNL A   1      49.866  24.598  36.918  1.00  0.00    -0.744 OA
ENDBRANCH  78  79
ENDBRANCH  52  73
ENDBRANCH  26  27
ENDBRANCH  18  21
ENDBRANCH  16  17
ENDBRANCH   1  16
TORSDOF 16
ENDMDL
MODEL 2
REMARK VINA RESULT:      -8.9      2.782      3.506
REMARK SMILES CC(C)[C@@H](C[NH+](C)C)C(=O)NCCCNC(=O)c1ccc(-c2c3nc(c(-c4ccc(S(=O)(=O)[O-])cc4)c4ccc([nH]4)c(-c4ccc(S(=O)(=O)[O-])cc4)c4nc(c(-c5ccc(S(=O)(=O)[O-])cc5)c5ccc2[nH]5)C=C4)C=C3)cc1
REMARK SMILES IDX 13 1 12 2 11 3 9 4 10 5 4 7 2 8 1 9 3 10 5 11 6 12 7 13 8 14
REMARK SMILES IDX 14 16 15 17 16 18 17 20 18 21 19 22 77 23 20 24 76 25 21 26
REMARK SMILES IDX 22 27 23 28 70 29 24 30 75 31 69 32 71 33 25 34 74 35 68 36
REMARK SMILES IDX 67 37 26 39 56 40 37 41 55 42 38 43 41 44 54 45 72 46 39 47
REMARK SMILES IDX 40 48 53 50 73 51 42 52 27 53 28 54 36 55 29 56 35 57 30 58
REMARK SMILES IDX 31 59 32 60 33 61 34 62 57 63 58 64 66 65 59 66 65 67 60 68
REMARK SMILES IDX 61 69 62 70 63 71 64 72 43 73 44 74 52 75 45 76 51 77 46 78
REMARK SMILES IDX 47 79 48 80 49 81 50 82
REMARK H PARENT 11 6 6 15 15 19 71 38 41 49
REMARK Flexibility Score: inf
ROOT
ATOM      1  C   UNL A   1      33.806  33.460  28.528  1.00  0.00     0.042 C 
ENDROOT
BRANCH   1   2
ATOM      2  C   UNL A   1      34.602  34.664  28.973  1.00  0.00     0.117 C 
BRANCH   2   3
ATOM      3  N   UNL A   1      34.405  35.048  30.351  1.00  0.00    -0.356 N 
ATOM      4  C   UNL A   1      35.237  34.826  31.406  1.00  0.00     0.229 C 
ATOM      5  O   UNL A   1      34.982  35.412  32.465  1.00  0.00    -0.275 OA
ATOM      6  H   UNL A   1      33.568  35.528  30.551  1.00  0.00     0.163 HD
BRANCH   4   7
ATOM      7  C   UNL A   1      36.420  33.847  31.331  1.00  0.00     0.136 C 
BRANCH   7   8
ATOM      8  C   UNL A   1      37.478  34.255  30.272  1.00  0.00     0.001 C 
ATOM      9  C   UNL A   1      38.802  34.674  30.922  1.00  0.00     0.008 C 
ATOM     10  C   UNL A   1      37.778  33.106  29.291  1.00  0.00     0.008 C 
ENDBRANCH   7   8
BRANCH   7  11
ATOM     11  C   UNL A   1      36.889  33.353  32.739  1.00  0.00     0.275 C 
BRANCH  11  12
ATOM     12  N   UNL A   1      36.917  31.916  33.074  1.00  0.00    -0.339 N 
ATOM     13  C   UNL A   1      35.965  31.150  32.268  1.00  0.00     0.332 C 
ATOM     14  C   UNL A   1      38.236  31.289  32.979  1.00  0.00     0.332 C 
ATOM     15  H   UNL A   1      36.646  31.892  34.057  1.00  0.00     0.347 HD
ENDBRANCH  11  12
ENDBRANCH   7  11
ENDBRANCH   4   7
ENDBRANCH   2   3
ENDBRANCH   1   2
BRANCH   1  16
ATOM     16  C   UNL A   1      34.378  32.144  29.007  1.00  0.00     0.118 C 
BRANCH  16  17
ATOM     17  N   UNL A   1      33.968  31.012  28.180  1.00  0.00    -0.352 N 
ATOM     18  C   UNL A   1      34.697  29.969  27.662  1.00  0.00     0.251 C 
ATOM     19  H   UNL A   1      33.009  30.993  27.955  1.00  0.00     0.163 HD
ATOM     20  O   UNL A   1      34.181  29.219  26.835  1.00  0.00    -0.269 OA
BRANCH  18  21
ATOM     21  C   UNL A   1      36.103  29.765  28.071  1.00  0.00     0.039 A 
ATOM     22  C   UNL A   1      36.382  29.268  29.347  1.00  0.00     0.014 A 
ATOM     23  C   UNL A   1      37.148  30.049  27.193  1.00  0.00     0.014 A 
ATOM     24  C   UNL A   1      37.701  28.979  29.702  1.00  0.00     0.010 A 
ATOM     25  C   UNL A   1      38.437  29.636  27.495  1.00  0.00     0.010 A 
ATOM     26  C   UNL A   1      38.734  29.113  28.761  1.00  0.00    -0.014 A 
BRANCH  26  27
ATOM     27  C   UNL A   1      40.137  28.740  29.074  1.00  0.00     0.031 A 
ATOM     28  C   UNL A   1      41.054  29.752  29.713  1.00  0.00     0.074 A 
ATOM     29  C   UNL A   1      40.604  27.528  28.717  1.00  0.00     0.049 A 
ATOM     30  N   UNL A   1      42.329  29.651  29.988  1.00  0.00    -0.248 NA
ATOM     31  C   UNL A   1      40.474  31.063  30.054  1.00  0.00     0.031 C 
ATOM     32  C   UNL A   1      39.829  26.481  28.046  1.00  0.00     0.029 A 
ATOM     33  N   UNL A   1      41.851  26.971  28.863  1.00  0.00    -0.354 N 
ATOM     34  C   UNL A   1      42.702  30.884  30.509  1.00  0.00     0.074 A 
ATOM     35  C   UNL A   1      41.539  31.740  30.451  1.00  0.00     0.031 C 
ATOM     36  C   UNL A   1      40.604  25.399  27.874  1.00  0.00     0.029 A 
ATOM     37  C   UNL A   1      41.944  25.689  28.374  1.00  0.00     0.049 A 
ATOM     38  H   UNL A   1      42.606  27.446  29.279  1.00  0.00     0.167 HD
ATOM     39  C   UNL A   1      43.898  31.265  31.016  1.00  0.00     0.031 A 
ATOM     40  C   UNL A   1      42.992  24.845  28.325  1.00  0.00     0.031 A 
ATOM     41  C   UNL A   1      45.046  30.402  31.090  1.00  0.00     0.049 A 
ATOM     42  C   UNL A   1      44.314  25.292  28.890  1.00  0.00     0.074 A 
ATOM     43  C   UNL A   1      46.287  30.668  31.641  1.00  0.00     0.029 A 
ATOM     44  N   UNL A   1      45.094  29.107  30.597  1.00  0.00    -0.354 N 
ATOM     45  N   UNL A   1      44.626  26.439  29.444  1.00  0.00    -0.248 NA
ATOM     46  C   UNL A   1      45.419  24.326  28.835  1.00  0.00     0.031 C 
ATOM     47  C   UNL A   1      47.103  29.553  31.430  1.00  0.00     0.029 A 
ATOM     48  C   UNL A   1      46.351  28.568  30.808  1.00  0.00     0.049 A 
ATOM     49  H   UNL A   1      44.344  28.639  30.162  1.00  0.00     0.167 HD
ATOM     50  C   UNL A   1      45.958  26.322  29.830  1.00  0.00     0.074 A 
ATOM     51  C   UNL A   1      46.383  24.987  29.461  1.00  0.00     0.031 C 
ATOM     52  C   UNL A   1      46.755  27.236  30.436  1.00  0.00     0.031 A 
BRANCH  39  53
ATOM     53  C   UNL A   1      44.022  32.677  31.529  1.00  0.00    -0.014 A 
ATOM     54  C   UNL A   1      44.202  33.759  30.647  1.00  0.00     0.010 A 
ATOM     55  C   UNL A   1      43.920  32.931  32.908  1.00  0.00     0.010 A 
ATOM     56  C   UNL A   1      44.320  35.062  31.138  1.00  0.00     0.020 A 
ATOM     57  C   UNL A   1      44.003  34.236  33.401  1.00  0.00     0.020 A 
ATOM     58  C   UNL A   1      44.220  35.292  32.514  1.00  0.00     0.054 A 
BRANCH  58  59
ATOM     59  S   UNL A   1      44.347  36.997  33.118  1.00  0.00     0.124 S 
ATOM     60  O   UNL A   1      42.979  37.262  33.559  1.00  0.00    -0.237 OA
ATOM     61  O   UNL A   1      45.339  36.884  34.184  1.00  0.00    -0.237 OA
ATOM     62  O   UNL A   1      44.778  37.751  31.944  1.00  0.00    -0.744 OA
ENDBRANCH  58  59
ENDBRANCH  39  53
BRANCH  40  63
ATOM     63  C   UNL A   1      42.831  23.487  27.735  1.00  0.00    -0.014 A 
ATOM     64  C   UNL A   1      42.257  22.444  28.483  1.00  0.00     0.010 A 
ATOM     65  C   UNL A   1      43.243  23.230  26.414  1.00  0.00     0.010 A 
ATOM     66  C   UNL A   1      42.118  21.167  27.931  1.00  0.00     0.020 A 
ATOM     67  C   UNL A   1      43.076  21.963  25.848  1.00  0.00     0.020 A 
ATOM     68  C   UNL A   1      42.526  20.935  26.616  1.00  0.00     0.054 A 
BRANCH  68  69
ATOM     69  S   UNL A   1      42.292  19.282  25.906  1.00  0.00     0.124 S 
ATOM     70  O   UNL A   1      42.808  18.421  26.965  1.00  0.00    -0.237 OA
ATOM     71  O   UNL A   1      40.848  19.231  25.693  1.00  0.00    -0.237 OA
ATOM     72  O   UNL A   1      43.093  19.319  24.684  1.00  0.00    -0.744 OA
ENDBRANCH  68  69
ENDBRANCH  40  63
BRANCH  52  73
ATOM     73  C   UNL A   1      48.160  26.814  30.777  1.00  0.00    -0.014 A 
ATOM     74  C   UNL A   1      49.228  27.043  29.891  1.00  0.00     0.010 A 
ATOM     75  C   UNL A   1      48.421  26.233  32.031  1.00  0.00     0.010 A 
ATOM     76  C   UNL A   1      50.527  26.668  30.243  1.00  0.00     0.020 A 
ATOM     77  C   UNL A   1      49.723  25.886  32.399  1.00  0.00     0.020 A 
ATOM     78  C   UNL A   1      50.766  26.094  31.496  1.00  0.00     0.054 A 
BRANCH  78  79
ATOM     79  S   UNL A   1      52.469  25.660  31.944  1.00  0.00     0.124 S 
ATOM     80  O   UNL A   1      52.730  26.567  33.058  1.00  0.00    -0.237 OA
ATOM     81  O   UNL A   1      52.357  24.248  32.297  1.00  0.00    -0.237 OA
ATOM     82  O   UNL A   1      53.229  25.934  30.726  1.00  0.00    -0.744 OA
ENDBRANCH  78  79
ENDBRANCH  52  73
ENDBRANCH  26  27
ENDBRANCH  18  21
ENDBRANCH  16  17
ENDBRANCH   1  16
TORSDOF 16
ENDMDL
MODEL 3
REMARK VINA RESULT:      -8.9      3.944     10.477
REMARK SMILES CC(C)[C@@H](C[NH+](C)C)C(=O)NCCCNC(=O)c1ccc(-c2c3nc(c(-c4ccc(S(=O)(=O)[O-])cc4)c4ccc([nH]4)c(-c4ccc(S(=O)(=O)[O-])cc4)c4nc(c(-c5ccc(S(=O)(=O)[O-])cc5)c5ccc2[nH]5)C=C4)C=C3)cc1
REMARK SMILES IDX 13 1 12 2 11 3 9 4 10 5 4 7 2 8 1 9 3 10 5 11 6 12 7 13 8 14
REMARK SMILES IDX 14 16 15 17 16 18 17 20 18 21 19 22 77 23 20 24 76 25 21 26
REMARK SMILES IDX 22 27 23 28 70 29 24 30 75 31 69 32 71 33 25 34 74 35 68 36
REMARK SMILES IDX 67 37 26 39 56 40 37 41 55 42 38 43 41 44 54 45 72 46 39 47
REMARK SMILES IDX 40 48 53 50 73 51 42 52 27 53 28 54 36 55 29 56 35 57 30 58
REMARK SMILES IDX 31 59 32 60 33 61 34 62 57 63 58 64 66 65 59 66 65 67 60 68
REMARK SMILES IDX 61 69 62 70 63 71 64 72 43 73 44 74 52 75 45 76 51 77 46 78
REMARK SMILES IDX 47 79 48 80 49 81 50 82
REMARK H PARENT 11 6 6 15 15 19 71 38 41 49
REMARK Flexibility Score: inf
ROOT
ATOM      1  C   UNL A   1      35.820  23.758  26.135  1.00  0.00     0.042 C 
ENDROOT
BRANCH   1   2
ATOM      2  C   UNL A   1      34.445  23.932  25.534  1.00  0.00     0.117 C 
BRANCH   2   3
ATOM      3  N   UNL A   1      34.430  24.174  24.111  1.00  0.00    -0.356 N 
ATOM      4  C   UNL A   1      33.818  25.192  23.443  1.00  0.00     0.229 C 
ATOM      5  O   UNL A   1      34.094  25.336  22.247  1.00  0.00    -0.275 OA
ATOM      6  H   UNL A   1      34.922  23.525  23.556  1.00  0.00     0.163 HD
BRANCH   4   7
ATOM      7  C   UNL A   1      32.777  26.105  24.111  1.00  0.00     0.136 C 
BRANCH   7   8
ATOM      8  C   UNL A   1      33.351  27.490  24.509  1.00  0.00     0.001 C 
ATOM      9  C   UNL A   1      32.347  28.619  24.248  1.00  0.00     0.008 C 
ATOM     10  C   UNL A   1      33.740  27.540  25.998  1.00  0.00     0.008 C 
ENDBRANCH   7   8
BRANCH   7  11
ATOM     11  C   UNL A   1      31.371  26.021  23.430  1.00  0.00     0.275 C 
BRANCH  11  12
ATOM     12  N   UNL A   1      30.181  25.584  24.185  1.00  0.00    -0.339 N 
ATOM     13  C   UNL A   1      30.464  25.447  25.615  1.00  0.00     0.332 C 
ATOM     14  C   UNL A   1      28.999  26.430  24.012  1.00  0.00     0.332 C 
ATOM     15  H   UNL A   1      29.958  24.674  23.782  1.00  0.00     0.347 HD
ENDBRANCH  11  12
ENDBRANCH   7  11
ENDBRANCH   4   7
ENDBRANCH   2   3
ENDBRANCH   1   2
BRANCH   1  16
ATOM     16  C   UNL A   1      36.932  23.733  25.110  1.00  0.00     0.118 C 
BRANCH  16  17
ATOM     17  N   UNL A   1      38.005  22.806  25.459  1.00  0.00    -0.352 N 
ATOM     18  C   UNL A   1      39.189  23.014  26.124  1.00  0.00     0.251 C 
ATOM     19  H   UNL A   1      37.856  21.877  25.168  1.00  0.00     0.163 HD
ATOM     20  O   UNL A   1      40.037  22.124  26.150  1.00  0.00    -0.269 OA
BRANCH  18  21
ATOM     21  C   UNL A   1      39.459  24.312  26.780  1.00  0.00     0.039 A 
ATOM     22  C   UNL A   1      39.039  24.516  28.097  1.00  0.00     0.014 A 
ATOM     23  C   UNL A   1      40.138  25.324  26.103  1.00  0.00     0.014 A 
ATOM     24  C   UNL A   1      39.378  25.700  28.755  1.00  0.00     0.010 A 
ATOM     25  C   UNL A   1      40.590  26.437  26.797  1.00  0.00     0.010 A 
ATOM     26  C   UNL A   1      40.200  26.649  28.125  1.00  0.00    -0.014 A 
BRANCH  26  27
ATOM     27  C   UNL A   1      40.649  27.883  28.819  1.00  0.00     0.031 A 
ATOM     28  C   UNL A   1      42.029  27.941  29.423  1.00  0.00     0.074 A 
ATOM     29  C   UNL A   1      39.795  28.915  28.972  1.00  0.00     0.049 A 
ATOM     30  N   UNL A   1      42.576  28.890  30.138  1.00  0.00    -0.248 NA
ATOM     31  C   UNL A   1      42.895  26.765  29.231  1.00  0.00     0.031 C 
ATOM     32  C   UNL A   1      38.416  28.957  28.478  1.00  0.00     0.029 A 
ATOM     33  N   UNL A   1      39.959  30.126  29.595  1.00  0.00    -0.354 N 
ATOM     34  C   UNL A   1      43.833  28.416  30.496  1.00  0.00     0.074 A 
ATOM     35  C   UNL A   1      43.944  27.071  29.978  1.00  0.00     0.031 C 
ATOM     36  C   UNL A   1      37.875  30.147  28.783  1.00  0.00     0.029 A 
ATOM     37  C   UNL A   1      38.846  30.933  29.537  1.00  0.00     0.049 A 
ATOM     38  H   UNL A   1      40.795  30.393  30.041  1.00  0.00     0.167 HD
ATOM     39  C   UNL A   1      44.819  29.050  31.172  1.00  0.00     0.031 A 
ATOM     40  C   UNL A   1      38.629  32.163  30.041  1.00  0.00     0.031 A 
ATOM     41  C   UNL A   1      44.710  30.396  31.666  1.00  0.00     0.049 A 
ATOM     42  C   UNL A   1      39.738  32.847  30.794  1.00  0.00     0.074 A 
ATOM     43  C   UNL A   1      45.672  31.156  32.310  1.00  0.00     0.029 A 
ATOM     44  N   UNL A   1      43.572  31.184  31.573  1.00  0.00    -0.354 N 
ATOM     45  N   UNL A   1      40.945  32.408  31.060  1.00  0.00    -0.248 NA
ATOM     46  C   UNL A   1      39.460  34.197  31.302  1.00  0.00     0.031 C 
ATOM     47  C   UNL A   1      45.096  32.382  32.657  1.00  0.00     0.029 A 
ATOM     48  C   UNL A   1      43.798  32.411  32.170  1.00  0.00     0.049 A 
ATOM     49  H   UNL A   1      42.728  30.909  31.145  1.00  0.00     0.167 HD
ATOM     50  C   UNL A   1      41.581  33.440  31.742  1.00  0.00     0.074 A 
ATOM     51  C   UNL A   1      40.629  34.529  31.832  1.00  0.00     0.031 C 
ATOM     52  C   UNL A   1      42.838  33.484  32.247  1.00  0.00     0.031 A 
BRANCH  39  53
ATOM     53  C   UNL A   1      46.099  28.294  31.415  1.00  0.00    -0.014 A 
ATOM     54  C   UNL A   1      47.119  28.257  30.446  1.00  0.00     0.010 A 
ATOM     55  C   UNL A   1      46.304  27.642  32.644  1.00  0.00     0.010 A 
ATOM     56  C   UNL A   1      48.299  27.548  30.684  1.00  0.00     0.020 A 
ATOM     57  C   UNL A   1      47.496  26.960  32.900  1.00  0.00     0.020 A 
ATOM     58  C   UNL A   1      48.480  26.903  31.911  1.00  0.00     0.054 A 
BRANCH  58  59
ATOM     59  S   UNL A   1      50.034  26.016  32.202  1.00  0.00     0.124 S 
ATOM     60  O   UNL A   1      50.784  26.314  30.984  1.00  0.00    -0.237 OA
ATOM     61  O   UNL A   1      50.538  26.648  33.420  1.00  0.00    -0.237 OA
ATOM     62  O   UNL A   1      49.619  24.624  32.351  1.00  0.00    -0.744 OA
ENDBRANCH  58  59
ENDBRANCH  39  53
BRANCH  40  63
ATOM     63  C   UNL A   1      37.314  32.833  29.836  1.00  0.00    -0.014 A 
ATOM     64  C   UNL A   1      36.318  32.773  30.825  1.00  0.00     0.010 A 
ATOM     65  C   UNL A   1      37.055  33.545  28.650  1.00  0.00     0.010 A 
ATOM     66  C   UNL A   1      35.080  33.392  30.625  1.00  0.00     0.020 A 
ATOM     67  C   UNL A   1      35.831  34.192  28.459  1.00  0.00     0.020 A 
ATOM     68  C   UNL A   1      34.846  34.100  29.444  1.00  0.00     0.054 A 
BRANCH  68  69
ATOM     69  S   UNL A   1      33.249  34.934  29.227  1.00  0.00     0.124 S 
ATOM     70  O   UNL A   1      32.672  34.841  30.564  1.00  0.00    -0.237 OA
ATOM     71  O   UNL A   1      33.648  36.273  28.799  1.00  0.00    -0.237 OA
ATOM     72  O   UNL A   1      32.583  34.135  28.201  1.00  0.00    -0.744 OA
ENDBRANCH  68  69
ENDBRANCH  40  63
BRANCH  52  73
ATOM     73  C   UNL A   1      43.277  34.763  32.909  1.00  0.00    -0.014 A 
ATOM     74  C   UNL A   1      43.750  35.852  32.156  1.00  0.00     0.010 A 
ATOM     75  C   UNL A   1      43.156  34.895  34.305  1.00  0.00     0.010 A 
ATOM     76  C   UNL A   1      44.124  37.039  32.792  1.00  0.00     0.020 A 
ATOM     77  C   UNL A   1      43.498  36.091  34.940  1.00  0.00     0.020 A 
ATOM     78  C   UNL A   1      43.993  37.151  34.180  1.00  0.00     0.054 A 
BRANCH  78  79
ATOM     79  S   UNL A   1      44.442  38.719  34.973  1.00  0.00     0.124 S 
ATOM     80  O   UNL A   1      43.674  39.684  34.192  1.00  0.00    -0.237 OA
ATOM     81  O   UNL A   1      43.992  38.522  36.348  1.00  0.00    -0.237 OA
ATOM     82  O   UNL A   1      45.892  38.791  34.802  1.00  0.00    -0.744 OA
ENDBRANCH  78  79
ENDBRANCH  52  73
ENDBRANCH  26  27
ENDBRANCH  18  21
ENDBRANCH  16  17
ENDBRANCH   1  16
TORSDOF 16
ENDMDL
