MODEL 1
REMARK VINA RESULT:     -11.3      0.000      0.000
REMARK SMILES O=C(NCCCNC(=O)[C@@H](NC(=O)[C@H]1CC[C@@H]2CCCC[C@H]2[NH2+]1)C1CC1)c1ccc(-c2c3nc(c(-c4ccc(S(=O)(=O)[O-])cc4)c4ccc([nH]4)c(-c4ccc(S(=O)(=O)[O-])cc4)c4nc(c(-c5ccc(S(=O)(=O)[O-])cc5)c5ccc2[nH]5)C=C4)C=C3)cc1
REMARK SMILES IDX 4 1 3 2 1 3 2 4 27 6 28 7 86 8 29 9 85 10 30 11 31 12 32 13
REMARK SMILES IDX 79 14 33 15 84 16 78 17 80 18 34 19 83 20 77 21 76 22 35 24
REMARK SMILES IDX 65 25 46 26 64 27 47 28 50 29 63 30 81 31 48 32 49 33 62 35
REMARK SMILES IDX 82 36 51 37 36 38 37 39 45 40 38 41 44 42 39 43 40 44 41 45
REMARK SMILES IDX 42 46 43 47 66 48 67 49 75 50 68 51 74 52 69 53 70 54 71 55
REMARK SMILES IDX 72 56 73 57 52 58 53 59 61 60 54 61 60 62 55 63 56 64 57 65
REMARK SMILES IDX 58 66 59 67 5 68 6 69 7 70 8 71 9 73 10 74 11 75 12 76 13 78
REMARK SMILES IDX 14 79 15 80 23 81 16 82 22 83 17 86 21 87 18 88 20 89 19 90
REMARK SMILES IDX 24 91 25 92 26 93
REMARK H PARENT 3 5 80 23 50 34 7 72 11 77 23 84 23 85
REMARK Flexibility Score: inf
ROOT
ATOM      1  C   UNL A   1      33.383  28.486  27.362  1.00  0.00     0.118 C 
ENDROOT
BRANCH   1   2
ATOM      2  N   UNL A   1      33.422  29.936  27.529  1.00  0.00    -0.352 N 
ATOM      3  O   UNL A   1      34.109  31.899  28.380  1.00  0.00    -0.269 OA
ATOM      4  C   UNL A   1      34.386  30.739  28.093  1.00  0.00     0.251 C 
ATOM      5  H   UNL A   1      32.634  30.415  27.185  1.00  0.00     0.163 HD
BRANCH   4   6
ATOM      6  C   UNL A   1      35.744  30.207  28.346  1.00  0.00     0.039 A 
ATOM      7  C   UNL A   1      36.728  30.298  27.362  1.00  0.00     0.014 A 
ATOM      8  C   UNL A   1      36.059  29.666  29.596  1.00  0.00     0.014 A 
ATOM      9  C   UNL A   1      37.968  29.712  27.558  1.00  0.00     0.010 A 
ATOM     10  C   UNL A   1      37.353  29.192  29.841  1.00  0.00     0.010 A 
ATOM     11  C   UNL A   1      38.313  29.205  28.819  1.00  0.00    -0.014 A 
BRANCH  11  12
ATOM     12  C   UNL A   1      39.733  28.858  29.067  1.00  0.00     0.031 A 
ATOM     13  C   UNL A   1      40.308  27.543  28.633  1.00  0.00     0.074 A 
ATOM     14  C   UNL A   1      40.502  29.782  29.680  1.00  0.00     0.049 A 
ATOM     15  N   UNL A   1      41.534  27.107  28.774  1.00  0.00    -0.248 NA
ATOM     16  C   UNL A   1      39.406  26.593  27.963  1.00  0.00     0.031 C 
ATOM     17  C   UNL A   1      40.031  31.092  30.152  1.00  0.00     0.029 A 
ATOM     18  N   UNL A   1      41.834  29.781  29.999  1.00  0.00    -0.354 N 
ATOM     19  C   UNL A   1      41.546  25.825  28.239  1.00  0.00     0.074 A 
ATOM     20  C   UNL A   1      40.205  25.548  27.773  1.00  0.00     0.031 C 
ATOM     21  C   UNL A   1      41.064  31.779  30.656  1.00  0.00     0.029 A 
ATOM     22  C   UNL A   1      42.247  30.933  30.628  1.00  0.00     0.049 A 
ATOM     23  H   UNL A   1      42.436  29.029  29.799  1.00  0.00     0.167 HD
ATOM     24  C   UNL A   1      42.588  24.963  28.157  1.00  0.00     0.031 A 
ATOM     25  C   UNL A   1      43.436  31.261  31.165  1.00  0.00     0.031 A 
ATOM     26  C   UNL A   1      43.918  25.264  28.618  1.00  0.00     0.049 A 
ATOM     27  C   UNL A   1      44.554  30.264  31.090  1.00  0.00     0.074 A 
ATOM     28  C   UNL A   1      45.057  24.481  28.516  1.00  0.00     0.029 A 
ATOM     29  N   UNL A   1      44.290  26.423  29.281  1.00  0.00    -0.354 N 
ATOM     30  N   UNL A   1      44.565  29.087  30.511  1.00  0.00    -0.248 NA
ATOM     31  C   UNL A   1      45.814  30.629  31.749  1.00  0.00     0.031 C 
ATOM     32  C   UNL A   1      46.097  25.135  29.182  1.00  0.00     0.029 A 
ATOM     33  C   UNL A   1      45.625  26.355  29.641  1.00  0.00     0.049 A 
ATOM     34  H   UNL A   1      43.693  27.183  29.467  1.00  0.00     0.167 HD
ATOM     35  C   UNL A   1      45.834  28.572  30.733  1.00  0.00     0.074 A 
ATOM     36  C   UNL A   1      46.574  29.580  31.467  1.00  0.00     0.031 C 
ATOM     37  C   UNL A   1      46.339  27.367  30.376  1.00  0.00     0.031 A 
BRANCH  24  38
ATOM     38  C   UNL A   1      42.343  23.594  27.581  1.00  0.00    -0.014 A 
ATOM     39  C   UNL A   1      42.614  23.305  26.232  1.00  0.00     0.010 A 
ATOM     40  C   UNL A   1      41.953  22.548  28.440  1.00  0.00     0.010 A 
ATOM     41  C   UNL A   1      42.496  21.995  25.754  1.00  0.00     0.020 A 
ATOM     42  C   UNL A   1      41.855  21.235  27.970  1.00  0.00     0.020 A 
ATOM     43  C   UNL A   1      42.125  20.968  26.627  1.00  0.00     0.054 A 
BRANCH  43  44
ATOM     44  S   UNL A   1      42.061  19.268  25.996  1.00  0.00     0.124 S 
ATOM     45  O   UNL A   1      42.915  19.352  24.814  1.00  0.00    -0.237 OA
ATOM     46  O   UNL A   1      42.604  18.494  27.110  1.00  0.00    -0.237 OA
ATOM     47  O   UNL A   1      40.642  19.049  25.724  1.00  0.00    -0.744 OA
ENDBRANCH  43  44
ENDBRANCH  24  38
BRANCH  25  48
ATOM     48  C   UNL A   1      43.598  32.552  31.887  1.00  0.00    -0.014 A 
ATOM     49  C   UNL A   1      44.055  33.703  31.223  1.00  0.00     0.010 A 
ATOM     50  C   UNL A   1      43.300  32.629  33.261  1.00  0.00     0.010 A 
ATOM     51  C   UNL A   1      44.247  34.895  31.928  1.00  0.00     0.020 A 
ATOM     52  C   UNL A   1      43.454  33.827  33.961  1.00  0.00     0.020 A 
ATOM     53  C   UNL A   1      43.948  34.947  33.293  1.00  0.00     0.054 A 
BRANCH  53  54
ATOM     54  S   UNL A   1      44.196  36.505  34.188  1.00  0.00     0.124 S 
ATOM     55  O   UNL A   1      42.822  36.927  34.442  1.00  0.00    -0.237 OA
ATOM     56  O   UNL A   1      44.956  36.079  35.360  1.00  0.00    -0.237 OA
ATOM     57  O   UNL A   1      44.940  37.329  33.239  1.00  0.00    -0.744 OA
ENDBRANCH  53  54
ENDBRANCH  25  48
BRANCH  37  58
ATOM     58  C   UNL A   1      47.761  27.077  30.771  1.00  0.00    -0.014 A 
ATOM     59  C   UNL A   1      48.831  27.477  29.950  1.00  0.00     0.010 A 
ATOM     60  C   UNL A   1      48.031  26.450  32.000  1.00  0.00     0.010 A 
ATOM     61  C   UNL A   1      50.148  27.234  30.343  1.00  0.00     0.020 A 
ATOM     62  C   UNL A   1      49.348  26.232  32.410  1.00  0.00     0.020 A 
ATOM     63  C   UNL A   1      50.398  26.617  31.573  1.00  0.00     0.054 A 
BRANCH  63  64
ATOM     64  S   UNL A   1      52.119  26.369  32.086  1.00  0.00     0.124 S 
ATOM     65  O   UNL A   1      52.072  25.033  32.676  1.00  0.00    -0.237 OA
ATOM     66  O   UNL A   1      52.847  26.473  30.824  1.00  0.00    -0.237 OA
ATOM     67  O   UNL A   1      52.361  27.458  33.031  1.00  0.00    -0.744 OA
ENDBRANCH  63  64
ENDBRANCH  37  58
ENDBRANCH  11  12
ENDBRANCH   4   6
ENDBRANCH   1   2
BRANCH   1  68
ATOM     68  C   UNL A   1      34.143  28.046  26.124  1.00  0.00     0.042 C 
BRANCH  68  69
ATOM     69  C   UNL A   1      33.321  28.199  24.856  1.00  0.00     0.117 C 
BRANCH  69  70
ATOM     70  N   UNL A   1      33.771  27.284  23.845  1.00  0.00    -0.354 N 
ATOM     71  C   UNL A   1      33.216  26.108  23.458  1.00  0.00     0.242 C 
ATOM     72  H   UNL A   1      34.592  27.544  23.369  1.00  0.00     0.163 HD
ATOM     73  O   UNL A   1      33.801  25.488  22.561  1.00  0.00    -0.273 OA
BRANCH  71  74
ATOM     74  C   UNL A   1      31.843  25.598  24.001  1.00  0.00     0.174 C 
BRANCH  74  75
ATOM     75  N   UNL A   1      31.753  25.106  25.403  1.00  0.00    -0.339 N 
ATOM     76  C   UNL A   1      32.275  24.182  26.259  1.00  0.00     0.278 C 
ATOM     77  H   UNL A   1      31.075  25.636  25.881  1.00  0.00     0.164 HD
ATOM     78  O   UNL A   1      31.757  24.108  27.375  1.00  0.00    -0.268 OA
BRANCH  76  79
ATOM     79  C   UNL A   1      33.429  23.284  25.847  1.00  0.00     0.272 C 
ATOM     80  C   UNL A   1      33.201  22.347  24.671  1.00  0.00     0.076 C 
ATOM     81  N   UNL A   1      34.660  24.035  25.527  1.00  0.00    -0.333 N 
ATOM     82  C   UNL A   1      34.361  21.330  24.632  1.00  0.00     0.016 C 
ATOM     83  C   UNL A   1      35.786  23.140  25.778  1.00  0.00     0.186 C 
ATOM     84  H   UNL A   1      34.730  24.862  26.121  1.00  0.00     0.347 HD
ATOM     85  H   UNL A   1      34.653  24.348  24.556  1.00  0.00     0.347 HD
ATOM     86  C   UNL A   1      35.757  21.995  24.744  1.00  0.00     0.048 C 
ATOM     87  C   UNL A   1      37.144  23.841  25.785  1.00  0.00     0.065 C 
ATOM     88  C   UNL A   1      36.838  20.969  25.120  1.00  0.00     0.010 C 
ATOM     89  C   UNL A   1      38.220  22.831  26.189  1.00  0.00     0.006 C 
ATOM     90  C   UNL A   1      38.221  21.613  25.265  1.00  0.00     0.001 C 
ENDBRANCH  76  79
ENDBRANCH  74  75
BRANCH  74  91
ATOM     91  C   UNL A   1      30.685  26.204  23.236  1.00  0.00     0.021 C 
ATOM     92  C   UNL A   1      29.322  26.465  23.818  1.00  0.00     0.006 C 
ATOM     93  C   UNL A   1      30.135  27.613  23.266  1.00  0.00     0.006 C 
ENDBRANCH  74  91
ENDBRANCH  71  74
ENDBRANCH  69  70
ENDBRANCH  68  69
ENDBRANCH   1  68
TORSDOF 16
ENDMDL
MODEL 2
REMARK VINA RESULT:     -11.1      1.163      2.153
REMARK SMILES O=C(NCCCNC(=O)[C@@H](NC(=O)[C@H]1CC[C@@H]2CCCC[C@H]2[NH2+]1)C1CC1)c1ccc(-c2c3nc(c(-c4ccc(S(=O)(=O)[O-])cc4)c4ccc([nH]4)c(-c4ccc(S(=O)(=O)[O-])cc4)c4nc(c(-c5ccc(S(=O)(=O)[O-])cc5)c5ccc2[nH]5)C=C4)C=C3)cc1
REMARK SMILES IDX 4 1 3 2 1 3 2 4 27 6 28 7 86 8 29 9 85 10 30 11 31 12 32 13
REMARK SMILES IDX 79 14 33 15 84 16 78 17 80 18 34 19 83 20 77 21 76 22 35 24
REMARK SMILES IDX 65 25 46 26 64 27 47 28 50 29 63 30 81 31 48 32 49 33 62 35
REMARK SMILES IDX 82 36 51 37 36 38 37 39 45 40 38 41 44 42 39 43 40 44 41 45
REMARK SMILES IDX 42 46 43 47 66 48 67 49 75 50 68 51 74 52 69 53 70 54 71 55
REMARK SMILES IDX 72 56 73 57 52 58 53 59 61 60 54 61 60 62 55 63 56 64 57 65
REMARK SMILES IDX 58 66 59 67 5 68 6 69 7 70 8 71 9 73 10 74 11 75 12 76 13 78
REMARK SMILES IDX 14 79 15 80 23 81 16 82 22 83 17 86 21 87 18 88 20 89 19 90
REMARK SMILES IDX 24 91 25 92 26 93
REMARK H PARENT 3 5 80 23 50 34 7 72 11 77 23 84 23 85
REMARK Flexibility Score: inf
ROOT
ATOM      1  C   UNL A   1      33.654  28.565  27.102  1.00  0.00     0.118 C 
ENDROOT
BRANCH   1   2
ATOM      2  N   UNL A   1      33.651  29.975  27.481  1.00  0.00    -0.352 N 
ATOM      3  O   UNL A   1      34.252  31.803  28.641  1.00  0.00    -0.269 OA
ATOM      4  C   UNL A   1      34.570  30.702  28.201  1.00  0.00     0.251 C 
ATOM      5  H   UNL A   1      32.869  30.486  27.173  1.00  0.00     0.163 HD
BRANCH   4   6
ATOM      6  C   UNL A   1      35.927  30.162  28.438  1.00  0.00     0.039 A 
ATOM      7  C   UNL A   1      36.914  30.289  27.461  1.00  0.00     0.014 A 
ATOM      8  C   UNL A   1      36.239  29.574  29.669  1.00  0.00     0.014 A 
ATOM      9  C   UNL A   1      38.153  29.697  27.640  1.00  0.00     0.010 A 
ATOM     10  C   UNL A   1      37.532  29.093  29.900  1.00  0.00     0.010 A 
ATOM     11  C   UNL A   1      38.495  29.144  28.882  1.00  0.00    -0.014 A 
BRANCH  11  12
ATOM     12  C   UNL A   1      39.914  28.788  29.121  1.00  0.00     0.031 A 
ATOM     13  C   UNL A   1      40.484  27.477  28.667  1.00  0.00     0.074 A 
ATOM     14  C   UNL A   1      40.688  29.700  29.745  1.00  0.00     0.049 A 
ATOM     15  N   UNL A   1      41.708  27.035  28.798  1.00  0.00    -0.248 NA
ATOM     16  C   UNL A   1      39.577  26.540  27.986  1.00  0.00     0.031 C 
ATOM     17  C   UNL A   1      40.224  31.005  30.238  1.00  0.00     0.029 A 
ATOM     18  N   UNL A   1      42.021  29.690  30.061  1.00  0.00    -0.354 N 
ATOM     19  C   UNL A   1      41.714  25.760  28.245  1.00  0.00     0.074 A 
ATOM     20  C   UNL A   1      40.371  25.496  27.778  1.00  0.00     0.031 C 
ATOM     21  C   UNL A   1      41.259  31.681  30.749  1.00  0.00     0.029 A 
ATOM     22  C   UNL A   1      42.440  30.831  30.705  1.00  0.00     0.049 A 
ATOM     23  H   UNL A   1      42.620  28.938  29.849  1.00  0.00     0.167 HD
ATOM     24  C   UNL A   1      42.753  24.897  28.147  1.00  0.00     0.031 A 
ATOM     25  C   UNL A   1      43.632  31.148  31.244  1.00  0.00     0.031 A 
ATOM     26  C   UNL A   1      44.086  25.186  28.609  1.00  0.00     0.049 A 
ATOM     27  C   UNL A   1      44.745  30.148  31.152  1.00  0.00     0.074 A 
ATOM     28  C   UNL A   1      45.221  24.401  28.494  1.00  0.00     0.029 A 
ATOM     29  N   UNL A   1      44.463  26.334  29.288  1.00  0.00    -0.354 N 
ATOM     30  N   UNL A   1      44.751  28.979  30.556  1.00  0.00    -0.248 NA
ATOM     31  C   UNL A   1      46.008  30.498  31.813  1.00  0.00     0.031 C 
ATOM     32  C   UNL A   1      46.266  25.042  29.166  1.00  0.00     0.029 A 
ATOM     33  C   UNL A   1      45.799  26.256  29.644  1.00  0.00     0.049 A 
ATOM     34  H   UNL A   1      43.869  27.093  29.487  1.00  0.00     0.167 HD
ATOM     35  C   UNL A   1      46.019  28.456  30.767  1.00  0.00     0.074 A 
ATOM     36  C   UNL A   1      46.764  29.451  31.513  1.00  0.00     0.031 C 
ATOM     37  C   UNL A   1      46.519  27.255  30.392  1.00  0.00     0.031 A 
BRANCH  24  38
ATOM     38  C   UNL A   1      42.502  23.536  27.552  1.00  0.00    -0.014 A 
ATOM     39  C   UNL A   1      42.913  23.219  26.246  1.00  0.00     0.010 A 
ATOM     40  C   UNL A   1      41.956  22.523  28.364  1.00  0.00     0.010 A 
ATOM     41  C   UNL A   1      42.780  21.912  25.763  1.00  0.00     0.020 A 
ATOM     42  C   UNL A   1      41.841  21.212  27.891  1.00  0.00     0.020 A 
ATOM     43  C   UNL A   1      42.252  20.917  26.591  1.00  0.00     0.054 A 
BRANCH  43  44
ATOM     44  S   UNL A   1      42.168  19.216  25.964  1.00  0.00     0.124 S 
ATOM     45  O   UNL A   1      42.992  19.296  24.760  1.00  0.00    -0.237 OA
ATOM     46  O   UNL A   1      42.737  18.442  27.064  1.00  0.00    -0.237 OA
ATOM     47  O   UNL A   1      40.742  19.000  25.728  1.00  0.00    -0.744 OA
ENDBRANCH  43  44
ENDBRANCH  24  38
BRANCH  25  48
ATOM     48  C   UNL A   1      43.800  32.427  31.984  1.00  0.00    -0.014 A 
ATOM     49  C   UNL A   1      43.461  32.530  33.344  1.00  0.00     0.010 A 
ATOM     50  C   UNL A   1      44.297  33.563  31.316  1.00  0.00     0.010 A 
ATOM     51  C   UNL A   1      43.581  33.752  34.011  1.00  0.00     0.020 A 
ATOM     52  C   UNL A   1      44.454  34.776  31.989  1.00  0.00     0.020 A 
ATOM     53  C   UNL A   1      44.073  34.868  33.327  1.00  0.00     0.054 A 
BRANCH  53  54
ATOM     54  S   UNL A   1      44.228  36.444  34.212  1.00  0.00     0.124 S 
ATOM     55  O   UNL A   1      45.441  36.230  34.995  1.00  0.00    -0.237 OA
ATOM     56  O   UNL A   1      44.339  37.409  33.122  1.00  0.00    -0.237 OA
ATOM     57  O   UNL A   1      42.990  36.526  34.983  1.00  0.00    -0.744 OA
ENDBRANCH  53  54
ENDBRANCH  25  48
BRANCH  37  58
ATOM     58  C   UNL A   1      47.941  26.955  30.778  1.00  0.00    -0.014 A 
ATOM     59  C   UNL A   1      48.232  26.260  31.966  1.00  0.00     0.010 A 
ATOM     60  C   UNL A   1      48.991  27.321  29.917  1.00  0.00     0.010 A 
ATOM     61  C   UNL A   1      49.553  25.956  32.297  1.00  0.00     0.020 A 
ATOM     62  C   UNL A   1      50.311  26.991  30.231  1.00  0.00     0.020 A 
ATOM     63  C   UNL A   1      50.584  26.319  31.424  1.00  0.00     0.054 A 
BRANCH  63  64
ATOM     64  S   UNL A   1      52.284  25.857  31.849  1.00  0.00     0.124 S 
ATOM     65  O   UNL A   1      52.607  26.815  32.904  1.00  0.00    -0.237 OA
ATOM     66  O   UNL A   1      52.140  24.470  32.284  1.00  0.00    -0.237 OA
ATOM     67  O   UNL A   1      53.017  26.039  30.598  1.00  0.00    -0.744 OA
ENDBRANCH  63  64
ENDBRANCH  37  58
ENDBRANCH  11  12
ENDBRANCH   4   6
ENDBRANCH   1   2
BRANCH   1  68
ATOM     68  C   UNL A   1      32.250  27.989  27.083  1.00  0.00     0.042 C 
BRANCH  68  69
ATOM     69  C   UNL A   1      31.535  28.250  25.767  1.00  0.00     0.117 C 
BRANCH  69  70
ATOM     70  N   UNL A   1      30.741  27.115  25.386  1.00  0.00    -0.354 N 
ATOM     71  C   UNL A   1      30.376  26.715  24.143  1.00  0.00     0.242 C 
ATOM     72  H   UNL A   1      30.419  26.552  26.128  1.00  0.00     0.163 HD
ATOM     73  O   UNL A   1      29.674  25.698  24.073  1.00  0.00    -0.273 OA
BRANCH  71  74
ATOM     74  C   UNL A   1      30.902  27.400  22.842  1.00  0.00     0.174 C 
BRANCH  74  75
ATOM     75  N   UNL A   1      31.765  26.625  21.910  1.00  0.00    -0.339 N 
ATOM     76  C   UNL A   1      32.792  25.727  21.883  1.00  0.00     0.278 C 
ATOM     77  H   UNL A   1      31.503  26.836  20.985  1.00  0.00     0.164 HD
ATOM     78  O   UNL A   1      33.250  25.446  20.773  1.00  0.00    -0.268 OA
BRANCH  76  79
ATOM     79  C   UNL A   1      33.346  25.119  23.160  1.00  0.00     0.272 C 
ATOM     80  C   UNL A   1      33.886  26.075  24.212  1.00  0.00     0.076 C 
ATOM     81  N   UNL A   1      32.370  24.261  23.862  1.00  0.00    -0.333 N 
ATOM     82  C   UNL A   1      34.670  25.250  25.256  1.00  0.00     0.016 C 
ATOM     83  C   UNL A   1      33.134  23.281  24.630  1.00  0.00     0.186 C 
ATOM     84  H   UNL A   1      31.771  23.786  23.186  1.00  0.00     0.347 HD
ATOM     85  H   UNL A   1      31.771  24.816  24.473  1.00  0.00     0.347 HD
ATOM     86  C   UNL A   1      33.887  24.010  25.762  1.00  0.00     0.048 C 
ATOM     87  C   UNL A   1      32.291  22.132  25.180  1.00  0.00     0.065 C 
ATOM     88  C   UNL A   1      34.820  23.004  26.455  1.00  0.00     0.010 C 
ATOM     89  C   UNL A   1      33.218  21.113  25.844  1.00  0.00     0.006 C 
ATOM     90  C   UNL A   1      34.070  21.757  26.937  1.00  0.00     0.001 C 
ENDBRANCH  76  79
ENDBRANCH  74  75
BRANCH  74  91
ATOM     91  C   UNL A   1      30.006  28.545  22.418  1.00  0.00     0.021 C 
ATOM     92  C   UNL A   1      28.682  28.872  23.052  1.00  0.00     0.006 C 
ATOM     93  C   UNL A   1      29.792  29.897  23.059  1.00  0.00     0.006 C 
ENDBRANCH  74  91
ENDBRANCH  71  74
ENDBRANCH  69  70
ENDBRANCH  68  69
ENDBRANCH   1  68
TORSDOF 16
ENDMDL
MODEL 3
REMARK VINA RESULT:     -11.1      0.883      1.398
REMARK SMILES O=C(NCCCNC(=O)[C@@H](NC(=O)[C@H]1CC[C@@H]2CCCC[C@H]2[NH2+]1)C1CC1)c1ccc(-c2c3nc(c(-c4ccc(S(=O)(=O)[O-])cc4)c4ccc([nH]4)c(-c4ccc(S(=O)(=O)[O-])cc4)c4nc(c(-c5ccc(S(=O)(=O)[O-])cc5)c5ccc2[nH]5)C=C4)C=C3)cc1
REMARK SMILES IDX 4 1 3 2 1 3 2 4 27 6 28 7 86 8 29 9 85 10 30 11 31 12 32 13
REMARK SMILES IDX 79 14 33 15 84 16 78 17 80 18 34 19 83 20 77 21 76 22 35 24
REMARK SMILES IDX 65 25 46 26 64 27 47 28 50 29 63 30 81 31 48 32 49 33 62 35
REMARK SMILES IDX 82 36 51 37 36 38 37 39 45 40 38 41 44 42 39 43 40 44 41 45
REMARK SMILES IDX 42 46 43 47 66 48 67 49 75 50 68 51 74 52 69 53 70 54 71 55
REMARK SMILES IDX 72 56 73 57 52 58 53 59 61 60 54 61 60 62 55 63 56 64 57 65
REMARK SMILES IDX 58 66 59 67 5 68 6 69 7 70 8 71 9 73 10 74 11 75 12 76 13 78
REMARK SMILES IDX 14 79 15 80 23 81 16 82 22 83 17 86 21 87 18 88 20 89 19 90
REMARK SMILES IDX 24 91 25 92 26 93
REMARK H PARENT 3 5 80 23 50 34 7 72 11 77 23 84 23 85
REMARK Flexibility Score: inf
ROOT
ATOM      1  C   UNL A   1      33.618  28.585  27.257  1.00  0.00     0.118 C 
ENDROOT
BRANCH   1   2
ATOM      2  N   UNL A   1      33.626  30.008  27.582  1.00  0.00    -0.352 N 
ATOM      3  O   UNL A   1      34.257  31.877  28.659  1.00  0.00    -0.269 OA
ATOM      4  C   UNL A   1      34.563  30.760  28.252  1.00  0.00     0.251 C 
ATOM      5  H   UNL A   1      32.837  30.509  27.275  1.00  0.00     0.163 HD
BRANCH   4   6
ATOM      6  C   UNL A   1      35.925  30.227  28.476  1.00  0.00     0.039 A 
ATOM      7  C   UNL A   1      36.884  30.305  27.467  1.00  0.00     0.014 A 
ATOM      8  C   UNL A   1      36.269  29.696  29.724  1.00  0.00     0.014 A 
ATOM      9  C   UNL A   1      38.126  29.717  27.639  1.00  0.00     0.010 A 
ATOM     10  C   UNL A   1      37.567  29.221  29.941  1.00  0.00     0.010 A 
ATOM     11  C   UNL A   1      38.501  29.221  28.895  1.00  0.00    -0.014 A 
BRANCH  11  12
ATOM     12  C   UNL A   1      39.926  28.872  29.111  1.00  0.00     0.031 A 
ATOM     13  C   UNL A   1      40.489  27.555  28.665  1.00  0.00     0.074 A 
ATOM     14  C   UNL A   1      40.710  29.794  29.706  1.00  0.00     0.049 A 
ATOM     15  N   UNL A   1      41.717  27.117  28.778  1.00  0.00    -0.248 NA
ATOM     16  C   UNL A   1      39.571  26.606  28.016  1.00  0.00     0.031 C 
ATOM     17  C   UNL A   1      40.253  31.105  30.188  1.00  0.00     0.029 A 
ATOM     18  N   UNL A   1      42.049  29.792  29.995  1.00  0.00    -0.354 N 
ATOM     19  C   UNL A   1      41.715  25.835  28.244  1.00  0.00     0.074 A 
ATOM     20  C   UNL A   1      40.363  25.560  27.809  1.00  0.00     0.031 C 
ATOM     21  C   UNL A   1      41.297  31.792  30.668  1.00  0.00     0.029 A 
ATOM     22  C   UNL A   1      42.479  30.943  30.613  1.00  0.00     0.049 A 
ATOM     23  H   UNL A   1      42.646  29.038  29.782  1.00  0.00     0.167 HD
ATOM     24  C   UNL A   1      42.753  24.972  28.138  1.00  0.00     0.031 A 
ATOM     25  C   UNL A   1      43.680  31.270  31.123  1.00  0.00     0.031 A 
ATOM     26  C   UNL A   1      44.095  25.270  28.569  1.00  0.00     0.049 A 
ATOM     27  C   UNL A   1      44.794  30.271  31.023  1.00  0.00     0.074 A 
ATOM     28  C   UNL A   1      45.229  24.486  28.442  1.00  0.00     0.029 A 
ATOM     29  N   UNL A   1      44.483  26.429  29.223  1.00  0.00    -0.354 N 
ATOM     30  N   UNL A   1      44.790  29.094  30.445  1.00  0.00    -0.248 NA
ATOM     31  C   UNL A   1      46.069  30.634  31.653  1.00  0.00     0.031 C 
ATOM     32  C   UNL A   1      46.286  25.139  29.084  1.00  0.00     0.029 A 
ATOM     33  C   UNL A   1      45.826  26.359  29.553  1.00  0.00     0.049 A 
ATOM     34  H   UNL A   1      43.891  27.190  29.422  1.00  0.00     0.167 HD
ATOM     35  C   UNL A   1      46.063  28.576  30.638  1.00  0.00     0.074 A 
ATOM     36  C   UNL A   1      46.821  29.584  31.354  1.00  0.00     0.031 C 
ATOM     37  C   UNL A   1      46.558  27.371  30.271  1.00  0.00     0.031 A 
BRANCH  24  38
ATOM     38  C   UNL A   1      42.493  23.602  27.569  1.00  0.00    -0.014 A 
ATOM     39  C   UNL A   1      42.708  23.319  26.209  1.00  0.00     0.010 A 
ATOM     40  C   UNL A   1      42.148  22.551  28.441  1.00  0.00     0.010 A 
ATOM     41  C   UNL A   1      42.578  22.010  25.732  1.00  0.00     0.020 A 
ATOM     42  C   UNL A   1      42.038  21.239  27.971  1.00  0.00     0.020 A 
ATOM     43  C   UNL A   1      42.252  20.978  26.617  1.00  0.00     0.054 A 
BRANCH  43  44
ATOM     44  S   UNL A   1      42.173  19.279  25.984  1.00  0.00     0.124 S 
ATOM     45  O   UNL A   1      43.054  19.349  24.820  1.00  0.00    -0.237 OA
ATOM     46  O   UNL A   1      42.678  18.496  27.108  1.00  0.00    -0.237 OA
ATOM     47  O   UNL A   1      40.757  19.085  25.681  1.00  0.00    -0.744 OA
ENDBRANCH  43  44
ENDBRANCH  24  38
BRANCH  25  48
ATOM     48  C   UNL A   1      43.860  32.561  31.840  1.00  0.00    -0.014 A 
ATOM     49  C   UNL A   1      43.568  32.678  33.209  1.00  0.00     0.010 A 
ATOM     50  C   UNL A   1      44.322  33.693  31.141  1.00  0.00     0.010 A 
ATOM     51  C   UNL A   1      43.698  33.910  33.856  1.00  0.00     0.020 A 
ATOM     52  C   UNL A   1      44.489  34.916  31.792  1.00  0.00     0.020 A 
ATOM     53  C   UNL A   1      44.154  35.022  33.141  1.00  0.00     0.054 A 
BRANCH  53  54
ATOM     54  S   UNL A   1      44.323  36.610  34.000  1.00  0.00     0.124 S 
ATOM     55  O   UNL A   1      43.980  36.248  35.371  1.00  0.00    -0.237 OA
ATOM     56  O   UNL A   1      45.724  36.950  33.764  1.00  0.00    -0.237 OA
ATOM     57  O   UNL A   1      43.359  37.471  33.319  1.00  0.00    -0.744 OA
ENDBRANCH  53  54
ENDBRANCH  25  48
BRANCH  37  58
ATOM     58  C   UNL A   1      47.988  27.079  30.633  1.00  0.00    -0.014 A 
ATOM     59  C   UNL A   1      48.302  26.351  31.794  1.00  0.00     0.010 A 
ATOM     60  C   UNL A   1      49.024  27.487  29.774  1.00  0.00     0.010 A 
ATOM     61  C   UNL A   1      49.631  26.055  32.102  1.00  0.00     0.020 A 
ATOM     62  C   UNL A   1      50.352  27.167  30.063  1.00  0.00     0.020 A 
ATOM     63  C   UNL A   1      50.647  26.462  31.231  1.00  0.00     0.054 A 
BRANCH  63  64
ATOM     64  S   UNL A   1      52.358  26.011  31.624  1.00  0.00     0.124 S 
ATOM     65  O   UNL A   1      52.759  27.089  32.525  1.00  0.00    -0.237 OA
ATOM     66  O   UNL A   1      52.209  24.697  32.244  1.00  0.00    -0.237 OA
ATOM     67  O   UNL A   1      53.024  26.008  30.323  1.00  0.00    -0.744 OA
ENDBRANCH  63  64
ENDBRANCH  37  58
ENDBRANCH  11  12
ENDBRANCH   4   6
ENDBRANCH   1   2
BRANCH   1  68
ATOM     68  C   UNL A   1      32.297  28.160  26.642  1.00  0.00     0.042 C 
BRANCH  68  69
ATOM     69  C   UNL A   1      32.278  28.336  25.132  1.00  0.00     0.117 C 
BRANCH  69  70
ATOM     70  N   UNL A   1      30.955  28.132  24.613  1.00  0.00    -0.354 N 
ATOM     71  C   UNL A   1      30.380  26.980  24.186  1.00  0.00     0.242 C 
ATOM     72  H   UNL A   1      30.389  28.936  24.560  1.00  0.00     0.163 HD
ATOM     73  O   UNL A   1      29.218  27.063  23.769  1.00  0.00    -0.273 OA
BRANCH  71  74
ATOM     74  C   UNL A   1      31.071  25.586  24.320  1.00  0.00     0.174 C 
BRANCH  74  75
ATOM     75  N   UNL A   1      30.868  24.790  25.561  1.00  0.00    -0.339 N 
ATOM     76  C   UNL A   1      31.356  23.718  26.249  1.00  0.00     0.278 C 
ATOM     77  H   UNL A   1      30.114  25.174  26.064  1.00  0.00     0.164 HD
ATOM     78  O   UNL A   1      30.732  23.377  27.256  1.00  0.00    -0.268 OA
BRANCH  76  79
ATOM     79  C   UNL A   1      32.599  22.978  25.784  1.00  0.00     0.272 C 
ATOM     80  C   UNL A   1      32.439  22.000  24.629  1.00  0.00     0.076 C 
ATOM     81  N   UNL A   1      33.697  23.883  25.392  1.00  0.00    -0.333 N 
ATOM     82  C   UNL A   1      33.723  21.148  24.537  1.00  0.00     0.016 C 
ATOM     83  C   UNL A   1      34.947  23.152  25.591  1.00  0.00     0.186 C 
ATOM     84  H   UNL A   1      33.686  24.720  25.975  1.00  0.00     0.347 HD
ATOM     85  H   UNL A   1      33.599  24.176  24.421  1.00  0.00     0.347 HD
ATOM     86  C   UNL A   1      35.020  21.998  24.570  1.00  0.00     0.048 C 
ATOM     87  C   UNL A   1      36.196  24.029  25.521  1.00  0.00     0.065 C 
ATOM     88  C   UNL A   1      36.248  21.132  24.897  1.00  0.00     0.010 C 
ATOM     89  C   UNL A   1      37.417  23.180  25.875  1.00  0.00     0.006 C 
ATOM     90  C   UNL A   1      37.536  21.959  24.962  1.00  0.00     0.001 C 
ENDBRANCH  76  79
ENDBRANCH  74  75
BRANCH  74  91
ATOM     91  C   UNL A   1      31.371  24.983  22.963  1.00  0.00     0.021 C 
ATOM     92  C   UNL A   1      31.706  25.779  21.731  1.00  0.00     0.006 C 
ATOM     93  C   UNL A   1      32.697  24.773  22.268  1.00  0.00     0.006 C 
ENDBRANCH  74  91
ENDBRANCH  71  74
ENDBRANCH  69  70
ENDBRANCH  68  69
ENDBRANCH   1  68
TORSDOF 16
ENDMDL
