MODEL 1
REMARK VINA RESULT:     -10.3      0.000      0.000
REMARK SMILES C[C@@H](C(=O)NCCCNC(=O)c1ccc(-c2c3nc(c(-c4ccc(S(=O)(=O)[O-])cc4)c4ccc([nH]4)c(-c4ccc(S(=O)(=O)[O-])cc4)c4nc(c(-c5ccc(S(=O)(=O)[O-])cc5)c5ccc2[nH]5)C=C4)C=C3)cc1)[C@@H](C)C(=O)c1cccc(Cl)c1
REMARK SMILES IDX 7 1 6 2 5 3 3 4 4 5 2 7 1 8 72 9 73 10 74 11 75 12 76 13
REMARK SMILES IDX 77 14 82 15 78 16 80 17 79 18 81 19 8 20 9 21 10 22 11 24
REMARK SMILES IDX 12 25 13 26 71 27 14 28 70 29 15 30 16 31 17 32 64 33 18 34
REMARK SMILES IDX 69 35 63 36 65 37 19 38 68 39 62 40 61 41 20 43 50 44 31 45
REMARK SMILES IDX 49 46 32 47 35 48 48 49 66 50 33 51 34 52 47 54 67 55 36 56
REMARK SMILES IDX 21 57 22 58 30 59 23 60 29 61 24 62 25 63 26 64 27 65 28 66
REMARK SMILES IDX 51 67 52 68 60 69 53 70 59 71 54 72 55 73 56 74 57 75 58 76
REMARK SMILES IDX 37 77 38 78 46 79 39 80 45 81 40 82 41 83 42 84 43 85 44 86
REMARK H PARENT 5 6 9 23 65 42 35 53
REMARK Flexibility Score: inf
ROOT
ATOM      1  C   UNL A   1      35.819  23.152  26.110  1.00  0.00     0.042 C 
ENDROOT
BRANCH   1   2
ATOM      2  C   UNL A   1      34.526  23.892  25.779  1.00  0.00     0.117 C 
BRANCH   2   3
ATOM      3  N   UNL A   1      34.532  24.414  24.423  1.00  0.00    -0.356 N 
ATOM      4  C   UNL A   1      33.508  24.780  23.605  1.00  0.00     0.223 C 
ATOM      5  O   UNL A   1      33.791  25.102  22.453  1.00  0.00    -0.275 OA
ATOM      6  H   UNL A   1      35.428  24.521  24.029  1.00  0.00     0.163 HD
BRANCH   4   7
ATOM      7  C   UNL A   1      32.073  24.797  24.128  1.00  0.00     0.086 C 
ATOM      8  C   UNL A   1      31.153  24.162  23.078  1.00  0.00     0.019 C 
BRANCH   7   9
ATOM      9  C   UNL A   1      31.629  26.238  24.478  1.00  0.00     0.070 C 
ATOM     10  C   UNL A   1      30.208  26.556  24.006  1.00  0.00     0.017 C 
BRANCH   9  11
ATOM     11  C   UNL A   1      31.760  26.689  25.945  1.00  0.00     0.166 C 
ATOM     12  O   UNL A   1      31.593  25.880  26.861  1.00  0.00    -0.294 OA
BRANCH  11  13
ATOM     13  C   UNL A   1      32.307  28.028  26.322  1.00  0.00     0.019 A 
ATOM     14  C   UNL A   1      33.611  28.058  26.845  1.00  0.00     0.012 A 
ATOM     15  C   UNL A   1      31.594  29.223  26.221  1.00  0.00     0.032 A 
ATOM     16  C   UNL A   1      34.203  29.263  27.229  1.00  0.00     0.002 A 
ATOM     17  C   UNL A   1      32.194  30.426  26.599  1.00  0.00     0.041 A 
ATOM     18  C   UNL A   1      33.494  30.453  27.098  1.00  0.00     0.020 A 
ATOM     19  Cl  UNL A   1      31.305  31.895  26.458  1.00  0.00    -0.084 Cl
ENDBRANCH  11  13
ENDBRANCH   9  11
ENDBRANCH   7   9
ENDBRANCH   4   7
ENDBRANCH   2   3
ENDBRANCH   1   2
BRANCH   1  20
ATOM     20  C   UNL A   1      37.013  23.546  25.243  1.00  0.00     0.118 C 
BRANCH  20  21
ATOM     21  N   UNL A   1      38.184  22.713  25.483  1.00  0.00    -0.352 N 
ATOM     22  C   UNL A   1      39.369  23.014  26.110  1.00  0.00     0.251 C 
ATOM     23  H   UNL A   1      38.115  21.791  25.144  1.00  0.00     0.163 HD
ATOM     24  O   UNL A   1      40.304  22.219  26.050  1.00  0.00    -0.269 OA
BRANCH  22  25
ATOM     25  C   UNL A   1      39.538  24.299  26.825  1.00  0.00     0.039 A 
ATOM     26  C   UNL A   1      38.998  24.433  28.107  1.00  0.00     0.014 A 
ATOM     27  C   UNL A   1      40.222  25.370  26.241  1.00  0.00     0.014 A 
ATOM     28  C   UNL A   1      39.230  25.599  28.841  1.00  0.00     0.010 A 
ATOM     29  C   UNL A   1      40.509  26.504  26.997  1.00  0.00     0.010 A 
ATOM     30  C   UNL A   1      40.035  26.623  28.314  1.00  0.00    -0.014 A 
BRANCH  30  31
ATOM     31  C   UNL A   1      40.455  27.784  29.144  1.00  0.00     0.031 A 
ATOM     32  C   UNL A   1      39.543  28.966  29.328  1.00  0.00     0.074 A 
ATOM     33  C   UNL A   1      41.706  27.809  29.649  1.00  0.00     0.049 A 
ATOM     34  N   UNL A   1      39.786  30.104  29.926  1.00  0.00    -0.248 NA
ATOM     35  C   UNL A   1      38.191  28.868  28.753  1.00  0.00     0.031 C 
ATOM     36  C   UNL A   1      42.701  26.741  29.506  1.00  0.00     0.029 A 
ATOM     37  N   UNL A   1      42.368  28.777  30.366  1.00  0.00    -0.354 N 
ATOM     38  C   UNL A   1      38.634  30.866  29.779  1.00  0.00     0.074 A 
ATOM     39  C   UNL A   1      37.696  30.070  29.016  1.00  0.00     0.031 C 
ATOM     40  C   UNL A   1      43.836  27.109  30.119  1.00  0.00     0.029 A 
ATOM     41  C   UNL A   1      43.676  28.458  30.652  1.00  0.00     0.049 A 
ATOM     42  H   UNL A   1      41.945  29.621  30.647  1.00  0.00     0.167 HD
ATOM     43  C   UNL A   1      38.380  32.113  30.242  1.00  0.00     0.031 A 
ATOM     44  C   UNL A   1      44.649  29.176  31.247  1.00  0.00     0.031 A 
ATOM     45  C   UNL A   1      39.310  32.892  31.018  1.00  0.00     0.049 A 
ATOM     46  C   UNL A   1      44.344  30.571  31.723  1.00  0.00     0.074 A 
ATOM     47  C   UNL A   1      39.105  34.127  31.610  1.00  0.00     0.029 A 
ATOM     48  N   UNL A   1      40.617  32.528  31.294  1.00  0.00    -0.354 N 
ATOM     49  N   UNL A   1      43.210  31.228  31.671  1.00  0.00    -0.248 NA
ATOM     50  C   UNL A   1      45.448  31.323  32.336  1.00  0.00     0.031 C 
ATOM     51  C   UNL A   1      40.311  34.542  32.181  1.00  0.00     0.029 A 
ATOM     52  C   UNL A   1      41.248  33.538  32.002  1.00  0.00     0.049 A 
ATOM     53  H   UNL A   1      41.037  31.678  31.027  1.00  0.00     0.167 HD
ATOM     54  C   UNL A   1      43.462  32.462  32.260  1.00  0.00     0.074 A 
ATOM     55  C   UNL A   1      44.845  32.451  32.686  1.00  0.00     0.031 C 
ATOM     56  C   UNL A   1      42.624  33.514  32.425  1.00  0.00     0.031 A 
BRANCH  43  57
ATOM     57  C   UNL A   1      37.051  32.742  29.921  1.00  0.00    -0.014 A 
ATOM     58  C   UNL A   1      35.951  32.602  30.784  1.00  0.00     0.010 A 
ATOM     59  C   UNL A   1      36.938  33.584  28.799  1.00  0.00     0.010 A 
ATOM     60  C   UNL A   1      34.760  33.287  30.525  1.00  0.00     0.020 A 
ATOM     61  C   UNL A   1      35.758  34.289  28.549  1.00  0.00     0.020 A 
ATOM     62  C   UNL A   1      34.673  34.132  29.413  1.00  0.00     0.054 A 
BRANCH  62  63
ATOM     63  S   UNL A   1      33.141  35.068  29.150  1.00  0.00     0.124 S 
ATOM     64  O   UNL A   1      32.439  34.228  28.182  1.00  0.00    -0.237 OA
ATOM     65  O   UNL A   1      32.557  35.106  30.487  1.00  0.00    -0.237 OA
ATOM     66  O   UNL A   1      33.603  36.355  28.636  1.00  0.00    -0.744 OA
ENDBRANCH  62  63
ENDBRANCH  43  57
BRANCH  44  67
ATOM     67  C   UNL A   1      46.022  28.614  31.390  1.00  0.00    -0.014 A 
ATOM     68  C   UNL A   1      46.915  28.610  30.304  1.00  0.00     0.010 A 
ATOM     69  C   UNL A   1      46.430  28.043  32.610  1.00  0.00     0.010 A 
ATOM     70  C   UNL A   1      48.173  28.009  30.422  1.00  0.00     0.020 A 
ATOM     71  C   UNL A   1      47.698  27.474  32.743  1.00  0.00     0.020 A 
ATOM     72  C   UNL A   1      48.554  27.441  31.642  1.00  0.00     0.054 A 
BRANCH  72  73
ATOM     73  S   UNL A   1      50.192  26.674  31.777  1.00  0.00     0.124 S 
ATOM     74  O   UNL A   1      51.073  27.836  31.759  1.00  0.00    -0.237 OA
ATOM     75  O   UNL A   1      50.104  25.964  33.051  1.00  0.00    -0.237 OA
ATOM     76  O   UNL A   1      50.264  25.813  30.598  1.00  0.00    -0.744 OA
ENDBRANCH  72  73
ENDBRANCH  44  67
BRANCH  56  77
ATOM     77  C   UNL A   1      43.166  34.740  33.111  1.00  0.00    -0.014 A 
ATOM     78  C   UNL A   1      43.700  35.807  32.367  1.00  0.00     0.010 A 
ATOM     79  C   UNL A   1      43.064  34.861  34.509  1.00  0.00     0.010 A 
ATOM     80  C   UNL A   1      44.136  36.968  33.010  1.00  0.00     0.020 A 
ATOM     81  C   UNL A   1      43.471  36.032  35.153  1.00  0.00     0.020 A 
ATOM     82  C   UNL A   1      44.011  37.075  34.399  1.00  0.00     0.054 A 
BRANCH  82  83
ATOM     83  S   UNL A   1      44.515  38.623  35.199  1.00  0.00     0.124 S 
ATOM     84  O   UNL A   1      45.954  38.641  34.950  1.00  0.00    -0.237 OA
ATOM     85  O   UNL A   1      43.739  39.625  34.473  1.00  0.00    -0.237 OA
ATOM     86  O   UNL A   1      44.128  38.434  36.596  1.00  0.00    -0.744 OA
ENDBRANCH  82  83
ENDBRANCH  56  77
ENDBRANCH  30  31
ENDBRANCH  22  25
ENDBRANCH  20  21
ENDBRANCH   1  20
TORSDOF 16
ENDMDL
MODEL 2
REMARK VINA RESULT:     -10.3      3.014      8.478
REMARK SMILES C[C@@H](C(=O)NCCCNC(=O)c1ccc(-c2c3nc(c(-c4ccc(S(=O)(=O)[O-])cc4)c4ccc([nH]4)c(-c4ccc(S(=O)(=O)[O-])cc4)c4nc(c(-c5ccc(S(=O)(=O)[O-])cc5)c5ccc2[nH]5)C=C4)C=C3)cc1)[C@@H](C)C(=O)c1cccc(Cl)c1
REMARK SMILES IDX 7 1 6 2 5 3 3 4 4 5 2 7 1 8 72 9 73 10 74 11 75 12 76 13
REMARK SMILES IDX 77 14 82 15 78 16 80 17 79 18 81 19 8 20 9 21 10 22 11 24
REMARK SMILES IDX 12 25 13 26 71 27 14 28 70 29 15 30 16 31 17 32 64 33 18 34
REMARK SMILES IDX 69 35 63 36 65 37 19 38 68 39 62 40 61 41 20 43 50 44 31 45
REMARK SMILES IDX 49 46 32 47 35 48 48 49 66 50 33 51 34 52 47 54 67 55 36 56
REMARK SMILES IDX 21 57 22 58 30 59 23 60 29 61 24 62 25 63 26 64 27 65 28 66
REMARK SMILES IDX 51 67 52 68 60 69 53 70 59 71 54 72 55 73 56 74 57 75 58 76
REMARK SMILES IDX 37 77 38 78 46 79 39 80 45 81 40 82 41 83 42 84 43 85 44 86
REMARK H PARENT 5 6 9 23 65 42 35 53
REMARK Flexibility Score: inf
ROOT
ATOM      1  C   UNL A   1      32.754  28.611  25.985  1.00  0.00     0.042 C 
ENDROOT
BRANCH   1   2
ATOM      2  C   UNL A   1      31.626  27.585  26.012  1.00  0.00     0.117 C 
BRANCH   2   3
ATOM      3  N   UNL A   1      31.043  27.385  24.696  1.00  0.00    -0.356 N 
ATOM      4  C   UNL A   1      31.487  26.675  23.623  1.00  0.00     0.223 C 
ATOM      5  O   UNL A   1      30.836  26.754  22.583  1.00  0.00    -0.275 OA
ATOM      6  H   UNL A   1      30.181  27.840  24.556  1.00  0.00     0.163 HD
BRANCH   4   7
ATOM      7  C   UNL A   1      32.739  25.808  23.738  1.00  0.00     0.086 C 
ATOM      8  C   UNL A   1      33.764  26.274  22.697  1.00  0.00     0.019 C 
BRANCH   7   9
ATOM      9  C   UNL A   1      32.392  24.310  23.567  1.00  0.00     0.070 C 
ATOM     10  C   UNL A   1      32.985  23.702  22.294  1.00  0.00     0.017 C 
BRANCH   9  11
ATOM     11  C   UNL A   1      32.706  23.365  24.742  1.00  0.00     0.166 C 
ATOM     12  O   UNL A   1      31.790  22.872  25.405  1.00  0.00    -0.294 OA
BRANCH  11  13
ATOM     13  C   UNL A   1      34.079  22.828  24.989  1.00  0.00     0.019 A 
ATOM     14  C   UNL A   1      34.265  21.448  24.796  1.00  0.00     0.012 A 
ATOM     15  C   UNL A   1      35.155  23.598  25.428  1.00  0.00     0.032 A 
ATOM     16  C   UNL A   1      35.513  20.856  25.008  1.00  0.00     0.002 A 
ATOM     17  C   UNL A   1      36.402  23.003  25.630  1.00  0.00     0.041 A 
ATOM     18  C   UNL A   1      36.588  21.639  25.419  1.00  0.00     0.020 A 
ATOM     19  Cl  UNL A   1      37.725  23.970  26.161  1.00  0.00    -0.084 Cl
ENDBRANCH  11  13
ENDBRANCH   9  11
ENDBRANCH   7   9
ENDBRANCH   4   7
ENDBRANCH   2   3
ENDBRANCH   1   2
BRANCH   1  20
ATOM     20  C   UNL A   1      33.512  28.754  27.304  1.00  0.00     0.118 C 
BRANCH  20  21
ATOM     21  N   UNL A   1      33.555  30.129  27.784  1.00  0.00    -0.352 N 
ATOM     22  C   UNL A   1      34.555  30.803  28.443  1.00  0.00     0.251 C 
ATOM     23  H   UNL A   1      32.743  30.656  27.607  1.00  0.00     0.163 HD
ATOM     24  O   UNL A   1      34.323  31.911  28.921  1.00  0.00    -0.269 OA
BRANCH  22  25
ATOM     25  C   UNL A   1      35.893  30.192  28.609  1.00  0.00     0.039 A 
ATOM     26  C   UNL A   1      36.751  30.139  27.508  1.00  0.00     0.014 A 
ATOM     27  C   UNL A   1      36.304  29.672  29.840  1.00  0.00     0.014 A 
ATOM     28  C   UNL A   1      38.055  29.659  27.664  1.00  0.00     0.010 A 
ATOM     29  C   UNL A   1      37.624  29.256  30.011  1.00  0.00     0.010 A 
ATOM     30  C   UNL A   1      38.520  29.265  28.930  1.00  0.00    -0.014 A 
BRANCH  30  31
ATOM     31  C   UNL A   1      39.952  28.935  29.161  1.00  0.00     0.031 A 
ATOM     32  C   UNL A   1      40.920  29.992  29.616  1.00  0.00     0.074 A 
ATOM     33  C   UNL A   1      40.395  27.696  28.860  1.00  0.00     0.049 A 
ATOM     34  N   UNL A   1      42.217  29.908  29.764  1.00  0.00    -0.248 NA
ATOM     35  C   UNL A   1      40.366  31.320  29.930  1.00  0.00     0.031 C 
ATOM     36  C   UNL A   1      39.562  26.593  28.371  1.00  0.00     0.029 A 
ATOM     37  N   UNL A   1      41.660  27.159  28.897  1.00  0.00    -0.354 N 
ATOM     38  C   UNL A   1      42.639  31.171  30.160  1.00  0.00     0.074 A 
ATOM     39  C   UNL A   1      41.463  32.013  30.211  1.00  0.00     0.031 C 
ATOM     40  C   UNL A   1      40.334  25.515  28.162  1.00  0.00     0.029 A 
ATOM     41  C   UNL A   1      41.723  25.860  28.448  1.00  0.00     0.049 A 
ATOM     42  H   UNL A   1      42.447  27.658  29.215  1.00  0.00     0.167 HD
ATOM     43  C   UNL A   1      43.893  31.588  30.459  1.00  0.00     0.031 A 
ATOM     44  C   UNL A   1      42.778  25.044  28.255  1.00  0.00     0.031 A 
ATOM     45  C   UNL A   1      45.057  30.741  30.426  1.00  0.00     0.049 A 
ATOM     46  C   UNL A   1      44.162  25.548  28.567  1.00  0.00     0.074 A 
ATOM     47  C   UNL A   1      46.351  31.053  30.804  1.00  0.00     0.029 A 
ATOM     48  N   UNL A   1      45.075  29.431  29.977  1.00  0.00    -0.354 N 
ATOM     49  N   UNL A   1      44.523  26.713  29.048  1.00  0.00    -0.248 NA
ATOM     50  C   UNL A   1      45.280  24.630  28.309  1.00  0.00     0.031 C 
ATOM     51  C   UNL A   1      47.166  29.956  30.514  1.00  0.00     0.029 A 
ATOM     52  C   UNL A   1      46.369  28.938  30.017  1.00  0.00     0.049 A 
ATOM     53  H   UNL A   1      44.286  28.925  29.673  1.00  0.00     0.167 HD
ATOM     54  C   UNL A   1      45.907  26.660  29.167  1.00  0.00     0.074 A 
ATOM     55  C   UNL A   1      46.316  25.341  28.734  1.00  0.00     0.031 C 
ATOM     56  C   UNL A   1      46.764  27.621  29.589  1.00  0.00     0.031 A 
BRANCH  43  57
ATOM     57  C   UNL A   1      44.098  33.031  30.838  1.00  0.00    -0.014 A 
ATOM     58  C   UNL A   1      44.294  34.021  29.860  1.00  0.00     0.010 A 
ATOM     59  C   UNL A   1      43.971  33.416  32.186  1.00  0.00     0.010 A 
ATOM     60  C   UNL A   1      44.368  35.368  30.225  1.00  0.00     0.020 A 
ATOM     61  C   UNL A   1      44.020  34.763  32.552  1.00  0.00     0.020 A 
ATOM     62  C   UNL A   1      44.223  35.732  31.568  1.00  0.00     0.054 A 
BRANCH  62  63
ATOM     63  S   UNL A   1      44.246  37.494  31.999  1.00  0.00     0.124 S 
ATOM     64  O   UNL A   1      43.319  37.540  33.127  1.00  0.00    -0.237 OA
ATOM     65  O   UNL A   1      45.649  37.723  32.330  1.00  0.00    -0.237 OA
ATOM     66  O   UNL A   1      43.778  38.156  30.783  1.00  0.00    -0.744 OA
ENDBRANCH  62  63
ENDBRANCH  43  57
BRANCH  44  67
ATOM     67  C   UNL A   1      42.583  23.676  27.695  1.00  0.00    -0.014 A 
ATOM     68  C   UNL A   1      42.328  22.582  28.540  1.00  0.00     0.010 A 
ATOM     69  C   UNL A   1      42.689  23.457  26.309  1.00  0.00     0.010 A 
ATOM     70  C   UNL A   1      42.225  21.289  28.015  1.00  0.00     0.020 A 
ATOM     71  C   UNL A   1      42.552  22.173  25.777  1.00  0.00     0.020 A 
ATOM     72  C   UNL A   1      42.342  21.093  26.636  1.00  0.00     0.054 A 
BRANCH  72  73
ATOM     73  S   UNL A   1      42.197  19.411  25.974  1.00  0.00     0.124 S 
ATOM     74  O   UNL A   1      42.725  18.608  27.071  1.00  0.00    -0.237 OA
ATOM     75  O   UNL A   1      40.762  19.289  25.732  1.00  0.00    -0.237 OA
ATOM     76  O   UNL A   1      43.024  19.446  24.769  1.00  0.00    -0.744 OA
ENDBRANCH  72  73
ENDBRANCH  44  67
BRANCH  56  77
ATOM     77  C   UNL A   1      48.231  27.286  29.623  1.00  0.00    -0.014 A 
ATOM     78  C   UNL A   1      49.098  27.730  28.608  1.00  0.00     0.010 A 
ATOM     79  C   UNL A   1      48.762  26.589  30.723  1.00  0.00     0.010 A 
ATOM     80  C   UNL A   1      50.468  27.472  28.687  1.00  0.00     0.020 A 
ATOM     81  C   UNL A   1      50.136  26.355  30.821  1.00  0.00     0.020 A 
ATOM     82  C   UNL A   1      50.980  26.792  29.798  1.00  0.00     0.054 A 
BRANCH  82  83
ATOM     83  S   UNL A   1      52.772  26.537  29.911  1.00  0.00     0.124 S 
ATOM     84  O   UNL A   1      53.265  27.902  30.071  1.00  0.00    -0.237 OA
ATOM     85  O   UNL A   1      52.898  25.681  31.087  1.00  0.00    -0.237 OA
ATOM     86  O   UNL A   1      53.112  25.897  28.641  1.00  0.00    -0.744 OA
ENDBRANCH  82  83
ENDBRANCH  56  77
ENDBRANCH  30  31
ENDBRANCH  22  25
ENDBRANCH  20  21
ENDBRANCH   1  20
TORSDOF 16
ENDMDL
MODEL 3
REMARK VINA RESULT:     -10.3      2.996      9.229
REMARK SMILES C[C@@H](C(=O)NCCCNC(=O)c1ccc(-c2c3nc(c(-c4ccc(S(=O)(=O)[O-])cc4)c4ccc([nH]4)c(-c4ccc(S(=O)(=O)[O-])cc4)c4nc(c(-c5ccc(S(=O)(=O)[O-])cc5)c5ccc2[nH]5)C=C4)C=C3)cc1)[C@@H](C)C(=O)c1cccc(Cl)c1
REMARK SMILES IDX 7 1 6 2 5 3 3 4 4 5 2 7 1 8 72 9 73 10 74 11 75 12 76 13
REMARK SMILES IDX 77 14 82 15 78 16 80 17 79 18 81 19 8 20 9 21 10 22 11 24
REMARK SMILES IDX 12 25 13 26 71 27 14 28 70 29 15 30 16 31 17 32 64 33 18 34
REMARK SMILES IDX 69 35 63 36 65 37 19 38 68 39 62 40 61 41 20 43 50 44 31 45
REMARK SMILES IDX 49 46 32 47 35 48 48 49 66 50 33 51 34 52 47 54 67 55 36 56
REMARK SMILES IDX 21 57 22 58 30 59 23 60 29 61 24 62 25 63 26 64 27 65 28 66
REMARK SMILES IDX 51 67 52 68 60 69 53 70 59 71 54 72 55 73 56 74 57 75 58 76
REMARK SMILES IDX 37 77 38 78 46 79 39 80 45 81 40 82 41 83 42 84 43 85 44 86
REMARK H PARENT 5 6 9 23 65 42 35 53
REMARK Flexibility Score: inf
ROOT
ATOM      1  C   UNL A   1      32.941  28.214  27.564  1.00  0.00     0.042 C 
ENDROOT
BRANCH   1   2
ATOM      2  C   UNL A   1      31.544  28.171  26.952  1.00  0.00     0.117 C 
BRANCH   2   3
ATOM      3  N   UNL A   1      30.986  26.829  26.967  1.00  0.00    -0.356 N 
ATOM      4  C   UNL A   1      30.437  26.081  25.971  1.00  0.00     0.223 C 
ATOM      5  O   UNL A   1      29.946  24.998  26.282  1.00  0.00    -0.275 OA
ATOM      6  H   UNL A   1      31.009  26.386  27.846  1.00  0.00     0.163 HD
BRANCH   4   7
ATOM      7  C   UNL A   1      30.458  26.584  24.529  1.00  0.00     0.086 C 
ATOM      8  C   UNL A   1      29.059  26.423  23.925  1.00  0.00     0.019 C 
BRANCH   7   9
ATOM      9  C   UNL A   1      31.528  25.836  23.698  1.00  0.00     0.070 C 
ATOM     10  C   UNL A   1      31.403  26.093  22.194  1.00  0.00     0.017 C 
BRANCH   9  11
ATOM     11  C   UNL A   1      33.004  26.025  24.097  1.00  0.00     0.166 C 
ATOM     12  O   UNL A   1      33.482  27.158  24.188  1.00  0.00    -0.294 OA
BRANCH  11  13
ATOM     13  C   UNL A   1      33.844  24.898  24.604  1.00  0.00     0.019 A 
ATOM     14  C   UNL A   1      33.629  24.493  25.932  1.00  0.00     0.012 A 
ATOM     15  C   UNL A   1      34.838  24.263  23.858  1.00  0.00     0.032 A 
ATOM     16  C   UNL A   1      34.371  23.452  26.494  1.00  0.00     0.002 A 
ATOM     17  C   UNL A   1      35.571  23.217  24.422  1.00  0.00     0.041 A 
ATOM     18  C   UNL A   1      35.340  22.805  25.732  1.00  0.00     0.020 A 
ATOM     19  Cl  UNL A   1      36.786  22.435  23.485  1.00  0.00    -0.084 Cl
ENDBRANCH  11  13
ENDBRANCH   9  11
ENDBRANCH   7   9
ENDBRANCH   4   7
ENDBRANCH   2   3
ENDBRANCH   1   2
BRANCH   1  20
ATOM     20  C   UNL A   1      33.844  29.311  27.005  1.00  0.00     0.118 C 
BRANCH  20  21
ATOM     21  N   UNL A   1      33.841  30.517  27.823  1.00  0.00    -0.352 N 
ATOM     22  C   UNL A   1      34.799  31.008  28.677  1.00  0.00     0.251 C 
ATOM     23  H   UNL A   1      33.025  31.064  27.752  1.00  0.00     0.163 HD
ATOM     24  O   UNL A   1      34.525  31.954  29.411  1.00  0.00    -0.269 OA
BRANCH  22  25
ATOM     25  C   UNL A   1      36.141  30.387  28.740  1.00  0.00     0.039 A 
ATOM     26  C   UNL A   1      36.973  30.465  27.620  1.00  0.00     0.014 A 
ATOM     27  C   UNL A   1      36.582  29.731  29.893  1.00  0.00     0.014 A 
ATOM     28  C   UNL A   1      38.280  29.975  27.689  1.00  0.00     0.010 A 
ATOM     29  C   UNL A   1      37.905  29.303  29.984  1.00  0.00     0.010 A 
ATOM     30  C   UNL A   1      38.776  29.441  28.890  1.00  0.00    -0.014 A 
BRANCH  30  31
ATOM     31  C   UNL A   1      40.213  29.092  29.048  1.00  0.00     0.031 A 
ATOM     32  C   UNL A   1      40.724  27.737  28.640  1.00  0.00     0.074 A 
ATOM     33  C   UNL A   1      41.038  29.970  29.655  1.00  0.00     0.049 A 
ATOM     34  N   UNL A   1      41.917  27.226  28.804  1.00  0.00    -0.248 NA
ATOM     35  C   UNL A   1      39.770  26.830  27.980  1.00  0.00     0.031 C 
ATOM     36  C   UNL A   1      40.654  31.303  30.133  1.00  0.00     0.029 A 
ATOM     37  N   UNL A   1      42.365  29.870  29.998  1.00  0.00    -0.354 N 
ATOM     38  C   UNL A   1      41.854  25.935  28.294  1.00  0.00     0.074 A 
ATOM     39  C   UNL A   1      40.497  25.730  27.832  1.00  0.00     0.031 C 
ATOM     40  C   UNL A   1      41.719  31.894  30.698  1.00  0.00     0.029 A 
ATOM     41  C   UNL A   1      42.847  30.969  30.674  1.00  0.00     0.049 A 
ATOM     42  H   UNL A   1      42.919  29.086  29.781  1.00  0.00     0.167 HD
ATOM     43  C   UNL A   1      42.838  25.009  28.214  1.00  0.00     0.031 A 
ATOM     44  C   UNL A   1      44.048  31.198  31.240  1.00  0.00     0.031 A 
ATOM     45  C   UNL A   1      44.191  25.226  28.657  1.00  0.00     0.049 A 
ATOM     46  C   UNL A   1      45.112  30.136  31.161  1.00  0.00     0.074 A 
ATOM     47  C   UNL A   1      45.278  24.378  28.529  1.00  0.00     0.029 A 
ATOM     48  N   UNL A   1      44.639  26.354  29.324  1.00  0.00    -0.354 N 
ATOM     49  N   UNL A   1      45.061  28.965  30.573  1.00  0.00    -0.248 NA
ATOM     50  C   UNL A   1      46.393  30.423  31.821  1.00  0.00     0.031 C 
ATOM     51  C   UNL A   1      46.366  24.962  29.184  1.00  0.00     0.029 A 
ATOM     52  C   UNL A   1      45.974  26.202  29.662  1.00  0.00     0.049 A 
ATOM     53  H   UNL A   1      44.091  27.146  29.528  1.00  0.00     0.167 HD
ATOM     54  C   UNL A   1      46.308  28.385  30.778  1.00  0.00     0.074 A 
ATOM     55  C   UNL A   1      47.100  29.343  31.519  1.00  0.00     0.031 C 
ATOM     56  C   UNL A   1      46.754  27.165  30.395  1.00  0.00     0.031 A 
BRANCH  43  57
ATOM     57  C   UNL A   1      42.507  23.657  27.640  1.00  0.00    -0.014 A 
ATOM     58  C   UNL A   1      42.768  23.353  26.294  1.00  0.00     0.010 A 
ATOM     59  C   UNL A   1      42.039  22.640  28.494  1.00  0.00     0.010 A 
ATOM     60  C   UNL A   1      42.559  22.058  25.809  1.00  0.00     0.020 A 
ATOM     61  C   UNL A   1      41.852  21.339  28.021  1.00  0.00     0.020 A 
ATOM     62  C   UNL A   1      42.109  21.057  26.678  1.00  0.00     0.054 A 
BRANCH  62  63
ATOM     63  S   UNL A   1      41.924  19.369  26.038  1.00  0.00     0.124 S 
ATOM     64  O   UNL A   1      42.788  19.397  24.861  1.00  0.00    -0.237 OA
ATOM     65  O   UNL A   1      42.403  18.553  27.149  1.00  0.00    -0.237 OA
ATOM     66  O   UNL A   1      40.494  19.259  25.757  1.00  0.00    -0.744 OA
ENDBRANCH  62  63
ENDBRANCH  43  57
BRANCH  44  67
ATOM     67  C   UNL A   1      44.306  32.469  31.975  1.00  0.00    -0.014 A 
ATOM     68  C   UNL A   1      44.868  33.579  31.321  1.00  0.00     0.010 A 
ATOM     69  C   UNL A   1      44.021  32.561  33.351  1.00  0.00     0.010 A 
ATOM     70  C   UNL A   1      45.180  34.740  32.035  1.00  0.00     0.020 A 
ATOM     71  C   UNL A   1      44.299  33.731  34.061  1.00  0.00     0.020 A 
ATOM     72  C   UNL A   1      44.897  34.807  33.403  1.00  0.00     0.054 A 
BRANCH  72  73
ATOM     73  S   UNL A   1      45.302  36.324  34.310  1.00  0.00     0.124 S 
ATOM     74  O   UNL A   1      45.117  37.347  33.287  1.00  0.00    -0.237 OA
ATOM     75  O   UNL A   1      44.317  36.320  35.389  1.00  0.00    -0.237 OA
ATOM     76  O   UNL A   1      46.683  36.107  34.738  1.00  0.00    -0.744 OA
ENDBRANCH  72  73
ENDBRANCH  44  67
BRANCH  56  77
ATOM     77  C   UNL A   1      48.169  26.793  30.751  1.00  0.00    -0.014 A 
ATOM     78  C   UNL A   1      49.248  27.204  29.948  1.00  0.00     0.010 A 
ATOM     79  C   UNL A   1      48.429  26.095  31.944  1.00  0.00     0.010 A 
ATOM     80  C   UNL A   1      50.561  26.912  30.325  1.00  0.00     0.020 A 
ATOM     81  C   UNL A   1      49.741  25.827  32.340  1.00  0.00     0.020 A 
ATOM     82  C   UNL A   1      50.799  26.232  31.524  1.00  0.00     0.054 A 
BRANCH  82  83
ATOM     83  S   UNL A   1      52.516  25.933  32.027  1.00  0.00     0.124 S 
ATOM     84  O   UNL A   1      53.231  26.058  30.760  1.00  0.00    -0.237 OA
ATOM     85  O   UNL A   1      52.756  27.002  32.992  1.00  0.00    -0.237 OA
ATOM     86  O   UNL A   1      52.483  24.585  32.592  1.00  0.00    -0.744 OA
ENDBRANCH  82  83
ENDBRANCH  56  77
ENDBRANCH  30  31
ENDBRANCH  22  25
ENDBRANCH  20  21
ENDBRANCH   1  20
TORSDOF 16
ENDMDL
