MODEL 1
REMARK VINA RESULT:     -12.4      0.000      0.000
REMARK SMILES CC[C@](C)(NC(=O)[C@H]1C[NH2+]Cc2ccccc21)C(=O)NCCCNC(=O)c1ccc(-c2c3nc(c(-c4ccc(S(=O)(=O)[O-])cc4)c4ccc([nH]4)c(-c4ccc(S(=O)(=O)[O-])cc4)c4nc(c(-c5ccc(S(=O)(=O)[O-])cc5)c5ccc2[nH]5)C=C4)C=C3)cc1
REMARK SMILES IDX 22 1 21 2 20 3 18 4 19 5 3 7 4 8 2 9 1 10 5 11 6 12 7 14
REMARK SMILES IDX 8 15 9 16 17 17 10 18 12 19 16 20 11 21 13 24 15 25 14 26
REMARK SMILES IDX 23 27 24 28 25 29 26 31 27 32 28 33 86 34 29 35 85 36 30 37
REMARK SMILES IDX 31 38 32 39 79 40 33 41 84 42 78 43 80 44 34 45 83 46 77 47
REMARK SMILES IDX 76 48 35 50 65 51 46 52 64 53 47 54 50 55 63 56 81 57 48 58
REMARK SMILES IDX 49 59 62 61 82 62 51 63 36 64 37 65 45 66 38 67 44 68 39 69
REMARK SMILES IDX 40 70 41 71 42 72 43 73 66 74 67 75 75 76 68 77 74 78 69 79
REMARK SMILES IDX 70 80 71 81 72 82 73 83 52 84 53 85 61 86 54 87 60 88 55 89
REMARK SMILES IDX 56 90 57 91 58 92 59 93
REMARK H PARENT 20 6 5 13 10 22 10 23 24 30 80 49 50 60
REMARK Flexibility Score: inf
ROOT
ATOM      1  C   UNL A   1      35.121  24.497  25.576  1.00  0.00     0.042 C 
ENDROOT
BRANCH   1   2
ATOM      2  C   UNL A   1      34.372  25.977  25.901  1.00  0.00     0.117 C 
BRANCH   2   3
ATOM      3  N   UNL A   1      32.933  26.139  25.928  1.00  0.00    -0.354 N 
ATOM      4  C   UNL A   1      32.167  27.265  26.081  1.00  0.00     0.245 C 
ATOM      5  O   UNL A   1      30.959  27.108  26.270  1.00  0.00    -0.272 OA
ATOM      6  H   UNL A   1      32.422  25.304  25.819  1.00  0.00     0.163 HD
BRANCH   4   7
ATOM      7  C   UNL A   1      32.788  28.653  25.841  1.00  0.00     0.116 C 
ATOM      8  C   UNL A   1      34.294  28.664  26.159  1.00  0.00     0.045 C 
BRANCH   7   9
ATOM      9  C   UNL A   1      32.070  29.610  26.859  1.00  0.00     0.035 C 
ATOM     10  C   UNL A   1      32.906  30.821  27.303  1.00  0.00     0.007 C 
ENDBRANCH   7   9
BRANCH   7  11
ATOM     11  N   UNL A   1      32.578  29.115  24.439  1.00  0.00    -0.341 N 
ATOM     12  C   UNL A   1      32.766  28.334  23.309  1.00  0.00     0.234 C 
ATOM     13  H   UNL A   1      32.283  30.045  24.305  1.00  0.00     0.164 HD
ATOM     14  O   UNL A   1      33.861  28.417  22.743  1.00  0.00    -0.274 OA
BRANCH  12  15
ATOM     15  C   UNL A   1      31.548  27.616  22.579  1.00  0.00     0.164 C 
ATOM     16  C   UNL A   1      31.265  25.735  22.977  1.00  0.00     0.279 C 
ATOM     17  C   UNL A   1      30.001  28.736  22.625  1.00  0.00    -0.021 A 
ATOM     18  N   UNL A   1      29.651  25.129  23.718  1.00  0.00    -0.342 N 
ATOM     19  C   UNL A   1      28.491  28.201  23.288  1.00  0.00     0.010 A 
ATOM     20  C   UNL A   1      30.056  29.905  21.902  1.00  0.00     0.005 A 
ATOM     21  C   UNL A   1      28.238  26.382  23.900  1.00  0.00     0.297 C 
ATOM     22  H   UNL A   1      29.861  24.769  24.649  1.00  0.00     0.346 HD
ATOM     23  H   UNL A   1      29.302  24.443  23.049  1.00  0.00     0.346 HD
ATOM     24  C   UNL A   1      27.370  28.973  23.104  1.00  0.00     0.010 A 
ATOM     25  C   UNL A   1      28.825  30.566  21.752  1.00  0.00     0.000 A 
ATOM     26  C   UNL A   1      27.567  30.133  22.324  1.00  0.00     0.001 A 
ENDBRANCH  12  15
ENDBRANCH   7  11
ENDBRANCH   4   7
ENDBRANCH   2   3
ENDBRANCH   1   2
BRANCH   1  27
ATOM     27  C   UNL A   1      36.918  23.735  24.688  1.00  0.00     0.118 C 
BRANCH  27  28
ATOM     28  N   UNL A   1      37.983  22.704  25.245  1.00  0.00    -0.352 N 
ATOM     29  C   UNL A   1      39.083  22.773  26.058  1.00  0.00     0.251 C 
ATOM     30  H   UNL A   1      37.812  21.786  24.931  1.00  0.00     0.163 HD
ATOM     31  O   UNL A   1      39.864  21.827  26.124  1.00  0.00    -0.269 OA
BRANCH  29  32
ATOM     32  C   UNL A   1      39.424  24.027  26.752  1.00  0.00     0.039 A 
ATOM     33  C   UNL A   1      40.273  24.943  26.109  1.00  0.00     0.014 A 
ATOM     34  C   UNL A   1      38.937  24.288  28.028  1.00  0.00     0.014 A 
ATOM     35  C   UNL A   1      40.618  26.142  26.739  1.00  0.00     0.010 A 
ATOM     36  C   UNL A   1      39.268  25.490  28.646  1.00  0.00     0.010 A 
ATOM     37  C   UNL A   1      40.116  26.422  28.015  1.00  0.00    -0.014 A 
BRANCH  37  38
ATOM     38  C   UNL A   1      40.517  27.627  28.781  1.00  0.00     0.031 A 
ATOM     39  C   UNL A   1      41.756  27.554  29.628  1.00  0.00     0.074 A 
ATOM     40  C   UNL A   1      39.731  28.719  28.828  1.00  0.00     0.049 A 
ATOM     41  N   UNL A   1      42.145  28.341  30.596  1.00  0.00    -0.248 NA
ATOM     42  C   UNL A   1      42.659  26.424  29.361  1.00  0.00     0.031 C 
ATOM     43  C   UNL A   1      38.529  28.942  28.027  1.00  0.00     0.029 A 
ATOM     44  N   UNL A   1      39.808  29.832  29.628  1.00  0.00    -0.354 N 
ATOM     45  C   UNL A   1      43.313  27.772  31.090  1.00  0.00     0.074 A 
ATOM     46  C   UNL A   1      43.558  26.569  30.323  1.00  0.00     0.031 C 
ATOM     47  C   UNL A   1      37.950  30.093  28.411  1.00  0.00     0.029 A 
ATOM     48  C   UNL A   1      38.729  30.674  29.501  1.00  0.00     0.049 A 
ATOM     49  H   UNL A   1      40.564  30.010  30.235  1.00  0.00     0.167 HD
ATOM     50  C   UNL A   1      44.109  28.213  32.093  1.00  0.00     0.031 A 
ATOM     51  C   UNL A   1      38.389  31.771  30.206  1.00  0.00     0.031 A 
ATOM     52  C   UNL A   1      43.878  29.425  32.830  1.00  0.00     0.049 A 
ATOM     53  C   UNL A   1      39.275  32.235  31.328  1.00  0.00     0.074 A 
ATOM     54  C   UNL A   1      44.655  29.986  33.829  1.00  0.00     0.029 A 
ATOM     55  N   UNL A   1      42.795  30.269  32.642  1.00  0.00    -0.354 N 
ATOM     56  N   UNL A   1      40.381  31.695  31.782  1.00  0.00    -0.248 NA
ATOM     57  C   UNL A   1      38.872  33.464  32.027  1.00  0.00     0.031 C 
ATOM     58  C   UNL A   1      44.023  31.156  34.266  1.00  0.00     0.029 A 
ATOM     59  C   UNL A   1      42.876  31.342  33.512  1.00  0.00     0.049 A 
ATOM     60  H   UNL A   1      42.074  30.125  31.987  1.00  0.00     0.167 HD
ATOM     61  C   UNL A   1      40.821  32.533  32.799  1.00  0.00     0.074 A 
ATOM     62  C   UNL A   1      39.867  33.619  32.892  1.00  0.00     0.031 C 
ATOM     63  C   UNL A   1      41.920  32.417  33.585  1.00  0.00     0.031 A 
BRANCH  50  64
ATOM     64  C   UNL A   1      45.291  27.359  32.456  1.00  0.00    -0.014 A 
ATOM     65  C   UNL A   1      45.203  26.385  33.468  1.00  0.00     0.010 A 
ATOM     66  C   UNL A   1      46.508  27.530  31.772  1.00  0.00     0.010 A 
ATOM     67  C   UNL A   1      46.324  25.633  33.824  1.00  0.00     0.020 A 
ATOM     68  C   UNL A   1      47.626  26.760  32.107  1.00  0.00     0.020 A 
ATOM     69  C   UNL A   1      47.532  25.833  33.146  1.00  0.00     0.054 A 
BRANCH  69  70
ATOM     70  S   UNL A   1      48.974  24.841  33.624  1.00  0.00     0.124 S 
ATOM     71  O   UNL A   1      49.579  25.673  34.662  1.00  0.00    -0.237 OA
ATOM     72  O   UNL A   1      48.371  23.595  34.089  1.00  0.00    -0.237 OA
ATOM     73  O   UNL A   1      49.742  24.733  32.386  1.00  0.00    -0.744 OA
ENDBRANCH  69  70
ENDBRANCH  50  64
BRANCH  51  74
ATOM     74  C   UNL A   1      37.143  32.511  29.871  1.00  0.00    -0.014 A 
ATOM     75  C   UNL A   1      35.937  32.185  30.515  1.00  0.00     0.010 A 
ATOM     76  C   UNL A   1      37.154  33.539  28.911  1.00  0.00     0.010 A 
ATOM     77  C   UNL A   1      34.758  32.863  30.193  1.00  0.00     0.020 A 
ATOM     78  C   UNL A   1      35.980  34.232  28.602  1.00  0.00     0.020 A 
ATOM     79  C   UNL A   1      34.787  33.882  29.237  1.00  0.00     0.054 A 
BRANCH  79  80
ATOM     80  S   UNL A   1      33.254  34.781  28.871  1.00  0.00     0.124 S 
ATOM     81  O   UNL A   1      32.592  33.883  27.930  1.00  0.00    -0.237 OA
ATOM     82  O   UNL A   1      32.629  34.892  30.187  1.00  0.00    -0.237 OA
ATOM     83  O   UNL A   1      33.726  36.044  28.307  1.00  0.00    -0.744 OA
ENDBRANCH  79  80
ENDBRANCH  51  74
BRANCH  63  84
ATOM     84  C   UNL A   1      42.175  33.510  34.586  1.00  0.00    -0.014 A 
ATOM     85  C   UNL A   1      41.737  33.393  35.916  1.00  0.00     0.010 A 
ATOM     86  C   UNL A   1      42.919  34.640  34.202  1.00  0.00     0.010 A 
ATOM     87  C   UNL A   1      42.022  34.400  36.842  1.00  0.00     0.020 A 
ATOM     88  C   UNL A   1      43.225  35.638  35.131  1.00  0.00     0.020 A 
ATOM     89  C   UNL A   1      42.763  35.517  36.444  1.00  0.00     0.054 A 
BRANCH  89  90
ATOM     90  S   UNL A   1      43.171  36.784  37.677  1.00  0.00     0.124 S 
ATOM     91  O   UNL A   1      44.152  36.093  38.508  1.00  0.00    -0.237 OA
ATOM     92  O   UNL A   1      43.695  37.874  36.859  1.00  0.00    -0.237 OA
ATOM     93  O   UNL A   1      41.889  37.060  38.324  1.00  0.00    -0.744 OA
ENDBRANCH  89  90
ENDBRANCH  63  84
ENDBRANCH  37  38
ENDBRANCH  29  32
ENDBRANCH  27  28
ENDBRANCH   1  27
TORSDOF 16
ENDMDL
MODEL 2
REMARK VINA RESULT:     -12.2      2.395      3.593
REMARK SMILES CC[C@](C)(NC(=O)[C@H]1C[NH2+]Cc2ccccc21)C(=O)NCCCNC(=O)c1ccc(-c2c3nc(c(-c4ccc(S(=O)(=O)[O-])cc4)c4ccc([nH]4)c(-c4ccc(S(=O)(=O)[O-])cc4)c4nc(c(-c5ccc(S(=O)(=O)[O-])cc5)c5ccc2[nH]5)C=C4)C=C3)cc1
REMARK SMILES IDX 22 1 21 2 20 3 18 4 19 5 3 7 4 8 2 9 1 10 5 11 6 12 7 14
REMARK SMILES IDX 8 15 9 16 17 17 10 18 12 19 16 20 11 21 13 24 15 25 14 26
REMARK SMILES IDX 23 27 24 28 25 29 26 31 27 32 28 33 86 34 29 35 85 36 30 37
REMARK SMILES IDX 31 38 32 39 79 40 33 41 84 42 78 43 80 44 34 45 83 46 77 47
REMARK SMILES IDX 76 48 35 50 65 51 46 52 64 53 47 54 50 55 63 56 81 57 48 58
REMARK SMILES IDX 49 59 62 61 82 62 51 63 36 64 37 65 45 66 38 67 44 68 39 69
REMARK SMILES IDX 40 70 41 71 42 72 43 73 66 74 67 75 75 76 68 77 74 78 69 79
REMARK SMILES IDX 70 80 71 81 72 82 73 83 52 84 53 85 61 86 54 87 60 88 55 89
REMARK SMILES IDX 56 90 57 91 58 92 59 93
REMARK H PARENT 20 6 5 13 10 22 10 23 24 30 80 49 50 60
REMARK Flexibility Score: inf
ROOT
ATOM      1  C   UNL A   1      36.123  22.932  25.995  1.00  0.00     0.042 C 
ENDROOT
BRANCH   1   2
ATOM      2  C   UNL A   1      34.750  22.416  26.833  1.00  0.00     0.117 C 
BRANCH   2   3
ATOM      3  N   UNL A   1      33.753  21.545  26.245  1.00  0.00    -0.354 N 
ATOM      4  C   UNL A   1      32.514  21.830  25.733  1.00  0.00     0.245 C 
ATOM      5  O   UNL A   1      31.775  20.877  25.473  1.00  0.00    -0.272 OA
ATOM      6  H   UNL A   1      34.006  20.594  26.208  1.00  0.00     0.163 HD
BRANCH   4   7
ATOM      7  C   UNL A   1      32.160  23.275  25.340  1.00  0.00     0.116 C 
ATOM      8  C   UNL A   1      30.639  23.468  25.196  1.00  0.00     0.045 C 
BRANCH   7   9
ATOM      9  C   UNL A   1      32.812  23.493  23.928  1.00  0.00     0.035 C 
ATOM     10  C   UNL A   1      31.881  23.215  22.737  1.00  0.00     0.007 C 
ENDBRANCH   7   9
BRANCH   7  11
ATOM     11  N   UNL A   1      32.689  24.260  26.327  1.00  0.00    -0.341 N 
ATOM     12  C   UNL A   1      32.911  25.603  26.066  1.00  0.00     0.234 C 
ATOM     13  H   UNL A   1      32.895  23.933  27.232  1.00  0.00     0.164 HD
ATOM     14  O   UNL A   1      34.056  25.930  25.736  1.00  0.00    -0.274 OA
BRANCH  12  15
ATOM     15  C   UNL A   1      31.854  26.720  26.477  1.00  0.00     0.164 C 
ATOM     16  C   UNL A   1      32.414  28.016  27.813  1.00  0.00     0.279 C 
ATOM     17  C   UNL A   1      31.001  27.422  24.919  1.00  0.00    -0.021 A 
ATOM     18  N   UNL A   1      32.449  29.852  27.433  1.00  0.00    -0.342 N 
ATOM     19  C   UNL A   1      31.000  29.115  24.548  1.00  0.00     0.010 A 
ATOM     20  C   UNL A   1      30.182  26.566  24.219  1.00  0.00     0.005 A 
ATOM     21  C   UNL A   1      31.749  30.422  25.763  1.00  0.00     0.297 C 
ATOM     22  H   UNL A   1      33.422  30.153  27.474  1.00  0.00     0.346 HD
ATOM     23  H   UNL A   1      31.829  30.271  28.127  1.00  0.00     0.346 HD
ATOM     24  C   UNL A   1      30.197  29.576  23.532  1.00  0.00     0.010 A 
ATOM     25  C   UNL A   1      29.381  27.182  23.243  1.00  0.00     0.000 A 
ATOM     26  C   UNL A   1      29.395  28.592  22.915  1.00  0.00     0.001 A 
ENDBRANCH  12  15
ENDBRANCH   7  11
ENDBRANCH   4   7
ENDBRANCH   2   3
ENDBRANCH   1   2
BRANCH   1  27
ATOM     27  C   UNL A   1      37.851  24.167  26.292  1.00  0.00     0.118 C 
BRANCH  27  28
ATOM     28  N   UNL A   1      39.392  23.834  26.139  1.00  0.00    -0.352 N 
ATOM     29  C   UNL A   1      40.565  24.403  26.559  1.00  0.00     0.251 C 
ATOM     30  H   UNL A   1      39.545  23.017  25.611  1.00  0.00     0.163 HD
ATOM     31  O   UNL A   1      41.636  24.040  26.078  1.00  0.00    -0.269 OA
BRANCH  29  32
ATOM     32  C   UNL A   1      40.552  25.548  27.485  1.00  0.00     0.039 A 
ATOM     33  C   UNL A   1      41.448  26.606  27.261  1.00  0.00     0.014 A 
ATOM     34  C   UNL A   1      39.688  25.571  28.575  1.00  0.00     0.014 A 
ATOM     35  C   UNL A   1      41.465  27.707  28.120  1.00  0.00     0.010 A 
ATOM     36  C   UNL A   1      39.694  26.678  29.419  1.00  0.00     0.010 A 
ATOM     37  C   UNL A   1      40.584  27.749  29.207  1.00  0.00    -0.014 A 
BRANCH  37  38
ATOM     38  C   UNL A   1      40.613  28.839  30.213  1.00  0.00     0.031 A 
ATOM     39  C   UNL A   1      41.539  28.701  31.388  1.00  0.00     0.074 A 
ATOM     40  C   UNL A   1      39.744  29.866  30.156  1.00  0.00     0.049 A 
ATOM     41  N   UNL A   1      41.537  29.346  32.524  1.00  0.00    -0.248 NA
ATOM     42  C   UNL A   1      42.590  27.678  31.270  1.00  0.00     0.031 C 
ATOM     43  C   UNL A   1      38.823  30.145  29.056  1.00  0.00     0.029 A 
ATOM     44  N   UNL A   1      39.464  30.842  31.080  1.00  0.00    -0.354 N 
ATOM     45  C   UNL A   1      42.552  28.771  33.279  1.00  0.00     0.074 A 
ATOM     46  C   UNL A   1      43.137  27.718  32.475  1.00  0.00     0.031 C 
ATOM     47  C   UNL A   1      38.043  31.189  29.388  1.00  0.00     0.029 A 
ATOM     48  C   UNL A   1      38.395  31.633  30.734  1.00  0.00     0.049 A 
ATOM     49  H   UNL A   1      39.980  30.962  31.910  1.00  0.00     0.167 HD
ATOM     50  C   UNL A   1      42.961  29.092  34.530  1.00  0.00     0.031 A 
ATOM     51  C   UNL A   1      37.750  32.585  31.436  1.00  0.00     0.031 A 
ATOM     52  C   UNL A   1      42.398  30.158  35.312  1.00  0.00     0.049 A 
ATOM     53  C   UNL A   1      38.205  32.916  32.830  1.00  0.00     0.074 A 
ATOM     54  C   UNL A   1      42.777  30.597  36.569  1.00  0.00     0.029 A 
ATOM     55  N   UNL A   1      41.343  30.961  34.908  1.00  0.00    -0.354 N 
ATOM     56  N   UNL A   1      39.171  32.371  33.532  1.00  0.00    -0.248 NA
ATOM     57  C   UNL A   1      37.489  33.995  33.524  1.00  0.00     0.031 C 
ATOM     58  C   UNL A   1      41.929  31.647  36.937  1.00  0.00     0.029 A 
ATOM     59  C   UNL A   1      41.050  31.887  35.893  1.00  0.00     0.049 A 
ATOM     60  H   UNL A   1      40.872  30.883  34.046  1.00  0.00     0.167 HD
ATOM     61  C   UNL A   1      39.197  33.062  34.737  1.00  0.00     0.074 A 
ATOM     62  C   UNL A   1      38.156  34.066  34.669  1.00  0.00     0.031 C 
ATOM     63  C   UNL A   1      40.014  32.884  35.805  1.00  0.00     0.031 A 
BRANCH  50  64
ATOM     64  C   UNL A   1      44.058  28.256  35.128  1.00  0.00    -0.014 A 
ATOM     65  C   UNL A   1      43.769  27.093  35.864  1.00  0.00     0.010 A 
ATOM     66  C   UNL A   1      45.399  28.639  34.948  1.00  0.00     0.010 A 
ATOM     67  C   UNL A   1      44.798  26.355  36.453  1.00  0.00     0.020 A 
ATOM     68  C   UNL A   1      46.434  27.888  35.513  1.00  0.00     0.020 A 
ATOM     69  C   UNL A   1      46.124  26.764  36.281  1.00  0.00     0.054 A 
BRANCH  69  70
ATOM     70  S   UNL A   1      47.445  25.787  37.051  1.00  0.00     0.124 S 
ATOM     71  O   UNL A   1      48.515  26.774  37.172  1.00  0.00    -0.237 OA
ATOM     72  O   UNL A   1      46.840  25.360  38.310  1.00  0.00    -0.237 OA
ATOM     73  O   UNL A   1      47.689  24.717  36.087  1.00  0.00    -0.744 OA
ENDBRANCH  69  70
ENDBRANCH  50  64
BRANCH  51  74
ATOM     74  C   UNL A   1      36.595  33.300  30.829  1.00  0.00    -0.014 A 
ATOM     75  C   UNL A   1      36.758  34.006  29.626  1.00  0.00     0.010 A 
ATOM     76  C   UNL A   1      35.332  33.281  31.449  1.00  0.00     0.010 A 
ATOM     77  C   UNL A   1      35.683  34.696  29.059  1.00  0.00     0.020 A 
ATOM     78  C   UNL A   1      34.250  33.953  30.873  1.00  0.00     0.020 A 
ATOM     79  C   UNL A   1      34.435  34.666  29.687  1.00  0.00     0.054 A 
BRANCH  79  80
ATOM     80  S   UNL A   1      33.042  35.528  28.907  1.00  0.00     0.124 S 
ATOM     81  O   UNL A   1      32.442  34.468  28.103  1.00  0.00    -0.237 OA
ATOM     82  O   UNL A   1      32.259  35.971  30.057  1.00  0.00    -0.237 OA
ATOM     83  O   UNL A   1      33.685  36.601  28.151  1.00  0.00    -0.744 OA
ENDBRANCH  79  80
ENDBRANCH  51  74
BRANCH  63  84
ATOM     84  C   UNL A   1      39.844  33.818  36.971  1.00  0.00    -0.014 A 
ATOM     85  C   UNL A   1      40.474  35.074  36.992  1.00  0.00     0.010 A 
ATOM     86  C   UNL A   1      38.991  33.457  38.029  1.00  0.00     0.010 A 
ATOM     87  C   UNL A   1      40.269  35.946  38.065  1.00  0.00     0.020 A 
ATOM     88  C   UNL A   1      38.766  34.336  39.092  1.00  0.00     0.020 A 
ATOM     89  C   UNL A   1      39.417  35.571  39.109  1.00  0.00     0.054 A 
BRANCH  89  90
ATOM     90  S   UNL A   1      39.120  36.743  40.462  1.00  0.00     0.124 S 
ATOM     91  O   UNL A   1      40.471  36.971  40.967  1.00  0.00    -0.237 OA
ATOM     92  O   UNL A   1      38.504  37.877  39.778  1.00  0.00    -0.237 OA
ATOM     93  O   UNL A   1      38.233  36.011  41.363  1.00  0.00    -0.744 OA
ENDBRANCH  89  90
ENDBRANCH  63  84
ENDBRANCH  37  38
ENDBRANCH  29  32
ENDBRANCH  27  28
ENDBRANCH   1  27
TORSDOF 16
ENDMDL
MODEL 3
REMARK VINA RESULT:     -12.1      4.936      9.701
REMARK SMILES CC[C@](C)(NC(=O)[C@H]1C[NH2+]Cc2ccccc21)C(=O)NCCCNC(=O)c1ccc(-c2c3nc(c(-c4ccc(S(=O)(=O)[O-])cc4)c4ccc([nH]4)c(-c4ccc(S(=O)(=O)[O-])cc4)c4nc(c(-c5ccc(S(=O)(=O)[O-])cc5)c5ccc2[nH]5)C=C4)C=C3)cc1
REMARK SMILES IDX 22 1 21 2 20 3 18 4 19 5 3 7 4 8 2 9 1 10 5 11 6 12 7 14
REMARK SMILES IDX 8 15 9 16 17 17 10 18 12 19 16 20 11 21 13 24 15 25 14 26
REMARK SMILES IDX 23 27 24 28 25 29 26 31 27 32 28 33 86 34 29 35 85 36 30 37
REMARK SMILES IDX 31 38 32 39 79 40 33 41 84 42 78 43 80 44 34 45 83 46 77 47
REMARK SMILES IDX 76 48 35 50 65 51 46 52 64 53 47 54 50 55 63 56 81 57 48 58
REMARK SMILES IDX 49 59 62 61 82 62 51 63 36 64 37 65 45 66 38 67 44 68 39 69
REMARK SMILES IDX 40 70 41 71 42 72 43 73 66 74 67 75 75 76 68 77 74 78 69 79
REMARK SMILES IDX 70 80 71 81 72 82 73 83 52 84 53 85 61 86 54 87 60 88 55 89
REMARK SMILES IDX 56 90 57 91 58 92 59 93
REMARK H PARENT 20 6 5 13 10 22 10 23 24 30 80 49 50 60
REMARK Flexibility Score: inf
ROOT
ATOM      1  C   UNL A   1      36.780  20.816  25.191  1.00  0.00     0.042 C 
ENDROOT
BRANCH   1   2
ATOM      2  C   UNL A   1      35.259  21.199  25.821  1.00  0.00     0.117 C 
BRANCH   2   3
ATOM      3  N   UNL A   1      34.027  20.661  25.280  1.00  0.00    -0.354 N 
ATOM      4  C   UNL A   1      32.728  21.050  25.470  1.00  0.00     0.245 C 
ATOM      5  O   UNL A   1      31.844  20.299  25.052  1.00  0.00    -0.272 OA
ATOM      6  H   UNL A   1      34.144  19.890  24.678  1.00  0.00     0.163 HD
BRANCH   4   7
ATOM      7  C   UNL A   1      32.420  22.453  26.022  1.00  0.00     0.116 C 
ATOM      8  C   UNL A   1      32.662  22.532  27.540  1.00  0.00     0.045 C 
BRANCH   7   9
ATOM      9  C   UNL A   1      30.887  22.674  25.763  1.00  0.00     0.035 C 
ATOM     10  C   UNL A   1      30.102  23.224  26.966  1.00  0.00     0.007 C 
ENDBRANCH   7   9
BRANCH   7  11
ATOM     11  N   UNL A   1      33.230  23.504  25.339  1.00  0.00    -0.341 N 
ATOM     12  C   UNL A   1      32.722  24.459  24.474  1.00  0.00     0.234 C 
ATOM     13  H   UNL A   1      34.198  23.520  25.517  1.00  0.00     0.164 HD
ATOM     14  O   UNL A   1      32.773  24.208  23.265  1.00  0.00    -0.274 OA
BRANCH  12  15
ATOM     15  C   UNL A   1      32.389  25.937  24.963  1.00  0.00     0.164 C 
ATOM     16  C   UNL A   1      33.875  27.183  25.083  1.00  0.00     0.279 C 
ATOM     17  C   UNL A   1      30.812  26.576  24.095  1.00  0.00    -0.021 A 
ATOM     18  N   UNL A   1      33.893  28.774  24.089  1.00  0.00    -0.342 N 
ATOM     19  C   UNL A   1      30.791  28.050  23.184  1.00  0.00     0.010 A 
ATOM     20  C   UNL A   1      29.629  25.949  24.411  1.00  0.00     0.005 A 
ATOM     21  C   UNL A   1      32.334  29.216  23.101  1.00  0.00     0.297 C 
ATOM     22  H   UNL A   1      34.665  28.710  23.426  1.00  0.00     0.346 HD
ATOM     23  H   UNL A   1      33.972  29.513  24.787  1.00  0.00     0.346 HD
ATOM     24  C   UNL A   1      29.585  28.558  22.763  1.00  0.00     0.010 A 
ATOM     25  C   UNL A   1      28.473  26.605  23.958  1.00  0.00     0.000 A 
ATOM     26  C   UNL A   1      28.453  27.824  23.177  1.00  0.00     0.001 A 
ENDBRANCH  12  15
ENDBRANCH   7  11
ENDBRANCH   4   7
ENDBRANCH   2   3
ENDBRANCH   1   2
BRANCH   1  27
ATOM     27  C   UNL A   1      38.856  21.097  25.650  1.00  0.00     0.118 C 
BRANCH  27  28
ATOM     28  N   UNL A   1      39.997  20.038  25.938  1.00  0.00    -0.352 N 
ATOM     29  C   UNL A   1      41.309  20.092  26.330  1.00  0.00     0.251 C 
ATOM     30  H   UNL A   1      39.689  19.113  25.802  1.00  0.00     0.163 HD
ATOM     31  O   UNL A   1      42.022  19.096  26.241  1.00  0.00    -0.269 OA
BRANCH  29  32
ATOM     32  C   UNL A   1      41.920  21.372  26.728  1.00  0.00     0.039 A 
ATOM     33  C   UNL A   1      42.195  22.325  25.733  1.00  0.00     0.014 A 
ATOM     34  C   UNL A   1      42.242  21.622  28.057  1.00  0.00     0.014 A 
ATOM     35  C   UNL A   1      42.775  23.549  26.075  1.00  0.00     0.010 A 
ATOM     36  C   UNL A   1      42.805  22.849  28.398  1.00  0.00     0.010 A 
ATOM     37  C   UNL A   1      43.084  23.818  27.413  1.00  0.00    -0.014 A 
BRANCH  37  38
ATOM     38  C   UNL A   1      43.789  25.054  27.835  1.00  0.00     0.031 A 
ATOM     39  C   UNL A   1      42.969  26.201  28.353  1.00  0.00     0.074 A 
ATOM     40  C   UNL A   1      45.113  25.203  27.642  1.00  0.00     0.049 A 
ATOM     41  N   UNL A   1      43.301  27.457  28.498  1.00  0.00    -0.248 NA
ATOM     42  C   UNL A   1      41.581  25.890  28.728  1.00  0.00     0.031 C 
ATOM     43  C   UNL A   1      46.033  24.162  27.191  1.00  0.00     0.029 A 
ATOM     44  N   UNL A   1      45.904  26.319  27.759  1.00  0.00    -0.354 N 
ATOM     45  C   UNL A   1      42.146  28.097  28.934  1.00  0.00     0.074 A 
ATOM     46  C   UNL A   1      41.107  27.093  29.014  1.00  0.00     0.031 C 
ATOM     47  C   UNL A   1      47.254  24.698  27.018  1.00  0.00     0.029 A 
ATOM     48  C   UNL A   1      47.193  26.124  27.323  1.00  0.00     0.049 A 
ATOM     49  H   UNL A   1      45.579  27.176  28.120  1.00  0.00     0.167 HD
ATOM     50  C   UNL A   1      41.970  29.405  29.239  1.00  0.00     0.031 A 
ATOM     51  C   UNL A   1      48.201  27.003  27.157  1.00  0.00     0.031 A 
ATOM     52  C   UNL A   1      43.013  30.391  29.188  1.00  0.00     0.049 A 
ATOM     53  C   UNL A   1      47.981  28.454  27.484  1.00  0.00     0.074 A 
ATOM     54  C   UNL A   1      42.948  31.732  29.528  1.00  0.00     0.029 A 
ATOM     55  N   UNL A   1      44.314  30.144  28.780  1.00  0.00    -0.354 N 
ATOM     56  N   UNL A   1      46.889  29.048  27.902  1.00  0.00    -0.248 NA
ATOM     57  C   UNL A   1      49.134  29.352  27.324  1.00  0.00     0.031 C 
ATOM     58  C   UNL A   1      44.205  32.301  29.296  1.00  0.00     0.029 A 
ATOM     59  C   UNL A   1      45.061  31.306  28.850  1.00  0.00     0.049 A 
ATOM     60  H   UNL A   1      44.656  29.269  28.483  1.00  0.00     0.167 HD
ATOM     61  C   UNL A   1      47.231  30.383  28.084  1.00  0.00     0.074 A 
ATOM     62  C   UNL A   1      48.631  30.509  27.736  1.00  0.00     0.031 C 
ATOM     63  C   UNL A   1      46.456  31.412  28.505  1.00  0.00     0.031 A 
BRANCH  50  64
ATOM     64  C   UNL A   1      40.585  29.835  29.635  1.00  0.00    -0.014 A 
ATOM     65  C   UNL A   1      39.591  30.069  28.667  1.00  0.00     0.010 A 
ATOM     66  C   UNL A   1      40.272  30.005  30.995  1.00  0.00     0.010 A 
ATOM     67  C   UNL A   1      38.323  30.514  29.050  1.00  0.00     0.020 A 
ATOM     68  C   UNL A   1      38.997  30.425  31.384  1.00  0.00     0.020 A 
ATOM     69  C   UNL A   1      38.038  30.698  30.407  1.00  0.00     0.054 A 
BRANCH  69  70
ATOM     70  S   UNL A   1      36.384  31.272  30.880  1.00  0.00     0.124 S 
ATOM     71  O   UNL A   1      36.652  32.648  31.292  1.00  0.00    -0.237 OA
ATOM     72  O   UNL A   1      35.623  31.124  29.643  1.00  0.00    -0.237 OA
ATOM     73  O   UNL A   1      35.999  30.363  31.956  1.00  0.00    -0.744 OA
ENDBRANCH  69  70
ENDBRANCH  50  64
BRANCH  51  74
ATOM     74  C   UNL A   1      49.519  26.533  26.652  1.00  0.00    -0.014 A 
ATOM     75  C   UNL A   1      50.461  25.991  27.542  1.00  0.00     0.010 A 
ATOM     76  C   UNL A   1      49.839  26.627  25.285  1.00  0.00     0.010 A 
ATOM     77  C   UNL A   1      51.708  25.564  27.079  1.00  0.00     0.020 A 
ATOM     78  C   UNL A   1      51.079  26.182  24.816  1.00  0.00     0.020 A 
ATOM     79  C   UNL A   1      52.011  25.664  25.718  1.00  0.00     0.054 A 
BRANCH  79  80
ATOM     80  S   UNL A   1      53.617  25.059  25.133  1.00  0.00     0.124 S 
ATOM     81  O   UNL A   1      53.450  23.612  25.229  1.00  0.00    -0.237 OA
ATOM     82  O   UNL A   1      53.685  25.599  23.777  1.00  0.00    -0.237 OA
ATOM     83  O   UNL A   1      54.567  25.645  26.076  1.00  0.00    -0.744 OA
ENDBRANCH  79  80
ENDBRANCH  51  74
BRANCH  63  84
ATOM     84  C   UNL A   1      47.111  32.757  28.654  1.00  0.00    -0.014 A 
ATOM     85  C   UNL A   1      47.106  33.688  27.601  1.00  0.00     0.010 A 
ATOM     86  C   UNL A   1      47.683  33.116  29.888  1.00  0.00     0.010 A 
ATOM     87  C   UNL A   1      47.682  34.949  27.774  1.00  0.00     0.020 A 
ATOM     88  C   UNL A   1      48.239  34.384  30.071  1.00  0.00     0.020 A 
ATOM     89  C   UNL A   1      48.246  35.289  29.007  1.00  0.00     0.054 A 
BRANCH  89  90
ATOM     90  S   UNL A   1      48.936  36.953  29.227  1.00  0.00     0.124 S 
ATOM     91  O   UNL A   1      50.370  36.703  29.120  1.00  0.00    -0.237 OA
ATOM     92  O   UNL A   1      48.343  37.697  28.119  1.00  0.00    -0.237 OA
ATOM     93  O   UNL A   1      48.468  37.347  30.554  1.00  0.00    -0.744 OA
ENDBRANCH  89  90
ENDBRANCH  63  84
ENDBRANCH  37  38
ENDBRANCH  29  32
ENDBRANCH  27  28
ENDBRANCH   1  27
TORSDOF 16
ENDMDL
