MODEL 1
REMARK VINA RESULT:     -12.0      0.000      0.000
REMARK SMILES CC(C)c1cc(O)cc(C(C)C)c1O[C@@H]1O[C@@H](C(=O)NCCCNC(=O)c2ccc(-c3c4nc(c(-c5ccc(S(=O)(=O)[O-])cc5)c5ccc([nH]5)c(-c5ccc(S(=O)(=O)[O-])cc5)c5nc(c(-c6ccc(S(=O)(=O)[O-])cc6)c6ccc3[nH]6)C=C5)C=C4)cc2)[C@@H](O)[C@H](O)[C@@H]1O
REMARK SMILES IDX 22 1 21 2 20 3 18 4 19 5 17 7 15 8 16 9 91 10 89 11 87 12
REMARK SMILES IDX 14 13 13 14 4 15 5 16 6 17 9 18 8 19 2 20 1 21 3 22 7 23
REMARK SMILES IDX 10 25 11 26 12 27 92 28 90 30 88 32 23 34 24 35 25 36 26 38
REMARK SMILES IDX 27 39 28 40 86 41 29 42 85 43 30 44 31 45 32 46 79 47 33 48
REMARK SMILES IDX 84 49 78 50 80 51 34 52 83 53 77 54 76 55 35 57 65 58 46 59
REMARK SMILES IDX 64 60 47 61 50 62 63 63 81 64 48 65 49 66 62 68 82 69 51 70
REMARK SMILES IDX 36 71 37 72 45 73 38 74 44 75 39 76 40 77 41 78 42 79 43 80
REMARK SMILES IDX 66 81 67 82 75 83 68 84 74 85 69 86 70 87 71 88 72 89 73 90
REMARK SMILES IDX 52 91 53 92 61 93 54 94 60 95 55 96 56 97 57 98 58 99 59 100
REMARK H PARENT 20 6 7 24 92 29 90 31 88 33 24 37 80 56 50 67
REMARK Flexibility Score: inf
ROOT
ATOM      1  C   UNL A   1      37.399  23.607  25.233  1.00  0.00     0.042 C 
ENDROOT
BRANCH   1   2
ATOM      2  C   UNL A   1      36.913  22.179  25.358  1.00  0.00     0.117 C 
BRANCH   2   3
ATOM      3  N   UNL A   1      35.973  21.959  26.450  1.00  0.00    -0.354 N 
ATOM      4  C   UNL A   1      34.626  21.814  26.533  1.00  0.00     0.252 C 
ATOM      5  O   UNL A   1      34.222  21.340  27.606  1.00  0.00    -0.272 OA
ATOM      6  H   UNL A   1      36.416  21.903  27.328  1.00  0.00     0.163 HD
BRANCH   4   7
ATOM      7  C   UNL A   1      33.584  22.222  25.445  1.00  0.00     0.242 C 
ATOM      8  C   UNL A   1      33.403  24.575  25.971  1.00  0.00     0.339 C 
ATOM      9  O   UNL A   1      33.743  23.582  24.995  1.00  0.00    -0.324 OA
ATOM     10  C   UNL A   1      32.122  24.341  26.837  1.00  0.00     0.214 C 
ATOM     11  C   UNL A   1      31.701  22.863  26.940  1.00  0.00     0.181 C 
ATOM     12  C   UNL A   1      32.102  22.014  25.713  1.00  0.00     0.184 C 
BRANCH   8  13
ATOM     13  O   UNL A   1      33.499  25.920  25.474  1.00  0.00    -0.461 OA
BRANCH  13  14
ATOM     14  C   UNL A   1      32.614  26.676  24.752  1.00  0.00     0.130 A 
ATOM     15  C   UNL A   1      32.195  27.834  25.486  1.00  0.00     0.001 A 
ATOM     16  C   UNL A   1      31.260  28.723  24.917  1.00  0.00     0.054 A 
ATOM     17  C   UNL A   1      30.771  28.506  23.643  1.00  0.00     0.116 A 
ATOM     18  C   UNL A   1      32.076  26.457  23.457  1.00  0.00     0.001 A 
ATOM     19  C   UNL A   1      31.175  27.403  22.921  1.00  0.00     0.054 A 
BRANCH  15  20
ATOM     20  C   UNL A   1      32.738  28.106  26.898  1.00  0.00     0.017 C 
ATOM     21  C   UNL A   1      33.771  29.240  26.991  1.00  0.00     0.012 C 
ATOM     22  C   UNL A   1      31.597  28.397  27.881  1.00  0.00     0.012 C 
ENDBRANCH  15  20
BRANCH  17  23
ATOM     23  O   UNL A   1      29.881  29.353  23.057  1.00  0.00    -0.508 OA
ATOM     24  H   UNL A   1      29.370  29.064  22.326  1.00  0.00     0.293 HD
ENDBRANCH  17  23
BRANCH  18  25
ATOM     25  C   UNL A   1      32.364  25.276  22.559  1.00  0.00     0.017 C 
ATOM     26  C   UNL A   1      31.430  24.070  22.755  1.00  0.00     0.012 C 
ATOM     27  C   UNL A   1      32.472  25.656  21.085  1.00  0.00     0.012 C 
ENDBRANCH  18  25
ENDBRANCH  13  14
ENDBRANCH   8  13
BRANCH  10  28
ATOM     28  O   UNL A   1      30.961  25.093  26.441  1.00  0.00    -0.384 OA
ATOM     29  H   UNL A   1      30.456  24.586  25.787  1.00  0.00     0.211 HD
ENDBRANCH  10  28
BRANCH  11  30
ATOM     30  O   UNL A   1      30.289  22.764  27.173  1.00  0.00    -0.387 OA
ATOM     31  H   UNL A   1      29.813  23.268  26.495  1.00  0.00     0.211 HD
ENDBRANCH  11  30
BRANCH  12  32
ATOM     32  O   UNL A   1      31.753  20.631  25.749  1.00  0.00    -0.387 OA
ATOM     33  H   UNL A   1      31.061  20.489  26.415  1.00  0.00     0.211 HD
ENDBRANCH  12  32
ENDBRANCH   4   7
ENDBRANCH   2   3
ENDBRANCH   1   2
BRANCH   1  34
ATOM     34  C   UNL A   1      38.161  24.043  26.471  1.00  0.00     0.118 C 
BRANCH  34  35
ATOM     35  N   UNL A   1      39.603  23.812  26.334  1.00  0.00    -0.352 N 
ATOM     36  C   UNL A   1      40.671  24.601  26.685  1.00  0.00     0.251 C 
ATOM     37  H   UNL A   1      39.845  22.951  25.923  1.00  0.00     0.163 HD
ATOM     38  O   UNL A   1      41.776  24.386  26.198  1.00  0.00    -0.269 OA
BRANCH  36  39
ATOM     39  C   UNL A   1      40.482  25.693  27.658  1.00  0.00     0.039 A 
ATOM     40  C   UNL A   1      39.516  25.581  28.660  1.00  0.00     0.014 A 
ATOM     41  C   UNL A   1      41.263  26.843  27.559  1.00  0.00     0.014 A 
ATOM     42  C   UNL A   1      39.398  26.594  29.613  1.00  0.00     0.010 A 
ATOM     43  C   UNL A   1      41.234  27.783  28.574  1.00  0.00     0.010 A 
ATOM     44  C   UNL A   1      40.290  27.679  29.603  1.00  0.00    -0.014 A 
BRANCH  44  45
ATOM     45  C   UNL A   1      40.270  28.734  30.643  1.00  0.00     0.031 A 
ATOM     46  C   UNL A   1      41.163  28.604  31.850  1.00  0.00     0.074 A 
ATOM     47  C   UNL A   1      39.370  29.733  30.555  1.00  0.00     0.049 A 
ATOM     48  N   UNL A   1      41.191  29.330  32.935  1.00  0.00    -0.248 NA
ATOM     49  C   UNL A   1      42.119  27.479  31.859  1.00  0.00     0.031 C 
ATOM     50  C   UNL A   1      38.406  29.920  29.466  1.00  0.00     0.029 A 
ATOM     51  N   UNL A   1      39.107  30.775  31.408  1.00  0.00    -0.354 N 
ATOM     52  C   UNL A   1      42.131  28.731  33.766  1.00  0.00     0.074 A 
ATOM     53  C   UNL A   1      42.617  27.554  33.085  1.00  0.00     0.031 C 
ATOM     54  C   UNL A   1      37.678  31.023  29.703  1.00  0.00     0.029 A 
ATOM     55  C   UNL A   1      38.089  31.595  30.979  1.00  0.00     0.049 A 
ATOM     56  H   UNL A   1      39.599  30.921  32.248  1.00  0.00     0.167 HD
ATOM     57  C   UNL A   1      42.569  29.141  34.979  1.00  0.00     0.031 A 
ATOM     58  C   UNL A   1      37.542  32.680  31.558  1.00  0.00     0.031 A 
ATOM     59  C   UNL A   1      42.120  30.346  35.621  1.00  0.00     0.049 A 
ATOM     60  C   UNL A   1      38.074  33.133  32.890  1.00  0.00     0.074 A 
ATOM     61  C   UNL A   1      42.570  30.909  36.801  1.00  0.00     0.029 A 
ATOM     62  N   UNL A   1      41.122  31.176  35.132  1.00  0.00    -0.354 N 
ATOM     63  N   UNL A   1      39.026  32.602  33.620  1.00  0.00    -0.248 NA
ATOM     64  C   UNL A   1      37.464  34.335  33.474  1.00  0.00     0.031 C 
ATOM     65  C   UNL A   1      41.812  32.057  37.049  1.00  0.00     0.029 A 
ATOM     66  C   UNL A   1      40.925  32.234  35.999  1.00  0.00     0.049 A 
ATOM     67  H   UNL A   1      40.629  31.032  34.292  1.00  0.00     0.167 HD
ATOM     68  C   UNL A   1      39.141  33.415  34.740  1.00  0.00     0.074 A 
ATOM     69  C   UNL A   1      38.179  34.487  34.579  1.00  0.00     0.031 C 
ATOM     70  C   UNL A   1      39.961  33.287  35.811  1.00  0.00     0.031 A 
BRANCH  57  71
ATOM     71  C   UNL A   1      43.596  28.297  35.684  1.00  0.00    -0.014 A 
ATOM     72  C   UNL A   1      44.971  28.529  35.505  1.00  0.00     0.010 A 
ATOM     73  C   UNL A   1      43.181  27.309  36.595  1.00  0.00     0.010 A 
ATOM     74  C   UNL A   1      45.914  27.773  36.207  1.00  0.00     0.020 A 
ATOM     75  C   UNL A   1      44.120  26.566  37.318  1.00  0.00     0.020 A 
ATOM     76  C   UNL A   1      45.482  26.798  37.113  1.00  0.00     0.054 A 
BRANCH  76  77
ATOM     77  S   UNL A   1      46.727  25.880  38.059  1.00  0.00     0.124 S 
ATOM     78  O   UNL A   1      47.911  26.719  37.892  1.00  0.00    -0.237 OA
ATOM     79  O   UNL A   1      46.156  25.861  39.404  1.00  0.00    -0.237 OA
ATOM     80  O   UNL A   1      46.783  24.582  37.390  1.00  0.00    -0.744 OA
ENDBRANCH  76  77
ENDBRANCH  57  71
BRANCH  58  81
ATOM     81  C   UNL A   1      36.434  33.414  30.889  1.00  0.00    -0.014 A 
ATOM     82  C   UNL A   1      36.684  34.199  29.749  1.00  0.00     0.010 A 
ATOM     83  C   UNL A   1      35.122  33.344  31.394  1.00  0.00     0.010 A 
ATOM     84  C   UNL A   1      35.654  34.931  29.151  1.00  0.00     0.020 A 
ATOM     85  C   UNL A   1      34.084  34.050  30.780  1.00  0.00     0.020 A 
ATOM     86  C   UNL A   1      34.361  34.856  29.674  1.00  0.00     0.054 A 
BRANCH  86  87
ATOM     87  S   UNL A   1      33.034  35.799  28.873  1.00  0.00     0.124 S 
ATOM     88  O   UNL A   1      32.325  36.355  30.021  1.00  0.00    -0.237 OA
ATOM     89  O   UNL A   1      33.774  36.761  28.059  1.00  0.00    -0.237 OA
ATOM     90  O   UNL A   1      32.305  34.785  28.116  1.00  0.00    -0.744 OA
ENDBRANCH  86  87
ENDBRANCH  58  81
BRANCH  70  91
ATOM     91  C   UNL A   1      39.867  34.340  36.878  1.00  0.00    -0.014 A 
ATOM     92  C   UNL A   1      40.610  35.530  36.784  1.00  0.00     0.010 A 
ATOM     93  C   UNL A   1      38.983  34.160  37.957  1.00  0.00     0.010 A 
ATOM     94  C   UNL A   1      40.490  36.512  37.769  1.00  0.00     0.020 A 
ATOM     95  C   UNL A   1      38.841  35.153  38.929  1.00  0.00     0.020 A 
ATOM     96  C   UNL A   1      39.605  36.317  38.835  1.00  0.00     0.054 A 
BRANCH  96  97
ATOM     97  S   UNL A   1      39.434  37.629  40.075  1.00  0.00     0.124 S 
ATOM     98  O   UNL A   1      38.243  38.333  39.609  1.00  0.00    -0.237 OA
ATOM     99  O   UNL A   1      39.275  36.877  41.318  1.00  0.00    -0.237 OA
ATOM    100  O   UNL A   1      40.685  38.376  39.961  1.00  0.00    -0.744 OA
ENDBRANCH  96  97
ENDBRANCH  70  91
ENDBRANCH  44  45
ENDBRANCH  36  39
ENDBRANCH  34  35
ENDBRANCH   1  34
TORSDOF 21
ENDMDL
MODEL 2
REMARK VINA RESULT:     -11.7      6.485     11.954
REMARK SMILES CC(C)c1cc(O)cc(C(C)C)c1O[C@@H]1O[C@@H](C(=O)NCCCNC(=O)c2ccc(-c3c4nc(c(-c5ccc(S(=O)(=O)[O-])cc5)c5ccc([nH]5)c(-c5ccc(S(=O)(=O)[O-])cc5)c5nc(c(-c6ccc(S(=O)(=O)[O-])cc6)c6ccc3[nH]6)C=C5)C=C4)cc2)[C@@H](O)[C@H](O)[C@@H]1O
REMARK SMILES IDX 22 1 21 2 20 3 18 4 19 5 17 7 15 8 16 9 91 10 89 11 87 12
REMARK SMILES IDX 14 13 13 14 4 15 5 16 6 17 9 18 8 19 2 20 1 21 3 22 7 23
REMARK SMILES IDX 10 25 11 26 12 27 92 28 90 30 88 32 23 34 24 35 25 36 26 38
REMARK SMILES IDX 27 39 28 40 86 41 29 42 85 43 30 44 31 45 32 46 79 47 33 48
REMARK SMILES IDX 84 49 78 50 80 51 34 52 83 53 77 54 76 55 35 57 65 58 46 59
REMARK SMILES IDX 64 60 47 61 50 62 63 63 81 64 48 65 49 66 62 68 82 69 51 70
REMARK SMILES IDX 36 71 37 72 45 73 38 74 44 75 39 76 40 77 41 78 42 79 43 80
REMARK SMILES IDX 66 81 67 82 75 83 68 84 74 85 69 86 70 87 71 88 72 89 73 90
REMARK SMILES IDX 52 91 53 92 61 93 54 94 60 95 55 96 56 97 57 98 58 99 59 100
REMARK H PARENT 20 6 7 24 92 29 90 31 88 33 24 37 80 56 50 67
REMARK Flexibility Score: inf
ROOT
ATOM      1  C   UNL A   1      33.492  28.781  27.027  1.00  0.00     0.042 C 
ENDROOT
BRANCH   1   2
ATOM      2  C   UNL A   1      33.000  29.764  25.987  1.00  0.00     0.117 C 
BRANCH   2   3
ATOM      3  N   UNL A   1      33.490  29.508  24.639  1.00  0.00    -0.354 N 
ATOM      4  C   UNL A   1      33.112  28.683  23.629  1.00  0.00     0.252 C 
ATOM      5  O   UNL A   1      33.593  28.967  22.522  1.00  0.00    -0.272 OA
ATOM      6  H   UNL A   1      34.274  30.057  24.408  1.00  0.00     0.163 HD
BRANCH   4   7
ATOM      7  C   UNL A   1      32.193  27.428  23.756  1.00  0.00     0.242 C 
ATOM      8  C   UNL A   1      33.885  25.782  24.283  1.00  0.00     0.339 C 
ATOM      9  O   UNL A   1      32.692  26.458  24.699  1.00  0.00    -0.324 OA
ATOM     10  C   UNL A   1      33.983  25.323  22.791  1.00  0.00     0.214 C 
ATOM     11  C   UNL A   1      33.072  26.114  21.834  1.00  0.00     0.181 C 
ATOM     12  C   UNL A   1      31.793  26.664  22.504  1.00  0.00     0.184 C 
BRANCH   8  13
ATOM     13  O   UNL A   1      34.318  24.769  25.206  1.00  0.00    -0.461 OA
BRANCH  13  14
ATOM     14  C   UNL A   1      34.009  23.437  25.287  1.00  0.00     0.130 A 
ATOM     15  C   UNL A   1      35.144  22.616  24.985  1.00  0.00     0.001 A 
ATOM     16  C   UNL A   1      35.015  21.212  24.991  1.00  0.00     0.054 A 
ATOM     17  C   UNL A   1      33.810  20.620  25.321  1.00  0.00     0.116 A 
ATOM     18  C   UNL A   1      32.773  22.809  25.594  1.00  0.00     0.001 A 
ATOM     19  C   UNL A   1      32.713  21.398  25.626  1.00  0.00     0.054 A 
BRANCH  15  20
ATOM     20  C   UNL A   1      36.499  23.252  24.633  1.00  0.00     0.017 C 
ATOM     21  C   UNL A   1      37.653  22.892  25.582  1.00  0.00     0.012 C 
ATOM     22  C   UNL A   1      36.914  22.903  23.198  1.00  0.00     0.012 C 
ENDBRANCH  15  20
BRANCH  17  23
ATOM     23  O   UNL A   1      33.655  19.268  25.352  1.00  0.00    -0.508 OA
ATOM     24  H   UNL A   1      32.863  18.880  25.035  1.00  0.00     0.293 HD
ENDBRANCH  17  23
BRANCH  18  25
ATOM     25  C   UNL A   1      31.466  23.506  25.892  1.00  0.00     0.017 C 
ATOM     26  C   UNL A   1      30.291  22.568  26.215  1.00  0.00     0.012 C 
ATOM     27  C   UNL A   1      31.599  24.606  26.941  1.00  0.00     0.012 C 
ENDBRANCH  18  25
ENDBRANCH  13  14
ENDBRANCH   8  13
BRANCH  10  28
ATOM     28  O   UNL A   1      33.742  23.923  22.557  1.00  0.00    -0.384 OA
ATOM     29  H   UNL A   1      34.097  23.407  23.296  1.00  0.00     0.211 HD
ENDBRANCH  10  28
BRANCH  11  30
ATOM     30  O   UNL A   1      32.732  25.311  20.696  1.00  0.00    -0.387 OA
ATOM     31  H   UNL A   1      33.302  24.526  20.671  1.00  0.00     0.211 HD
ENDBRANCH  11  30
BRANCH  12  32
ATOM     32  O   UNL A   1      30.910  27.419  21.675  1.00  0.00    -0.387 OA
ATOM     33  H   UNL A   1      30.246  26.827  21.287  1.00  0.00     0.211 HD
ENDBRANCH  12  32
ENDBRANCH   4   7
ENDBRANCH   2   3
ENDBRANCH   1   2
BRANCH   1  34
ATOM     34  C   UNL A   1      34.951  29.023  27.372  1.00  0.00     0.118 C 
BRANCH  34  35
ATOM     35  N   UNL A   1      35.100  29.979  28.473  1.00  0.00    -0.352 N 
ATOM     36  C   UNL A   1      36.140  30.179  29.348  1.00  0.00     0.251 C 
ATOM     37  H   UNL A   1      34.329  30.576  28.608  1.00  0.00     0.163 HD
ATOM     38  O   UNL A   1      35.949  30.792  30.394  1.00  0.00    -0.269 OA
BRANCH  36  39
ATOM     39  C   UNL A   1      37.482  29.666  29.015  1.00  0.00     0.039 A 
ATOM     40  C   UNL A   1      37.974  29.782  27.714  1.00  0.00     0.014 A 
ATOM     41  C   UNL A   1      38.246  29.050  30.004  1.00  0.00     0.014 A 
ATOM     42  C   UNL A   1      39.273  29.353  27.432  1.00  0.00     0.010 A 
ATOM     43  C   UNL A   1      39.572  28.744  29.757  1.00  0.00     0.010 A 
ATOM     44  C   UNL A   1      40.097  28.875  28.465  1.00  0.00    -0.014 A 
BRANCH  44  45
ATOM     45  C   UNL A   1      41.510  28.494  28.241  1.00  0.00     0.031 A 
ATOM     46  C   UNL A   1      42.573  29.561  28.223  1.00  0.00     0.074 A 
ATOM     47  C   UNL A   1      41.811  27.215  27.940  1.00  0.00     0.049 A 
ATOM     48  N   UNL A   1      43.835  29.461  27.900  1.00  0.00    -0.248 NA
ATOM     49  C   UNL A   1      42.153  30.933  28.568  1.00  0.00     0.031 C 
ATOM     50  C   UNL A   1      40.851  26.109  27.859  1.00  0.00     0.029 A 
ATOM     51  N   UNL A   1      43.012  26.630  27.627  1.00  0.00    -0.354 N 
ATOM     52  C   UNL A   1      44.345  30.753  27.963  1.00  0.00     0.074 A 
ATOM     53  C   UNL A   1      43.250  31.629  28.306  1.00  0.00     0.031 C 
ATOM     54  C   UNL A   1      41.504  24.978  27.548  1.00  0.00     0.029 A 
ATOM     55  C   UNL A   1      42.917  25.284  27.360  1.00  0.00     0.049 A 
ATOM     56  H   UNL A   1      43.861  27.127  27.596  1.00  0.00     0.167 HD
ATOM     57  C   UNL A   1      45.619  31.167  27.776  1.00  0.00     0.031 A 
ATOM     58  C   UNL A   1      43.863  24.400  26.995  1.00  0.00     0.031 A 
ATOM     59  C   UNL A   1      46.711  30.278  27.492  1.00  0.00     0.049 A 
ATOM     60  C   UNL A   1      45.278  24.883  26.830  1.00  0.00     0.074 A 
ATOM     61  C   UNL A   1      48.058  30.577  27.385  1.00  0.00     0.029 A 
ATOM     62  N   UNL A   1      46.583  28.914  27.277  1.00  0.00    -0.354 N 
ATOM     63  N   UNL A   1      45.757  26.095  26.981  1.00  0.00    -0.248 NA
ATOM     64  C   UNL A   1      46.283  23.880  26.453  1.00  0.00     0.031 C 
ATOM     65  C   UNL A   1      48.738  29.401  27.060  1.00  0.00     0.029 A 
ATOM     66  C   UNL A   1      47.822  28.361  27.013  1.00  0.00     0.049 A 
ATOM     67  H   UNL A   1      45.735  28.415  27.309  1.00  0.00     0.167 HD
ATOM     68  C   UNL A   1      47.120  25.997  26.735  1.00  0.00     0.074 A 
ATOM     69  C   UNL A   1      47.394  24.602  26.450  1.00  0.00     0.031 C 
ATOM     70  C   UNL A   1      48.063  26.969  26.735  1.00  0.00     0.031 A 
BRANCH  57  71
ATOM     71  C   UNL A   1      45.909  32.639  27.892  1.00  0.00    -0.014 A 
ATOM     72  C   UNL A   1      46.184  33.229  29.139  1.00  0.00     0.010 A 
ATOM     73  C   UNL A   1      45.981  33.430  26.730  1.00  0.00     0.010 A 
ATOM     74  C   UNL A   1      46.505  34.586  29.225  1.00  0.00     0.020 A 
ATOM     75  C   UNL A   1      46.326  34.783  26.809  1.00  0.00     0.020 A 
ATOM     76  C   UNL A   1      46.578  35.354  28.058  1.00  0.00     0.054 A 
BRANCH  76  77
ATOM     77  S   UNL A   1      47.061  37.096  28.194  1.00  0.00     0.124 S 
ATOM     78  O   UNL A   1      47.069  37.518  26.795  1.00  0.00    -0.237 OA
ATOM     79  O   UNL A   1      45.991  37.661  29.013  1.00  0.00    -0.237 OA
ATOM     80  O   UNL A   1      48.372  37.045  28.837  1.00  0.00    -0.744 OA
ENDBRANCH  76  77
ENDBRANCH  57  71
BRANCH  58  81
ATOM     81  C   UNL A   1      43.512  22.973  26.760  1.00  0.00    -0.014 A 
ATOM     82  C   UNL A   1      42.903  22.212  27.775  1.00  0.00     0.010 A 
ATOM     83  C   UNL A   1      43.796  22.360  25.526  1.00  0.00     0.010 A 
ATOM     84  C   UNL A   1      42.620  20.858  27.574  1.00  0.00     0.020 A 
ATOM     85  C   UNL A   1      43.487  21.014  25.311  1.00  0.00     0.020 A 
ATOM     86  C   UNL A   1      42.919  20.266  26.344  1.00  0.00     0.054 A 
BRANCH  86  87
ATOM     87  S   UNL A   1      42.530  18.511  26.098  1.00  0.00     0.124 S 
ATOM     88  O   UNL A   1      43.457  18.144  25.032  1.00  0.00    -0.237 OA
ATOM     89  O   UNL A   1      42.812  17.935  27.409  1.00  0.00    -0.237 OA
ATOM     90  O   UNL A   1      41.117  18.526  25.723  1.00  0.00    -0.744 OA
ENDBRANCH  86  87
ENDBRANCH  58  81
BRANCH  70  91
ATOM     91  C   UNL A   1      49.477  26.556  26.439  1.00  0.00    -0.014 A 
ATOM     92  C   UNL A   1      50.264  25.927  27.420  1.00  0.00     0.010 A 
ATOM     93  C   UNL A   1      50.002  26.747  25.149  1.00  0.00     0.010 A 
ATOM     94  C   UNL A   1      51.566  25.522  27.121  1.00  0.00     0.020 A 
ATOM     95  C   UNL A   1      51.295  26.318  24.840  1.00  0.00     0.020 A 
ATOM     96  C   UNL A   1      52.073  25.720  25.832  1.00  0.00     0.054 A 
BRANCH  96  97
ATOM     97  S   UNL A   1      53.750  25.142  25.458  1.00  0.00     0.124 S 
ATOM     98  O   UNL A   1      53.602  23.694  25.563  1.00  0.00    -0.237 OA
ATOM     99  O   UNL A   1      53.973  25.656  24.109  1.00  0.00    -0.237 OA
ATOM    100  O   UNL A   1      54.569  25.762  26.498  1.00  0.00    -0.744 OA
ENDBRANCH  96  97
ENDBRANCH  70  91
ENDBRANCH  44  45
ENDBRANCH  36  39
ENDBRANCH  34  35
ENDBRANCH   1  34
TORSDOF 21
ENDMDL
MODEL 3
REMARK VINA RESULT:     -11.6      0.402      1.940
REMARK SMILES CC(C)c1cc(O)cc(C(C)C)c1O[C@@H]1O[C@@H](C(=O)NCCCNC(=O)c2ccc(-c3c4nc(c(-c5ccc(S(=O)(=O)[O-])cc5)c5ccc([nH]5)c(-c5ccc(S(=O)(=O)[O-])cc5)c5nc(c(-c6ccc(S(=O)(=O)[O-])cc6)c6ccc3[nH]6)C=C5)C=C4)cc2)[C@@H](O)[C@H](O)[C@@H]1O
REMARK SMILES IDX 22 1 21 2 20 3 18 4 19 5 17 7 15 8 16 9 91 10 89 11 87 12
REMARK SMILES IDX 14 13 13 14 4 15 5 16 6 17 9 18 8 19 2 20 1 21 3 22 7 23
REMARK SMILES IDX 10 25 11 26 12 27 92 28 90 30 88 32 23 34 24 35 25 36 26 38
REMARK SMILES IDX 27 39 28 40 86 41 29 42 85 43 30 44 31 45 32 46 79 47 33 48
REMARK SMILES IDX 84 49 78 50 80 51 34 52 83 53 77 54 76 55 35 57 65 58 46 59
REMARK SMILES IDX 64 60 47 61 50 62 63 63 81 64 48 65 49 66 62 68 82 69 51 70
REMARK SMILES IDX 36 71 37 72 45 73 38 74 44 75 39 76 40 77 41 78 42 79 43 80
REMARK SMILES IDX 66 81 67 82 75 83 68 84 74 85 69 86 70 87 71 88 72 89 73 90
REMARK SMILES IDX 52 91 53 92 61 93 54 94 60 95 55 96 56 97 57 98 58 99 59 100
REMARK H PARENT 20 6 7 24 92 29 90 31 88 33 24 37 80 56 50 67
REMARK Flexibility Score: inf
ROOT
ATOM      1  C   UNL A   1      37.479  23.570  25.310  1.00  0.00     0.042 C 
ENDROOT
BRANCH   1   2
ATOM      2  C   UNL A   1      36.713  22.274  25.472  1.00  0.00     0.117 C 
BRANCH   2   3
ATOM      3  N   UNL A   1      35.766  22.272  26.579  1.00  0.00    -0.354 N 
ATOM      4  C   UNL A   1      34.412  22.244  26.675  1.00  0.00     0.252 C 
ATOM      5  O   UNL A   1      33.979  21.947  27.798  1.00  0.00    -0.272 OA
ATOM      6  H   UNL A   1      36.208  22.296  27.458  1.00  0.00     0.163 HD
BRANCH   4   7
ATOM      7  C   UNL A   1      33.399  22.587  25.538  1.00  0.00     0.242 C 
ATOM      8  C   UNL A   1      33.406  24.996  25.750  1.00  0.00     0.339 C 
ATOM      9  O   UNL A   1      33.661  23.860  24.915  1.00  0.00    -0.324 OA
ATOM     10  C   UNL A   1      32.116  24.978  26.635  1.00  0.00     0.214 C 
ATOM     11  C   UNL A   1      31.581  23.565  26.929  1.00  0.00     0.181 C 
ATOM     12  C   UNL A   1      31.907  22.533  25.825  1.00  0.00     0.184 C 
BRANCH   8  13
ATOM     13  O   UNL A   1      33.604  26.252  25.082  1.00  0.00    -0.461 OA
BRANCH  13  14
ATOM     14  C   UNL A   1      32.719  27.247  24.760  1.00  0.00     0.130 A 
ATOM     15  C   UNL A   1      32.084  26.995  23.500  1.00  0.00     0.001 A 
ATOM     16  C   UNL A   1      31.157  27.924  22.984  1.00  0.00     0.054 A 
ATOM     17  C   UNL A   1      30.829  29.058  23.701  1.00  0.00     0.116 A 
ATOM     18  C   UNL A   1      32.390  28.434  25.466  1.00  0.00     0.001 A 
ATOM     19  C   UNL A   1      31.423  29.307  24.921  1.00  0.00     0.054 A 
BRANCH  15  20
ATOM     20  C   UNL A   1      32.421  25.730  22.692  1.00  0.00     0.017 C 
ATOM     21  C   UNL A   1      31.301  24.679  22.633  1.00  0.00     0.012 C 
ATOM     22  C   UNL A   1      32.837  26.087  21.259  1.00  0.00     0.012 C 
ENDBRANCH  15  20
BRANCH  17  23
ATOM     23  O   UNL A   1      29.926  29.967  23.241  1.00  0.00    -0.508 OA
ATOM     24  H   UNL A   1      29.477  30.528  23.843  1.00  0.00     0.293 HD
ENDBRANCH  17  23
BRANCH  18  25
ATOM     25  C   UNL A   1      32.986  28.887  26.778  1.00  0.00     0.017 C 
ATOM     26  C   UNL A   1      34.521  28.835  26.844  1.00  0.00     0.012 C 
ATOM     27  C   UNL A   1      32.459  30.243  27.239  1.00  0.00     0.012 C 
ENDBRANCH  18  25
ENDBRANCH  13  14
ENDBRANCH   8  13
BRANCH  10  28
ATOM     28  O   UNL A   1      31.015  25.761  26.139  1.00  0.00    -0.384 OA
ATOM     29  H   UNL A   1      30.260  25.179  25.961  1.00  0.00     0.211 HD
ENDBRANCH  10  28
BRANCH  11  30
ATOM     30  O   UNL A   1      30.168  23.608  27.168  1.00  0.00    -0.387 OA
ATOM     31  H   UNL A   1      29.749  24.200  26.523  1.00  0.00     0.211 HD
ENDBRANCH  11  30
BRANCH  12  32
ATOM     32  O   UNL A   1      31.450  21.198  26.042  1.00  0.00    -0.387 OA
ATOM     33  H   UNL A   1      30.497  21.207  26.222  1.00  0.00     0.211 HD
ENDBRANCH  12  32
ENDBRANCH   4   7
ENDBRANCH   2   3
ENDBRANCH   1   2
BRANCH   1  34
ATOM     34  C   UNL A   1      38.306  23.882  26.544  1.00  0.00     0.118 C 
BRANCH  34  35
ATOM     35  N   UNL A   1      39.744  23.791  26.275  1.00  0.00    -0.352 N 
ATOM     36  C   UNL A   1      40.761  24.676  26.539  1.00  0.00     0.251 C 
ATOM     37  H   UNL A   1      40.029  22.958  25.833  1.00  0.00     0.163 HD
ATOM     38  O   UNL A   1      41.832  24.569  25.952  1.00  0.00    -0.269 OA
BRANCH  36  39
ATOM     39  C   UNL A   1      40.558  25.742  27.538  1.00  0.00     0.039 A 
ATOM     40  C   UNL A   1      39.667  25.551  28.596  1.00  0.00     0.014 A 
ATOM     41  C   UNL A   1      41.249  26.945  27.409  1.00  0.00     0.014 A 
ATOM     42  C   UNL A   1      39.539  26.543  29.571  1.00  0.00     0.010 A 
ATOM     43  C   UNL A   1      41.218  27.869  28.437  1.00  0.00     0.010 A 
ATOM     44  C   UNL A   1      40.351  27.688  29.522  1.00  0.00    -0.014 A 
BRANCH  44  45
ATOM     45  C   UNL A   1      40.323  28.727  30.577  1.00  0.00     0.031 A 
ATOM     46  C   UNL A   1      41.226  28.593  31.776  1.00  0.00     0.074 A 
ATOM     47  C   UNL A   1      39.409  29.715  30.510  1.00  0.00     0.049 A 
ATOM     48  N   UNL A   1      41.251  29.304  32.871  1.00  0.00    -0.248 NA
ATOM     49  C   UNL A   1      42.198  27.482  31.763  1.00  0.00     0.031 C 
ATOM     50  C   UNL A   1      38.435  29.904  29.430  1.00  0.00     0.029 A 
ATOM     51  N   UNL A   1      39.136  30.740  31.379  1.00  0.00    -0.354 N 
ATOM     52  C   UNL A   1      42.206  28.706  33.687  1.00  0.00     0.074 A 
ATOM     53  C   UNL A   1      42.703  27.546  32.986  1.00  0.00     0.031 C 
ATOM     54  C   UNL A   1      37.693  30.993  29.687  1.00  0.00     0.029 A 
ATOM     55  C   UNL A   1      38.104  31.552  30.969  1.00  0.00     0.049 A 
ATOM     56  H   UNL A   1      39.632  30.882  32.218  1.00  0.00     0.167 HD
ATOM     57  C   UNL A   1      42.645  29.105  34.903  1.00  0.00     0.031 A 
ATOM     58  C   UNL A   1      37.546  32.621  31.567  1.00  0.00     0.031 A 
ATOM     59  C   UNL A   1      42.184  30.294  35.565  1.00  0.00     0.049 A 
ATOM     60  C   UNL A   1      38.081  33.062  32.902  1.00  0.00     0.074 A 
ATOM     61  C   UNL A   1      42.634  30.847  36.750  1.00  0.00     0.029 A 
ATOM     62  N   UNL A   1      41.171  31.116  35.095  1.00  0.00    -0.354 N 
ATOM     63  N   UNL A   1      39.045  32.535  33.617  1.00  0.00    -0.248 NA
ATOM     64  C   UNL A   1      37.458  34.247  33.507  1.00  0.00     0.031 C 
ATOM     65  C   UNL A   1      41.862  31.980  37.020  1.00  0.00     0.029 A 
ATOM     66  C   UNL A   1      40.965  32.159  35.978  1.00  0.00     0.049 A 
ATOM     67  H   UNL A   1      40.675  30.978  34.256  1.00  0.00     0.167 HD
ATOM     68  C   UNL A   1      39.156  33.333  34.748  1.00  0.00     0.074 A 
ATOM     69  C   UNL A   1      38.178  34.393  34.610  1.00  0.00     0.031 C 
ATOM     70  C   UNL A   1      39.986  33.201  35.812  1.00  0.00     0.031 A 
BRANCH  57  71
ATOM     71  C   UNL A   1      43.689  28.266  35.588  1.00  0.00    -0.014 A 
ATOM     72  C   UNL A   1      45.060  28.478  35.354  1.00  0.00     0.010 A 
ATOM     73  C   UNL A   1      43.298  27.302  36.536  1.00  0.00     0.010 A 
ATOM     74  C   UNL A   1      46.020  27.728  36.039  1.00  0.00     0.020 A 
ATOM     75  C   UNL A   1      44.256  26.566  37.241  1.00  0.00     0.020 A 
ATOM     76  C   UNL A   1      45.611  26.779  36.982  1.00  0.00     0.054 A 
BRANCH  76  77
ATOM     77  S   UNL A   1      46.880  25.868  37.902  1.00  0.00     0.124 S 
ATOM     78  O   UNL A   1      46.380  25.953  39.272  1.00  0.00    -0.237 OA
ATOM     79  O   UNL A   1      46.823  24.540  37.296  1.00  0.00    -0.237 OA
ATOM     80  O   UNL A   1      48.106  26.617  37.638  1.00  0.00    -0.744 OA
ENDBRANCH  76  77
ENDBRANCH  57  71
BRANCH  58  81
ATOM     81  C   UNL A   1      36.423  33.349  30.916  1.00  0.00    -0.014 A 
ATOM     82  C   UNL A   1      36.612  33.993  29.680  1.00  0.00     0.010 A 
ATOM     83  C   UNL A   1      35.160  33.414  31.532  1.00  0.00     0.010 A 
ATOM     84  C   UNL A   1      35.573  34.721  29.093  1.00  0.00     0.020 A 
ATOM     85  C   UNL A   1      34.110  34.115  30.934  1.00  0.00     0.020 A 
ATOM     86  C   UNL A   1      34.329  34.782  29.727  1.00  0.00     0.054 A 
BRANCH  86  87
ATOM     87  S   UNL A   1      32.988  35.717  28.940  1.00  0.00     0.124 S 
ATOM     88  O   UNL A   1      33.722  36.777  28.256  1.00  0.00    -0.237 OA
ATOM     89  O   UNL A   1      32.367  34.718  28.076  1.00  0.00    -0.237 OA
ATOM     90  O   UNL A   1      32.168  36.150  30.070  1.00  0.00    -0.744 OA
ENDBRANCH  86  87
ENDBRANCH  58  81
BRANCH  70  91
ATOM     91  C   UNL A   1      39.884  34.237  36.895  1.00  0.00    -0.014 A 
ATOM     92  C   UNL A   1      40.560  35.465  36.784  1.00  0.00     0.010 A 
ATOM     93  C   UNL A   1      39.057  34.002  38.008  1.00  0.00     0.010 A 
ATOM     94  C   UNL A   1      40.433  36.430  37.785  1.00  0.00     0.020 A 
ATOM     95  C   UNL A   1      38.906  34.977  38.996  1.00  0.00     0.020 A 
ATOM     96  C   UNL A   1      39.606  36.179  38.885  1.00  0.00     0.054 A 
BRANCH  96  97
ATOM     97  S   UNL A   1      39.421  37.468  40.147  1.00  0.00     0.124 S 
ATOM     98  O   UNL A   1      40.785  37.973  40.266  1.00  0.00    -0.237 OA
ATOM     99  O   UNL A   1      38.462  38.383  39.532  1.00  0.00    -0.237 OA
ATOM    100  O   UNL A   1      38.921  36.741  41.312  1.00  0.00    -0.744 OA
ENDBRANCH  96  97
ENDBRANCH  70  91
ENDBRANCH  44  45
ENDBRANCH  36  39
ENDBRANCH  34  35
ENDBRANCH   1  34
TORSDOF 21
ENDMDL
