MODEL 1
REMARK VINA RESULT:     -11.6      0.000      0.000
REMARK SMILES COc1cc(Nc2cn[nH]c(=O)n2)c(C(=O)NCCCNC(=O)c2ccc(-c3c4nc(c(-c5ccc(S(=O)(=O)[O-])cc5)c5ccc([nH]5)c(-c5ccc(S(=O)(=O)[O-])cc5)c5nc(c(-c6ccc(S(=O)(=O)[O-])cc6)c6ccc3[nH]6)C=C5)C=C4)cc2)cc1OC
REMARK SMILES IDX 19 1 18 2 17 3 15 4 16 5 14 7 3 8 4 9 85 10 5 11 84 12 2 13
REMARK SMILES IDX 1 14 86 15 87 16 6 17 7 19 8 20 13 21 9 22 11 23 10 24 12 25
REMARK SMILES IDX 20 27 21 28 22 29 23 31 24 32 25 33 83 34 26 35 82 36 27 37
REMARK SMILES IDX 28 38 29 39 76 40 30 41 81 42 75 43 77 44 31 45 80 46 74 47
REMARK SMILES IDX 73 48 32 50 62 51 43 52 61 53 44 54 47 55 60 56 78 57 45 58
REMARK SMILES IDX 46 59 59 61 79 62 48 63 33 64 34 65 42 66 35 67 41 68 36 69
REMARK SMILES IDX 37 70 38 71 39 72 40 73 63 74 64 75 72 76 65 77 71 78 66 79
REMARK SMILES IDX 67 80 68 81 69 82 70 83 49 84 50 85 58 86 51 87 57 88 52 89
REMARK SMILES IDX 53 90 54 91 55 92 56 93
REMARK H PARENT 17 6 6 18 10 26 21 30 77 49 47 60
REMARK Flexibility Score: inf
ROOT
ATOM      1  C   UNL A   1      37.476  23.346  25.504  1.00  0.00     0.042 C 
ENDROOT
BRANCH   1   2
ATOM      2  C   UNL A   1      36.017  23.800  25.577  1.00  0.00     0.118 C 
BRANCH   2   3
ATOM      3  N   UNL A   1      35.482  24.075  24.252  1.00  0.00    -0.352 N 
ATOM      4  C   UNL A   1      34.203  24.271  23.795  1.00  0.00     0.253 C 
ATOM      5  O   UNL A   1      34.054  24.560  22.604  1.00  0.00    -0.269 OA
ATOM      6  H   UNL A   1      36.168  24.132  23.548  1.00  0.00     0.163 HD
BRANCH   4   7
ATOM      7  C   UNL A   1      32.992  24.224  24.671  1.00  0.00     0.067 A 
ATOM      8  C   UNL A   1      30.674  24.175  26.259  1.00  0.00     0.162 A 
ATOM      9  C   UNL A   1      30.977  23.100  25.408  1.00  0.00     0.077 A 
ATOM     10  C   UNL A   1      31.577  25.229  26.393  1.00  0.00     0.161 A 
ATOM     11  C   UNL A   1      32.146  23.087  24.628  1.00  0.00     0.057 A 
ATOM     12  C   UNL A   1      32.732  25.230  25.605  1.00  0.00     0.066 A 
BRANCH   8  13
ATOM     13  O   UNL A   1      29.563  24.092  27.053  1.00  0.00    -0.493 OA
ATOM     14  C   UNL A   1      29.159  22.746  27.304  1.00  0.00     0.278 C 
ENDBRANCH   8  13
BRANCH  10  15
ATOM     15  O   UNL A   1      31.516  26.303  27.234  1.00  0.00    -0.493 OA
ATOM     16  C   UNL A   1      31.631  27.602  26.671  1.00  0.00     0.278 C 
ENDBRANCH  10  15
BRANCH  11  17
ATOM     17  N   UNL A   1      32.508  21.958  23.846  1.00  0.00    -0.338 N 
ATOM     18  H   UNL A   1      32.450  22.063  22.870  1.00  0.00     0.168 HD
BRANCH  17  19
ATOM     19  C   UNL A   1      32.931  20.733  24.309  1.00  0.00     0.156 A 
ATOM     20  C   UNL A   1      34.427  20.582  24.483  1.00  0.00     0.180 A 
ATOM     21  N   UNL A   1      32.147  19.742  24.591  1.00  0.00    -0.173 NA
ATOM     22  N   UNL A   1      34.961  19.487  24.915  1.00  0.00    -0.176 NA
ATOM     23  C   UNL A   1      32.700  18.563  25.019  1.00  0.00     0.363 A 
ATOM     24  N   UNL A   1      34.070  18.493  25.178  1.00  0.00    -0.227 N 
ATOM     25  O   UNL A   1      32.022  17.571  25.263  1.00  0.00    -0.244 OA
ATOM     26  H   UNL A   1      34.437  17.644  25.514  1.00  0.00     0.195 HD
ENDBRANCH  17  19
ENDBRANCH  11  17
ENDBRANCH   4   7
ENDBRANCH   2   3
ENDBRANCH   1   2
BRANCH   1  27
ATOM     27  C   UNL A   1      38.396  24.084  26.475  1.00  0.00     0.118 C 
BRANCH  27  28
ATOM     28  N   UNL A   1      39.802  23.828  26.197  1.00  0.00    -0.352 N 
ATOM     29  C   UNL A   1      40.913  24.546  26.570  1.00  0.00     0.251 C 
ATOM     30  H   UNL A   1      39.984  23.022  25.663  1.00  0.00     0.163 HD
ATOM     31  O   UNL A   1      41.997  24.281  26.060  1.00  0.00    -0.269 OA
BRANCH  29  32
ATOM     32  C   UNL A   1      40.811  25.639  27.565  1.00  0.00     0.039 A 
ATOM     33  C   UNL A   1      39.791  25.589  28.520  1.00  0.00     0.014 A 
ATOM     34  C   UNL A   1      41.685  26.731  27.536  1.00  0.00     0.014 A 
ATOM     35  C   UNL A   1      39.685  26.597  29.484  1.00  0.00     0.010 A 
ATOM     36  C   UNL A   1      41.610  27.709  28.529  1.00  0.00     0.010 A 
ATOM     37  C   UNL A   1      40.613  27.650  29.515  1.00  0.00    -0.014 A 
BRANCH  37  38
ATOM     38  C   UNL A   1      40.575  28.683  30.582  1.00  0.00     0.031 A 
ATOM     39  C   UNL A   1      41.469  28.566  31.788  1.00  0.00     0.074 A 
ATOM     40  C   UNL A   1      39.675  29.684  30.506  1.00  0.00     0.049 A 
ATOM     41  N   UNL A   1      41.506  29.315  32.860  1.00  0.00    -0.248 NA
ATOM     42  C   UNL A   1      42.430  27.451  31.802  1.00  0.00     0.031 C 
ATOM     43  C   UNL A   1      38.728  29.890  29.407  1.00  0.00     0.029 A 
ATOM     44  N   UNL A   1      39.397  30.706  31.379  1.00  0.00    -0.354 N 
ATOM     45  C   UNL A   1      42.471  28.750  33.686  1.00  0.00     0.074 A 
ATOM     46  C   UNL A   1      42.980  27.581  33.002  1.00  0.00     0.031 C 
ATOM     47  C   UNL A   1      37.980  30.975  29.669  1.00  0.00     0.029 A 
ATOM     48  C   UNL A   1      38.364  31.518  30.968  1.00  0.00     0.049 A 
ATOM     49  H   UNL A   1      39.889  30.847  32.219  1.00  0.00     0.167 HD
ATOM     50  C   UNL A   1      42.897  29.170  34.902  1.00  0.00     0.031 A 
ATOM     51  C   UNL A   1      37.777  32.568  31.575  1.00  0.00     0.031 A 
ATOM     52  C   UNL A   1      42.413  30.350  35.567  1.00  0.00     0.049 A 
ATOM     53  C   UNL A   1      38.267  33.007  32.927  1.00  0.00     0.074 A 
ATOM     54  C   UNL A   1      42.855  30.907  36.756  1.00  0.00     0.029 A 
ATOM     55  N   UNL A   1      41.377  31.149  35.112  1.00  0.00    -0.354 N 
ATOM     56  N   UNL A   1      39.239  32.507  33.652  1.00  0.00    -0.248 NA
ATOM     57  C   UNL A   1      37.581  34.152  33.542  1.00  0.00     0.031 C 
ATOM     58  C   UNL A   1      42.053  32.017  37.042  1.00  0.00     0.029 A 
ATOM     59  C   UNL A   1      41.142  32.174  36.011  1.00  0.00     0.049 A 
ATOM     60  H   UNL A   1      40.881  31.008  34.273  1.00  0.00     0.167 HD
ATOM     61  C   UNL A   1      39.292  33.289  34.799  1.00  0.00     0.074 A 
ATOM     62  C   UNL A   1      38.267  34.303  34.667  1.00  0.00     0.031 C 
ATOM     63  C   UNL A   1      40.118  33.177  35.867  1.00  0.00     0.031 A 
BRANCH  50  64
ATOM     64  C   UNL A   1      43.940  28.345  35.606  1.00  0.00    -0.014 A 
ATOM     65  C   UNL A   1      45.311  28.599  35.426  1.00  0.00     0.010 A 
ATOM     66  C   UNL A   1      43.540  27.355  36.522  1.00  0.00     0.010 A 
ATOM     67  C   UNL A   1      46.264  27.860  36.131  1.00  0.00     0.020 A 
ATOM     68  C   UNL A   1      44.489  26.628  37.244  1.00  0.00     0.020 A 
ATOM     69  C   UNL A   1      45.848  26.876  37.034  1.00  0.00     0.054 A 
BRANCH  69  70
ATOM     70  S   UNL A   1      47.105  25.960  37.968  1.00  0.00     0.124 S 
ATOM     71  O   UNL A   1      47.941  27.042  38.484  1.00  0.00    -0.237 OA
ATOM     72  O   UNL A   1      46.311  25.250  38.966  1.00  0.00    -0.237 OA
ATOM     73  O   UNL A   1      47.736  25.113  36.959  1.00  0.00    -0.744 OA
ENDBRANCH  69  70
ENDBRANCH  50  64
BRANCH  51  74
ATOM     74  C   UNL A   1      36.646  33.276  30.916  1.00  0.00    -0.014 A 
ATOM     75  C   UNL A   1      35.327  33.065  31.351  1.00  0.00     0.010 A 
ATOM     76  C   UNL A   1      36.885  34.154  29.844  1.00  0.00     0.010 A 
ATOM     77  C   UNL A   1      34.261  33.699  30.707  1.00  0.00     0.020 A 
ATOM     78  C   UNL A   1      35.824  34.809  29.213  1.00  0.00     0.020 A 
ATOM     79  C   UNL A   1      34.516  34.564  29.638  1.00  0.00     0.054 A 
BRANCH  79  80
ATOM     80  S   UNL A   1      33.123  35.405  28.834  1.00  0.00     0.124 S 
ATOM     81  O   UNL A   1      32.475  34.306  28.128  1.00  0.00    -0.237 OA
ATOM     82  O   UNL A   1      32.385  35.955  29.968  1.00  0.00    -0.237 OA
ATOM     83  O   UNL A   1      33.775  36.401  27.985  1.00  0.00    -0.744 OA
ENDBRANCH  79  80
ENDBRANCH  51  74
BRANCH  63  84
ATOM     84  C   UNL A   1      39.964  34.185  36.972  1.00  0.00    -0.014 A 
ATOM     85  C   UNL A   1      40.634  35.420  36.921  1.00  0.00     0.010 A 
ATOM     86  C   UNL A   1      39.088  33.920  38.040  1.00  0.00     0.010 A 
ATOM     87  C   UNL A   1      40.446  36.365  37.932  1.00  0.00     0.020 A 
ATOM     88  C   UNL A   1      38.881  34.872  39.041  1.00  0.00     0.020 A 
ATOM     89  C   UNL A   1      39.571  36.085  38.986  1.00  0.00     0.054 A 
BRANCH  89  90
ATOM     90  S   UNL A   1      39.296  37.350  40.257  1.00  0.00     0.124 S 
ATOM     91  O   UNL A   1      40.658  37.797  40.539  1.00  0.00    -0.237 OA
ATOM     92  O   UNL A   1      38.447  38.320  39.569  1.00  0.00    -0.237 OA
ATOM     93  O   UNL A   1      38.642  36.618  41.339  1.00  0.00    -0.744 OA
ENDBRANCH  89  90
ENDBRANCH  63  84
ENDBRANCH  37  38
ENDBRANCH  29  32
ENDBRANCH  27  28
ENDBRANCH   1  27
TORSDOF 17
ENDMDL
MODEL 2
REMARK VINA RESULT:     -11.5      1.565      3.038
REMARK SMILES COc1cc(Nc2cn[nH]c(=O)n2)c(C(=O)NCCCNC(=O)c2ccc(-c3c4nc(c(-c5ccc(S(=O)(=O)[O-])cc5)c5ccc([nH]5)c(-c5ccc(S(=O)(=O)[O-])cc5)c5nc(c(-c6ccc(S(=O)(=O)[O-])cc6)c6ccc3[nH]6)C=C5)C=C4)cc2)cc1OC
REMARK SMILES IDX 19 1 18 2 17 3 15 4 16 5 14 7 3 8 4 9 85 10 5 11 84 12 2 13
REMARK SMILES IDX 1 14 86 15 87 16 6 17 7 19 8 20 13 21 9 22 11 23 10 24 12 25
REMARK SMILES IDX 20 27 21 28 22 29 23 31 24 32 25 33 83 34 26 35 82 36 27 37
REMARK SMILES IDX 28 38 29 39 76 40 30 41 81 42 75 43 77 44 31 45 80 46 74 47
REMARK SMILES IDX 73 48 32 50 62 51 43 52 61 53 44 54 47 55 60 56 78 57 45 58
REMARK SMILES IDX 46 59 59 61 79 62 48 63 33 64 34 65 42 66 35 67 41 68 36 69
REMARK SMILES IDX 37 70 38 71 39 72 40 73 63 74 64 75 72 76 65 77 71 78 66 79
REMARK SMILES IDX 67 80 68 81 69 82 70 83 49 84 50 85 58 86 51 87 57 88 52 89
REMARK SMILES IDX 53 90 54 91 55 92 56 93
REMARK H PARENT 17 6 6 18 10 26 21 30 77 49 47 60
REMARK Flexibility Score: inf
ROOT
ATOM      1  C   UNL A   1      38.838  22.591  26.230  1.00  0.00     0.042 C 
ENDROOT
BRANCH   1   2
ATOM      2  C   UNL A   1      37.538  23.308  25.861  1.00  0.00     0.118 C 
BRANCH   2   3
ATOM      3  N   UNL A   1      37.299  23.264  24.426  1.00  0.00    -0.352 N 
ATOM      4  C   UNL A   1      36.190  22.944  23.685  1.00  0.00     0.253 C 
ATOM      5  O   UNL A   1      36.263  23.064  22.458  1.00  0.00    -0.269 OA
ATOM      6  H   UNL A   1      38.082  23.512  23.883  1.00  0.00     0.163 HD
BRANCH   4   7
ATOM      7  C   UNL A   1      34.884  22.527  24.281  1.00  0.00     0.067 A 
ATOM      8  C   UNL A   1      32.459  21.758  25.476  1.00  0.00     0.162 A 
ATOM      9  C   UNL A   1      32.655  23.082  25.049  1.00  0.00     0.077 A 
ATOM     10  C   UNL A   1      33.434  20.796  25.217  1.00  0.00     0.161 A 
ATOM     11  C   UNL A   1      33.846  23.483  24.421  1.00  0.00     0.057 A 
ATOM     12  C   UNL A   1      34.628  21.193  24.609  1.00  0.00     0.066 A 
BRANCH   8  13
ATOM     13  O   UNL A   1      31.248  21.411  26.008  1.00  0.00    -0.493 OA
ATOM     14  C   UNL A   1      30.468  22.542  26.399  1.00  0.00     0.278 C 
ENDBRANCH   8  13
BRANCH  10  15
ATOM     15  O   UNL A   1      33.390  19.451  25.455  1.00  0.00    -0.493 OA
ATOM     16  C   UNL A   1      33.897  18.576  24.458  1.00  0.00     0.278 C 
ENDBRANCH  10  15
BRANCH  11  17
ATOM     17  N   UNL A   1      34.007  24.792  23.895  1.00  0.00    -0.338 N 
ATOM     18  H   UNL A   1      34.685  25.359  24.328  1.00  0.00     0.168 HD
BRANCH  17  19
ATOM     19  C   UNL A   1      33.317  25.352  22.846  1.00  0.00     0.156 A 
ATOM     20  C   UNL A   1      32.224  26.328  23.230  1.00  0.00     0.180 A 
ATOM     21  N   UNL A   1      33.542  25.099  21.596  1.00  0.00    -0.173 NA
ATOM     22  N   UNL A   1      31.501  26.932  22.346  1.00  0.00    -0.176 NA
ATOM     23  C   UNL A   1      32.762  25.707  20.647  1.00  0.00     0.363 A 
ATOM     24  N   UNL A   1      31.794  26.603  21.059  1.00  0.00    -0.227 N 
ATOM     25  O   UNL A   1      32.891  25.482  19.449  1.00  0.00    -0.244 OA
ATOM     26  H   UNL A   1      31.269  27.046  20.355  1.00  0.00     0.195 HD
ENDBRANCH  17  19
ENDBRANCH  11  17
ENDBRANCH   4   7
ENDBRANCH   2   3
ENDBRANCH   1   2
BRANCH   1  27
ATOM     27  C   UNL A   1      39.821  23.466  27.006  1.00  0.00     0.118 C 
BRANCH  27  28
ATOM     28  N   UNL A   1      40.930  23.911  26.176  1.00  0.00    -0.352 N 
ATOM     29  C   UNL A   1      41.668  25.068  26.248  1.00  0.00     0.251 C 
ATOM     30  H   UNL A   1      41.188  23.294  25.454  1.00  0.00     0.163 HD
ATOM     31  O   UNL A   1      42.425  25.356  25.325  1.00  0.00    -0.269 OA
BRANCH  29  32
ATOM     32  C   UNL A   1      41.549  25.973  27.415  1.00  0.00     0.039 A 
ATOM     33  C   UNL A   1      42.438  27.047  27.529  1.00  0.00     0.014 A 
ATOM     34  C   UNL A   1      40.599  25.747  28.417  1.00  0.00     0.014 A 
ATOM     35  C   UNL A   1      42.335  27.929  28.610  1.00  0.00     0.010 A 
ATOM     36  C   UNL A   1      40.464  26.656  29.466  1.00  0.00     0.010 A 
ATOM     37  C   UNL A   1      41.327  27.758  29.572  1.00  0.00    -0.014 A 
BRANCH  37  38
ATOM     38  C   UNL A   1      41.140  28.732  30.678  1.00  0.00     0.031 A 
ATOM     39  C   UNL A   1      41.976  28.638  31.926  1.00  0.00     0.074 A 
ATOM     40  C   UNL A   1      40.159  29.653  30.593  1.00  0.00     0.049 A 
ATOM     41  N   UNL A   1      41.889  29.337  33.029  1.00  0.00    -0.248 NA
ATOM     42  C   UNL A   1      43.032  27.613  31.948  1.00  0.00     0.031 C 
ATOM     43  C   UNL A   1      39.257  29.827  29.451  1.00  0.00     0.029 A 
ATOM     44  N   UNL A   1      39.743  30.605  31.490  1.00  0.00    -0.354 N 
ATOM     45  C   UNL A   1      42.856  28.820  33.885  1.00  0.00     0.074 A 
ATOM     46  C   UNL A   1      43.504  27.734  33.181  1.00  0.00     0.031 C 
ATOM     47  C   UNL A   1      38.400  30.828  29.716  1.00  0.00     0.029 A 
ATOM     48  C   UNL A   1      38.665  31.341  31.055  1.00  0.00     0.049 A 
ATOM     49  H   UNL A   1      40.176  30.749  32.363  1.00  0.00     0.167 HD
ATOM     50  C   UNL A   1      43.177  29.219  35.139  1.00  0.00     0.031 A 
ATOM     51  C   UNL A   1      37.955  32.306  31.672  1.00  0.00     0.031 A 
ATOM     52  C   UNL A   1      42.554  30.319  35.824  1.00  0.00     0.049 A 
ATOM     53  C   UNL A   1      38.331  32.723  33.067  1.00  0.00     0.074 A 
ATOM     54  C   UNL A   1      42.881  30.857  37.058  1.00  0.00     0.029 A 
ATOM     55  N   UNL A   1      41.476  31.044  35.345  1.00  0.00    -0.354 N 
ATOM     56  N   UNL A   1      39.304  32.276  33.824  1.00  0.00    -0.248 NA
ATOM     57  C   UNL A   1      37.513  33.773  33.690  1.00  0.00     0.031 C 
ATOM     58  C   UNL A   1      41.968  31.877  37.345  1.00  0.00     0.029 A 
ATOM     59  C   UNL A   1      41.102  32.002  36.272  1.00  0.00     0.049 A 
ATOM     60  H   UNL A   1      41.040  30.900  34.474  1.00  0.00     0.167 HD
ATOM     61  C   UNL A   1      39.226  33.006  35.005  1.00  0.00     0.074 A 
ATOM     62  C   UNL A   1      38.122  33.931  34.857  1.00  0.00     0.031 C 
ATOM     63  C   UNL A   1      40.001  32.917  36.112  1.00  0.00     0.031 A 
BRANCH  50  64
ATOM     64  C   UNL A   1      44.252  28.457  35.866  1.00  0.00    -0.014 A 
ATOM     65  C   UNL A   1      45.612  28.748  35.665  1.00  0.00     0.010 A 
ATOM     66  C   UNL A   1      43.890  27.489  36.823  1.00  0.00     0.010 A 
ATOM     67  C   UNL A   1      46.594  28.068  36.391  1.00  0.00     0.020 A 
ATOM     68  C   UNL A   1      44.869  26.822  37.564  1.00  0.00     0.020 A 
ATOM     69  C   UNL A   1      46.217  27.107  37.334  1.00  0.00     0.054 A 
BRANCH  69  70
ATOM     70  S   UNL A   1      47.510  26.270  38.292  1.00  0.00     0.124 S 
ATOM     71  O   UNL A   1      48.183  27.397  38.934  1.00  0.00    -0.237 OA
ATOM     72  O   UNL A   1      46.742  25.407  39.185  1.00  0.00    -0.237 OA
ATOM     73  O   UNL A   1      48.295  25.572  37.278  1.00  0.00    -0.744 OA
ENDBRANCH  69  70
ENDBRANCH  50  64
BRANCH  51  74
ATOM     74  C   UNL A   1      36.801  32.942  30.980  1.00  0.00    -0.014 A 
ATOM     75  C   UNL A   1      37.015  33.858  29.937  1.00  0.00     0.010 A 
ATOM     76  C   UNL A   1      35.484  32.642  31.372  1.00  0.00     0.010 A 
ATOM     77  C   UNL A   1      35.932  34.486  29.314  1.00  0.00     0.020 A 
ATOM     78  C   UNL A   1      34.398  33.249  30.736  1.00  0.00     0.020 A 
ATOM     79  C   UNL A   1      34.630  34.180  29.722  1.00  0.00     0.054 A 
BRANCH  79  80
ATOM     80  S   UNL A   1      33.234  34.979  28.880  1.00  0.00     0.124 S 
ATOM     81  O   UNL A   1      32.823  33.947  27.935  1.00  0.00    -0.237 OA
ATOM     82  O   UNL A   1      32.307  35.242  29.977  1.00  0.00    -0.237 OA
ATOM     83  O   UNL A   1      33.837  36.171  28.286  1.00  0.00    -0.744 OA
ENDBRANCH  79  80
ENDBRANCH  51  74
BRANCH  63  84
ATOM     84  C   UNL A   1      39.698  33.854  37.247  1.00  0.00    -0.014 A 
ATOM     85  C   UNL A   1      38.909  33.440  38.335  1.00  0.00     0.010 A 
ATOM     86  C   UNL A   1      40.262  35.143  37.257  1.00  0.00     0.010 A 
ATOM     87  C   UNL A   1      38.673  34.307  39.404  1.00  0.00     0.020 A 
ATOM     88  C   UNL A   1      40.046  36.004  38.335  1.00  0.00     0.020 A 
ATOM     89  C   UNL A   1      39.242  35.584  39.397  1.00  0.00     0.054 A 
BRANCH  89  90
ATOM     90  S   UNL A   1      38.972  36.672  40.823  1.00  0.00     0.124 S 
ATOM     91  O   UNL A   1      38.409  37.864  40.194  1.00  0.00    -0.237 OA
ATOM     92  O   UNL A   1      38.045  35.900  41.647  1.00  0.00    -0.237 OA
ATOM     93  O   UNL A   1      40.308  36.837  41.391  1.00  0.00    -0.744 OA
ENDBRANCH  89  90
ENDBRANCH  63  84
ENDBRANCH  37  38
ENDBRANCH  29  32
ENDBRANCH  27  28
ENDBRANCH   1  27
TORSDOF 17
ENDMDL
MODEL 3
REMARK VINA RESULT:     -11.4      6.054     10.442
REMARK SMILES COc1cc(Nc2cn[nH]c(=O)n2)c(C(=O)NCCCNC(=O)c2ccc(-c3c4nc(c(-c5ccc(S(=O)(=O)[O-])cc5)c5ccc([nH]5)c(-c5ccc(S(=O)(=O)[O-])cc5)c5nc(c(-c6ccc(S(=O)(=O)[O-])cc6)c6ccc3[nH]6)C=C5)C=C4)cc2)cc1OC
REMARK SMILES IDX 19 1 18 2 17 3 15 4 16 5 14 7 3 8 4 9 85 10 5 11 84 12 2 13
REMARK SMILES IDX 1 14 86 15 87 16 6 17 7 19 8 20 13 21 9 22 11 23 10 24 12 25
REMARK SMILES IDX 20 27 21 28 22 29 23 31 24 32 25 33 83 34 26 35 82 36 27 37
REMARK SMILES IDX 28 38 29 39 76 40 30 41 81 42 75 43 77 44 31 45 80 46 74 47
REMARK SMILES IDX 73 48 32 50 62 51 43 52 61 53 44 54 47 55 60 56 78 57 45 58
REMARK SMILES IDX 46 59 59 61 79 62 48 63 33 64 34 65 42 66 35 67 41 68 36 69
REMARK SMILES IDX 37 70 38 71 39 72 40 73 63 74 64 75 72 76 65 77 71 78 66 79
REMARK SMILES IDX 67 80 68 81 69 82 70 83 49 84 50 85 58 86 51 87 57 88 52 89
REMARK SMILES IDX 53 90 54 91 55 92 56 93
REMARK H PARENT 17 6 6 18 10 26 21 30 77 49 47 60
REMARK Flexibility Score: inf
ROOT
ATOM      1  C   UNL A   1      37.756  20.075  24.979  1.00  0.00     0.042 C 
ENDROOT
BRANCH   1   2
ATOM      2  C   UNL A   1      36.575  21.045  24.918  1.00  0.00     0.118 C 
BRANCH   2   3
ATOM      3  N   UNL A   1      35.835  21.055  26.172  1.00  0.00    -0.352 N 
ATOM      4  C   UNL A   1      34.678  21.685  26.555  1.00  0.00     0.253 C 
ATOM      5  O   UNL A   1      34.241  21.449  27.686  1.00  0.00    -0.269 OA
ATOM      6  H   UNL A   1      36.242  20.506  26.880  1.00  0.00     0.163 HD
BRANCH   4   7
ATOM      7  C   UNL A   1      33.883  22.580  25.660  1.00  0.00     0.067 A 
ATOM      8  C   UNL A   1      32.435  24.239  23.913  1.00  0.00     0.162 A 
ATOM      9  C   UNL A   1      31.993  22.935  24.188  1.00  0.00     0.077 A 
ATOM     10  C   UNL A   1      33.544  24.750  24.586  1.00  0.00     0.161 A 
ATOM     11  C   UNL A   1      32.681  22.097  25.081  1.00  0.00     0.057 A 
ATOM     12  C   UNL A   1      34.244  23.916  25.462  1.00  0.00     0.066 A 
BRANCH   8  13
ATOM     13  O   UNL A   1      31.678  25.033  23.096  1.00  0.00    -0.493 OA
ATOM     14  C   UNL A   1      32.250  25.201  21.799  1.00  0.00     0.278 C 
ENDBRANCH   8  13
BRANCH  10  15
ATOM     15  O   UNL A   1      34.065  26.012  24.538  1.00  0.00    -0.493 OA
ATOM     16  C   UNL A   1      33.841  26.873  25.645  1.00  0.00     0.278 C 
ENDBRANCH  10  15
BRANCH  11  17
ATOM     17  N   UNL A   1      32.181  20.819  25.440  1.00  0.00    -0.338 N 
ATOM     18  H   UNL A   1      31.652  20.770  26.269  1.00  0.00     0.168 HD
BRANCH  17  19
ATOM     19  C   UNL A   1      32.359  19.639  24.756  1.00  0.00     0.156 A 
ATOM     20  C   UNL A   1      32.733  18.441  25.604  1.00  0.00     0.180 A 
ATOM     21  N   UNL A   1      32.228  19.503  23.475  1.00  0.00    -0.173 NA
ATOM     22  N   UNL A   1      32.925  17.271  25.092  1.00  0.00    -0.176 NA
ATOM     23  C   UNL A   1      32.461  18.275  22.912  1.00  0.00     0.363 A 
ATOM     24  N   UNL A   1      32.779  17.216  23.741  1.00  0.00    -0.227 N 
ATOM     25  O   UNL A   1      32.397  18.084  21.703  1.00  0.00    -0.244 OA
ATOM     26  H   UNL A   1      32.911  16.340  23.313  1.00  0.00     0.195 HD
ENDBRANCH  17  19
ENDBRANCH  11  17
ENDBRANCH   4   7
ENDBRANCH   2   3
ENDBRANCH   1   2
BRANCH   1  27
ATOM     27  C   UNL A   1      38.931  20.591  25.808  1.00  0.00     0.118 C 
BRANCH  27  28
ATOM     28  N   UNL A   1      39.996  19.605  25.919  1.00  0.00    -0.352 N 
ATOM     29  C   UNL A   1      41.341  19.790  26.129  1.00  0.00     0.251 C 
ATOM     30  H   UNL A   1      39.711  18.668  25.829  1.00  0.00     0.163 HD
ATOM     31  O   UNL A   1      42.108  18.842  25.981  1.00  0.00    -0.269 OA
BRANCH  29  32
ATOM     32  C   UNL A   1      41.874  21.118  26.514  1.00  0.00     0.039 A 
ATOM     33  C   UNL A   1      42.164  21.364  27.860  1.00  0.00     0.014 A 
ATOM     34  C   UNL A   1      42.049  22.133  25.567  1.00  0.00     0.014 A 
ATOM     35  C   UNL A   1      42.687  22.601  28.248  1.00  0.00     0.010 A 
ATOM     36  C   UNL A   1      42.619  23.348  25.948  1.00  0.00     0.010 A 
ATOM     37  C   UNL A   1      42.948  23.593  27.290  1.00  0.00    -0.014 A 
BRANCH  37  38
ATOM     38  C   UNL A   1      43.588  24.881  27.665  1.00  0.00     0.031 A 
ATOM     39  C   UNL A   1      42.763  26.007  28.229  1.00  0.00     0.074 A 
ATOM     40  C   UNL A   1      44.900  25.066  27.419  1.00  0.00     0.049 A 
ATOM     41  N   UNL A   1      43.129  27.228  28.522  1.00  0.00    -0.248 NA
ATOM     42  C   UNL A   1      41.338  25.732  28.476  1.00  0.00     0.031 C 
ATOM     43  C   UNL A   1      45.804  24.067  26.843  1.00  0.00     0.029 A 
ATOM     44  N   UNL A   1      45.700  26.167  27.605  1.00  0.00    -0.354 N 
ATOM     45  C   UNL A   1      41.979  27.876  28.961  1.00  0.00     0.074 A 
ATOM     46  C   UNL A   1      40.898  26.918  28.875  1.00  0.00     0.031 C 
ATOM     47  C   UNL A   1      47.033  24.598  26.730  1.00  0.00     0.029 A 
ATOM     48  C   UNL A   1      46.998  25.983  27.187  1.00  0.00     0.049 A 
ATOM     49  H   UNL A   1      45.376  27.008  28.001  1.00  0.00     0.167 HD
ATOM     50  C   UNL A   1      41.839  29.149  29.400  1.00  0.00     0.031 A 
ATOM     51  C   UNL A   1      48.040  26.838  27.156  1.00  0.00     0.031 A 
ATOM     52  C   UNL A   1      42.921  30.090  29.516  1.00  0.00     0.049 A 
ATOM     53  C   UNL A   1      47.853  28.248  27.644  1.00  0.00     0.074 A 
ATOM     54  C   UNL A   1      42.892  31.371  30.042  1.00  0.00     0.029 A 
ATOM     55  N   UNL A   1      44.221  29.861  29.093  1.00  0.00    -0.354 N 
ATOM     56  N   UNL A   1      46.775  28.812  28.133  1.00  0.00    -0.248 NA
ATOM     57  C   UNL A   1      49.022  29.135  27.575  1.00  0.00     0.031 C 
ATOM     58  C   UNL A   1      44.164  31.933  29.894  1.00  0.00     0.029 A 
ATOM     59  C   UNL A   1      44.994  30.987  29.315  1.00  0.00     0.049 A 
ATOM     60  H   UNL A   1      44.546  29.022  28.695  1.00  0.00     0.167 HD
ATOM     61  C   UNL A   1      47.143  30.115  28.448  1.00  0.00     0.074 A 
ATOM     62  C   UNL A   1      48.544  30.251  28.108  1.00  0.00     0.031 C 
ATOM     63  C   UNL A   1      46.388  31.109  28.973  1.00  0.00     0.031 A 
BRANCH  50  64
ATOM     64  C   UNL A   1      40.461  29.614  29.787  1.00  0.00    -0.014 A 
ATOM     65  C   UNL A   1      40.071  29.690  31.135  1.00  0.00     0.010 A 
ATOM     66  C   UNL A   1      39.572  30.056  28.789  1.00  0.00     0.010 A 
ATOM     67  C   UNL A   1      38.807  30.176  31.478  1.00  0.00     0.020 A 
ATOM     68  C   UNL A   1      38.316  30.561  29.129  1.00  0.00     0.020 A 
ATOM     69  C   UNL A   1      37.935  30.606  30.472  1.00  0.00     0.054 A 
BRANCH  69  70
ATOM     70  S   UNL A   1      36.316  31.273  30.948  1.00  0.00     0.124 S 
ATOM     71  O   UNL A   1      35.581  31.200  29.688  1.00  0.00    -0.237 OA
ATOM     72  O   UNL A   1      35.878  30.346  31.986  1.00  0.00    -0.237 OA
ATOM     73  O   UNL A   1      36.622  32.624  31.412  1.00  0.00    -0.744 OA
ENDBRANCH  69  70
ENDBRANCH  50  64
BRANCH  51  74
ATOM     74  C   UNL A   1      49.357  26.391  26.630  1.00  0.00    -0.014 A 
ATOM     75  C   UNL A   1      50.272  25.733  27.469  1.00  0.00     0.010 A 
ATOM     76  C   UNL A   1      49.707  26.633  25.289  1.00  0.00     0.010 A 
ATOM     77  C   UNL A   1      51.526  25.348  26.986  1.00  0.00     0.020 A 
ATOM     78  C   UNL A   1      50.950  26.229  24.795  1.00  0.00     0.020 A 
ATOM     79  C   UNL A   1      51.859  25.604  25.651  1.00  0.00     0.054 A 
BRANCH  79  80
ATOM     80  S   UNL A   1      53.478  25.068  25.031  1.00  0.00     0.124 S 
ATOM     81  O   UNL A   1      53.414  23.625  25.229  1.00  0.00    -0.237 OA
ATOM     82  O   UNL A   1      53.454  25.520  23.643  1.00  0.00    -0.237 OA
ATOM     83  O   UNL A   1      54.421  25.780  25.892  1.00  0.00    -0.744 OA
ENDBRANCH  79  80
ENDBRANCH  51  74
BRANCH  63  84
ATOM     84  C   UNL A   1      47.060  32.428  29.231  1.00  0.00    -0.014 A 
ATOM     85  C   UNL A   1      47.719  32.677  30.448  1.00  0.00     0.010 A 
ATOM     86  C   UNL A   1      47.089  33.407  28.220  1.00  0.00     0.010 A 
ATOM     87  C   UNL A   1      48.377  33.891  30.656  1.00  0.00     0.020 A 
ATOM     88  C   UNL A   1      47.765  34.612  28.417  1.00  0.00     0.020 A 
ATOM     89  C   UNL A   1      48.397  34.851  29.640  1.00  0.00     0.054 A 
BRANCH  89  90
ATOM     90  S   UNL A   1      49.309  36.395  29.911  1.00  0.00     0.124 S 
ATOM     91  O   UNL A   1      48.948  37.172  28.727  1.00  0.00    -0.237 OA
ATOM     92  O   UNL A   1      48.756  36.881  31.173  1.00  0.00    -0.237 OA
ATOM     93  O   UNL A   1      50.704  35.967  29.975  1.00  0.00    -0.744 OA
ENDBRANCH  89  90
ENDBRANCH  63  84
ENDBRANCH  37  38
ENDBRANCH  29  32
ENDBRANCH  27  28
ENDBRANCH   1  27
TORSDOF 17
ENDMDL
