MODEL 1
REMARK VINA RESULT:     -11.4      0.000      0.000
REMARK SMILES CC(C)[NH2+][C@]1(C(=O)NCCCNC(=O)c2ccc(-c3c4nc(c(-c5ccc(S(=O)(=O)[O-])cc5)c5ccc([nH]5)c(-c5ccc(S(=O)(=O)[O-])cc5)c5nc(c(-c6ccc(S(=O)(=O)[O-])cc6)c6ccc3[nH]6)C=C5)C=C4)cc2)CC[C@H]([NH+]2CCC(C)(C)CC2)C1
REMARK SMILES IDX 10 1 9 2 8 3 6 4 7 5 5 7 75 8 86 9 76 10 77 11 4 12 2 15
REMARK SMILES IDX 1 16 3 17 78 18 79 19 85 20 80 22 84 23 81 24 82 25 83 26
REMARK SMILES IDX 11 27 12 28 13 29 14 31 15 32 16 33 74 34 17 35 73 36 18 37
REMARK SMILES IDX 19 38 20 39 67 40 21 41 72 42 66 43 68 44 22 45 71 46 65 47
REMARK SMILES IDX 64 48 23 50 53 51 34 52 52 53 35 54 38 55 51 56 69 57 36 58
REMARK SMILES IDX 37 59 50 61 70 62 39 63 24 64 25 65 33 66 26 67 32 68 27 69
REMARK SMILES IDX 28 70 29 71 30 72 31 73 54 74 55 75 63 76 56 77 62 78 57 79
REMARK SMILES IDX 58 80 59 81 60 82 61 83 40 84 41 85 49 86 42 87 48 88 43 89
REMARK SMILES IDX 44 90 45 91 46 92 47 93
REMARK H PARENT 8 6 4 13 4 14 78 21 12 30 68 49 38 60
REMARK Flexibility Score: inf
ROOT
ATOM      1  C   UNL A   1      33.755  28.039  25.884  1.00  0.00     0.042 C 
ENDROOT
BRANCH   1   2
ATOM      2  C   UNL A   1      32.747  27.143  25.172  1.00  0.00     0.118 C 
BRANCH   2   3
ATOM      3  N   UNL A   1      32.006  26.297  26.101  1.00  0.00    -0.351 N 
ATOM      4  C   UNL A   1      32.024  24.931  26.255  1.00  0.00     0.281 C 
ATOM      5  O   UNL A   1      31.373  24.450  27.184  1.00  0.00    -0.268 OA
ATOM      6  H   UNL A   1      31.401  26.776  26.711  1.00  0.00     0.163 HD
BRANCH   4   7
ATOM      7  C   UNL A   1      32.924  24.053  25.315  1.00  0.00     0.181 C 
ATOM      8  C   UNL A   1      34.421  24.317  25.555  1.00  0.00     0.085 C 
ATOM      9  C   UNL A   1      32.826  22.599  25.849  1.00  0.00     0.144 C 
ATOM     10  C   UNL A   1      35.136  23.007  25.199  1.00  0.00     0.072 C 
ATOM     11  C   UNL A   1      34.155  21.869  25.569  1.00  0.00     0.191 C 
BRANCH   7  12
ATOM     12  N   UNL A   1      32.432  24.356  23.944  1.00  0.00    -0.331 N 
ATOM     13  H   UNL A   1      31.744  23.634  23.729  1.00  0.00     0.347 HD
ATOM     14  H   UNL A   1      32.146  25.330  24.047  1.00  0.00     0.347 HD
BRANCH  12  15
ATOM     15  C   UNL A   1      33.299  24.439  22.778  1.00  0.00     0.176 C 
ATOM     16  C   UNL A   1      33.207  23.083  22.062  1.00  0.00     0.075 C 
ATOM     17  C   UNL A   1      32.900  25.541  21.798  1.00  0.00     0.075 C 
ENDBRANCH  12  15
ENDBRANCH   7  12
BRANCH  11  18
ATOM     18  N   UNL A   1      34.089  20.654  24.718  1.00  0.00    -0.332 N 
ATOM     19  C   UNL A   1      32.721  20.217  24.419  1.00  0.00     0.263 C 
ATOM     20  C   UNL A   1      35.032  19.596  25.067  1.00  0.00     0.263 C 
ATOM     21  H   UNL A   1      34.447  20.958  23.813  1.00  0.00     0.348 HD
ATOM     22  C   UNL A   1      32.626  18.889  23.651  1.00  0.00     0.068 C 
ATOM     23  C   UNL A   1      34.895  18.263  24.343  1.00  0.00     0.068 C 
ATOM     24  C   UNL A   1      33.447  17.765  24.311  1.00  0.00    -0.025 C 
ATOM     25  C   UNL A   1      33.393  16.479  23.474  1.00  0.00     0.011 C 
ATOM     26  C   UNL A   1      32.920  17.435  25.723  1.00  0.00     0.011 C 
ENDBRANCH  11  18
ENDBRANCH   4   7
ENDBRANCH   2   3
ENDBRANCH   1   2
BRANCH   1  27
ATOM     27  C   UNL A   1      33.378  28.364  27.326  1.00  0.00     0.118 C 
BRANCH  27  28
ATOM     28  N   UNL A   1      33.354  29.797  27.588  1.00  0.00    -0.352 N 
ATOM     29  C   UNL A   1      34.306  30.617  28.132  1.00  0.00     0.251 C 
ATOM     30  H   UNL A   1      32.517  30.249  27.331  1.00  0.00     0.163 HD
ATOM     31  O   UNL A   1      33.998  31.777  28.420  1.00  0.00    -0.269 OA
BRANCH  29  32
ATOM     32  C   UNL A   1      35.677  30.132  28.397  1.00  0.00     0.039 A 
ATOM     33  C   UNL A   1      36.615  30.189  27.361  1.00  0.00     0.014 A 
ATOM     34  C   UNL A   1      36.042  29.596  29.635  1.00  0.00     0.014 A 
ATOM     35  C   UNL A   1      37.926  29.766  27.588  1.00  0.00     0.010 A 
ATOM     36  C   UNL A   1      37.370  29.251  29.884  1.00  0.00     0.010 A 
ATOM     37  C   UNL A   1      38.327  29.330  28.862  1.00  0.00    -0.014 A 
BRANCH  37  38
ATOM     38  C   UNL A   1      39.750  28.998  29.131  1.00  0.00     0.031 A 
ATOM     39  C   UNL A   1      40.673  30.001  29.771  1.00  0.00     0.074 A 
ATOM     40  C   UNL A   1      40.221  27.790  28.762  1.00  0.00     0.049 A 
ATOM     41  N   UNL A   1      41.929  29.858  30.114  1.00  0.00    -0.248 NA
ATOM     42  C   UNL A   1      40.127  31.339  30.042  1.00  0.00     0.031 C 
ATOM     43  C   UNL A   1      39.443  26.755  28.075  1.00  0.00     0.029 A 
ATOM     44  N   UNL A   1      41.460  27.222  28.919  1.00  0.00    -0.354 N 
ATOM     45  C   UNL A   1      42.325  31.087  30.630  1.00  0.00     0.074 A 
ATOM     46  C   UNL A   1      41.192  31.977  30.507  1.00  0.00     0.031 C 
ATOM     47  C   UNL A   1      40.209  25.666  27.910  1.00  0.00     0.029 A 
ATOM     48  C   UNL A   1      41.540  25.935  28.442  1.00  0.00     0.049 A 
ATOM     49  H   UNL A   1      42.219  27.693  29.333  1.00  0.00     0.167 HD
ATOM     50  C   UNL A   1      43.516  31.437  31.174  1.00  0.00     0.031 A 
ATOM     51  C   UNL A   1      42.566  25.063  28.439  1.00  0.00     0.031 A 
ATOM     52  C   UNL A   1      44.643  30.546  31.291  1.00  0.00     0.049 A 
ATOM     53  C   UNL A   1      43.873  25.469  29.061  1.00  0.00     0.074 A 
ATOM     54  C   UNL A   1      45.873  30.787  31.882  1.00  0.00     0.029 A 
ATOM     55  N   UNL A   1      44.684  29.249  30.803  1.00  0.00    -0.354 N 
ATOM     56  N   UNL A   1      44.199  26.609  29.622  1.00  0.00    -0.248 NA
ATOM     57  C   UNL A   1      44.940  24.461  29.070  1.00  0.00     0.031 C 
ATOM     58  C   UNL A   1      46.676  29.656  31.698  1.00  0.00     0.029 A 
ATOM     59  C   UNL A   1      45.926  28.686  31.054  1.00  0.00     0.049 A 
ATOM     60  H   UNL A   1      43.940  28.794  30.346  1.00  0.00     0.167 HD
ATOM     61  C   UNL A   1      45.506  26.449  30.070  1.00  0.00     0.074 A 
ATOM     62  C   UNL A   1      45.896  25.092  29.738  1.00  0.00     0.031 C 
ATOM     63  C   UNL A   1      46.310  27.342  30.699  1.00  0.00     0.031 A 
BRANCH  50  64
ATOM     64  C   UNL A   1      43.666  32.852  31.674  1.00  0.00    -0.014 A 
ATOM     65  C   UNL A   1      43.330  33.198  32.995  1.00  0.00     0.010 A 
ATOM     66  C   UNL A   1      44.192  33.843  30.824  1.00  0.00     0.010 A 
ATOM     67  C   UNL A   1      43.473  34.515  33.444  1.00  0.00     0.020 A 
ATOM     68  C   UNL A   1      44.366  35.155  31.277  1.00  0.00     0.020 A 
ATOM     69  C   UNL A   1      43.988  35.485  32.579  1.00  0.00     0.054 A 
BRANCH  69  70
ATOM     70  S   UNL A   1      44.182  37.181  33.193  1.00  0.00     0.124 S 
ATOM     71  O   UNL A   1      43.108  37.270  34.179  1.00  0.00    -0.237 OA
ATOM     72  O   UNL A   1      45.537  37.170  33.741  1.00  0.00    -0.237 OA
ATOM     73  O   UNL A   1      44.002  38.006  32.000  1.00  0.00    -0.744 OA
ENDBRANCH  69  70
ENDBRANCH  50  64
BRANCH  51  74
ATOM     74  C   UNL A   1      42.384  23.709  27.845  1.00  0.00    -0.014 A 
ATOM     75  C   UNL A   1      42.759  23.454  26.515  1.00  0.00     0.010 A 
ATOM     76  C   UNL A   1      41.858  22.661  28.621  1.00  0.00     0.010 A 
ATOM     77  C   UNL A   1      42.594  22.178  25.965  1.00  0.00     0.020 A 
ATOM     78  C   UNL A   1      41.719  21.378  28.085  1.00  0.00     0.020 A 
ATOM     79  C   UNL A   1      42.079  21.147  26.756  1.00  0.00     0.054 A 
BRANCH  79  80
ATOM     80  S   UNL A   1      41.931  19.486  26.042  1.00  0.00     0.124 S 
ATOM     81  O   UNL A   1      42.761  19.594  24.847  1.00  0.00    -0.237 OA
ATOM     82  O   UNL A   1      42.459  18.638  27.106  1.00  0.00    -0.237 OA
ATOM     83  O   UNL A   1      40.497  19.345  25.798  1.00  0.00    -0.744 OA
ENDBRANCH  79  80
ENDBRANCH  51  74
BRANCH  63  84
ATOM     84  C   UNL A   1      47.686  26.867  31.089  1.00  0.00    -0.014 A 
ATOM     85  C   UNL A   1      48.794  27.055  30.242  1.00  0.00     0.010 A 
ATOM     86  C   UNL A   1      47.873  26.222  32.326  1.00  0.00     0.010 A 
ATOM     87  C   UNL A   1      50.049  26.552  30.598  1.00  0.00     0.020 A 
ATOM     88  C   UNL A   1      49.134  25.749  32.700  1.00  0.00     0.020 A 
ATOM     89  C   UNL A   1      50.208  25.895  31.821  1.00  0.00     0.054 A 
BRANCH  89  90
ATOM     90  S   UNL A   1      51.844  25.245  32.258  1.00  0.00     0.124 S 
ATOM     91  O   UNL A   1      52.080  25.868  33.557  1.00  0.00    -0.237 OA
ATOM     92  O   UNL A   1      51.621  23.803  32.282  1.00  0.00    -0.237 OA
ATOM     93  O   UNL A   1      52.704  25.718  31.176  1.00  0.00    -0.744 OA
ENDBRANCH  89  90
ENDBRANCH  63  84
ENDBRANCH  37  38
ENDBRANCH  29  32
ENDBRANCH  27  28
ENDBRANCH   1  27
TORSDOF 16
ENDMDL
MODEL 2
REMARK VINA RESULT:     -10.7      4.411     10.041
REMARK SMILES CC(C)[NH2+][C@]1(C(=O)NCCCNC(=O)c2ccc(-c3c4nc(c(-c5ccc(S(=O)(=O)[O-])cc5)c5ccc([nH]5)c(-c5ccc(S(=O)(=O)[O-])cc5)c5nc(c(-c6ccc(S(=O)(=O)[O-])cc6)c6ccc3[nH]6)C=C5)C=C4)cc2)CC[C@H]([NH+]2CCC(C)(C)CC2)C1
REMARK SMILES IDX 10 1 9 2 8 3 6 4 7 5 5 7 75 8 86 9 76 10 77 11 4 12 2 15
REMARK SMILES IDX 1 16 3 17 78 18 79 19 85 20 80 22 84 23 81 24 82 25 83 26
REMARK SMILES IDX 11 27 12 28 13 29 14 31 15 32 16 33 74 34 17 35 73 36 18 37
REMARK SMILES IDX 19 38 20 39 67 40 21 41 72 42 66 43 68 44 22 45 71 46 65 47
REMARK SMILES IDX 64 48 23 50 53 51 34 52 52 53 35 54 38 55 51 56 69 57 36 58
REMARK SMILES IDX 37 59 50 61 70 62 39 63 24 64 25 65 33 66 26 67 32 68 27 69
REMARK SMILES IDX 28 70 29 71 30 72 31 73 54 74 55 75 63 76 56 77 62 78 57 79
REMARK SMILES IDX 58 80 59 81 60 82 61 83 40 84 41 85 49 86 42 87 48 88 43 89
REMARK SMILES IDX 44 90 45 91 46 92 47 93
REMARK H PARENT 8 6 4 13 4 14 78 21 12 30 68 49 38 60
REMARK Flexibility Score: inf
ROOT
ATOM      1  C   UNL A   1      37.363  23.071  25.730  1.00  0.00     0.042 C 
ENDROOT
BRANCH   1   2
ATOM      2  C   UNL A   1      35.858  23.312  25.797  1.00  0.00     0.118 C 
BRANCH   2   3
ATOM      3  N   UNL A   1      35.449  24.476  25.020  1.00  0.00    -0.351 N 
ATOM      4  C   UNL A   1      34.273  24.721  24.353  1.00  0.00     0.281 C 
ATOM      5  O   UNL A   1      34.124  25.833  23.842  1.00  0.00    -0.268 OA
ATOM      6  H   UNL A   1      36.116  25.197  24.966  1.00  0.00     0.163 HD
BRANCH   4   7
ATOM      7  C   UNL A   1      33.144  23.630  24.336  1.00  0.00     0.181 C 
ATOM      8  C   UNL A   1      32.223  23.788  23.113  1.00  0.00     0.085 C 
ATOM      9  C   UNL A   1      33.836  22.290  23.971  1.00  0.00     0.144 C 
ATOM     10  C   UNL A   1      31.704  22.378  22.800  1.00  0.00     0.072 C 
ATOM     11  C   UNL A   1      32.842  21.405  23.192  1.00  0.00     0.191 C 
BRANCH   7  12
ATOM     12  N   UNL A   1      32.479  23.766  25.659  1.00  0.00    -0.331 N 
ATOM     13  H   UNL A   1      32.405  22.820  26.032  1.00  0.00     0.347 HD
ATOM     14  H   UNL A   1      33.079  24.455  26.113  1.00  0.00     0.347 HD
BRANCH  12  15
ATOM     15  C   UNL A   1      31.167  24.370  25.844  1.00  0.00     0.176 C 
ATOM     16  C   UNL A   1      30.420  23.500  26.865  1.00  0.00     0.075 C 
ATOM     17  C   UNL A   1      31.224  25.804  26.366  1.00  0.00     0.075 C 
ENDBRANCH  12  15
ENDBRANCH   7  12
BRANCH  11  18
ATOM     18  N   UNL A   1      32.507  20.087  23.787  1.00  0.00    -0.332 N 
ATOM     19  C   UNL A   1      33.127  19.854  25.095  1.00  0.00     0.263 C 
ATOM     20  C   UNL A   1      32.537  18.959  22.859  1.00  0.00     0.263 C 
ATOM     21  H   UNL A   1      31.512  20.151  24.001  1.00  0.00     0.348 HD
ATOM     22  C   UNL A   1      32.902  18.446  25.670  1.00  0.00     0.068 C 
ATOM     23  C   UNL A   1      32.371  17.563  23.444  1.00  0.00     0.068 C 
ATOM     24  C   UNL A   1      33.264  17.334  24.666  1.00  0.00    -0.025 C 
ATOM     25  C   UNL A   1      32.951  15.947  25.246  1.00  0.00     0.011 C 
ATOM     26  C   UNL A   1      34.762  17.368  24.302  1.00  0.00     0.011 C 
ENDBRANCH  11  18
ENDBRANCH   4   7
ENDBRANCH   2   3
ENDBRANCH   1   2
BRANCH   1  27
ATOM     27  C   UNL A   1      38.187  24.135  26.446  1.00  0.00     0.118 C 
BRANCH  27  28
ATOM     28  N   UNL A   1      39.606  24.053  26.124  1.00  0.00    -0.352 N 
ATOM     29  C   UNL A   1      40.655  24.839  26.520  1.00  0.00     0.251 C 
ATOM     30  H   UNL A   1      39.850  23.310  25.526  1.00  0.00     0.163 HD
ATOM     31  O   UNL A   1      41.753  24.683  25.980  1.00  0.00    -0.269 OA
BRANCH  29  32
ATOM     32  C   UNL A   1      40.487  25.877  27.560  1.00  0.00     0.039 A 
ATOM     33  C   UNL A   1      39.521  25.676  28.551  1.00  0.00     0.014 A 
ATOM     34  C   UNL A   1      41.241  27.053  27.554  1.00  0.00     0.014 A 
ATOM     35  C   UNL A   1      39.357  26.623  29.564  1.00  0.00     0.010 A 
ATOM     36  C   UNL A   1      41.134  27.958  28.610  1.00  0.00     0.010 A 
ATOM     37  C   UNL A   1      40.189  27.754  29.626  1.00  0.00    -0.014 A 
BRANCH  37  38
ATOM     38  C   UNL A   1      40.095  28.695  30.772  1.00  0.00     0.031 A 
ATOM     39  C   UNL A   1      40.975  28.534  31.983  1.00  0.00     0.074 A 
ATOM     40  C   UNL A   1      39.182  29.686  30.731  1.00  0.00     0.049 A 
ATOM     41  N   UNL A   1      41.050  29.291  33.050  1.00  0.00    -0.248 NA
ATOM     42  C   UNL A   1      41.867  27.364  32.014  1.00  0.00     0.031 C 
ATOM     43  C   UNL A   1      38.226  29.909  29.643  1.00  0.00     0.029 A 
ATOM     44  N   UNL A   1      38.910  30.695  31.620  1.00  0.00    -0.354 N 
ATOM     45  C   UNL A   1      41.988  28.686  33.880  1.00  0.00     0.074 A 
ATOM     46  C   UNL A   1      42.414  27.473  33.217  1.00  0.00     0.031 C 
ATOM     47  C   UNL A   1      37.507  31.010  29.907  1.00  0.00     0.029 A 
ATOM     48  C   UNL A   1      37.920  31.549  31.198  1.00  0.00     0.049 A 
ATOM     49  H   UNL A   1      39.381  30.797  32.479  1.00  0.00     0.167 HD
ATOM     50  C   UNL A   1      42.464  29.111  35.075  1.00  0.00     0.031 A 
ATOM     51  C   UNL A   1      37.403  32.649  31.779  1.00  0.00     0.031 A 
ATOM     52  C   UNL A   1      42.033  30.319  35.733  1.00  0.00     0.049 A 
ATOM     53  C   UNL A   1      37.958  33.109  33.097  1.00  0.00     0.074 A 
ATOM     54  C   UNL A   1      42.500  30.868  36.916  1.00  0.00     0.029 A 
ATOM     55  N   UNL A   1      41.033  31.161  35.271  1.00  0.00    -0.354 N 
ATOM     56  N   UNL A   1      38.906  32.569  33.825  1.00  0.00    -0.248 NA
ATOM     57  C   UNL A   1      37.388  34.339  33.660  1.00  0.00     0.031 C 
ATOM     58  C   UNL A   1      41.741  32.008  37.199  1.00  0.00     0.029 A 
ATOM     59  C   UNL A   1      40.848  32.209  36.159  1.00  0.00     0.049 A 
ATOM     60  H   UNL A   1      40.529  31.033  34.435  1.00  0.00     0.167 HD
ATOM     61  C   UNL A   1      39.061  33.407  34.925  1.00  0.00     0.074 A 
ATOM     62  C   UNL A   1      38.128  34.502  34.748  1.00  0.00     0.031 C 
ATOM     63  C   UNL A   1      39.900  33.282  35.983  1.00  0.00     0.031 A 
BRANCH  50  64
ATOM     64  C   UNL A   1      43.500  28.253  35.759  1.00  0.00    -0.014 A 
ATOM     65  C   UNL A   1      43.140  27.332  36.759  1.00  0.00     0.010 A 
ATOM     66  C   UNL A   1      44.849  28.338  35.366  1.00  0.00     0.010 A 
ATOM     67  C   UNL A   1      44.112  26.545  37.385  1.00  0.00     0.020 A 
ATOM     68  C   UNL A   1      45.820  27.532  35.967  1.00  0.00     0.020 A 
ATOM     69  C   UNL A   1      45.447  26.652  36.985  1.00  0.00     0.054 A 
BRANCH  69  70
ATOM     70  S   UNL A   1      46.684  25.605  37.800  1.00  0.00     0.124 S 
ATOM     71  O   UNL A   1      46.626  26.085  39.178  1.00  0.00    -0.237 OA
ATOM     72  O   UNL A   1      46.159  24.260  37.581  1.00  0.00    -0.237 OA
ATOM     73  O   UNL A   1      47.923  25.911  37.086  1.00  0.00    -0.744 OA
ENDBRANCH  69  70
ENDBRANCH  50  64
BRANCH  51  74
ATOM     74  C   UNL A   1      36.314  33.403  31.097  1.00  0.00    -0.014 A 
ATOM     75  C   UNL A   1      35.111  33.688  31.767  1.00  0.00     0.010 A 
ATOM     76  C   UNL A   1      36.488  33.861  29.778  1.00  0.00     0.010 A 
ATOM     77  C   UNL A   1      34.096  34.403  31.125  1.00  0.00     0.020 A 
ATOM     78  C   UNL A   1      35.487  34.602  29.145  1.00  0.00     0.020 A 
ATOM     79  C   UNL A   1      34.292  34.860  29.819  1.00  0.00     0.054 A 
BRANCH  79  80
ATOM     80  S   UNL A   1      32.986  35.839  29.027  1.00  0.00     0.124 S 
ATOM     81  O   UNL A   1      32.338  34.847  28.174  1.00  0.00    -0.237 OA
ATOM     82  O   UNL A   1      32.202  36.301  30.170  1.00  0.00    -0.237 OA
ATOM     83  O   UNL A   1      33.723  36.886  28.323  1.00  0.00    -0.744 OA
ENDBRANCH  79  80
ENDBRANCH  51  74
BRANCH  63  84
ATOM     84  C   UNL A   1      39.859  34.374  37.021  1.00  0.00    -0.014 A 
ATOM     85  C   UNL A   1      39.083  34.248  38.188  1.00  0.00     0.010 A 
ATOM     86  C   UNL A   1      40.611  35.547  36.824  1.00  0.00     0.010 A 
ATOM     87  C   UNL A   1      39.012  35.299  39.107  1.00  0.00     0.020 A 
ATOM     88  C   UNL A   1      40.570  36.586  37.758  1.00  0.00     0.020 A 
ATOM     89  C   UNL A   1      39.750  36.464  38.881  1.00  0.00     0.054 A 
BRANCH  89  90
ATOM     90  S   UNL A   1      39.636  37.817  40.084  1.00  0.00     0.124 S 
ATOM     91  O   UNL A   1      40.959  38.427  39.979  1.00  0.00    -0.237 OA
ATOM     92  O   UNL A   1      38.532  38.618  39.565  1.00  0.00    -0.237 OA
ATOM     93  O   UNL A   1      39.364  37.135  41.347  1.00  0.00    -0.744 OA
ENDBRANCH  89  90
ENDBRANCH  63  84
ENDBRANCH  37  38
ENDBRANCH  29  32
ENDBRANCH  27  28
ENDBRANCH   1  27
TORSDOF 16
ENDMDL
MODEL 3
REMARK VINA RESULT:     -10.7      2.705      3.324
REMARK SMILES CC(C)[NH2+][C@]1(C(=O)NCCCNC(=O)c2ccc(-c3c4nc(c(-c5ccc(S(=O)(=O)[O-])cc5)c5ccc([nH]5)c(-c5ccc(S(=O)(=O)[O-])cc5)c5nc(c(-c6ccc(S(=O)(=O)[O-])cc6)c6ccc3[nH]6)C=C5)C=C4)cc2)CC[C@H]([NH+]2CCC(C)(C)CC2)C1
REMARK SMILES IDX 10 1 9 2 8 3 6 4 7 5 5 7 75 8 86 9 76 10 77 11 4 12 2 15
REMARK SMILES IDX 1 16 3 17 78 18 79 19 85 20 80 22 84 23 81 24 82 25 83 26
REMARK SMILES IDX 11 27 12 28 13 29 14 31 15 32 16 33 74 34 17 35 73 36 18 37
REMARK SMILES IDX 19 38 20 39 67 40 21 41 72 42 66 43 68 44 22 45 71 46 65 47
REMARK SMILES IDX 64 48 23 50 53 51 34 52 52 53 35 54 38 55 51 56 69 57 36 58
REMARK SMILES IDX 37 59 50 61 70 62 39 63 24 64 25 65 33 66 26 67 32 68 27 69
REMARK SMILES IDX 28 70 29 71 30 72 31 73 54 74 55 75 63 76 56 77 62 78 57 79
REMARK SMILES IDX 58 80 59 81 60 82 61 83 40 84 41 85 49 86 42 87 48 88 43 89
REMARK SMILES IDX 44 90 45 91 46 92 47 93
REMARK H PARENT 8 6 4 13 4 14 78 21 12 30 68 49 38 60
REMARK Flexibility Score: inf
ROOT
ATOM      1  C   UNL A   1      33.287  28.119  26.690  1.00  0.00     0.042 C 
ENDROOT
BRANCH   1   2
ATOM      2  C   UNL A   1      33.601  26.745  26.105  1.00  0.00     0.118 C 
BRANCH   2   3
ATOM      3  N   UNL A   1      33.252  26.653  24.692  1.00  0.00    -0.351 N 
ATOM      4  C   UNL A   1      33.193  25.554  23.869  1.00  0.00     0.281 C 
ATOM      5  O   UNL A   1      32.774  25.719  22.721  1.00  0.00    -0.268 OA
ATOM      6  H   UNL A   1      33.023  27.508  24.261  1.00  0.00     0.163 HD
BRANCH   4   7
ATOM      7  C   UNL A   1      33.570  24.138  24.431  1.00  0.00     0.181 C 
ATOM      8  C   UNL A   1      32.837  23.839  25.751  1.00  0.00     0.085 C 
ATOM      9  C   UNL A   1      32.878  23.101  23.507  1.00  0.00     0.144 C 
ATOM     10  C   UNL A   1      32.678  22.314  25.802  1.00  0.00     0.072 C 
ATOM     11  C   UNL A   1      32.518  21.850  24.334  1.00  0.00     0.191 C 
BRANCH   7  12
ATOM     12  N   UNL A   1      35.055  24.157  24.515  1.00  0.00    -0.331 N 
ATOM     13  H   UNL A   1      35.371  24.727  23.729  1.00  0.00     0.347 HD
ATOM     14  H   UNL A   1      35.195  24.476  25.474  1.00  0.00     0.347 HD
BRANCH  12  15
ATOM     15  C   UNL A   1      35.879  22.958  24.492  1.00  0.00     0.176 C 
ATOM     16  C   UNL A   1      36.620  22.956  23.147  1.00  0.00     0.075 C 
ATOM     17  C   UNL A   1      36.907  22.902  25.621  1.00  0.00     0.075 C 
ENDBRANCH  12  15
ENDBRANCH   7  12
BRANCH  11  18
ATOM     18  N   UNL A   1      33.119  20.563  23.903  1.00  0.00    -0.332 N 
ATOM     19  C   UNL A   1      32.161  19.643  23.282  1.00  0.00     0.263 C 
ATOM     20  C   UNL A   1      34.054  19.962  24.851  1.00  0.00     0.263 C 
ATOM     21  H   UNL A   1      33.740  20.817  23.135  1.00  0.00     0.348 HD
ATOM     22  C   UNL A   1      32.729  18.254  22.947  1.00  0.00     0.068 C 
ATOM     23  C   UNL A   1      34.568  18.563  24.541  1.00  0.00     0.068 C 
ATOM     24  C   UNL A   1      33.442  17.603  24.148  1.00  0.00    -0.025 C 
ATOM     25  C   UNL A   1      34.065  16.256  23.754  1.00  0.00     0.011 C 
ATOM     26  C   UNL A   1      32.465  17.351  25.315  1.00  0.00     0.011 C 
ENDBRANCH  11  18
ENDBRANCH   4   7
ENDBRANCH   2   3
ENDBRANCH   1   2
BRANCH   1  27
ATOM     27  C   UNL A   1      33.973  29.269  25.960  1.00  0.00     0.118 C 
BRANCH  27  28
ATOM     28  N   UNL A   1      33.678  30.565  26.556  1.00  0.00    -0.352 N 
ATOM     29  C   UNL A   1      34.269  31.216  27.606  1.00  0.00     0.251 C 
ATOM     30  H   UNL A   1      32.932  31.052  26.136  1.00  0.00     0.163 HD
ATOM     31  O   UNL A   1      33.736  32.236  28.050  1.00  0.00    -0.269 OA
BRANCH  29  32
ATOM     32  C   UNL A   1      35.513  30.707  28.223  1.00  0.00     0.039 A 
ATOM     33  C   UNL A   1      36.732  31.253  27.808  1.00  0.00     0.014 A 
ATOM     34  C   UNL A   1      35.498  29.686  29.175  1.00  0.00     0.014 A 
ATOM     35  C   UNL A   1      37.922  30.816  28.392  1.00  0.00     0.010 A 
ATOM     36  C   UNL A   1      36.678  29.308  29.815  1.00  0.00     0.010 A 
ATOM     37  C   UNL A   1      37.904  29.868  29.430  1.00  0.00    -0.014 A 
BRANCH  37  38
ATOM     38  C   UNL A   1      39.160  29.496  30.133  1.00  0.00     0.031 A 
ATOM     39  C   UNL A   1      39.580  30.200  31.395  1.00  0.00     0.074 A 
ATOM     40  C   UNL A   1      39.944  28.535  29.605  1.00  0.00     0.049 A 
ATOM     41  N   UNL A   1      40.622  29.970  32.155  1.00  0.00    -0.248 NA
ATOM     42  C   UNL A   1      38.740  31.317  31.853  1.00  0.00     0.031 C 
ATOM     43  C   UNL A   1      39.680  27.823  28.351  1.00  0.00     0.029 A 
ATOM     44  N   UNL A   1      41.117  27.984  30.056  1.00  0.00    -0.354 N 
ATOM     45  C   UNL A   1      40.568  30.917  33.172  1.00  0.00     0.074 A 
ATOM     46  C   UNL A   1      39.420  31.756  32.902  1.00  0.00     0.031 C 
ATOM     47  C   UNL A   1      40.635  26.901  28.159  1.00  0.00     0.029 A 
ATOM     48  C   UNL A   1      41.600  26.981  29.250  1.00  0.00     0.049 A 
ATOM     49  H   UNL A   1      41.569  28.280  30.880  1.00  0.00     0.167 HD
ATOM     50  C   UNL A   1      41.386  31.063  34.242  1.00  0.00     0.031 A 
ATOM     51  C   UNL A   1      42.694  26.205  29.375  1.00  0.00     0.031 A 
ATOM     52  C   UNL A   1      42.530  30.226  34.504  1.00  0.00     0.049 A 
ATOM     53  C   UNL A   1      43.578  26.375  30.579  1.00  0.00     0.074 A 
ATOM     54  C   UNL A   1      43.385  30.254  35.593  1.00  0.00     0.029 A 
ATOM     55  N   UNL A   1      42.983  29.217  33.668  1.00  0.00    -0.354 N 
ATOM     56  N   UNL A   1      43.460  27.221  31.574  1.00  0.00    -0.248 NA
ATOM     57  C   UNL A   1      44.729  25.471  30.684  1.00  0.00     0.031 C 
ATOM     58  C   UNL A   1      44.389  29.303  35.386  1.00  0.00     0.029 A 
ATOM     59  C   UNL A   1      44.122  28.635  34.202  1.00  0.00     0.049 A 
ATOM     60  H   UNL A   1      42.559  28.953  32.820  1.00  0.00     0.167 HD
ATOM     61  C   UNL A   1      44.512  26.936  32.438  1.00  0.00     0.074 A 
ATOM     62  C   UNL A   1      45.236  25.822  31.858  1.00  0.00     0.031 C 
ATOM     63  C   UNL A   1      44.847  27.541  33.605  1.00  0.00     0.031 A 
BRANCH  50  64
ATOM     64  C   UNL A   1      41.080  32.182  35.207  1.00  0.00    -0.014 A 
ATOM     65  C   UNL A   1      40.263  31.971  36.333  1.00  0.00     0.010 A 
ATOM     66  C   UNL A   1      41.652  33.452  35.010  1.00  0.00     0.010 A 
ATOM     67  C   UNL A   1      39.987  33.018  37.218  1.00  0.00     0.020 A 
ATOM     68  C   UNL A   1      41.404  34.495  35.909  1.00  0.00     0.020 A 
ATOM     69  C   UNL A   1      40.558  34.275  36.997  1.00  0.00     0.054 A 
BRANCH  69  70
ATOM     70  S   UNL A   1      40.200  35.610  38.172  1.00  0.00     0.124 S 
ATOM     71  O   UNL A   1      39.976  36.745  37.280  1.00  0.00    -0.237 OA
ATOM     72  O   UNL A   1      39.015  35.114  38.868  1.00  0.00    -0.237 OA
ATOM     73  O   UNL A   1      41.410  35.689  38.988  1.00  0.00    -0.744 OA
ENDBRANCH  69  70
ENDBRANCH  50  64
BRANCH  51  74
ATOM     74  C   UNL A   1      42.995  25.179  28.338  1.00  0.00    -0.014 A 
ATOM     75  C   UNL A   1      43.731  25.514  27.189  1.00  0.00     0.010 A 
ATOM     76  C   UNL A   1      42.565  23.850  28.512  1.00  0.00     0.010 A 
ATOM     77  C   UNL A   1      44.018  24.544  26.224  1.00  0.00     0.020 A 
ATOM     78  C   UNL A   1      42.875  22.872  27.564  1.00  0.00     0.020 A 
ATOM     79  C   UNL A   1      43.592  23.227  26.419  1.00  0.00     0.054 A 
BRANCH  79  80
ATOM     80  S   UNL A   1      44.027  21.972  25.184  1.00  0.00     0.124 S 
ATOM     81  O   UNL A   1      43.940  22.729  23.939  1.00  0.00    -0.237 OA
ATOM     82  O   UNL A   1      45.373  21.580  25.595  1.00  0.00    -0.237 OA
ATOM     83  O   UNL A   1      43.005  20.944  25.366  1.00  0.00    -0.744 OA
ENDBRANCH  79  80
ENDBRANCH  51  74
BRANCH  63  84
ATOM     84  C   UNL A   1      46.041  26.989  34.342  1.00  0.00    -0.014 A 
ATOM     85  C   UNL A   1      47.337  27.491  34.118  1.00  0.00     0.010 A 
ATOM     86  C   UNL A   1      45.862  25.952  35.276  1.00  0.00     0.010 A 
ATOM     87  C   UNL A   1      48.436  26.922  34.768  1.00  0.00     0.020 A 
ATOM     88  C   UNL A   1      46.955  25.406  35.954  1.00  0.00     0.020 A 
ATOM     89  C   UNL A   1      48.238  25.878  35.675  1.00  0.00     0.054 A 
BRANCH  89  90
ATOM     90  S   UNL A   1      49.681  25.153  36.501  1.00  0.00     0.124 S 
ATOM     91  O   UNL A   1      50.544  26.317  36.681  1.00  0.00    -0.237 OA
ATOM     92  O   UNL A   1      49.108  24.599  37.724  1.00  0.00    -0.237 OA
ATOM     93  O   UNL A   1      50.166  24.162  35.544  1.00  0.00    -0.744 OA
ENDBRANCH  89  90
ENDBRANCH  63  84
ENDBRANCH  37  38
ENDBRANCH  29  32
ENDBRANCH  27  28
ENDBRANCH   1  27
TORSDOF 16
ENDMDL
