MODEL 1
REMARK VINA RESULT:      -8.6      0.000      0.000
REMARK SMILES C[C@H]([NH2+][C@@H](C)[C@@H](C)C(=O)NCCCNC(=O)c1ccc(-c2c3nc(c(-c4ccc(S(=O)(=O)[O-])cc4)c4ccc([nH]4)c(-c4ccc(S(=O)(=O)[O-])cc4)c4nc(c(-c5ccc(S(=O)(=O)[O-])cc5)c5ccc2[nH]5)C=C4)C=C3)cc1)c1cccc(Br)c1
REMARK SMILES IDX 11 1 10 2 8 3 9 4 6 6 7 7 4 8 5 9 3 10 2 13 1 14 77 15 78 16
REMARK SMILES IDX 83 17 79 18 81 19 80 20 82 21 12 22 13 23 14 24 15 25 16 27
REMARK SMILES IDX 17 28 18 29 76 30 19 31 75 32 20 33 21 34 22 35 69 36 23 37
REMARK SMILES IDX 74 38 68 39 70 40 24 41 73 42 67 43 66 44 25 46 55 47 36 48
REMARK SMILES IDX 54 49 37 50 40 51 53 52 71 53 38 54 39 55 52 57 72 58 41 59
REMARK SMILES IDX 26 60 27 61 35 62 28 63 34 64 29 65 30 66 31 67 32 68 33 69
REMARK SMILES IDX 56 70 57 71 65 72 58 73 64 74 59 75 60 76 61 77 62 78 63 79
REMARK SMILES IDX 42 80 43 81 51 82 44 83 50 84 45 85 46 86 47 87 48 88 49 89
REMARK H PARENT 10 5 3 11 3 12 14 26 70 45 40 56
REMARK Flexibility Score: inf
ROOT
ATOM      1  C   UNL A   1      42.917  22.683  28.148  1.00  0.00     0.117 C 
ENDROOT
BRANCH   1   2
ATOM      2  N   UNL A   1      44.116  22.221  27.469  1.00  0.00    -0.356 N 
ATOM      3  C   UNL A   1      44.985  22.877  26.653  1.00  0.00     0.228 C 
ATOM      4  O   UNL A   1      45.904  22.227  26.149  1.00  0.00    -0.275 OA
ATOM      5  H   UNL A   1      44.337  21.275  27.625  1.00  0.00     0.163 HD
BRANCH   3   6
ATOM      6  C   UNL A   1      44.871  24.379  26.407  1.00  0.00     0.133 C 
ATOM      7  C   UNL A   1      44.060  24.573  25.128  1.00  0.00     0.024 C 
BRANCH   6   8
ATOM      8  C   UNL A   1      46.244  25.094  26.532  1.00  0.00     0.192 C 
ATOM      9  C   UNL A   1      46.553  25.310  28.029  1.00  0.00     0.076 C 
BRANCH   8  10
ATOM     10  N   UNL A   1      46.351  26.419  25.930  1.00  0.00    -0.337 N 
ATOM     11  H   UNL A   1      47.153  26.382  25.301  1.00  0.00     0.347 HD
ATOM     12  H   UNL A   1      45.417  26.551  25.540  1.00  0.00     0.347 HD
BRANCH  10  13
ATOM     13  C   UNL A   1      46.519  27.635  26.739  1.00  0.00     0.210 C 
ATOM     14  C   UNL A   1      47.836  28.372  26.422  1.00  0.00     0.081 C 
BRANCH  13  15
ATOM     15  C   UNL A   1      45.288  28.546  26.767  1.00  0.00     0.010 A 
ATOM     16  C   UNL A   1      44.053  28.111  26.253  1.00  0.00     0.010 A 
ATOM     17  C   UNL A   1      45.317  29.821  27.361  1.00  0.00     0.025 A 
ATOM     18  C   UNL A   1      42.950  28.967  26.171  1.00  0.00     0.002 A 
ATOM     19  C   UNL A   1      44.199  30.660  27.319  1.00  0.00     0.018 A 
ATOM     20  C   UNL A   1      43.027  30.253  26.691  1.00  0.00     0.016 A 
ATOM     21  Br  UNL A   1      44.278  32.371  28.120  1.00  0.00    -0.051 Br
ENDBRANCH  13  15
ENDBRANCH  10  13
ENDBRANCH   8  10
ENDBRANCH   6   8
ENDBRANCH   3   6
ENDBRANCH   1   2
BRANCH   1  22
ATOM     22  C   UNL A   1      41.678  21.959  27.637  1.00  0.00     0.042 C 
BRANCH  22  23
ATOM     23  C   UNL A   1      41.438  22.171  26.150  1.00  0.00     0.118 C 
BRANCH  23  24
ATOM     24  N   UNL A   1      40.023  22.110  25.809  1.00  0.00    -0.352 N 
ATOM     25  C   UNL A   1      38.999  22.950  26.172  1.00  0.00     0.251 C 
ATOM     26  H   UNL A   1      39.763  21.356  25.231  1.00  0.00     0.163 HD
ATOM     27  O   UNL A   1      37.838  22.616  25.977  1.00  0.00    -0.269 OA
BRANCH  25  28
ATOM     28  C   UNL A   1      39.313  24.244  26.811  1.00  0.00     0.039 A 
ATOM     29  C   UNL A   1      38.915  24.465  28.131  1.00  0.00     0.014 A 
ATOM     30  C   UNL A   1      40.006  25.233  26.108  1.00  0.00     0.014 A 
ATOM     31  C   UNL A   1      39.272  25.656  28.764  1.00  0.00     0.010 A 
ATOM     32  C   UNL A   1      40.446  26.371  26.770  1.00  0.00     0.010 A 
ATOM     33  C   UNL A   1      40.073  26.601  28.100  1.00  0.00    -0.014 A 
BRANCH  33  34
ATOM     34  C   UNL A   1      40.523  27.844  28.774  1.00  0.00     0.031 A 
ATOM     35  C   UNL A   1      41.907  27.922  29.360  1.00  0.00     0.074 A 
ATOM     36  C   UNL A   1      39.667  28.876  28.910  1.00  0.00     0.049 A 
ATOM     37  N   UNL A   1      42.462  28.895  30.035  1.00  0.00    -0.248 NA
ATOM     38  C   UNL A   1      42.773  26.742  29.188  1.00  0.00     0.031 C 
ATOM     39  C   UNL A   1      38.288  28.905  28.416  1.00  0.00     0.029 A 
ATOM     40  N   UNL A   1      39.831  30.103  29.503  1.00  0.00    -0.354 N 
ATOM     41  C   UNL A   1      43.731  28.442  30.378  1.00  0.00     0.074 A 
ATOM     42  C   UNL A   1      43.842  27.085  29.892  1.00  0.00     0.031 C 
ATOM     43  C   UNL A   1      37.747  30.103  28.690  1.00  0.00     0.029 A 
ATOM     44  C   UNL A   1      38.720  30.909  29.420  1.00  0.00     0.049 A 
ATOM     45  H   UNL A   1      40.665  30.379  29.946  1.00  0.00     0.167 HD
ATOM     46  C   UNL A   1      44.723  29.104  31.017  1.00  0.00     0.031 A 
ATOM     47  C   UNL A   1      38.507  32.156  29.883  1.00  0.00     0.031 A 
ATOM     48  C   UNL A   1      44.610  30.456  31.489  1.00  0.00     0.049 A 
ATOM     49  C   UNL A   1      39.617  32.860  30.616  1.00  0.00     0.074 A 
ATOM     50  C   UNL A   1      45.572  31.234  32.109  1.00  0.00     0.029 A 
ATOM     51  N   UNL A   1      43.466  31.235  31.393  1.00  0.00    -0.354 N 
ATOM     52  N   UNL A   1      40.829  32.433  30.883  1.00  0.00    -0.248 NA
ATOM     53  C   UNL A   1      39.334  34.218  31.097  1.00  0.00     0.031 C 
ATOM     54  C   UNL A   1      44.992  32.462  32.441  1.00  0.00     0.029 A 
ATOM     55  C   UNL A   1      43.690  32.476  31.965  1.00  0.00     0.049 A 
ATOM     56  H   UNL A   1      42.620  30.948  30.980  1.00  0.00     0.167 HD
ATOM     57  C   UNL A   1      41.463  33.483  31.538  1.00  0.00     0.074 A 
ATOM     58  C   UNL A   1      40.506  34.569  31.611  1.00  0.00     0.031 C 
ATOM     59  C   UNL A   1      42.725  33.545  32.029  1.00  0.00     0.031 A 
BRANCH  46  60
ATOM     60  C   UNL A   1      46.021  28.370  31.239  1.00  0.00    -0.014 A 
ATOM     61  C   UNL A   1      47.074  28.458  30.310  1.00  0.00     0.010 A 
ATOM     62  C   UNL A   1      46.210  27.621  32.415  1.00  0.00     0.010 A 
ATOM     63  C   UNL A   1      48.276  27.782  30.534  1.00  0.00     0.020 A 
ATOM     64  C   UNL A   1      47.423  26.970  32.659  1.00  0.00     0.020 A 
ATOM     65  C   UNL A   1      48.443  27.043  31.709  1.00  0.00     0.054 A 
BRANCH  65  66
ATOM     66  S   UNL A   1      50.028  26.208  31.989  1.00  0.00     0.124 S 
ATOM     67  O   UNL A   1      49.951  25.093  31.047  1.00  0.00    -0.237 OA
ATOM     68  O   UNL A   1      50.999  27.246  31.654  1.00  0.00    -0.237 OA
ATOM     69  O   UNL A   1      49.981  25.834  33.400  1.00  0.00    -0.744 OA
ENDBRANCH  65  66
ENDBRANCH  46  60
BRANCH  47  70
ATOM     70  C   UNL A   1      37.199  32.826  29.647  1.00  0.00    -0.014 A 
ATOM     71  C   UNL A   1      36.234  32.884  30.669  1.00  0.00     0.010 A 
ATOM     72  C   UNL A   1      36.913  33.423  28.405  1.00  0.00     0.010 A 
ATOM     73  C   UNL A   1      35.004  33.508  30.449  1.00  0.00     0.020 A 
ATOM     74  C   UNL A   1      35.697  34.076  28.191  1.00  0.00     0.020 A 
ATOM     75  C   UNL A   1      34.744  34.105  29.211  1.00  0.00     0.054 A 
BRANCH  75  76
ATOM     76  S   UNL A   1      33.160  34.954  28.967  1.00  0.00     0.124 S 
ATOM     77  O   UNL A   1      32.504  34.099  27.984  1.00  0.00    -0.237 OA
ATOM     78  O   UNL A   1      32.584  34.934  30.310  1.00  0.00    -0.237 OA
ATOM     79  O   UNL A   1      33.553  36.277  28.486  1.00  0.00    -0.744 OA
ENDBRANCH  75  76
ENDBRANCH  47  70
BRANCH  59  80
ATOM     80  C   UNL A   1      43.162  34.843  32.657  1.00  0.00    -0.014 A 
ATOM     81  C   UNL A   1      43.796  35.845  31.903  1.00  0.00     0.010 A 
ATOM     82  C   UNL A   1      42.876  35.082  34.015  1.00  0.00     0.010 A 
ATOM     83  C   UNL A   1      44.167  37.051  32.503  1.00  0.00     0.020 A 
ATOM     84  C   UNL A   1      43.216  36.299  34.610  1.00  0.00     0.020 A 
ATOM     85  C   UNL A   1      43.873  37.271  33.853  1.00  0.00     0.054 A 
BRANCH  85  86
ATOM     86  S   UNL A   1      44.325  38.862  34.595  1.00  0.00     0.124 S 
ATOM     87  O   UNL A   1      45.614  39.136  33.965  1.00  0.00    -0.237 OA
ATOM     88  O   UNL A   1      43.225  39.730  34.182  1.00  0.00    -0.237 OA
ATOM     89  O   UNL A   1      44.381  38.575  36.027  1.00  0.00    -0.744 OA
ENDBRANCH  85  86
ENDBRANCH  59  80
ENDBRANCH  33  34
ENDBRANCH  25  28
ENDBRANCH  23  24
ENDBRANCH  22  23
ENDBRANCH   1  22
TORSDOF 17
ENDMDL
MODEL 2
REMARK VINA RESULT:      -8.1      4.546     11.264
REMARK SMILES C[C@H]([NH2+][C@@H](C)[C@@H](C)C(=O)NCCCNC(=O)c1ccc(-c2c3nc(c(-c4ccc(S(=O)(=O)[O-])cc4)c4ccc([nH]4)c(-c4ccc(S(=O)(=O)[O-])cc4)c4nc(c(-c5ccc(S(=O)(=O)[O-])cc5)c5ccc2[nH]5)C=C4)C=C3)cc1)c1cccc(Br)c1
REMARK SMILES IDX 11 1 10 2 8 3 9 4 6 6 7 7 4 8 5 9 3 10 2 13 1 14 77 15 78 16
REMARK SMILES IDX 83 17 79 18 81 19 80 20 82 21 12 22 13 23 14 24 15 25 16 27
REMARK SMILES IDX 17 28 18 29 76 30 19 31 75 32 20 33 21 34 22 35 69 36 23 37
REMARK SMILES IDX 74 38 68 39 70 40 24 41 73 42 67 43 66 44 25 46 55 47 36 48
REMARK SMILES IDX 54 49 37 50 40 51 53 52 71 53 38 54 39 55 52 57 72 58 41 59
REMARK SMILES IDX 26 60 27 61 35 62 28 63 34 64 29 65 30 66 31 67 32 68 33 69
REMARK SMILES IDX 56 70 57 71 65 72 58 73 64 74 59 75 60 76 61 77 62 78 63 79
REMARK SMILES IDX 42 80 43 81 51 82 44 83 50 84 45 85 46 86 47 87 48 88 49 89
REMARK H PARENT 10 5 3 11 3 12 14 26 70 45 40 56
REMARK Flexibility Score: inf
ROOT
ATOM      1  C   UNL A   1      31.544  28.369  26.294  1.00  0.00     0.117 C 
ENDROOT
BRANCH   1   2
ATOM      2  N   UNL A   1      31.089  27.053  26.712  1.00  0.00    -0.356 N 
ATOM      3  C   UNL A   1      30.628  25.999  25.986  1.00  0.00     0.228 C 
ATOM      4  O   UNL A   1      30.243  25.002  26.601  1.00  0.00    -0.275 OA
ATOM      5  H   UNL A   1      31.121  26.898  27.684  1.00  0.00     0.163 HD
BRANCH   3   6
ATOM      6  C   UNL A   1      30.636  26.015  24.460  1.00  0.00     0.133 C 
ATOM      7  C   UNL A   1      29.189  26.177  23.998  1.00  0.00     0.024 C 
BRANCH   6   8
ATOM      8  C   UNL A   1      31.478  24.851  23.871  1.00  0.00     0.192 C 
ATOM      9  C   UNL A   1      30.516  23.786  23.302  1.00  0.00     0.076 C 
BRANCH   8  10
ATOM     10  N   UNL A   1      32.335  24.126  24.803  1.00  0.00    -0.337 N 
ATOM     11  H   UNL A   1      32.254  24.607  25.699  1.00  0.00     0.347 HD
ATOM     12  H   UNL A   1      31.984  23.172  24.717  1.00  0.00     0.347 HD
BRANCH  10  13
ATOM     13  C   UNL A   1      33.775  23.945  24.564  1.00  0.00     0.210 C 
ATOM     14  C   UNL A   1      34.631  24.966  25.339  1.00  0.00     0.081 C 
BRANCH  13  15
ATOM     15  C   UNL A   1      34.256  22.498  24.703  1.00  0.00     0.010 A 
ATOM     16  C   UNL A   1      35.603  22.205  24.984  1.00  0.00     0.010 A 
ATOM     17  C   UNL A   1      33.372  21.405  24.624  1.00  0.00     0.025 A 
ATOM     18  C   UNL A   1      36.081  20.891  25.005  1.00  0.00     0.002 A 
ATOM     19  C   UNL A   1      33.844  20.091  24.690  1.00  0.00     0.018 A 
ATOM     20  C   UNL A   1      35.201  19.829  24.841  1.00  0.00     0.016 A 
ATOM     21  Br  UNL A   1      32.626  18.649  24.570  1.00  0.00    -0.051 Br
ENDBRANCH  13  15
ENDBRANCH  10  13
ENDBRANCH   8  10
ENDBRANCH   6   8
ENDBRANCH   3   6
ENDBRANCH   1   2
BRANCH   1  22
ATOM     22  C   UNL A   1      32.885  28.288  25.577  1.00  0.00     0.042 C 
BRANCH  22  23
ATOM     23  C   UNL A   1      34.060  28.648  26.473  1.00  0.00     0.118 C 
BRANCH  23  24
ATOM     24  N   UNL A   1      33.909  29.967  27.073  1.00  0.00    -0.352 N 
ATOM     25  C   UNL A   1      34.715  30.614  27.977  1.00  0.00     0.251 C 
ATOM     26  H   UNL A   1      33.112  30.470  26.786  1.00  0.00     0.163 HD
ATOM     27  O   UNL A   1      34.313  31.624  28.540  1.00  0.00    -0.269 OA
BRANCH  25  28
ATOM     28  C   UNL A   1      36.057  30.071  28.273  1.00  0.00     0.039 A 
ATOM     29  C   UNL A   1      37.068  30.202  27.319  1.00  0.00     0.014 A 
ATOM     30  C   UNL A   1      36.314  29.441  29.493  1.00  0.00     0.014 A 
ATOM     31  C   UNL A   1      38.356  29.757  27.620  1.00  0.00     0.010 A 
ATOM     32  C   UNL A   1      37.616  29.093  29.828  1.00  0.00     0.010 A 
ATOM     33  C   UNL A   1      38.648  29.234  28.891  1.00  0.00    -0.014 A 
BRANCH  33  34
ATOM     34  C   UNL A   1      40.023  28.817  29.260  1.00  0.00     0.031 A 
ATOM     35  C   UNL A   1      40.925  29.771  29.997  1.00  0.00     0.074 A 
ATOM     36  C   UNL A   1      40.477  27.607  28.880  1.00  0.00     0.049 A 
ATOM     37  N   UNL A   1      42.173  29.614  30.354  1.00  0.00    -0.248 NA
ATOM     38  C   UNL A   1      40.359  31.083  30.357  1.00  0.00     0.031 C 
ATOM     39  C   UNL A   1      39.709  26.610  28.129  1.00  0.00     0.029 A 
ATOM     40  N   UNL A   1      41.697  27.008  29.073  1.00  0.00    -0.354 N 
ATOM     41  C   UNL A   1      42.543  30.806  30.966  1.00  0.00     0.074 A 
ATOM     42  C   UNL A   1      41.411  31.700  30.876  1.00  0.00     0.031 C 
ATOM     43  C   UNL A   1      40.460  25.509  27.964  1.00  0.00     0.029 A 
ATOM     44  C   UNL A   1      41.777  25.738  28.549  1.00  0.00     0.049 A 
ATOM     45  H   UNL A   1      42.443  27.445  29.541  1.00  0.00     0.167 HD
ATOM     46  C   UNL A   1      43.713  31.121  31.571  1.00  0.00     0.031 A 
ATOM     47  C   UNL A   1      42.797  24.859  28.539  1.00  0.00     0.031 A 
ATOM     48  C   UNL A   1      44.832  30.225  31.666  1.00  0.00     0.049 A 
ATOM     49  C   UNL A   1      44.096  25.243  29.193  1.00  0.00     0.074 A 
ATOM     50  C   UNL A   1      46.047  30.430  32.296  1.00  0.00     0.029 A 
ATOM     51  N   UNL A   1      44.876  28.952  31.115  1.00  0.00    -0.354 N 
ATOM     52  N   UNL A   1      44.408  26.357  29.813  1.00  0.00    -0.248 NA
ATOM     53  C   UNL A   1      45.175  24.247  29.157  1.00  0.00     0.031 C 
ATOM     54  C   UNL A   1      46.847  29.305  32.077  1.00  0.00     0.029 A 
ATOM     55  C   UNL A   1      46.106  28.370  31.371  1.00  0.00     0.049 A 
ATOM     56  H   UNL A   1      44.143  28.526  30.616  1.00  0.00     0.167 HD
ATOM     57  C   UNL A   1      45.711  26.182  30.268  1.00  0.00     0.074 A 
ATOM     58  C   UNL A   1      46.120  24.852  29.865  1.00  0.00     0.031 C 
ATOM     59  C   UNL A   1      46.496  27.043  30.961  1.00  0.00     0.031 A 
BRANCH  46  60
ATOM     60  C   UNL A   1      43.836  32.494  32.180  1.00  0.00    -0.014 A 
ATOM     61  C   UNL A   1      44.324  33.580  31.430  1.00  0.00     0.010 A 
ATOM     62  C   UNL A   1      43.416  32.714  33.504  1.00  0.00     0.010 A 
ATOM     63  C   UNL A   1      44.423  34.851  32.004  1.00  0.00     0.020 A 
ATOM     64  C   UNL A   1      43.483  33.989  34.072  1.00  0.00     0.020 A 
ATOM     65  C   UNL A   1      44.000  35.047  33.321  1.00  0.00     0.054 A 
BRANCH  65  66
ATOM     66  S   UNL A   1      44.106  36.715  34.025  1.00  0.00     0.124 S 
ATOM     67  O   UNL A   1      45.138  37.328  33.192  1.00  0.00    -0.237 OA
ATOM     68  O   UNL A   1      42.754  37.230  33.830  1.00  0.00    -0.237 OA
ATOM     69  O   UNL A   1      44.488  36.483  35.416  1.00  0.00    -0.744 OA
ENDBRANCH  65  66
ENDBRANCH  46  60
BRANCH  47  70
ATOM     70  C   UNL A   1      42.622  23.522  27.909  1.00  0.00    -0.014 A 
ATOM     71  C   UNL A   1      42.957  23.323  26.557  1.00  0.00     0.010 A 
ATOM     72  C   UNL A   1      42.134  22.434  28.657  1.00  0.00     0.010 A 
ATOM     73  C   UNL A   1      42.791  22.069  25.962  1.00  0.00     0.020 A 
ATOM     74  C   UNL A   1      41.996  21.172  28.074  1.00  0.00     0.020 A 
ATOM     75  C   UNL A   1      42.315  21.000  26.726  1.00  0.00     0.054 A 
BRANCH  75  76
ATOM     76  S   UNL A   1      42.156  19.371  25.944  1.00  0.00     0.124 S 
ATOM     77  O   UNL A   1      42.993  19.520  24.758  1.00  0.00    -0.237 OA
ATOM     78  O   UNL A   1      42.672  18.476  26.976  1.00  0.00    -0.237 OA
ATOM     79  O   UNL A   1      40.721  19.253  25.688  1.00  0.00    -0.744 OA
ENDBRANCH  75  76
ENDBRANCH  47  70
BRANCH  59  80
ATOM     80  C   UNL A   1      47.866  26.563  31.364  1.00  0.00    -0.014 A 
ATOM     81  C   UNL A   1      48.084  25.919  32.594  1.00  0.00     0.010 A 
ATOM     82  C   UNL A   1      48.940  26.708  30.465  1.00  0.00     0.010 A 
ATOM     83  C   UNL A   1      49.359  25.459  32.932  1.00  0.00     0.020 A 
ATOM     84  C   UNL A   1      50.208  26.220  30.786  1.00  0.00     0.020 A 
ATOM     85  C   UNL A   1      50.413  25.611  32.025  1.00  0.00     0.054 A 
BRANCH  85  86
ATOM     86  S   UNL A   1      52.047  24.964  32.470  1.00  0.00     0.124 S 
ATOM     87  O   UNL A   1      52.196  25.435  33.845  1.00  0.00    -0.237 OA
ATOM     88  O   UNL A   1      51.872  23.522  32.315  1.00  0.00    -0.237 OA
ATOM     89  O   UNL A   1      52.944  25.584  31.498  1.00  0.00    -0.744 OA
ENDBRANCH  85  86
ENDBRANCH  59  80
ENDBRANCH  33  34
ENDBRANCH  25  28
ENDBRANCH  23  24
ENDBRANCH  22  23
ENDBRANCH   1  22
TORSDOF 17
ENDMDL
MODEL 3
REMARK VINA RESULT:      -8.0      0.629      8.373
REMARK SMILES C[C@H]([NH2+][C@@H](C)[C@@H](C)C(=O)NCCCNC(=O)c1ccc(-c2c3nc(c(-c4ccc(S(=O)(=O)[O-])cc4)c4ccc([nH]4)c(-c4ccc(S(=O)(=O)[O-])cc4)c4nc(c(-c5ccc(S(=O)(=O)[O-])cc5)c5ccc2[nH]5)C=C4)C=C3)cc1)c1cccc(Br)c1
REMARK SMILES IDX 11 1 10 2 8 3 9 4 6 6 7 7 4 8 5 9 3 10 2 13 1 14 77 15 78 16
REMARK SMILES IDX 83 17 79 18 81 19 80 20 82 21 12 22 13 23 14 24 15 25 16 27
REMARK SMILES IDX 17 28 18 29 76 30 19 31 75 32 20 33 21 34 22 35 69 36 23 37
REMARK SMILES IDX 74 38 68 39 70 40 24 41 73 42 67 43 66 44 25 46 55 47 36 48
REMARK SMILES IDX 54 49 37 50 40 51 53 52 71 53 38 54 39 55 52 57 72 58 41 59
REMARK SMILES IDX 26 60 27 61 35 62 28 63 34 64 29 65 30 66 31 67 32 68 33 69
REMARK SMILES IDX 56 70 57 71 65 72 58 73 64 74 59 75 60 76 61 77 62 78 63 79
REMARK SMILES IDX 42 80 43 81 51 82 44 83 50 84 45 85 46 86 47 87 48 88 49 89
REMARK H PARENT 10 5 3 11 3 12 14 26 70 45 40 56
REMARK Flexibility Score: inf
ROOT
ATOM      1  C   UNL A   1      42.557  22.719  28.147  1.00  0.00     0.117 C 
ENDROOT
BRANCH   1   2
ATOM      2  N   UNL A   1      43.742  22.222  27.468  1.00  0.00    -0.356 N 
ATOM      3  C   UNL A   1      44.666  22.866  26.704  1.00  0.00     0.228 C 
ATOM      4  O   UNL A   1      45.557  22.189  26.186  1.00  0.00    -0.275 OA
ATOM      5  H   UNL A   1      43.905  21.258  27.581  1.00  0.00     0.163 HD
BRANCH   3   6
ATOM      6  C   UNL A   1      44.644  24.383  26.533  1.00  0.00     0.133 C 
ATOM      7  C   UNL A   1      43.688  24.699  25.384  1.00  0.00     0.024 C 
BRANCH   6   8
ATOM      8  C   UNL A   1      46.075  24.983  26.496  1.00  0.00     0.192 C 
ATOM      9  C   UNL A   1      46.595  25.108  27.944  1.00  0.00     0.076 C 
BRANCH   8  10
ATOM     10  N   UNL A   1      46.210  26.321  25.930  1.00  0.00    -0.337 N 
ATOM     11  H   UNL A   1      46.942  26.260  25.223  1.00  0.00     0.347 HD
ATOM     12  H   UNL A   1      45.253  26.528  25.640  1.00  0.00     0.347 HD
BRANCH  10  13
ATOM     13  C   UNL A   1      46.537  27.492  26.758  1.00  0.00     0.210 C 
ATOM     14  C   UNL A   1      47.888  28.125  26.369  1.00  0.00     0.081 C 
BRANCH  13  15
ATOM     15  C   UNL A   1      45.394  28.502  26.897  1.00  0.00     0.010 A 
ATOM     16  C   UNL A   1      44.092  28.187  26.468  1.00  0.00     0.010 A 
ATOM     17  C   UNL A   1      45.575  29.754  27.513  1.00  0.00     0.025 A 
ATOM     18  C   UNL A   1      43.063  29.134  26.486  1.00  0.00     0.002 A 
ATOM     19  C   UNL A   1      44.533  30.684  27.572  1.00  0.00     0.018 A 
ATOM     20  C   UNL A   1      43.288  30.394  27.026  1.00  0.00     0.016 A 
ATOM     21  Br  UNL A   1      44.817  32.361  28.401  1.00  0.00    -0.051 Br
ENDBRANCH  13  15
ENDBRANCH  10  13
ENDBRANCH   8  10
ENDBRANCH   6   8
ENDBRANCH   3   6
ENDBRANCH   1   2
BRANCH   1  22
ATOM     22  C   UNL A   1      41.304  21.993  27.674  1.00  0.00     0.042 C 
BRANCH  22  23
ATOM     23  C   UNL A   1      41.151  21.996  26.161  1.00  0.00     0.118 C 
BRANCH  23  24
ATOM     24  N   UNL A   1      39.757  22.099  25.749  1.00  0.00    -0.352 N 
ATOM     25  C   UNL A   1      38.808  23.027  26.100  1.00  0.00     0.251 C 
ATOM     26  H   UNL A   1      39.450  21.399  25.128  1.00  0.00     0.163 HD
ATOM     27  O   UNL A   1      37.630  22.826  25.835  1.00  0.00    -0.269 OA
BRANCH  25  28
ATOM     28  C   UNL A   1      39.221  24.256  26.809  1.00  0.00     0.039 A 
ATOM     29  C   UNL A   1      38.800  24.455  28.125  1.00  0.00     0.014 A 
ATOM     30  C   UNL A   1      40.029  25.203  26.175  1.00  0.00     0.014 A 
ATOM     31  C   UNL A   1      39.246  25.578  28.825  1.00  0.00     0.010 A 
ATOM     32  C   UNL A   1      40.552  26.263  26.904  1.00  0.00     0.010 A 
ATOM     33  C   UNL A   1      40.156  26.469  28.232  1.00  0.00    -0.014 A 
BRANCH  33  34
ATOM     34  C   UNL A   1      40.698  27.632  28.977  1.00  0.00     0.031 A 
ATOM     35  C   UNL A   1      39.849  28.860  29.172  1.00  0.00     0.074 A 
ATOM     36  C   UNL A   1      41.968  27.604  29.425  1.00  0.00     0.049 A 
ATOM     37  N   UNL A   1      40.162  29.995  29.742  1.00  0.00    -0.248 NA
ATOM     38  C   UNL A   1      38.478  28.819  28.633  1.00  0.00     0.031 C 
ATOM     39  C   UNL A   1      42.899  26.484  29.264  1.00  0.00     0.029 A 
ATOM     40  N   UNL A   1      42.697  28.544  30.109  1.00  0.00    -0.354 N 
ATOM     41  C   UNL A   1      39.037  30.802  29.619  1.00  0.00     0.074 A 
ATOM     42  C   UNL A   1      38.057  30.053  28.866  1.00  0.00     0.031 C 
ATOM     43  C   UNL A   1      44.060  26.786  29.869  1.00  0.00     0.029 A 
ATOM     44  C   UNL A   1      43.975  28.136  30.416  1.00  0.00     0.049 A 
ATOM     45  H   UNL A   1      42.340  29.428  30.355  1.00  0.00     0.167 HD
ATOM     46  C   UNL A   1      38.829  32.046  30.110  1.00  0.00     0.031 A 
ATOM     47  C   UNL A   1      44.966  28.779  31.063  1.00  0.00     0.031 A 
ATOM     48  C   UNL A   1      39.804  32.783  30.867  1.00  0.00     0.049 A 
ATOM     49  C   UNL A   1      44.719  30.172  31.574  1.00  0.00     0.074 A 
ATOM     50  C   UNL A   1      39.678  34.032  31.448  1.00  0.00     0.029 A 
ATOM     51  N   UNL A   1      41.088  32.338  31.149  1.00  0.00    -0.354 N 
ATOM     52  N   UNL A   1      43.629  30.898  31.494  1.00  0.00    -0.248 NA
ATOM     53  C   UNL A   1      45.832  30.825  32.275  1.00  0.00     0.031 C 
ATOM     54  C   UNL A   1      40.903  34.368  32.031  1.00  0.00     0.029 A 
ATOM     55  C   UNL A   1      41.771  33.299  31.875  1.00  0.00     0.049 A 
ATOM     56  H   UNL A   1      41.458  31.468  30.874  1.00  0.00     0.167 HD
ATOM     57  C   UNL A   1      43.916  32.084  32.161  1.00  0.00     0.074 A 
ATOM     58  C   UNL A   1      45.275  31.969  32.651  1.00  0.00     0.031 C 
ATOM     59  C   UNL A   1      43.125  33.168  32.355  1.00  0.00     0.031 A 
BRANCH  46  60
ATOM     60  C   UNL A   1      37.491  32.687  29.845  1.00  0.00    -0.014 A 
ATOM     61  C   UNL A   1      36.396  32.464  30.700  1.00  0.00     0.010 A 
ATOM     62  C   UNL A   1      37.337  33.561  28.753  1.00  0.00     0.010 A 
ATOM     63  C   UNL A   1      35.164  33.074  30.448  1.00  0.00     0.020 A 
ATOM     64  C   UNL A   1      36.116  34.198  28.516  1.00  0.00     0.020 A 
ATOM     65  C   UNL A   1      35.033  33.938  29.358  1.00  0.00     0.054 A 
BRANCH  65  66
ATOM     66  S   UNL A   1      33.431  34.743  29.079  1.00  0.00     0.124 S 
ATOM     67  O   UNL A   1      32.914  34.863  30.441  1.00  0.00    -0.237 OA
ATOM     68  O   UNL A   1      33.813  35.999  28.441  1.00  0.00    -0.237 OA
ATOM     69  O   UNL A   1      32.713  33.803  28.222  1.00  0.00    -0.744 OA
ENDBRANCH  65  66
ENDBRANCH  46  60
BRANCH  47  70
ATOM     70  C   UNL A   1      46.273  28.101  31.283  1.00  0.00    -0.014 A 
ATOM     71  C   UNL A   1      46.483  27.315  32.430  1.00  0.00     0.010 A 
ATOM     72  C   UNL A   1      47.312  28.224  30.342  1.00  0.00     0.010 A 
ATOM     73  C   UNL A   1      47.710  26.680  32.641  1.00  0.00     0.020 A 
ATOM     74  C   UNL A   1      48.529  27.566  30.533  1.00  0.00     0.020 A 
ATOM     75  C   UNL A   1      48.725  26.807  31.688  1.00  0.00     0.054 A 
BRANCH  75  76
ATOM     76  S   UNL A   1      50.291  25.932  31.960  1.00  0.00     0.124 S 
ATOM     77  O   UNL A   1      51.274  26.974  31.682  1.00  0.00    -0.237 OA
ATOM     78  O   UNL A   1      50.182  25.521  33.358  1.00  0.00    -0.237 OA
ATOM     79  O   UNL A   1      50.244  24.839  30.991  1.00  0.00    -0.744 OA
ENDBRANCH  75  76
ENDBRANCH  47  70
BRANCH  59  80
ATOM     80  C   UNL A   1      43.692  34.305  33.163  1.00  0.00    -0.014 A 
ATOM     81  C   UNL A   1      43.585  34.332  34.564  1.00  0.00     0.010 A 
ATOM     82  C   UNL A   1      44.396  35.333  32.508  1.00  0.00     0.010 A 
ATOM     83  C   UNL A   1      44.143  35.386  35.294  1.00  0.00     0.020 A 
ATOM     84  C   UNL A   1      44.983  36.370  33.236  1.00  0.00     0.020 A 
ATOM     85  C   UNL A   1      44.841  36.397  34.625  1.00  0.00     0.054 A 
BRANCH  85  86
ATOM     86  S   UNL A   1      45.594  37.727  35.599  1.00  0.00     0.124 S 
ATOM     87  O   UNL A   1      46.909  37.853  34.977  1.00  0.00    -0.237 OA
ATOM     88  O   UNL A   1      44.681  38.845  35.371  1.00  0.00    -0.237 OA
ATOM     89  O   UNL A   1      45.597  37.202  36.963  1.00  0.00    -0.744 OA
ENDBRANCH  85  86
ENDBRANCH  59  80
ENDBRANCH  33  34
ENDBRANCH  25  28
ENDBRANCH  23  24
ENDBRANCH  22  23
ENDBRANCH   1  22
TORSDOF 17
ENDMDL
