MODEL 1
REMARK VINA RESULT:     -11.9      0.000      0.000
REMARK SMILES COC(=O)c1cc(F)cc(-c2ccccc2C(=O)NCCCNC(=O)c2ccc(-c3c4nc(c(-c5ccc(S(=O)(=O)[O-])cc5)c5ccc([nH]5)c(-c5ccc(S(=O)(=O)[O-])cc5)c5nc(c(-c6ccc(S(=O)(=O)[O-])cc6)c6ccc3[nH]6)C=C5)C=C4)cc2)c1
REMARK SMILES IDX 21 1 20 2 19 3 17 4 18 5 16 7 11 8 12 9 13 10 15 11 14 12
REMARK SMILES IDX 10 13 5 14 6 15 86 16 7 17 8 18 9 19 3 20 4 21 2 22 1 23
REMARK SMILES IDX 22 24 23 25 24 26 25 28 26 29 27 30 85 31 28 32 84 33 29 34
REMARK SMILES IDX 30 35 31 36 78 37 32 38 83 39 77 40 79 41 33 42 82 43 76 44
REMARK SMILES IDX 75 45 34 47 64 48 45 49 63 50 46 51 49 52 62 53 80 54 47 55
REMARK SMILES IDX 48 56 61 58 81 59 50 60 35 61 36 62 44 63 37 64 43 65 38 66
REMARK SMILES IDX 39 67 40 68 41 69 42 70 65 71 66 72 74 73 67 74 73 75 68 76
REMARK SMILES IDX 69 77 70 78 71 79 72 80 51 81 52 82 60 83 53 84 59 85 54 86
REMARK SMILES IDX 55 87 56 88 57 89 58 90
REMARK H PARENT 19 6 23 27 79 46 49 57
REMARK Flexibility Score: inf
ROOT
ATOM      1  C   UNL A   1      39.086  22.440  26.523  1.00  0.00     0.042 C 
ENDROOT
BRANCH   1   2
ATOM      2  C   UNL A   1      37.927  23.253  25.971  1.00  0.00     0.118 C 
BRANCH   2   3
ATOM      3  N   UNL A   1      37.684  23.124  24.550  1.00  0.00    -0.352 N 
ATOM      4  C   UNL A   1      36.509  22.914  23.873  1.00  0.00     0.251 C 
ATOM      5  O   UNL A   1      36.539  22.955  22.641  1.00  0.00    -0.269 OA
ATOM      6  H   UNL A   1      38.485  23.197  23.981  1.00  0.00     0.163 HD
BRANCH   4   7
ATOM      7  C   UNL A   1      35.220  22.546  24.531  1.00  0.00     0.047 A 
ATOM      8  C   UNL A   1      34.063  23.352  24.649  1.00  0.00    -0.005 A 
ATOM      9  C   UNL A   1      32.923  22.780  25.265  1.00  0.00     0.009 A 
ATOM     10  C   UNL A   1      32.913  21.464  25.729  1.00  0.00     0.001 A 
ATOM     11  C   UNL A   1      35.185  21.211  24.988  1.00  0.00     0.014 A 
ATOM     12  C   UNL A   1      34.045  20.675  25.587  1.00  0.00     0.001 A 
BRANCH   8  13
ATOM     13  C   UNL A   1      33.956  24.748  24.194  1.00  0.00    -0.014 A 
ATOM     14  C   UNL A   1      33.761  27.125  24.636  1.00  0.00     0.063 A 
ATOM     15  C   UNL A   1      33.413  27.379  23.308  1.00  0.00     0.055 A 
ATOM     16  C   UNL A   1      34.054  25.828  25.084  1.00  0.00     0.024 A 
ATOM     17  C   UNL A   1      33.379  26.319  22.420  1.00  0.00     0.124 A 
ATOM     18  F   UNL A   1      33.005  26.527  21.151  1.00  0.00    -0.207 F 
ATOM     19  C   UNL A   1      33.655  25.020  22.842  1.00  0.00     0.048 A 
BRANCH  14  20
ATOM     20  C   UNL A   1      33.713  28.224  25.604  1.00  0.00     0.337 C 
ATOM     21  O   UNL A   1      34.143  28.160  26.742  1.00  0.00    -0.246 OA
BRANCH  20  22
ATOM     22  O   UNL A   1      33.120  29.271  24.986  1.00  0.00    -0.465 OA
ATOM     23  C   UNL A   1      32.321  30.080  25.850  1.00  0.00     0.282 C 
ENDBRANCH  20  22
ENDBRANCH  14  20
ENDBRANCH   8  13
ENDBRANCH   4   7
ENDBRANCH   2   3
ENDBRANCH   1   2
BRANCH   1  24
ATOM     24  C   UNL A   1      40.266  23.280  27.009  1.00  0.00     0.118 C 
BRANCH  24  25
ATOM     25  N   UNL A   1      40.805  24.223  26.031  1.00  0.00    -0.352 N 
ATOM     26  C   UNL A   1      41.063  25.574  26.028  1.00  0.00     0.251 C 
ATOM     27  H   UNL A   1      41.036  23.792  25.176  1.00  0.00     0.163 HD
ATOM     28  O   UNL A   1      41.491  26.081  24.990  1.00  0.00    -0.269 OA
BRANCH  26  29
ATOM     29  C   UNL A   1      40.800  26.463  27.183  1.00  0.00     0.039 A 
ATOM     30  C   UNL A   1      39.887  26.026  28.156  1.00  0.00     0.014 A 
ATOM     31  C   UNL A   1      41.385  27.714  27.332  1.00  0.00     0.014 A 
ATOM     32  C   UNL A   1      39.646  26.790  29.302  1.00  0.00     0.010 A 
ATOM     33  C   UNL A   1      41.249  28.413  28.527  1.00  0.00     0.010 A 
ATOM     34  C   UNL A   1      40.379  27.961  29.528  1.00  0.00    -0.014 A 
BRANCH  34  35
ATOM     35  C   UNL A   1      40.266  28.750  30.781  1.00  0.00     0.031 A 
ATOM     36  C   UNL A   1      39.210  29.817  30.894  1.00  0.00     0.074 A 
ATOM     37  C   UNL A   1      41.185  28.595  31.755  1.00  0.00     0.049 A 
ATOM     38  N   UNL A   1      39.092  30.779  31.772  1.00  0.00    -0.248 NA
ATOM     39  C   UNL A   1      38.180  29.837  29.841  1.00  0.00     0.031 C 
ATOM     40  C   UNL A   1      42.274  27.615  31.753  1.00  0.00     0.029 A 
ATOM     41  N   UNL A   1      41.356  29.272  32.935  1.00  0.00    -0.354 N 
ATOM     42  C   UNL A   1      38.024  31.556  31.339  1.00  0.00     0.074 A 
ATOM     43  C   UNL A   1      37.554  30.975  30.100  1.00  0.00     0.031 C 
ATOM     44  C   UNL A   1      42.971  27.724  32.895  1.00  0.00     0.029 A 
ATOM     45  C   UNL A   1      42.420  28.822  33.680  1.00  0.00     0.049 A 
ATOM     46  H   UNL A   1      40.772  30.012  33.222  1.00  0.00     0.167 HD
ATOM     47  C   UNL A   1      37.474  32.648  31.924  1.00  0.00     0.031 A 
ATOM     48  C   UNL A   1      42.904  29.254  34.860  1.00  0.00     0.031 A 
ATOM     49  C   UNL A   1      37.916  33.178  33.186  1.00  0.00     0.049 A 
ATOM     50  C   UNL A   1      42.247  30.428  35.524  1.00  0.00     0.074 A 
ATOM     51  C   UNL A   1      37.405  34.243  33.904  1.00  0.00     0.029 A 
ATOM     52  N   UNL A   1      38.965  32.656  33.931  1.00  0.00    -0.354 N 
ATOM     53  N   UNL A   1      41.241  31.156  35.098  1.00  0.00    -0.248 NA
ATOM     54  C   UNL A   1      42.787  30.841  36.825  1.00  0.00     0.031 C 
ATOM     55  C   UNL A   1      38.158  34.376  35.079  1.00  0.00     0.029 A 
ATOM     56  C   UNL A   1      39.112  33.371  35.106  1.00  0.00     0.049 A 
ATOM     57  H   UNL A   1      39.521  31.890  33.663  1.00  0.00     0.167 HD
ATOM     58  C   UNL A   1      41.009  32.098  36.093  1.00  0.00     0.074 A 
ATOM     59  C   UNL A   1      41.977  31.843  37.143  1.00  0.00     0.031 C 
ATOM     60  C   UNL A   1      40.081  33.085  36.134  1.00  0.00     0.031 A 
BRANCH  47  61
ATOM     61  C   UNL A   1      36.350  33.330  31.188  1.00  0.00    -0.014 A 
ATOM     62  C   UNL A   1      36.500  33.750  29.853  1.00  0.00     0.010 A 
ATOM     63  C   UNL A   1      35.138  33.593  31.852  1.00  0.00     0.010 A 
ATOM     64  C   UNL A   1      35.497  34.494  29.225  1.00  0.00     0.020 A 
ATOM     65  C   UNL A   1      34.117  34.308  31.216  1.00  0.00     0.020 A 
ATOM     66  C   UNL A   1      34.319  34.783  29.918  1.00  0.00     0.054 A 
BRANCH  66  67
ATOM     67  S   UNL A   1      33.047  35.788  29.102  1.00  0.00     0.124 S 
ATOM     68  O   UNL A   1      32.427  34.813  28.207  1.00  0.00    -0.237 OA
ATOM     69  O   UNL A   1      32.216  36.231  30.218  1.00  0.00    -0.237 OA
ATOM     70  O   UNL A   1      33.812  36.842  28.442  1.00  0.00    -0.744 OA
ENDBRANCH  66  67
ENDBRANCH  47  61
BRANCH  48  71
ATOM     71  C   UNL A   1      44.036  28.532  35.502  1.00  0.00    -0.014 A 
ATOM     72  C   UNL A   1      45.355  28.970  35.285  1.00  0.00     0.010 A 
ATOM     73  C   UNL A   1      43.809  27.449  36.371  1.00  0.00     0.010 A 
ATOM     74  C   UNL A   1      46.426  28.338  35.921  1.00  0.00     0.020 A 
ATOM     75  C   UNL A   1      44.878  26.828  37.027  1.00  0.00     0.020 A 
ATOM     76  C   UNL A   1      46.181  27.274  36.793  1.00  0.00     0.054 A 
BRANCH  76  77
ATOM     77  S   UNL A   1      47.581  26.521  37.668  1.00  0.00     0.124 S 
ATOM     78  O   UNL A   1      48.633  26.569  36.658  1.00  0.00    -0.237 OA
ATOM     79  O   UNL A   1      47.759  27.415  38.811  1.00  0.00    -0.237 OA
ATOM     80  O   UNL A   1      47.095  25.185  38.005  1.00  0.00    -0.744 OA
ENDBRANCH  76  77
ENDBRANCH  48  71
BRANCH  60  81
ATOM     81  C   UNL A   1      40.042  33.931  37.375  1.00  0.00    -0.014 A 
ATOM     82  C   UNL A   1      40.681  35.181  37.421  1.00  0.00     0.010 A 
ATOM     83  C   UNL A   1      39.304  33.488  38.488  1.00  0.00     0.010 A 
ATOM     84  C   UNL A   1      40.600  35.968  38.572  1.00  0.00     0.020 A 
ATOM     85  C   UNL A   1      39.204  34.283  39.632  1.00  0.00     0.020 A 
ATOM     86  C   UNL A   1      39.863  35.513  39.670  1.00  0.00     0.054 A 
BRANCH  86  87
ATOM     87  S   UNL A   1      39.724  36.577  41.132  1.00  0.00     0.124 S 
ATOM     88  O   UNL A   1      41.089  37.076  41.274  1.00  0.00    -0.237 OA
ATOM     89  O   UNL A   1      38.732  37.567  40.718  1.00  0.00    -0.237 OA
ATOM     90  O   UNL A   1      39.280  35.663  42.182  1.00  0.00    -0.744 OA
ENDBRANCH  86  87
ENDBRANCH  60  81
ENDBRANCH  34  35
ENDBRANCH  26  29
ENDBRANCH  24  25
ENDBRANCH   1  24
TORSDOF 16
ENDMDL
MODEL 2
REMARK VINA RESULT:     -11.8      3.404      9.069
REMARK SMILES COC(=O)c1cc(F)cc(-c2ccccc2C(=O)NCCCNC(=O)c2ccc(-c3c4nc(c(-c5ccc(S(=O)(=O)[O-])cc5)c5ccc([nH]5)c(-c5ccc(S(=O)(=O)[O-])cc5)c5nc(c(-c6ccc(S(=O)(=O)[O-])cc6)c6ccc3[nH]6)C=C5)C=C4)cc2)c1
REMARK SMILES IDX 21 1 20 2 19 3 17 4 18 5 16 7 11 8 12 9 13 10 15 11 14 12
REMARK SMILES IDX 10 13 5 14 6 15 86 16 7 17 8 18 9 19 3 20 4 21 2 22 1 23
REMARK SMILES IDX 22 24 23 25 24 26 25 28 26 29 27 30 85 31 28 32 84 33 29 34
REMARK SMILES IDX 30 35 31 36 78 37 32 38 83 39 77 40 79 41 33 42 82 43 76 44
REMARK SMILES IDX 75 45 34 47 64 48 45 49 63 50 46 51 49 52 62 53 80 54 47 55
REMARK SMILES IDX 48 56 61 58 81 59 50 60 35 61 36 62 44 63 37 64 43 65 38 66
REMARK SMILES IDX 39 67 40 68 41 69 42 70 65 71 66 72 74 73 67 74 73 75 68 76
REMARK SMILES IDX 69 77 70 78 71 79 72 80 51 81 52 82 60 83 53 84 59 85 54 86
REMARK SMILES IDX 55 87 56 88 57 89 58 90
REMARK H PARENT 19 6 23 27 79 46 49 57
REMARK Flexibility Score: inf
ROOT
ATOM      1  C   UNL A   1      35.800  23.669  25.717  1.00  0.00     0.042 C 
ENDROOT
BRANCH   1   2
ATOM      2  C   UNL A   1      34.923  24.834  25.287  1.00  0.00     0.118 C 
BRANCH   2   3
ATOM      3  N   UNL A   1      34.217  24.665  24.035  1.00  0.00    -0.352 N 
ATOM      4  C   UNL A   1      32.884  24.433  23.801  1.00  0.00     0.251 C 
ATOM      5  O   UNL A   1      32.496  24.441  22.631  1.00  0.00    -0.269 OA
ATOM      6  H   UNL A   1      34.778  24.725  23.228  1.00  0.00     0.163 HD
BRANCH   4   7
ATOM      7  C   UNL A   1      31.898  24.079  24.865  1.00  0.00     0.047 A 
ATOM      8  C   UNL A   1      31.024  24.961  25.545  1.00  0.00    -0.005 A 
ATOM      9  C   UNL A   1      30.124  24.401  26.482  1.00  0.00     0.009 A 
ATOM     10  C   UNL A   1      30.070  23.029  26.730  1.00  0.00     0.001 A 
ATOM     11  C   UNL A   1      31.816  22.692  25.114  1.00  0.00     0.014 A 
ATOM     12  C   UNL A   1      30.914  22.171  26.042  1.00  0.00     0.001 A 
BRANCH   8  13
ATOM     13  C   UNL A   1      30.989  26.421  25.363  1.00  0.00    -0.014 A 
ATOM     14  C   UNL A   1      30.466  28.394  24.053  1.00  0.00     0.063 A 
ATOM     15  C   UNL A   1      31.240  29.199  24.891  1.00  0.00     0.055 A 
ATOM     16  C   UNL A   1      30.316  27.020  24.288  1.00  0.00     0.024 A 
ATOM     17  C   UNL A   1      31.851  28.616  25.987  1.00  0.00     0.124 A 
ATOM     18  F   UNL A   1      32.636  29.355  26.781  1.00  0.00    -0.207 F 
ATOM     19  C   UNL A   1      31.726  27.251  26.235  1.00  0.00     0.048 A 
BRANCH  14  20
ATOM     20  C   UNL A   1      29.888  28.982  22.841  1.00  0.00     0.337 C 
ATOM     21  O   UNL A   1      30.155  28.626  21.707  1.00  0.00    -0.246 OA
BRANCH  20  22
ATOM     22  O   UNL A   1      29.035  29.953  23.240  1.00  0.00    -0.465 OA
ATOM     23  C   UNL A   1      27.657  29.637  23.036  1.00  0.00     0.282 C 
ENDBRANCH  20  22
ENDBRANCH  14  20
ENDBRANCH   8  13
ENDBRANCH   4   7
ENDBRANCH   2   3
ENDBRANCH   1   2
BRANCH   1  24
ATOM     24  C   UNL A   1      36.928  23.338  24.742  1.00  0.00     0.118 C 
BRANCH  24  25
ATOM     25  N   UNL A   1      38.011  22.526  25.293  1.00  0.00    -0.352 N 
ATOM     26  C   UNL A   1      39.077  22.768  26.127  1.00  0.00     0.251 C 
ATOM     27  H   UNL A   1      37.966  21.587  24.998  1.00  0.00     0.163 HD
ATOM     28  O   UNL A   1      39.850  21.839  26.365  1.00  0.00    -0.269 OA
BRANCH  26  29
ATOM     29  C   UNL A   1      39.380  24.097  26.706  1.00  0.00     0.039 A 
ATOM     30  C   UNL A   1      38.956  24.356  28.019  1.00  0.00     0.014 A 
ATOM     31  C   UNL A   1      40.030  25.106  26.005  1.00  0.00     0.014 A 
ATOM     32  C   UNL A   1      39.269  25.567  28.644  1.00  0.00     0.010 A 
ATOM     33  C   UNL A   1      40.455  26.254  26.662  1.00  0.00     0.010 A 
ATOM     34  C   UNL A   1      40.082  26.501  27.990  1.00  0.00    -0.014 A 
BRANCH  34  35
ATOM     35  C   UNL A   1      40.558  27.747  28.643  1.00  0.00     0.031 A 
ATOM     36  C   UNL A   1      41.952  27.803  29.210  1.00  0.00     0.074 A 
ATOM     37  C   UNL A   1      39.702  28.770  28.837  1.00  0.00     0.049 A 
ATOM     38  N   UNL A   1      42.481  28.674  30.028  1.00  0.00    -0.248 NA
ATOM     39  C   UNL A   1      42.853  26.694  28.850  1.00  0.00     0.031 C 
ATOM     40  C   UNL A   1      38.318  28.827  28.360  1.00  0.00     0.029 A 
ATOM     41  N   UNL A   1      39.870  29.959  29.500  1.00  0.00    -0.354 N 
ATOM     42  C   UNL A   1      43.745  28.183  30.336  1.00  0.00     0.074 A 
ATOM     43  C   UNL A   1      43.887  26.919  29.646  1.00  0.00     0.031 C 
ATOM     44  C   UNL A   1      37.778  30.007  28.707  1.00  0.00     0.029 A 
ATOM     45  C   UNL A   1      38.754  30.762  29.483  1.00  0.00     0.049 A 
ATOM     46  H   UNL A   1      40.711  30.214  29.945  1.00  0.00     0.167 HD
ATOM     47  C   UNL A   1      44.706  28.739  31.113  1.00  0.00     0.031 A 
ATOM     48  C   UNL A   1      38.537  31.967  30.043  1.00  0.00     0.031 A 
ATOM     49  C   UNL A   1      44.572  30.024  31.744  1.00  0.00     0.049 A 
ATOM     50  C   UNL A   1      39.634  32.594  30.852  1.00  0.00     0.074 A 
ATOM     51  C   UNL A   1      45.494  30.714  32.509  1.00  0.00     0.029 A 
ATOM     52  N   UNL A   1      43.441  30.826  31.657  1.00  0.00    -0.354 N 
ATOM     53  N   UNL A   1      40.822  32.114  31.139  1.00  0.00    -0.248 NA
ATOM     54  C   UNL A   1      39.365  33.925  31.413  1.00  0.00     0.031 C 
ATOM     55  C   UNL A   1      44.914  31.929  32.898  1.00  0.00     0.029 A 
ATOM     56  C   UNL A   1      43.645  32.008  32.345  1.00  0.00     0.049 A 
ATOM     57  H   UNL A   1      42.617  30.588  31.175  1.00  0.00     0.167 HD
ATOM     58  C   UNL A   1      41.454  33.096  31.892  1.00  0.00     0.074 A 
ATOM     59  C   UNL A   1      40.518  34.198  32.011  1.00  0.00     0.031 C 
ATOM     60  C   UNL A   1      42.695  33.088  32.437  1.00  0.00     0.031 A 
BRANCH  47  61
ATOM     61  C   UNL A   1      45.969  27.942  31.319  1.00  0.00    -0.014 A 
ATOM     62  C   UNL A   1      46.096  27.037  32.389  1.00  0.00     0.010 A 
ATOM     63  C   UNL A   1      47.063  28.131  30.453  1.00  0.00     0.010 A 
ATOM     64  C   UNL A   1      47.315  26.402  32.642  1.00  0.00     0.020 A 
ATOM     65  C   UNL A   1      48.275  27.471  30.683  1.00  0.00     0.020 A 
ATOM     66  C   UNL A   1      48.402  26.638  31.797  1.00  0.00     0.054 A 
BRANCH  66  67
ATOM     67  S   UNL A   1      49.989  25.839  32.168  1.00  0.00     0.124 S 
ATOM     68  O   UNL A   1      49.673  25.104  33.391  1.00  0.00    -0.237 OA
ATOM     69  O   UNL A   1      50.224  25.016  30.985  1.00  0.00    -0.237 OA
ATOM     70  O   UNL A   1      50.909  26.961  32.334  1.00  0.00    -0.744 OA
ENDBRANCH  66  67
ENDBRANCH  47  61
BRANCH  48  71
ATOM     71  C   UNL A   1      37.247  32.669  29.806  1.00  0.00    -0.014 A 
ATOM     72  C   UNL A   1      36.210  32.559  30.749  1.00  0.00     0.010 A 
ATOM     73  C   UNL A   1      37.063  33.492  28.680  1.00  0.00     0.010 A 
ATOM     74  C   UNL A   1      35.011  33.254  30.570  1.00  0.00     0.020 A 
ATOM     75  C   UNL A   1      35.872  34.207  28.509  1.00  0.00     0.020 A 
ATOM     76  C   UNL A   1      34.851  34.078  29.453  1.00  0.00     0.054 A 
BRANCH  76  77
ATOM     77  S   UNL A   1      33.316  35.032  29.284  1.00  0.00     0.124 S 
ATOM     78  O   UNL A   1      32.785  34.996  30.642  1.00  0.00    -0.237 OA
ATOM     79  O   UNL A   1      33.801  36.333  28.827  1.00  0.00    -0.237 OA
ATOM     80  O   UNL A   1      32.554  34.279  28.291  1.00  0.00    -0.744 OA
ENDBRANCH  76  77
ENDBRANCH  48  71
BRANCH  60  81
ATOM     81  C   UNL A   1      43.124  34.326  33.171  1.00  0.00    -0.014 A 
ATOM     82  C   UNL A   1      43.650  35.432  32.483  1.00  0.00     0.010 A 
ATOM     83  C   UNL A   1      42.941  34.399  34.564  1.00  0.00     0.010 A 
ATOM     84  C   UNL A   1      44.008  36.587  33.181  1.00  0.00     0.020 A 
ATOM     85  C   UNL A   1      43.279  35.561  35.262  1.00  0.00     0.020 A 
ATOM     86  C   UNL A   1      43.821  36.643  34.566  1.00  0.00     0.054 A 
BRANCH  86  87
ATOM     87  S   UNL A   1      44.239  38.174  35.444  1.00  0.00     0.124 S 
ATOM     88  O   UNL A   1      45.699  38.147  35.420  1.00  0.00    -0.237 OA
ATOM     89  O   UNL A   1      43.615  39.203  34.615  1.00  0.00    -0.237 OA
ATOM     90  O   UNL A   1      43.633  37.993  36.761  1.00  0.00    -0.744 OA
ENDBRANCH  86  87
ENDBRANCH  60  81
ENDBRANCH  34  35
ENDBRANCH  26  29
ENDBRANCH  24  25
ENDBRANCH   1  24
TORSDOF 16
ENDMDL
MODEL 3
REMARK VINA RESULT:     -11.8      4.906      9.663
REMARK SMILES COC(=O)c1cc(F)cc(-c2ccccc2C(=O)NCCCNC(=O)c2ccc(-c3c4nc(c(-c5ccc(S(=O)(=O)[O-])cc5)c5ccc([nH]5)c(-c5ccc(S(=O)(=O)[O-])cc5)c5nc(c(-c6ccc(S(=O)(=O)[O-])cc6)c6ccc3[nH]6)C=C5)C=C4)cc2)c1
REMARK SMILES IDX 21 1 20 2 19 3 17 4 18 5 16 7 11 8 12 9 13 10 15 11 14 12
REMARK SMILES IDX 10 13 5 14 6 15 86 16 7 17 8 18 9 19 3 20 4 21 2 22 1 23
REMARK SMILES IDX 22 24 23 25 24 26 25 28 26 29 27 30 85 31 28 32 84 33 29 34
REMARK SMILES IDX 30 35 31 36 78 37 32 38 83 39 77 40 79 41 33 42 82 43 76 44
REMARK SMILES IDX 75 45 34 47 64 48 45 49 63 50 46 51 49 52 62 53 80 54 47 55
REMARK SMILES IDX 48 56 61 58 81 59 50 60 35 61 36 62 44 63 37 64 43 65 38 66
REMARK SMILES IDX 39 67 40 68 41 69 42 70 65 71 66 72 74 73 67 74 73 75 68 76
REMARK SMILES IDX 69 77 70 78 71 79 72 80 51 81 52 82 60 83 53 84 59 85 54 86
REMARK SMILES IDX 55 87 56 88 57 89 58 90
REMARK H PARENT 19 6 23 27 79 46 49 57
REMARK Flexibility Score: inf
ROOT
ATOM      1  C   UNL A   1      33.600  28.322  25.556  1.00  0.00     0.042 C 
ENDROOT
BRANCH   1   2
ATOM      2  C   UNL A   1      33.893  26.870  25.217  1.00  0.00     0.118 C 
BRANCH   2   3
ATOM      3  N   UNL A   1      34.020  26.563  23.808  1.00  0.00    -0.352 N 
ATOM      4  C   UNL A   1      33.071  26.569  22.817  1.00  0.00     0.251 C 
ATOM      5  O   UNL A   1      33.449  26.382  21.658  1.00  0.00    -0.269 OA
ATOM      6  H   UNL A   1      34.927  26.311  23.516  1.00  0.00     0.163 HD
BRANCH   4   7
ATOM      7  C   UNL A   1      31.604  26.694  23.065  1.00  0.00     0.047 A 
ATOM      8  C   UNL A   1      30.751  25.723  23.641  1.00  0.00    -0.005 A 
ATOM      9  C   UNL A   1      29.394  26.073  23.839  1.00  0.00     0.009 A 
ATOM     10  C   UNL A   1      28.897  27.333  23.502  1.00  0.00     0.001 A 
ATOM     11  C   UNL A   1      31.088  27.969  22.748  1.00  0.00     0.014 A 
ATOM     12  C   UNL A   1      29.746  28.285  22.959  1.00  0.00     0.001 A 
BRANCH   8  13
ATOM     13  C   UNL A   1      31.164  24.367  24.039  1.00  0.00    -0.014 A 
ATOM     14  C   UNL A   1      32.147  22.816  25.624  1.00  0.00     0.063 A 
ATOM     15  C   UNL A   1      32.253  21.827  24.645  1.00  0.00     0.055 A 
ATOM     16  C   UNL A   1      31.589  24.072  25.343  1.00  0.00     0.024 A 
ATOM     17  C   UNL A   1      31.773  22.100  23.375  1.00  0.00     0.124 A 
ATOM     18  F   UNL A   1      31.903  21.186  22.406  1.00  0.00    -0.207 F 
ATOM     19  C   UNL A   1      31.226  23.343  23.068  1.00  0.00     0.048 A 
BRANCH  14  20
ATOM     20  C   UNL A   1      32.731  22.571  26.945  1.00  0.00     0.337 C 
ATOM     21  O   UNL A   1      32.188  22.843  28.001  1.00  0.00    -0.246 OA
BRANCH  20  22
ATOM     22  O   UNL A   1      33.943  22.002  26.743  1.00  0.00    -0.465 OA
ATOM     23  C   UNL A   1      35.030  22.929  26.760  1.00  0.00     0.282 C 
ENDBRANCH  20  22
ENDBRANCH  14  20
ENDBRANCH   8  13
ENDBRANCH   4   7
ENDBRANCH   2   3
ENDBRANCH   1   2
BRANCH   1  24
ATOM     24  C   UNL A   1      33.212  28.560  27.015  1.00  0.00     0.118 C 
BRANCH  24  25
ATOM     25  N   UNL A   1      33.345  29.939  27.478  1.00  0.00    -0.352 N 
ATOM     26  C   UNL A   1      34.362  30.681  28.033  1.00  0.00     0.251 C 
ATOM     27  H   UNL A   1      32.514  30.457  27.369  1.00  0.00     0.163 HD
ATOM     28  O   UNL A   1      34.120  31.844  28.360  1.00  0.00    -0.269 OA
BRANCH  26  29
ATOM     29  C   UNL A   1      35.712  30.143  28.314  1.00  0.00     0.039 A 
ATOM     30  C   UNL A   1      36.647  30.127  27.266  1.00  0.00     0.014 A 
ATOM     31  C   UNL A   1      36.086  29.624  29.547  1.00  0.00     0.014 A 
ATOM     32  C   UNL A   1      37.957  29.692  27.485  1.00  0.00     0.010 A 
ATOM     33  C   UNL A   1      37.418  29.315  29.803  1.00  0.00     0.010 A 
ATOM     34  C   UNL A   1      38.371  29.345  28.777  1.00  0.00    -0.014 A 
BRANCH  34  35
ATOM     35  C   UNL A   1      39.778  28.999  29.103  1.00  0.00     0.031 A 
ATOM     36  C   UNL A   1      40.672  30.036  29.730  1.00  0.00     0.074 A 
ATOM     37  C   UNL A   1      40.280  27.808  28.721  1.00  0.00     0.049 A 
ATOM     38  N   UNL A   1      41.972  30.039  29.864  1.00  0.00    -0.248 NA
ATOM     39  C   UNL A   1      40.015  31.259  30.222  1.00  0.00     0.031 C 
ATOM     40  C   UNL A   1      39.524  26.729  28.079  1.00  0.00     0.029 A 
ATOM     41  N   UNL A   1      41.554  27.309  28.806  1.00  0.00    -0.354 N 
ATOM     42  C   UNL A   1      42.294  31.287  30.386  1.00  0.00     0.074 A 
ATOM     43  C   UNL A   1      41.056  32.026  30.508  1.00  0.00     0.031 C 
ATOM     44  C   UNL A   1      40.337  25.681  27.872  1.00  0.00     0.029 A 
ATOM     45  C   UNL A   1      41.683  26.035  28.304  1.00  0.00     0.049 A 
ATOM     46  H   UNL A   1      42.306  27.815  29.192  1.00  0.00     0.167 HD
ATOM     47  C   UNL A   1      43.508  31.771  30.743  1.00  0.00     0.031 A 
ATOM     48  C   UNL A   1      42.768  25.246  28.194  1.00  0.00     0.031 A 
ATOM     49  C   UNL A   1      44.721  31.003  30.671  1.00  0.00     0.049 A 
ATOM     50  C   UNL A   1      44.096  25.777  28.649  1.00  0.00     0.074 A 
ATOM     51  C   UNL A   1      46.000  31.364  31.054  1.00  0.00     0.029 A 
ATOM     52  N   UNL A   1      44.795  29.697  30.204  1.00  0.00    -0.354 N 
ATOM     53  N   UNL A   1      44.385  26.962  29.135  1.00  0.00    -0.248 NA
ATOM     54  C   UNL A   1      45.244  24.868  28.543  1.00  0.00     0.031 C 
ATOM     55  C   UNL A   1      46.852  30.280  30.802  1.00  0.00     0.029 A 
ATOM     56  C   UNL A   1      46.095  29.233  30.297  1.00  0.00     0.049 A 
ATOM     57  H   UNL A   1      44.034  29.177  29.859  1.00  0.00     0.167 HD
ATOM     58  C   UNL A   1      45.745  26.932  29.418  1.00  0.00     0.074 A 
ATOM     59  C   UNL A   1      46.218  25.610  29.055  1.00  0.00     0.031 C 
ATOM     60  C   UNL A   1      46.531  27.909  29.933  1.00  0.00     0.031 A 
BRANCH  47  61
ATOM     61  C   UNL A   1      43.564  33.197  31.229  1.00  0.00    -0.014 A 
ATOM     62  C   UNL A   1      43.714  34.269  30.330  1.00  0.00     0.010 A 
ATOM     63  C   UNL A   1      43.507  33.468  32.609  1.00  0.00     0.010 A 
ATOM     64  C   UNL A   1      43.892  35.573  30.803  1.00  0.00     0.020 A 
ATOM     65  C   UNL A   1      43.651  34.776  33.085  1.00  0.00     0.020 A 
ATOM     66  C   UNL A   1      43.878  35.814  32.179  1.00  0.00     0.054 A 
BRANCH  66  67
ATOM     67  S   UNL A   1      44.155  37.505  32.774  1.00  0.00     0.124 S 
ATOM     68  O   UNL A   1      44.216  38.255  31.521  1.00  0.00    -0.237 OA
ATOM     69  O   UNL A   1      42.978  37.759  33.600  1.00  0.00    -0.237 OA
ATOM     70  O   UNL A   1      45.416  37.411  33.505  1.00  0.00    -0.744 OA
ENDBRANCH  66  67
ENDBRANCH  47  61
BRANCH  48  71
ATOM     71  C   UNL A   1      42.622  23.858  27.679  1.00  0.00    -0.014 A 
ATOM     72  C   UNL A   1      42.456  22.793  28.581  1.00  0.00     0.010 A 
ATOM     73  C   UNL A   1      42.589  23.595  26.297  1.00  0.00     0.010 A 
ATOM     74  C   UNL A   1      42.264  21.490  28.114  1.00  0.00     0.020 A 
ATOM     75  C   UNL A   1      42.375  22.295  25.826  1.00  0.00     0.020 A 
ATOM     76  C   UNL A   1      42.219  21.250  26.739  1.00  0.00     0.054 A 
BRANCH  76  77
ATOM     77  S   UNL A   1      41.889  19.563  26.157  1.00  0.00     0.124 S 
ATOM     78  O   UNL A   1      40.462  19.619  25.855  1.00  0.00    -0.237 OA
ATOM     79  O   UNL A   1      42.776  19.446  25.001  1.00  0.00    -0.237 OA
ATOM     80  O   UNL A   1      42.257  18.729  27.299  1.00  0.00    -0.744 OA
ENDBRANCH  76  77
ENDBRANCH  48  71
BRANCH  60  81
ATOM     81  C   UNL A   1      47.974  27.566  30.172  1.00  0.00    -0.014 A 
ATOM     82  C   UNL A   1      48.411  27.097  31.422  1.00  0.00     0.010 A 
ATOM     83  C   UNL A   1      48.890  27.661  29.108  1.00  0.00     0.010 A 
ATOM     84  C   UNL A   1      49.749  26.748  31.611  1.00  0.00     0.020 A 
ATOM     85  C   UNL A   1      50.225  27.293  29.290  1.00  0.00     0.020 A 
ATOM     86  C   UNL A   1      50.648  26.849  30.545  1.00  0.00     0.054 A 
BRANCH  86  87
ATOM     87  S   UNL A   1      52.368  26.337  30.797  1.00  0.00     0.124 S 
ATOM     88  O   UNL A   1      52.206  25.004  31.374  1.00  0.00    -0.237 OA
ATOM     89  O   UNL A   1      52.919  26.373  29.444  1.00  0.00    -0.237 OA
ATOM     90  O   UNL A   1      52.901  27.350  31.706  1.00  0.00    -0.744 OA
ENDBRANCH  86  87
ENDBRANCH  60  81
ENDBRANCH  34  35
ENDBRANCH  26  29
ENDBRANCH  24  25
ENDBRANCH   1  24
TORSDOF 16
ENDMDL
