MODEL 1
REMARK VINA RESULT:     -11.2      0.000      0.000
REMARK SMILES C/C(=N\Nc1nc(-c2ccc(Cl)cc2)cs1)c1nnn(-c2ccc(C(=O)NCCCNC(=O)c3ccc(-c4c5nc(c(-c6ccc(S(=O)(=O)[O-])cc6)c6ccc([nH]6)c(-c6ccc(S(=O)(=O)[O-])cc6)c6nc(c(-c7ccc(S(=O)(=O)[O-])cc7)c7ccc4[nH]7)C=C6)C=C5)cc3)cc2)c1C
REMARK SMILES IDX 28 1 27 2 25 3 26 4 24 6 21 7 22 8 95 9 23 10 94 11 20 12
REMARK SMILES IDX 17 13 18 14 96 15 19 16 97 17 2 18 1 19 3 20 4 21 5 23 6 24
REMARK SMILES IDX 16 25 7 26 15 27 8 28 9 29 14 30 10 31 13 32 11 33 12 34
REMARK SMILES IDX 29 35 30 36 31 37 32 38 33 40 34 41 35 42 93 43 36 44 92 45
REMARK SMILES IDX 37 46 38 47 39 48 86 49 40 50 91 51 85 52 87 53 41 54 90 55
REMARK SMILES IDX 84 56 83 57 42 59 72 60 53 61 71 62 54 63 57 64 70 65 88 66
REMARK SMILES IDX 55 67 56 68 69 70 89 71 58 72 43 73 44 74 52 75 45 76 51 77
REMARK SMILES IDX 46 78 47 79 48 80 49 81 50 82 73 83 74 84 82 85 75 86 81 87
REMARK SMILES IDX 76 88 77 89 78 90 79 91 80 92 59 93 60 94 68 95 61 96 67 97
REMARK SMILES IDX 62 98 63 99 64 100 65 101 66 102
REMARK H PARENT 27 5 4 22 31 39 87 58 57 69
REMARK Flexibility Score: inf
ROOT
ATOM      1  C   UNL A   1      43.380  24.641  25.275  1.00  0.00     0.118 C 
ENDROOT
BRANCH   1   2
ATOM      2  N   UNL A   1      44.571  25.269  24.713  1.00  0.00    -0.352 N 
ATOM      3  C   UNL A   1      45.702  25.795  25.297  1.00  0.00     0.251 C 
ATOM      4  O   UNL A   1      46.642  26.103  24.567  1.00  0.00    -0.269 OA
ATOM      5  H   UNL A   1      44.564  25.328  23.730  1.00  0.00     0.163 HD
BRANCH   3   6
ATOM      6  C   UNL A   1      45.855  25.946  26.770  1.00  0.00     0.039 A 
ATOM      7  C   UNL A   1      46.123  25.903  29.544  1.00  0.00     0.067 A 
ATOM      8  C   UNL A   1      47.223  25.562  28.760  1.00  0.00     0.029 A 
ATOM      9  C   UNL A   1      44.953  26.393  28.968  1.00  0.00     0.029 A 
ATOM     10  C   UNL A   1      47.074  25.566  27.365  1.00  0.00     0.016 A 
ATOM     11  C   UNL A   1      44.844  26.445  27.588  1.00  0.00     0.016 A 
BRANCH   7  12
ATOM     12  N   UNL A   1      46.091  25.580  30.908  1.00  0.00    -0.217 N 
ATOM     13  C   UNL A   1      45.636  24.673  32.828  1.00  0.00     0.132 A 
ATOM     14  N   UNL A   1      46.513  25.706  33.025  1.00  0.00    -0.128 NA
ATOM     15  C   UNL A   1      45.351  24.563  31.478  1.00  0.00     0.071 A 
ATOM     16  N   UNL A   1      46.856  26.189  31.833  1.00  0.00    -0.061 NA
ATOM     17  C   UNL A   1      44.589  23.545  30.704  1.00  0.00     0.069 C 
BRANCH  13  18
ATOM     18  C   UNL A   1      45.192  23.756  33.868  1.00  0.00     0.087 C 
ATOM     19  C   UNL A   1      43.713  23.467  33.865  1.00  0.00     0.071 C 
ATOM     20  N   UNL A   1      46.105  23.359  34.710  1.00  0.00    -0.176 NA
BRANCH  20  21
ATOM     21  N   UNL A   1      45.856  22.635  35.855  1.00  0.00    -0.252 N 
ATOM     22  H   UNL A   1      45.197  23.042  36.461  1.00  0.00     0.193 HD
BRANCH  21  23
ATOM     23  C   UNL A   1      46.368  21.456  36.289  1.00  0.00     0.203 A 
ATOM     24  N   UNL A   1      45.695  20.350  36.503  1.00  0.00    -0.219 NA
ATOM     25  S   UNL A   1      48.043  21.333  36.704  1.00  0.00    -0.103 S 
ATOM     26  C   UNL A   1      46.406  19.504  37.328  1.00  0.00     0.084 A 
ATOM     27  C   UNL A   1      47.715  19.873  37.550  1.00  0.00     0.097 A 
BRANCH  26  28
ATOM     28  C   UNL A   1      45.729  18.390  37.967  1.00  0.00     0.001 A 
ATOM     29  C   UNL A   1      44.636  17.790  37.331  1.00  0.00     0.012 A 
ATOM     30  C   UNL A   1      46.076  17.988  39.264  1.00  0.00     0.012 A 
ATOM     31  C   UNL A   1      43.918  16.774  37.968  1.00  0.00     0.021 A 
ATOM     32  C   UNL A   1      45.351  16.980  39.906  1.00  0.00     0.021 A 
ATOM     33  C   UNL A   1      44.281  16.371  39.252  1.00  0.00     0.041 A 
ATOM     34  Cl  UNL A   1      43.394  15.126  40.039  1.00  0.00    -0.084 Cl
ENDBRANCH  26  28
ENDBRANCH  21  23
ENDBRANCH  20  21
ENDBRANCH  13  18
ENDBRANCH   7  12
ENDBRANCH   3   6
ENDBRANCH   1   2
BRANCH   1  35
ATOM     35  C   UNL A   1      43.256  23.156  24.905  1.00  0.00     0.042 C 
BRANCH  35  36
ATOM     36  C   UNL A   1      42.757  22.294  26.047  1.00  0.00     0.118 C 
BRANCH  36  37
ATOM     37  N   UNL A   1      41.318  22.039  25.976  1.00  0.00    -0.352 N 
ATOM     38  C   UNL A   1      40.299  22.735  26.607  1.00  0.00     0.251 C 
ATOM     39  H   UNL A   1      41.041  21.281  25.412  1.00  0.00     0.163 HD
ATOM     40  O   UNL A   1      39.208  22.221  26.777  1.00  0.00    -0.269 OA
BRANCH  38  41
ATOM     41  C   UNL A   1      40.579  24.106  27.076  1.00  0.00     0.039 A 
ATOM     42  C   UNL A   1      39.979  25.222  26.488  1.00  0.00     0.014 A 
ATOM     43  C   UNL A   1      41.417  24.247  28.174  1.00  0.00     0.014 A 
ATOM     44  C   UNL A   1      40.164  26.469  27.082  1.00  0.00     0.010 A 
ATOM     45  C   UNL A   1      41.427  25.427  28.867  1.00  0.00     0.010 A 
ATOM     46  C   UNL A   1      40.871  26.561  28.291  1.00  0.00    -0.014 A 
BRANCH  46  47
ATOM     47  C   UNL A   1      40.975  27.820  29.019  1.00  0.00     0.031 A 
ATOM     48  C   UNL A   1      42.019  28.756  28.522  1.00  0.00     0.074 A 
ATOM     49  C   UNL A   1      40.060  28.222  29.929  1.00  0.00     0.049 A 
ATOM     50  N   UNL A   1      43.112  29.102  29.115  1.00  0.00    -0.248 NA
ATOM     51  C   UNL A   1      41.895  29.271  27.149  1.00  0.00     0.031 C 
ATOM     52  C   UNL A   1      38.792  27.581  30.303  1.00  0.00     0.029 A 
ATOM     53  N   UNL A   1      40.018  29.384  30.629  1.00  0.00    -0.354 N 
ATOM     54  C   UNL A   1      43.718  30.041  28.287  1.00  0.00     0.074 A 
ATOM     55  C   UNL A   1      43.025  29.969  27.024  1.00  0.00     0.031 C 
ATOM     56  C   UNL A   1      38.006  28.471  30.947  1.00  0.00     0.029 A 
ATOM     57  C   UNL A   1      38.786  29.666  31.205  1.00  0.00     0.049 A 
ATOM     58  H   UNL A   1      40.797  29.979  30.720  1.00  0.00     0.167 HD
ATOM     59  C   UNL A   1      44.594  30.968  28.769  1.00  0.00     0.031 A 
ATOM     60  C   UNL A   1      38.426  30.812  31.834  1.00  0.00     0.031 A 
ATOM     61  C   UNL A   1      45.025  30.651  30.108  1.00  0.00     0.049 A 
ATOM     62  C   UNL A   1      39.682  31.487  32.243  1.00  0.00     0.074 A 
ATOM     63  C   UNL A   1      45.670  29.573  30.683  1.00  0.00     0.029 A 
ATOM     64  N   UNL A   1      44.407  31.316  31.143  1.00  0.00    -0.354 N 
ATOM     65  N   UNL A   1      40.509  30.987  33.119  1.00  0.00    -0.248 NA
ATOM     66  C   UNL A   1      40.253  32.476  31.344  1.00  0.00     0.031 C 
ATOM     67  C   UNL A   1      44.994  29.364  31.922  1.00  0.00     0.029 A 
ATOM     68  C   UNL A   1      44.039  30.372  32.072  1.00  0.00     0.049 A 
ATOM     69  H   UNL A   1      44.258  32.286  31.207  1.00  0.00     0.167 HD
ATOM     70  C   UNL A   1      41.773  31.257  32.612  1.00  0.00     0.074 A 
ATOM     71  C   UNL A   1      41.551  32.263  31.573  1.00  0.00     0.031 C 
ATOM     72  C   UNL A   1      42.840  30.447  32.884  1.00  0.00     0.031 A 
BRANCH  59  73
ATOM     73  C   UNL A   1      44.776  32.338  28.168  1.00  0.00    -0.014 A 
ATOM     74  C   UNL A   1      45.975  32.647  27.496  1.00  0.00     0.010 A 
ATOM     75  C   UNL A   1      43.907  33.412  28.451  1.00  0.00     0.010 A 
ATOM     76  C   UNL A   1      46.299  33.969  27.157  1.00  0.00     0.020 A 
ATOM     77  C   UNL A   1      44.198  34.725  28.079  1.00  0.00     0.020 A 
ATOM     78  C   UNL A   1      45.408  35.000  27.459  1.00  0.00     0.054 A 
BRANCH  78  79
ATOM     79  S   UNL A   1      45.865  36.712  27.087  1.00  0.00     0.124 S 
ATOM     80  O   UNL A   1      46.684  36.551  25.889  1.00  0.00    -0.237 OA
ATOM     81  O   UNL A   1      44.562  37.342  26.885  1.00  0.00    -0.237 OA
ATOM     82  O   UNL A   1      46.580  37.143  28.285  1.00  0.00    -0.744 OA
ENDBRANCH  78  79
ENDBRANCH  59  73
BRANCH  60  83
ATOM     83  C   UNL A   1      37.104  31.485  31.815  1.00  0.00    -0.014 A 
ATOM     84  C   UNL A   1      36.417  31.765  33.011  1.00  0.00     0.010 A 
ATOM     85  C   UNL A   1      36.647  32.111  30.636  1.00  0.00     0.010 A 
ATOM     86  C   UNL A   1      35.359  32.690  33.038  1.00  0.00     0.020 A 
ATOM     87  C   UNL A   1      35.590  33.030  30.655  1.00  0.00     0.020 A 
ATOM     88  C   UNL A   1      34.968  33.334  31.862  1.00  0.00     0.054 A 
BRANCH  88  89
ATOM     89  S   UNL A   1      33.735  34.668  31.942  1.00  0.00     0.124 S 
ATOM     90  O   UNL A   1      32.823  34.187  32.975  1.00  0.00    -0.237 OA
ATOM     91  O   UNL A   1      34.545  35.828  32.305  1.00  0.00    -0.237 OA
ATOM     92  O   UNL A   1      33.177  34.705  30.591  1.00  0.00    -0.744 OA
ENDBRANCH  88  89
ENDBRANCH  60  83
BRANCH  72  93
ATOM     93  C   UNL A   1      42.688  29.384  33.957  1.00  0.00    -0.014 A 
ATOM     94  C   UNL A   1      42.996  29.588  35.317  1.00  0.00     0.010 A 
ATOM     95  C   UNL A   1      42.058  28.180  33.594  1.00  0.00     0.010 A 
ATOM     96  C   UNL A   1      42.708  28.604  36.279  1.00  0.00     0.020 A 
ATOM     97  C   UNL A   1      41.750  27.205  34.548  1.00  0.00     0.020 A 
ATOM     98  C   UNL A   1      42.085  27.416  35.886  1.00  0.00     0.054 A 
BRANCH  98  99
ATOM     99  S   UNL A   1      41.675  26.162  37.134  1.00  0.00     0.124 S 
ATOM    100  O   UNL A   1      42.794  26.263  38.065  1.00  0.00    -0.237 OA
ATOM    101  O   UNL A   1      40.386  26.621  37.646  1.00  0.00    -0.237 OA
ATOM    102  O   UNL A   1      41.618  24.916  36.369  1.00  0.00    -0.744 OA
ENDBRANCH  98  99
ENDBRANCH  72  93
ENDBRANCH  46  47
ENDBRANCH  38  41
ENDBRANCH  36  37
ENDBRANCH  35  36
ENDBRANCH   1  35
TORSDOF 18
ENDMDL
MODEL 2
REMARK VINA RESULT:     -10.7      1.666      2.119
REMARK SMILES C/C(=N\Nc1nc(-c2ccc(Cl)cc2)cs1)c1nnn(-c2ccc(C(=O)NCCCNC(=O)c3ccc(-c4c5nc(c(-c6ccc(S(=O)(=O)[O-])cc6)c6ccc([nH]6)c(-c6ccc(S(=O)(=O)[O-])cc6)c6nc(c(-c7ccc(S(=O)(=O)[O-])cc7)c7ccc4[nH]7)C=C6)C=C5)cc3)cc2)c1C
REMARK SMILES IDX 28 1 27 2 25 3 26 4 24 6 21 7 22 8 95 9 23 10 94 11 20 12
REMARK SMILES IDX 17 13 18 14 96 15 19 16 97 17 2 18 1 19 3 20 4 21 5 23 6 24
REMARK SMILES IDX 16 25 7 26 15 27 8 28 9 29 14 30 10 31 13 32 11 33 12 34
REMARK SMILES IDX 29 35 30 36 31 37 32 38 33 40 34 41 35 42 93 43 36 44 92 45
REMARK SMILES IDX 37 46 38 47 39 48 86 49 40 50 91 51 85 52 87 53 41 54 90 55
REMARK SMILES IDX 84 56 83 57 42 59 72 60 53 61 71 62 54 63 57 64 70 65 88 66
REMARK SMILES IDX 55 67 56 68 69 70 89 71 58 72 43 73 44 74 52 75 45 76 51 77
REMARK SMILES IDX 46 78 47 79 48 80 49 81 50 82 73 83 74 84 82 85 75 86 81 87
REMARK SMILES IDX 76 88 77 89 78 90 79 91 80 92 59 93 60 94 68 95 61 96 67 97
REMARK SMILES IDX 62 98 63 99 64 100 65 101 66 102
REMARK H PARENT 27 5 4 22 31 39 87 58 57 69
REMARK Flexibility Score: inf
ROOT
ATOM      1  C   UNL A   1      43.306  24.608  24.802  1.00  0.00     0.118 C 
ENDROOT
BRANCH   1   2
ATOM      2  N   UNL A   1      44.602  25.254  24.624  1.00  0.00    -0.352 N 
ATOM      3  C   UNL A   1      45.603  25.580  25.512  1.00  0.00     0.251 C 
ATOM      4  O   UNL A   1      46.680  25.960  25.058  1.00  0.00    -0.269 OA
ATOM      5  H   UNL A   1      44.798  25.503  23.691  1.00  0.00     0.163 HD
BRANCH   3   6
ATOM      6  C   UNL A   1      45.456  25.430  26.986  1.00  0.00     0.039 A 
ATOM      7  C   UNL A   1      45.467  25.303  29.771  1.00  0.00     0.067 A 
ATOM      8  C   UNL A   1      45.143  26.511  29.156  1.00  0.00     0.029 A 
ATOM      9  C   UNL A   1      45.644  24.141  29.023  1.00  0.00     0.029 A 
ATOM     10  C   UNL A   1      45.160  26.572  27.756  1.00  0.00     0.016 A 
ATOM     11  C   UNL A   1      45.600  24.208  27.639  1.00  0.00     0.016 A 
BRANCH   7  12
ATOM     12  N   UNL A   1      45.815  25.262  31.128  1.00  0.00    -0.217 N 
ATOM     13  C   UNL A   1      45.845  24.873  33.265  1.00  0.00     0.132 A 
ATOM     14  N   UNL A   1      46.904  25.681  32.948  1.00  0.00    -0.128 NA
ATOM     15  C   UNL A   1      45.131  24.581  32.115  1.00  0.00     0.071 A 
ATOM     16  N   UNL A   1      46.928  25.832  31.626  1.00  0.00    -0.061 NA
ATOM     17  C   UNL A   1      43.998  23.649  31.860  1.00  0.00     0.069 C 
BRANCH  13  18
ATOM     18  C   UNL A   1      45.604  24.304  34.583  1.00  0.00     0.087 C 
ATOM     19  C   UNL A   1      45.426  22.807  34.600  1.00  0.00     0.071 C 
ATOM     20  N   UNL A   1      45.502  25.155  35.564  1.00  0.00    -0.176 NA
BRANCH  20  21
ATOM     21  N   UNL A   1      45.108  24.833  36.845  1.00  0.00    -0.252 N 
ATOM     22  H   UNL A   1      44.175  25.065  37.057  1.00  0.00     0.193 HD
BRANCH  21  23
ATOM     23  C   UNL A   1      45.790  24.253  37.864  1.00  0.00     0.203 A 
ATOM     24  N   UNL A   1      46.915  23.584  37.763  1.00  0.00    -0.219 NA
ATOM     25  S   UNL A   1      45.145  24.276  39.469  1.00  0.00    -0.103 S 
ATOM     26  C   UNL A   1      47.100  22.782  38.868  1.00  0.00     0.084 A 
ATOM     27  C   UNL A   1      46.231  23.018  39.911  1.00  0.00     0.097 A 
BRANCH  26  28
ATOM     28  C   UNL A   1      48.085  21.716  38.824  1.00  0.00     0.001 A 
ATOM     29  C   UNL A   1      49.407  21.981  39.202  1.00  0.00     0.012 A 
ATOM     30  C   UNL A   1      47.760  20.461  38.290  1.00  0.00     0.012 A 
ATOM     31  C   UNL A   1      50.387  20.992  39.084  1.00  0.00     0.021 A 
ATOM     32  C   UNL A   1      48.744  19.476  38.160  1.00  0.00     0.021 A 
ATOM     33  C   UNL A   1      50.051  19.743  38.566  1.00  0.00     0.041 A 
ATOM     34  Cl  UNL A   1      51.259  18.529  38.413  1.00  0.00    -0.084 Cl
ENDBRANCH  26  28
ENDBRANCH  21  23
ENDBRANCH  20  21
ENDBRANCH  13  18
ENDBRANCH   7  12
ENDBRANCH   3   6
ENDBRANCH   1   2
BRANCH   1  35
ATOM     35  C   UNL A   1      43.376  23.079  24.672  1.00  0.00     0.042 C 
BRANCH  35  36
ATOM     36  C   UNL A   1      42.961  22.352  25.935  1.00  0.00     0.118 C 
BRANCH  36  37
ATOM     37  N   UNL A   1      41.535  22.029  25.959  1.00  0.00    -0.352 N 
ATOM     38  C   UNL A   1      40.527  22.680  26.653  1.00  0.00     0.251 C 
ATOM     39  H   UNL A   1      41.258  21.255  25.417  1.00  0.00     0.163 HD
ATOM     40  O   UNL A   1      39.475  22.116  26.895  1.00  0.00    -0.269 OA
BRANCH  38  41
ATOM     41  C   UNL A   1      40.772  24.066  27.097  1.00  0.00     0.039 A 
ATOM     42  C   UNL A   1      40.059  25.145  26.570  1.00  0.00     0.014 A 
ATOM     43  C   UNL A   1      41.698  24.257  28.115  1.00  0.00     0.014 A 
ATOM     44  C   UNL A   1      40.227  26.403  27.147  1.00  0.00     0.010 A 
ATOM     45  C   UNL A   1      41.706  25.437  28.807  1.00  0.00     0.010 A 
ATOM     46  C   UNL A   1      41.036  26.537  28.287  1.00  0.00    -0.014 A 
BRANCH  46  47
ATOM     47  C   UNL A   1      41.136  27.802  29.005  1.00  0.00     0.031 A 
ATOM     48  C   UNL A   1      42.181  28.734  28.506  1.00  0.00     0.074 A 
ATOM     49  C   UNL A   1      40.216  28.210  29.908  1.00  0.00     0.049 A 
ATOM     50  N   UNL A   1      43.271  29.086  29.101  1.00  0.00    -0.248 NA
ATOM     51  C   UNL A   1      42.063  29.239  27.129  1.00  0.00     0.031 C 
ATOM     52  C   UNL A   1      38.946  27.571  30.281  1.00  0.00     0.029 A 
ATOM     53  N   UNL A   1      40.170  29.378  30.598  1.00  0.00    -0.354 N 
ATOM     54  C   UNL A   1      43.881  30.019  28.269  1.00  0.00     0.074 A 
ATOM     55  C   UNL A   1      43.194  29.936  27.003  1.00  0.00     0.031 C 
ATOM     56  C   UNL A   1      38.157  28.466  30.914  1.00  0.00     0.029 A 
ATOM     57  C   UNL A   1      38.935  29.664  31.166  1.00  0.00     0.049 A 
ATOM     58  H   UNL A   1      40.948  29.974  30.689  1.00  0.00     0.167 HD
ATOM     59  C   UNL A   1      44.754  30.950  28.748  1.00  0.00     0.031 A 
ATOM     60  C   UNL A   1      38.571  30.814  31.784  1.00  0.00     0.031 A 
ATOM     61  C   UNL A   1      45.178  30.644  30.091  1.00  0.00     0.049 A 
ATOM     62  C   UNL A   1      39.824  31.493  32.194  1.00  0.00     0.074 A 
ATOM     63  C   UNL A   1      45.822  29.572  30.678  1.00  0.00     0.029 A 
ATOM     64  N   UNL A   1      44.555  31.317  31.119  1.00  0.00    -0.354 N 
ATOM     65  N   UNL A   1      40.648  31.001  33.078  1.00  0.00    -0.248 NA
ATOM     66  C   UNL A   1      40.399  32.476  31.290  1.00  0.00     0.031 C 
ATOM     67  C   UNL A   1      45.140  29.371  31.916  1.00  0.00     0.029 A 
ATOM     68  C   UNL A   1      44.184  30.380  32.052  1.00  0.00     0.049 A 
ATOM     69  H   UNL A   1      44.405  32.287  31.174  1.00  0.00     0.167 HD
ATOM     70  C   UNL A   1      41.914  31.268  32.574  1.00  0.00     0.074 A 
ATOM     71  C   UNL A   1      41.697  32.265  31.526  1.00  0.00     0.031 C 
ATOM     72  C   UNL A   1      42.980  30.460  32.858  1.00  0.00     0.031 A 
BRANCH  59  73
ATOM     73  C   UNL A   1      44.938  32.315  28.137  1.00  0.00    -0.014 A 
ATOM     74  C   UNL A   1      46.230  32.746  27.778  1.00  0.00     0.010 A 
ATOM     75  C   UNL A   1      43.915  33.286  28.127  1.00  0.00     0.010 A 
ATOM     76  C   UNL A   1      46.487  34.088  27.459  1.00  0.00     0.020 A 
ATOM     77  C   UNL A   1      44.149  34.614  27.768  1.00  0.00     0.020 A 
ATOM     78  C   UNL A   1      45.442  35.014  27.463  1.00  0.00     0.054 A 
BRANCH  78  79
ATOM     79  S   UNL A   1      45.793  36.757  27.124  1.00  0.00     0.124 S 
ATOM     80  O   UNL A   1      44.450  37.311  26.977  1.00  0.00    -0.237 OA
ATOM     81  O   UNL A   1      46.521  37.165  28.323  1.00  0.00    -0.237 OA
ATOM     82  O   UNL A   1      46.592  36.714  25.901  1.00  0.00    -0.744 OA
ENDBRANCH  78  79
ENDBRANCH  59  73
BRANCH  60  83
ATOM     83  C   UNL A   1      37.249  31.487  31.754  1.00  0.00    -0.014 A 
ATOM     84  C   UNL A   1      36.522  31.708  32.938  1.00  0.00     0.010 A 
ATOM     85  C   UNL A   1      36.830  32.167  30.591  1.00  0.00     0.010 A 
ATOM     86  C   UNL A   1      35.462  32.630  32.974  1.00  0.00     0.020 A 
ATOM     87  C   UNL A   1      35.770  33.083  30.618  1.00  0.00     0.020 A 
ATOM     88  C   UNL A   1      35.108  33.329  31.817  1.00  0.00     0.054 A 
BRANCH  88  89
ATOM     89  S   UNL A   1      33.870  34.657  31.920  1.00  0.00     0.124 S 
ATOM     90  O   UNL A   1      33.332  34.687  30.563  1.00  0.00    -0.237 OA
ATOM     91  O   UNL A   1      32.959  34.163  32.949  1.00  0.00    -0.237 OA
ATOM     92  O   UNL A   1      34.652  35.831  32.303  1.00  0.00    -0.744 OA
ENDBRANCH  88  89
ENDBRANCH  60  83
BRANCH  72  93
ATOM     93  C   UNL A   1      42.823  29.406  33.939  1.00  0.00    -0.014 A 
ATOM     94  C   UNL A   1      42.870  29.681  35.321  1.00  0.00     0.010 A 
ATOM     95  C   UNL A   1      42.458  28.110  33.534  1.00  0.00     0.010 A 
ATOM     96  C   UNL A   1      42.586  28.681  36.266  1.00  0.00     0.020 A 
ATOM     97  C   UNL A   1      42.156  27.115  34.468  1.00  0.00     0.020 A 
ATOM     98  C   UNL A   1      42.231  27.401  35.832  1.00  0.00     0.054 A 
BRANCH  98  99
ATOM     99  S   UNL A   1      41.825  26.119  37.052  1.00  0.00     0.124 S 
ATOM    100  O   UNL A   1      42.808  26.359  38.104  1.00  0.00    -0.237 OA
ATOM    101  O   UNL A   1      40.440  26.429  37.402  1.00  0.00    -0.237 OA
ATOM    102  O   UNL A   1      42.002  24.868  36.315  1.00  0.00    -0.744 OA
ENDBRANCH  98  99
ENDBRANCH  72  93
ENDBRANCH  46  47
ENDBRANCH  38  41
ENDBRANCH  36  37
ENDBRANCH  35  36
ENDBRANCH   1  35
TORSDOF 18
ENDMDL
MODEL 3
REMARK VINA RESULT:     -10.5      2.355      4.196
REMARK SMILES C/C(=N\Nc1nc(-c2ccc(Cl)cc2)cs1)c1nnn(-c2ccc(C(=O)NCCCNC(=O)c3ccc(-c4c5nc(c(-c6ccc(S(=O)(=O)[O-])cc6)c6ccc([nH]6)c(-c6ccc(S(=O)(=O)[O-])cc6)c6nc(c(-c7ccc(S(=O)(=O)[O-])cc7)c7ccc4[nH]7)C=C6)C=C5)cc3)cc2)c1C
REMARK SMILES IDX 28 1 27 2 25 3 26 4 24 6 21 7 22 8 95 9 23 10 94 11 20 12
REMARK SMILES IDX 17 13 18 14 96 15 19 16 97 17 2 18 1 19 3 20 4 21 5 23 6 24
REMARK SMILES IDX 16 25 7 26 15 27 8 28 9 29 14 30 10 31 13 32 11 33 12 34
REMARK SMILES IDX 29 35 30 36 31 37 32 38 33 40 34 41 35 42 93 43 36 44 92 45
REMARK SMILES IDX 37 46 38 47 39 48 86 49 40 50 91 51 85 52 87 53 41 54 90 55
REMARK SMILES IDX 84 56 83 57 42 59 72 60 53 61 71 62 54 63 57 64 70 65 88 66
REMARK SMILES IDX 55 67 56 68 69 70 89 71 58 72 43 73 44 74 52 75 45 76 51 77
REMARK SMILES IDX 46 78 47 79 48 80 49 81 50 82 73 83 74 84 82 85 75 86 81 87
REMARK SMILES IDX 76 88 77 89 78 90 79 91 80 92 59 93 60 94 68 95 61 96 67 97
REMARK SMILES IDX 62 98 63 99 64 100 65 101 66 102
REMARK H PARENT 27 5 4 22 31 39 87 58 57 69
REMARK Flexibility Score: inf
ROOT
ATOM      1  C   UNL A   1      43.577  23.352  30.191  1.00  0.00     0.118 C 
ENDROOT
BRANCH   1   2
ATOM      2  N   UNL A   1      44.027  24.681  30.592  1.00  0.00    -0.352 N 
ATOM      3  C   UNL A   1      44.627  25.146  31.742  1.00  0.00     0.251 C 
ATOM      4  O   UNL A   1      45.069  26.292  31.742  1.00  0.00    -0.269 OA
ATOM      5  H   UNL A   1      43.874  25.376  29.912  1.00  0.00     0.163 HD
BRANCH   3   6
ATOM      6  C   UNL A   1      44.816  24.301  32.954  1.00  0.00     0.039 A 
ATOM      7  C   UNL A   1      45.386  22.551  35.047  1.00  0.00     0.067 A 
ATOM      8  C   UNL A   1      46.294  23.567  34.757  1.00  0.00     0.029 A 
ATOM      9  C   UNL A   1      44.151  22.486  34.407  1.00  0.00     0.029 A 
ATOM     10  C   UNL A   1      46.010  24.431  33.689  1.00  0.00     0.016 A 
ATOM     11  C   UNL A   1      43.862  23.385  33.392  1.00  0.00     0.016 A 
BRANCH   7  12
ATOM     12  N   UNL A   1      45.765  21.460  35.841  1.00  0.00    -0.217 N 
ATOM     13  C   UNL A   1      46.451  20.208  37.478  1.00  0.00     0.132 A 
ATOM     14  N   UNL A   1      46.219  19.417  36.384  1.00  0.00    -0.128 NA
ATOM     15  C   UNL A   1      46.162  21.525  37.162  1.00  0.00     0.071 A 
ATOM     16  N   UNL A   1      45.709  20.182  35.422  1.00  0.00    -0.061 NA
ATOM     17  C   UNL A   1      46.099  22.755  37.998  1.00  0.00     0.069 C 
BRANCH  13  18
ATOM     18  C   UNL A   1      46.810  19.708  38.798  1.00  0.00     0.087 C 
ATOM     19  C   UNL A   1      48.079  20.290  39.368  1.00  0.00     0.071 C 
ATOM     20  N   UNL A   1      46.039  18.778  39.287  1.00  0.00    -0.176 NA
BRANCH  20  21
ATOM     21  N   UNL A   1      46.305  18.062  40.434  1.00  0.00    -0.252 N 
ATOM     22  H   UNL A   1      47.232  17.743  40.511  1.00  0.00     0.193 HD
BRANCH  21  23
ATOM     23  C   UNL A   1      45.502  17.719  41.472  1.00  0.00     0.203 A 
ATOM     24  N   UNL A   1      45.088  16.509  41.766  1.00  0.00    -0.219 NA
ATOM     25  S   UNL A   1      44.849  18.940  42.509  1.00  0.00    -0.103 S 
ATOM     26  C   UNL A   1      43.977  16.563  42.580  1.00  0.00     0.084 A 
ATOM     27  C   UNL A   1      43.690  17.810  43.090  1.00  0.00     0.097 A 
BRANCH  26  28
ATOM     28  C   UNL A   1      43.157  15.378  42.753  1.00  0.00     0.001 A 
ATOM     29  C   UNL A   1      43.297  14.604  43.911  1.00  0.00     0.012 A 
ATOM     30  C   UNL A   1      42.317  14.929  41.724  1.00  0.00     0.012 A 
ATOM     31  C   UNL A   1      42.579  13.414  44.057  1.00  0.00     0.021 A 
ATOM     32  C   UNL A   1      41.609  13.733  41.865  1.00  0.00     0.021 A 
ATOM     33  C   UNL A   1      41.736  12.985  43.034  1.00  0.00     0.041 A 
ATOM     34  Cl  UNL A   1      40.859  11.516  43.209  1.00  0.00    -0.084 Cl
ENDBRANCH  26  28
ENDBRANCH  21  23
ENDBRANCH  20  21
ENDBRANCH  13  18
ENDBRANCH   7  12
ENDBRANCH   3   6
ENDBRANCH   1   2
BRANCH   1  35
ATOM     35  C   UNL A   1      44.042  22.964  28.780  1.00  0.00     0.042 C 
BRANCH  35  36
ATOM     36  C   UNL A   1      42.898  22.626  27.845  1.00  0.00     0.118 C 
BRANCH  36  37
ATOM     37  N   UNL A   1      43.295  22.642  26.437  1.00  0.00    -0.352 N 
ATOM     38  C   UNL A   1      43.064  23.637  25.500  1.00  0.00     0.251 C 
ATOM     39  H   UNL A   1      43.785  21.850  26.116  1.00  0.00     0.163 HD
ATOM     40  O   UNL A   1      43.101  23.389  24.308  1.00  0.00    -0.269 OA
BRANCH  38  41
ATOM     41  C   UNL A   1      42.760  24.996  25.988  1.00  0.00     0.039 A 
ATOM     42  C   UNL A   1      41.479  25.544  25.888  1.00  0.00     0.014 A 
ATOM     43  C   UNL A   1      43.783  25.694  26.617  1.00  0.00     0.014 A 
ATOM     44  C   UNL A   1      41.225  26.765  26.512  1.00  0.00     0.010 A 
ATOM     45  C   UNL A   1      43.482  26.778  27.395  1.00  0.00     0.010 A 
ATOM     46  C   UNL A   1      42.228  27.366  27.289  1.00  0.00    -0.014 A 
BRANCH  46  47
ATOM     47  C   UNL A   1      41.970  28.570  28.069  1.00  0.00     0.031 A 
ATOM     48  C   UNL A   1      42.990  29.644  27.936  1.00  0.00     0.074 A 
ATOM     49  C   UNL A   1      40.793  28.805  28.691  1.00  0.00     0.049 A 
ATOM     50  N   UNL A   1      43.821  30.055  28.834  1.00  0.00    -0.248 NA
ATOM     51  C   UNL A   1      43.198  30.246  26.610  1.00  0.00     0.031 C 
ATOM     52  C   UNL A   1      39.558  28.010  28.654  1.00  0.00     0.029 A 
ATOM     53  N   UNL A   1      40.415  29.900  29.397  1.00  0.00    -0.354 N 
ATOM     54  C   UNL A   1      44.519  31.112  28.259  1.00  0.00     0.074 A 
ATOM     55  C   UNL A   1      44.226  31.063  26.847  1.00  0.00     0.031 C 
ATOM     56  C   UNL A   1      38.521  28.763  29.080  1.00  0.00     0.029 A 
ATOM     57  C   UNL A   1      39.045  30.010  29.604  1.00  0.00     0.049 A 
ATOM     58  H   UNL A   1      41.058  30.564  29.736  1.00  0.00     0.167 HD
ATOM     59  C   UNL A   1      45.103  32.085  29.013  1.00  0.00     0.031 A 
ATOM     60  C   UNL A   1      38.387  31.062  30.149  1.00  0.00     0.031 A 
ATOM     61  C   UNL A   1      45.173  31.714  30.404  1.00  0.00     0.049 A 
ATOM     62  C   UNL A   1      39.384  31.830  30.933  1.00  0.00     0.074 A 
ATOM     63  C   UNL A   1      45.755  30.669  31.095  1.00  0.00     0.029 A 
ATOM     64  N   UNL A   1      44.212  32.231  31.244  1.00  0.00    -0.354 N 
ATOM     65  N   UNL A   1      39.983  31.354  31.989  1.00  0.00    -0.248 NA
ATOM     66  C   UNL A   1      40.062  32.938  30.281  1.00  0.00     0.031 C 
ATOM     67  C   UNL A   1      44.786  30.297  32.075  1.00  0.00     0.029 A 
ATOM     68  C   UNL A   1      43.714  31.187  31.984  1.00  0.00     0.049 A 
ATOM     69  H   UNL A   1      43.935  33.174  31.303  1.00  0.00     0.167 HD
ATOM     70  C   UNL A   1      41.298  31.790  31.882  1.00  0.00     0.074 A 
ATOM     71  C   UNL A   1      41.259  32.843  30.867  1.00  0.00     0.031 C 
ATOM     72  C   UNL A   1      42.333  31.076  32.417  1.00  0.00     0.031 A 
BRANCH  59  73
ATOM     73  C   UNL A   1      45.282  33.508  28.549  1.00  0.00    -0.014 A 
ATOM     74  C   UNL A   1      46.562  34.094  28.585  1.00  0.00     0.010 A 
ATOM     75  C   UNL A   1      44.191  34.369  28.307  1.00  0.00     0.010 A 
ATOM     76  C   UNL A   1      46.734  35.477  28.420  1.00  0.00     0.020 A 
ATOM     77  C   UNL A   1      44.354  35.739  28.098  1.00  0.00     0.020 A 
ATOM     78  C   UNL A   1      45.624  36.290  28.184  1.00  0.00     0.054 A 
BRANCH  78  79
ATOM     79  S   UNL A   1      45.843  38.082  28.047  1.00  0.00     0.124 S 
ATOM     80  O   UNL A   1      44.475  38.535  27.817  1.00  0.00    -0.237 OA
ATOM     81  O   UNL A   1      46.416  38.423  29.347  1.00  0.00    -0.237 OA
ATOM     82  O   UNL A   1      46.753  38.229  26.913  1.00  0.00    -0.744 OA
ENDBRANCH  78  79
ENDBRANCH  59  73
BRANCH  60  83
ATOM     83  C   UNL A   1      37.053  31.594  29.777  1.00  0.00    -0.014 A 
ATOM     84  C   UNL A   1      36.130  31.988  30.764  1.00  0.00     0.010 A 
ATOM     85  C   UNL A   1      36.794  31.983  28.446  1.00  0.00     0.010 A 
ATOM     86  C   UNL A   1      35.029  32.801  30.440  1.00  0.00     0.020 A 
ATOM     87  C   UNL A   1      35.696  32.788  28.116  1.00  0.00     0.020 A 
ATOM     88  C   UNL A   1      34.833  33.215  29.121  1.00  0.00     0.054 A 
BRANCH  88  89
ATOM     89  S   UNL A   1      33.524  34.421  28.748  1.00  0.00     0.124 S 
ATOM     90  O   UNL A   1      34.275  35.520  28.149  1.00  0.00    -0.237 OA
ATOM     91  O   UNL A   1      32.658  33.677  27.837  1.00  0.00    -0.237 OA
ATOM     92  O   UNL A   1      32.939  34.710  30.056  1.00  0.00    -0.744 OA
ENDBRANCH  88  89
ENDBRANCH  60  83
BRANCH  72  93
ATOM     93  C   UNL A   1      42.013  29.926  33.354  1.00  0.00    -0.014 A 
ATOM     94  C   UNL A   1      41.551  28.665  32.925  1.00  0.00     0.010 A 
ATOM     95  C   UNL A   1      42.345  30.082  34.711  1.00  0.00     0.010 A 
ATOM     96  C   UNL A   1      41.400  27.604  33.834  1.00  0.00     0.020 A 
ATOM     97  C   UNL A   1      42.216  29.026  35.617  1.00  0.00     0.020 A 
ATOM     98  C   UNL A   1      41.734  27.793  35.178  1.00  0.00     0.054 A 
BRANCH  98  99
ATOM     99  S   UNL A   1      41.579  26.410  36.345  1.00  0.00     0.124 S 
ATOM    100  O   UNL A   1      40.968  25.369  35.524  1.00  0.00    -0.237 OA
ATOM    101  O   UNL A   1      42.962  26.164  36.746  1.00  0.00    -0.237 OA
ATOM    102  O   UNL A   1      40.722  26.943  37.404  1.00  0.00    -0.744 OA
ENDBRANCH  98  99
ENDBRANCH  72  93
ENDBRANCH  46  47
ENDBRANCH  38  41
ENDBRANCH  36  37
ENDBRANCH  35  36
ENDBRANCH   1  35
TORSDOF 18
ENDMDL
