MODEL 1
REMARK VINA RESULT:     -13.1      0.000      0.000
REMARK SMILES O=C(C[C@H]1N=NC(=O)c2ccccc21)N[C@@H](CC1=c2ccccc2=NC1)C(=O)NCCCNC(=O)c1ccc(-c2c3nc(c(-c4ccc(S(=O)(=O)[O-])cc4)c4ccc([nH]4)c(-c4ccc(S(=O)(=O)[O-])cc4)c4nc(c(-c5ccc(S(=O)(=O)[O-])cc5)c5ccc2[nH]5)C=C4)C=C3)cc1
REMARK SMILES IDX 31 1 30 2 29 3 27 4 28 5 16 7 15 8 1 9 2 10 3 12 4 13 5 14
REMARK SMILES IDX 14 15 6 16 9 17 13 18 7 19 10 20 12 21 8 22 11 23 17 24
REMARK SMILES IDX 18 25 19 26 26 27 20 28 24 29 25 30 21 31 23 32 22 33 32 34
REMARK SMILES IDX 33 35 34 36 35 38 36 39 37 40 95 41 38 42 94 43 39 44 40 45
REMARK SMILES IDX 41 46 88 47 42 48 93 49 87 50 89 51 43 52 92 53 86 54 85 55
REMARK SMILES IDX 44 57 74 58 55 59 73 60 56 61 59 62 72 63 90 64 57 65 58 66
REMARK SMILES IDX 71 68 91 69 60 70 45 71 46 72 54 73 47 74 53 75 48 76 49 77
REMARK SMILES IDX 50 78 51 79 52 80 75 81 76 82 84 83 77 84 83 85 78 86 79 87
REMARK SMILES IDX 80 88 81 89 82 90 61 91 62 92 70 93 63 94 69 95 64 96 65 97
REMARK SMILES IDX 66 98 67 99 68 100
REMARK H PARENT 29 6 15 11 33 37 89 56 59 67
REMARK Flexibility Score: inf
ROOT
ATOM      1  C   UNL A   1      34.686  30.037  27.372  1.00  0.00     0.042 C 
ENDROOT
BRANCH   1   2
ATOM      2  C   UNL A   1      33.253  30.552  27.232  1.00  0.00     0.117 C 
BRANCH   2   3
ATOM      3  N   UNL A   1      32.150  29.558  27.325  1.00  0.00    -0.354 N 
ATOM      4  C   UNL A   1      31.879  28.240  27.080  1.00  0.00     0.242 C 
ATOM      5  O   UNL A   1      31.239  27.737  28.026  1.00  0.00    -0.273 OA
ATOM      6  H   UNL A   1      31.346  29.996  27.685  1.00  0.00     0.163 HD
BRANCH   4   7
ATOM      7  C   UNL A   1      32.123  27.298  25.804  1.00  0.00     0.175 C 
BRANCH   7   8
ATOM      8  N   UNL A   1      31.723  25.900  26.021  1.00  0.00    -0.344 N 
ATOM      9  O   UNL A   1      33.811  25.042  26.439  1.00  0.00    -0.275 OA
ATOM     10  C   UNL A   1      32.608  24.870  26.263  1.00  0.00     0.223 C 
ATOM     11  H   UNL A   1      30.762  25.685  25.994  1.00  0.00     0.164 HD
BRANCH  10  12
ATOM     12  C   UNL A   1      32.023  23.466  26.176  1.00  0.00     0.134 C 
BRANCH  12  13
ATOM     13  C   UNL A   1      32.178  22.668  24.866  1.00  0.00     0.169 C 
ATOM     14  N   UNL A   1      31.340  23.319  23.835  1.00  0.00    -0.177 NA
ATOM     15  C   UNL A   1      33.577  22.416  24.413  1.00  0.00    -0.008 A 
ATOM     16  N   UNL A   1      31.821  23.997  22.899  1.00  0.00    -0.111 NA
ATOM     17  C   UNL A   1      34.106  23.220  23.414  1.00  0.00     0.049 A 
ATOM     18  C   UNL A   1      34.383  21.440  24.996  1.00  0.00     0.007 A 
ATOM     19  C   UNL A   1      33.183  24.097  22.664  1.00  0.00     0.295 C 
ATOM     20  C   UNL A   1      35.470  23.167  23.105  1.00  0.00     0.014 A 
ATOM     21  C   UNL A   1      35.740  21.384  24.686  1.00  0.00     0.000 A 
ATOM     22  O   UNL A   1      33.657  24.833  21.814  1.00  0.00    -0.265 OA
ATOM     23  C   UNL A   1      36.295  22.268  23.772  1.00  0.00     0.001 A 
ENDBRANCH  12  13
ENDBRANCH  10  12
ENDBRANCH   7   8
BRANCH   7  24
ATOM     24  C   UNL A   1      31.934  27.738  24.280  1.00  0.00     0.068 C 
BRANCH  24  25
ATOM     25  C   UNL A   1      30.559  27.601  23.569  1.00  0.00    -0.037 C 
ATOM     26  C   UNL A   1      29.408  28.250  23.873  1.00  0.00     0.001 A 
ATOM     27  C   UNL A   1      30.797  27.903  22.150  1.00  0.00     0.174 C 
ATOM     28  C   UNL A   1      28.083  27.967  23.252  1.00  0.00     0.010 A 
ATOM     29  C   UNL A   1      29.826  29.512  23.188  1.00  0.00     0.065 A 
ATOM     30  N   UNL A   1      30.650  29.384  22.187  1.00  0.00    -0.280 NA
ATOM     31  C   UNL A   1      27.318  29.016  22.861  1.00  0.00     0.001 A 
ATOM     32  C   UNL A   1      28.993  30.683  23.466  1.00  0.00     0.028 A 
ATOM     33  C   UNL A   1      27.709  30.387  23.208  1.00  0.00     0.002 A 
ENDBRANCH  24  25
ENDBRANCH   7  24
ENDBRANCH   4   7
ENDBRANCH   2   3
ENDBRANCH   1   2
BRANCH   1  34
ATOM     34  C   UNL A   1      35.583  31.072  28.034  1.00  0.00     0.118 C 
BRANCH  34  35
ATOM     35  N   UNL A   1      35.581  30.909  29.485  1.00  0.00    -0.352 N 
ATOM     36  C   UNL A   1      36.444  30.200  30.294  1.00  0.00     0.251 C 
ATOM     37  H   UNL A   1      34.854  31.376  29.958  1.00  0.00     0.163 HD
ATOM     38  O   UNL A   1      36.083  29.880  31.424  1.00  0.00    -0.269 OA
BRANCH  36  39
ATOM     39  C   UNL A   1      37.788  29.818  29.804  1.00  0.00     0.039 A 
ATOM     40  C   UNL A   1      38.724  29.267  30.677  1.00  0.00     0.014 A 
ATOM     41  C   UNL A   1      38.113  29.964  28.451  1.00  0.00     0.014 A 
ATOM     42  C   UNL A   1      40.029  29.062  30.259  1.00  0.00     0.010 A 
ATOM     43  C   UNL A   1      39.390  29.612  27.998  1.00  0.00     0.010 A 
ATOM     44  C   UNL A   1      40.373  29.190  28.906  1.00  0.00    -0.014 A 
BRANCH  44  45
ATOM     45  C   UNL A   1      41.739  28.797  28.468  1.00  0.00     0.031 A 
ATOM     46  C   UNL A   1      42.886  29.766  28.530  1.00  0.00     0.074 A 
ATOM     47  C   UNL A   1      41.944  27.529  28.048  1.00  0.00     0.049 A 
ATOM     48  N   UNL A   1      44.133  29.579  28.182  1.00  0.00    -0.248 NA
ATOM     49  C   UNL A   1      42.605  31.119  29.037  1.00  0.00     0.031 C 
ATOM     50  C   UNL A   1      40.908  26.493  27.975  1.00  0.00     0.029 A 
ATOM     51  N   UNL A   1      43.083  26.880  27.643  1.00  0.00    -0.354 N 
ATOM     52  C   UNL A   1      44.777  30.792  28.395  1.00  0.00     0.074 A 
ATOM     53  C   UNL A   1      43.779  31.719  28.883  1.00  0.00     0.031 C 
ATOM     54  C   UNL A   1      41.473  25.327  27.641  1.00  0.00     0.029 A 
ATOM     55  C   UNL A   1      42.886  25.548  27.359  1.00  0.00     0.049 A 
ATOM     56  H   UNL A   1      43.957  27.325  27.563  1.00  0.00     0.167 HD
ATOM     57  C   UNL A   1      46.082  31.097  28.201  1.00  0.00     0.031 A 
ATOM     58  C   UNL A   1      43.730  24.605  26.897  1.00  0.00     0.031 A 
ATOM     59  C   UNL A   1      47.064  30.150  27.737  1.00  0.00     0.049 A 
ATOM     60  C   UNL A   1      45.153  24.985  26.630  1.00  0.00     0.074 A 
ATOM     61  C   UNL A   1      48.420  30.349  27.557  1.00  0.00     0.029 A 
ATOM     62  N   UNL A   1      46.802  28.836  27.374  1.00  0.00    -0.354 N 
ATOM     63  N   UNL A   1      45.749  26.131  26.860  1.00  0.00    -0.248 NA
ATOM     64  C   UNL A   1      46.017  23.962  26.028  1.00  0.00     0.031 C 
ATOM     65  C   UNL A   1      48.961  29.190  26.998  1.00  0.00     0.029 A 
ATOM     66  C   UNL A   1      47.961  28.232  26.916  1.00  0.00     0.049 A 
ATOM     67  H   UNL A   1      45.922  28.397  27.434  1.00  0.00     0.167 HD
ATOM     68  C   UNL A   1      47.060  25.969  26.434  1.00  0.00     0.074 A 
ATOM     69  C   UNL A   1      47.178  24.605  25.956  1.00  0.00     0.031 C 
ATOM     70  C   UNL A   1      48.066  26.875  26.431  1.00  0.00     0.031 A 
BRANCH  57  71
ATOM     71  C   UNL A   1      46.542  32.511  28.463  1.00  0.00    -0.014 A 
ATOM     72  C   UNL A   1      46.786  33.371  27.374  1.00  0.00     0.010 A 
ATOM     73  C   UNL A   1      46.853  32.955  29.761  1.00  0.00     0.010 A 
ATOM     74  C   UNL A   1      47.356  34.631  27.571  1.00  0.00     0.020 A 
ATOM     75  C   UNL A   1      47.392  34.231  29.966  1.00  0.00     0.020 A 
ATOM     76  C   UNL A   1      47.661  35.051  28.867  1.00  0.00     0.054 A 
BRANCH  76  77
ATOM     77  S   UNL A   1      48.416  36.684  29.104  1.00  0.00     0.124 S 
ATOM     78  O   UNL A   1      48.987  36.570  30.442  1.00  0.00    -0.237 OA
ATOM     79  O   UNL A   1      49.378  36.751  28.006  1.00  0.00    -0.237 OA
ATOM     80  O   UNL A   1      47.284  37.602  28.981  1.00  0.00    -0.744 OA
ENDBRANCH  76  77
ENDBRANCH  57  71
BRANCH  58  81
ATOM     81  C   UNL A   1      43.214  23.223  26.684  1.00  0.00    -0.014 A 
ATOM     82  C   UNL A   1      42.807  22.436  27.780  1.00  0.00     0.010 A 
ATOM     83  C   UNL A   1      43.275  22.635  25.408  1.00  0.00     0.010 A 
ATOM     84  C   UNL A   1      42.572  21.069  27.623  1.00  0.00     0.020 A 
ATOM     85  C   UNL A   1      43.002  21.274  25.242  1.00  0.00     0.020 A 
ATOM     86  C   UNL A   1      42.695  20.491  26.357  1.00  0.00     0.054 A 
BRANCH  86  87
ATOM     87  S   UNL A   1      42.507  18.693  26.203  1.00  0.00     0.124 S 
ATOM     88  O   UNL A   1      43.507  18.375  25.187  1.00  0.00    -0.237 OA
ATOM     89  O   UNL A   1      42.810  18.226  27.553  1.00  0.00    -0.237 OA
ATOM     90  O   UNL A   1      41.118  18.529  25.786  1.00  0.00    -0.744 OA
ENDBRANCH  86  87
ENDBRANCH  58  81
BRANCH  70  91
ATOM     91  C   UNL A   1      49.400  26.455  25.872  1.00  0.00    -0.014 A 
ATOM     92  C   UNL A   1      50.332  25.800  26.698  1.00  0.00     0.010 A 
ATOM     93  C   UNL A   1      49.791  26.862  24.583  1.00  0.00     0.010 A 
ATOM     94  C   UNL A   1      51.650  25.620  26.274  1.00  0.00     0.020 A 
ATOM     95  C   UNL A   1      51.100  26.651  24.142  1.00  0.00     0.020 A 
ATOM     96  C   UNL A   1      52.029  26.065  25.005  1.00  0.00     0.054 A 
BRANCH  96  97
ATOM     97  S   UNL A   1      53.767  25.905  24.511  1.00  0.00     0.124 S 
ATOM     98  O   UNL A   1      54.105  24.572  25.002  1.00  0.00    -0.237 OA
ATOM     99  O   UNL A   1      53.700  26.044  23.059  1.00  0.00    -0.237 OA
ATOM    100  O   UNL A   1      54.425  27.010  25.206  1.00  0.00    -0.744 OA
ENDBRANCH  96  97
ENDBRANCH  70  91
ENDBRANCH  44  45
ENDBRANCH  36  39
ENDBRANCH  34  35
ENDBRANCH   1  34
TORSDOF 18
ENDMDL
MODEL 2
REMARK VINA RESULT:     -12.6      5.154      9.170
REMARK SMILES O=C(C[C@H]1N=NC(=O)c2ccccc21)N[C@@H](CC1=c2ccccc2=NC1)C(=O)NCCCNC(=O)c1ccc(-c2c3nc(c(-c4ccc(S(=O)(=O)[O-])cc4)c4ccc([nH]4)c(-c4ccc(S(=O)(=O)[O-])cc4)c4nc(c(-c5ccc(S(=O)(=O)[O-])cc5)c5ccc2[nH]5)C=C4)C=C3)cc1
REMARK SMILES IDX 31 1 30 2 29 3 27 4 28 5 16 7 15 8 1 9 2 10 3 12 4 13 5 14
REMARK SMILES IDX 14 15 6 16 9 17 13 18 7 19 10 20 12 21 8 22 11 23 17 24
REMARK SMILES IDX 18 25 19 26 26 27 20 28 24 29 25 30 21 31 23 32 22 33 32 34
REMARK SMILES IDX 33 35 34 36 35 38 36 39 37 40 95 41 38 42 94 43 39 44 40 45
REMARK SMILES IDX 41 46 88 47 42 48 93 49 87 50 89 51 43 52 92 53 86 54 85 55
REMARK SMILES IDX 44 57 74 58 55 59 73 60 56 61 59 62 72 63 90 64 57 65 58 66
REMARK SMILES IDX 71 68 91 69 60 70 45 71 46 72 54 73 47 74 53 75 48 76 49 77
REMARK SMILES IDX 50 78 51 79 52 80 75 81 76 82 84 83 77 84 83 85 78 86 79 87
REMARK SMILES IDX 80 88 81 89 82 90 61 91 62 92 70 93 63 94 69 95 64 96 65 97
REMARK SMILES IDX 66 98 67 99 68 100
REMARK H PARENT 29 6 15 11 33 37 89 56 59 67
REMARK Flexibility Score: inf
ROOT
ATOM      1  C   UNL A   1      32.896  28.924  26.221  1.00  0.00     0.042 C 
ENDROOT
BRANCH   1   2
ATOM      2  C   UNL A   1      32.103  28.298  27.367  1.00  0.00     0.117 C 
BRANCH   2   3
ATOM      3  N   UNL A   1      30.988  27.378  27.013  1.00  0.00    -0.354 N 
ATOM      4  C   UNL A   1      30.589  26.515  26.030  1.00  0.00     0.242 C 
ATOM      5  O   UNL A   1      30.143  25.459  26.524  1.00  0.00    -0.273 OA
ATOM      6  H   UNL A   1      30.311  27.396  27.727  1.00  0.00     0.163 HD
BRANCH   4   7
ATOM      7  C   UNL A   1      30.488  26.655  24.434  1.00  0.00     0.175 C 
BRANCH   7   8
ATOM      8  N   UNL A   1      31.126  25.548  23.707  1.00  0.00    -0.344 N 
ATOM      9  O   UNL A   1      33.293  26.287  23.857  1.00  0.00    -0.275 OA
ATOM     10  C   UNL A   1      32.473  25.483  23.424  1.00  0.00     0.223 C 
ATOM     11  H   UNL A   1      30.554  24.805  23.403  1.00  0.00     0.164 HD
BRANCH  10  12
ATOM     12  C   UNL A   1      32.884  24.410  22.424  1.00  0.00     0.134 C 
BRANCH  12  13
ATOM     13  C   UNL A   1      33.611  23.148  22.933  1.00  0.00     0.169 C 
ATOM     14  N   UNL A   1      35.008  23.200  22.448  1.00  0.00    -0.177 NA
ATOM     15  C   UNL A   1      33.507  22.877  24.397  1.00  0.00    -0.008 A 
ATOM     16  N   UNL A   1      35.976  23.459  23.198  1.00  0.00    -0.111 NA
ATOM     17  C   UNL A   1      34.572  23.227  25.214  1.00  0.00     0.049 A 
ATOM     18  C   UNL A   1      32.358  22.339  24.973  1.00  0.00     0.007 A 
ATOM     19  C   UNL A   1      35.851  23.594  24.571  1.00  0.00     0.295 C 
ATOM     20  C   UNL A   1      34.442  23.193  26.607  1.00  0.00     0.014 A 
ATOM     21  C   UNL A   1      32.229  22.300  26.360  1.00  0.00     0.000 A 
ATOM     22  O   UNL A   1      36.773  23.940  25.291  1.00  0.00    -0.265 OA
ATOM     23  C   UNL A   1      33.250  22.761  27.179  1.00  0.00     0.001 A 
ENDBRANCH  12  13
ENDBRANCH  10  12
ENDBRANCH   7   8
BRANCH   7  24
ATOM     24  C   UNL A   1      29.237  27.247  23.637  1.00  0.00     0.068 C 
BRANCH  24  25
ATOM     25  C   UNL A   1      29.417  28.383  22.592  1.00  0.00    -0.037 C 
ATOM     26  C   UNL A   1      28.559  29.399  22.326  1.00  0.00     0.001 A 
ATOM     27  C   UNL A   1      30.691  29.042  22.915  1.00  0.00     0.174 C 
ATOM     28  C   UNL A   1      28.715  30.374  21.210  1.00  0.00     0.010 A 
ATOM     29  C   UNL A   1      28.984  30.198  23.518  1.00  0.00     0.065 A 
ATOM     30  N   UNL A   1      30.209  30.024  23.926  1.00  0.00    -0.280 NA
ATOM     31  C   UNL A   1      28.509  31.688  21.470  1.00  0.00     0.001 A 
ATOM     32  C   UNL A   1      28.123  31.333  23.851  1.00  0.00     0.028 A 
ATOM     33  C   UNL A   1      27.973  32.112  22.768  1.00  0.00     0.002 A 
ENDBRANCH  24  25
ENDBRANCH   7  24
ENDBRANCH   4   7
ENDBRANCH   2   3
ENDBRANCH   1   2
BRANCH   1  34
ATOM     34  C   UNL A   1      34.199  29.532  26.718  1.00  0.00     0.118 C 
BRANCH  34  35
ATOM     35  N   UNL A   1      34.010  30.933  27.088  1.00  0.00    -0.352 N 
ATOM     36  C   UNL A   1      34.607  31.669  28.089  1.00  0.00     0.251 C 
ATOM     37  H   UNL A   1      33.358  31.426  26.539  1.00  0.00     0.163 HD
ATOM     38  O   UNL A   1      34.068  32.702  28.479  1.00  0.00    -0.269 OA
BRANCH  36  39
ATOM     39  C   UNL A   1      35.878  31.215  28.698  1.00  0.00     0.039 A 
ATOM     40  C   UNL A   1      35.931  30.014  29.402  1.00  0.00     0.014 A 
ATOM     41  C   UNL A   1      37.046  31.967  28.532  1.00  0.00     0.014 A 
ATOM     42  C   UNL A   1      37.073  29.671  30.109  1.00  0.00     0.010 A 
ATOM     43  C   UNL A   1      38.241  31.539  29.122  1.00  0.00     0.010 A 
ATOM     44  C   UNL A   1      38.258  30.403  29.947  1.00  0.00    -0.014 A 
BRANCH  44  45
ATOM     45  C   UNL A   1      39.505  29.906  30.585  1.00  0.00     0.031 A 
ATOM     46  C   UNL A   1      40.324  28.815  29.952  1.00  0.00     0.074 A 
ATOM     47  C   UNL A   1      39.919  30.484  31.734  1.00  0.00     0.049 A 
ATOM     48  N   UNL A   1      41.431  28.269  30.384  1.00  0.00    -0.248 NA
ATOM     49  C   UNL A   1      39.841  28.257  28.679  1.00  0.00     0.031 C 
ATOM     50  C   UNL A   1      39.219  31.573  32.424  1.00  0.00     0.029 A 
ATOM     51  N   UNL A   1      41.035  30.274  32.505  1.00  0.00    -0.354 N 
ATOM     52  C   UNL A   1      41.760  27.285  29.459  1.00  0.00     0.074 A 
ATOM     53  C   UNL A   1      40.723  27.292  28.450  1.00  0.00     0.031 C 
ATOM     54  C   UNL A   1      39.962  31.993  33.455  1.00  0.00     0.029 A 
ATOM     55  C   UNL A   1      41.131  31.131  33.578  1.00  0.00     0.049 A 
ATOM     56  H   UNL A   1      41.702  29.578  32.310  1.00  0.00     0.167 HD
ATOM     57  C   UNL A   1      42.831  26.457  29.457  1.00  0.00     0.031 A 
ATOM     58  C   UNL A   1      42.037  31.210  34.573  1.00  0.00     0.031 A 
ATOM     59  C   UNL A   1      43.865  26.486  30.461  1.00  0.00     0.049 A 
ATOM     60  C   UNL A   1      43.178  30.240  34.582  1.00  0.00     0.074 A 
ATOM     61  C   UNL A   1      45.016  25.721  30.519  1.00  0.00     0.029 A 
ATOM     62  N   UNL A   1      43.875  27.308  31.579  1.00  0.00    -0.354 N 
ATOM     63  N   UNL A   1      43.485  29.333  33.686  1.00  0.00    -0.248 NA
ATOM     64  C   UNL A   1      44.086  30.286  35.735  1.00  0.00     0.031 C 
ATOM     65  C   UNL A   1      45.673  26.013  31.715  1.00  0.00     0.029 A 
ATOM     66  C   UNL A   1      44.983  27.027  32.362  1.00  0.00     0.049 A 
ATOM     67  H   UNL A   1      43.196  27.990  31.786  1.00  0.00     0.167 HD
ATOM     68  C   UNL A   1      44.623  28.699  34.163  1.00  0.00     0.074 A 
ATOM     69  C   UNL A   1      44.966  29.344  35.415  1.00  0.00     0.031 C 
ATOM     70  C   UNL A   1      45.310  27.669  33.614  1.00  0.00     0.031 A 
BRANCH  57  71
ATOM     71  C   UNL A   1      42.951  25.429  28.358  1.00  0.00    -0.014 A 
ATOM     72  C   UNL A   1      42.374  24.156  28.538  1.00  0.00     0.010 A 
ATOM     73  C   UNL A   1      43.727  25.667  27.210  1.00  0.00     0.010 A 
ATOM     74  C   UNL A   1      42.594  23.134  27.611  1.00  0.00     0.020 A 
ATOM     75  C   UNL A   1      43.921  24.655  26.261  1.00  0.00     0.020 A 
ATOM     76  C   UNL A   1      43.371  23.389  26.480  1.00  0.00     0.054 A 
BRANCH  76  77
ATOM     77  S   UNL A   1      43.660  22.046  25.295  1.00  0.00     0.124 S 
ATOM     78  O   UNL A   1      45.034  21.657  25.596  1.00  0.00    -0.237 OA
ATOM     79  O   UNL A   1      42.631  21.075  25.660  1.00  0.00    -0.237 OA
ATOM     80  O   UNL A   1      43.460  22.689  23.997  1.00  0.00    -0.744 OA
ENDBRANCH  76  77
ENDBRANCH  57  71
BRANCH  58  81
ATOM     81  C   UNL A   1      41.872  32.266  35.612  1.00  0.00    -0.014 A 
ATOM     82  C   UNL A   1      40.952  32.093  36.665  1.00  0.00     0.010 A 
ATOM     83  C   UNL A   1      42.516  33.506  35.465  1.00  0.00     0.010 A 
ATOM     84  C   UNL A   1      40.603  33.168  37.486  1.00  0.00     0.020 A 
ATOM     85  C   UNL A   1      42.197  34.574  36.311  1.00  0.00     0.020 A 
ATOM     86  C   UNL A   1      41.211  34.409  37.286  1.00  0.00     0.054 A 
BRANCH  86  87
ATOM     87  S   UNL A   1      40.650  35.818  38.282  1.00  0.00     0.124 S 
ATOM     88  O   UNL A   1      41.914  36.470  38.615  1.00  0.00    -0.237 OA
ATOM     89  O   UNL A   1      39.793  36.545  37.349  1.00  0.00    -0.237 OA
ATOM     90  O   UNL A   1      39.955  35.190  39.403  1.00  0.00    -0.744 OA
ENDBRANCH  86  87
ENDBRANCH  58  81
BRANCH  70  91
ATOM     91  C   UNL A   1      46.502  27.131  34.362  1.00  0.00    -0.014 A 
ATOM     92  C   UNL A   1      46.325  26.134  35.340  1.00  0.00     0.010 A 
ATOM     93  C   UNL A   1      47.765  27.734  34.217  1.00  0.00     0.010 A 
ATOM     94  C   UNL A   1      47.368  25.798  36.205  1.00  0.00     0.020 A 
ATOM     95  C   UNL A   1      48.821  27.374  35.058  1.00  0.00     0.020 A 
ATOM     96  C   UNL A   1      48.604  26.435  36.069  1.00  0.00     0.054 A 
BRANCH  96  97
ATOM     97  S   UNL A   1      49.916  26.051  37.261  1.00  0.00     0.124 S 
ATOM     98  O   UNL A   1      49.214  25.214  38.231  1.00  0.00    -0.237 OA
ATOM     99  O   UNL A   1      50.906  25.364  36.436  1.00  0.00    -0.237 OA
ATOM    100  O   UNL A   1      50.329  27.364  37.754  1.00  0.00    -0.744 OA
ENDBRANCH  96  97
ENDBRANCH  70  91
ENDBRANCH  44  45
ENDBRANCH  36  39
ENDBRANCH  34  35
ENDBRANCH   1  34
TORSDOF 18
ENDMDL
MODEL 3
REMARK VINA RESULT:     -12.3      5.851     10.086
REMARK SMILES O=C(C[C@H]1N=NC(=O)c2ccccc21)N[C@@H](CC1=c2ccccc2=NC1)C(=O)NCCCNC(=O)c1ccc(-c2c3nc(c(-c4ccc(S(=O)(=O)[O-])cc4)c4ccc([nH]4)c(-c4ccc(S(=O)(=O)[O-])cc4)c4nc(c(-c5ccc(S(=O)(=O)[O-])cc5)c5ccc2[nH]5)C=C4)C=C3)cc1
REMARK SMILES IDX 31 1 30 2 29 3 27 4 28 5 16 7 15 8 1 9 2 10 3 12 4 13 5 14
REMARK SMILES IDX 14 15 6 16 9 17 13 18 7 19 10 20 12 21 8 22 11 23 17 24
REMARK SMILES IDX 18 25 19 26 26 27 20 28 24 29 25 30 21 31 23 32 22 33 32 34
REMARK SMILES IDX 33 35 34 36 35 38 36 39 37 40 95 41 38 42 94 43 39 44 40 45
REMARK SMILES IDX 41 46 88 47 42 48 93 49 87 50 89 51 43 52 92 53 86 54 85 55
REMARK SMILES IDX 44 57 74 58 55 59 73 60 56 61 59 62 72 63 90 64 57 65 58 66
REMARK SMILES IDX 71 68 91 69 60 70 45 71 46 72 54 73 47 74 53 75 48 76 49 77
REMARK SMILES IDX 50 78 51 79 52 80 75 81 76 82 84 83 77 84 83 85 78 86 79 87
REMARK SMILES IDX 80 88 81 89 82 90 61 91 62 92 70 93 63 94 69 95 64 96 65 97
REMARK SMILES IDX 66 98 67 99 68 100
REMARK H PARENT 29 6 15 11 33 37 89 56 59 67
REMARK Flexibility Score: inf
ROOT
ATOM      1  C   UNL A   1      31.750  31.832  26.540  1.00  0.00     0.042 C 
ENDROOT
BRANCH   1   2
ATOM      2  C   UNL A   1      31.431  30.520  27.257  1.00  0.00     0.117 C 
BRANCH   2   3
ATOM      3  N   UNL A   1      32.418  29.413  27.142  1.00  0.00    -0.354 N 
ATOM      4  C   UNL A   1      33.154  28.732  26.211  1.00  0.00     0.242 C 
ATOM      5  O   UNL A   1      34.326  28.568  26.608  1.00  0.00    -0.273 OA
ATOM      6  H   UNL A   1      32.605  29.049  28.036  1.00  0.00     0.163 HD
BRANCH   4   7
ATOM      7  C   UNL A   1      32.770  28.040  24.815  1.00  0.00     0.175 C 
BRANCH   7   8
ATOM      8  N   UNL A   1      32.511  26.597  24.927  1.00  0.00    -0.344 N 
ATOM      9  O   UNL A   1      30.818  26.706  26.472  1.00  0.00    -0.275 OA
ATOM     10  C   UNL A   1      31.595  26.040  25.794  1.00  0.00     0.223 C 
ATOM     11  H   UNL A   1      33.025  25.989  24.346  1.00  0.00     0.164 HD
BRANCH  10  12
ATOM     12  C   UNL A   1      31.681  24.528  25.961  1.00  0.00     0.134 C 
BRANCH  12  13
ATOM     13  C   UNL A   1      31.726  23.636  24.704  1.00  0.00     0.169 C 
ATOM     14  N   UNL A   1      31.080  24.375  23.597  1.00  0.00    -0.177 NA
ATOM     15  C   UNL A   1      33.063  23.083  24.340  1.00  0.00    -0.008 A 
ATOM     16  N   UNL A   1      31.727  24.884  22.654  1.00  0.00    -0.111 NA
ATOM     17  C   UNL A   1      33.785  23.702  23.330  1.00  0.00     0.049 A 
ATOM     18  C   UNL A   1      33.632  22.005  25.016  1.00  0.00     0.007 A 
ATOM     19  C   UNL A   1      33.090  24.698  22.487  1.00  0.00     0.295 C 
ATOM     20  C   UNL A   1      35.122  23.360  23.097  1.00  0.00     0.014 A 
ATOM     21  C   UNL A   1      34.961  21.661  24.782  1.00  0.00     0.000 A 
ATOM     22  O   UNL A   1      33.738  25.270  21.626  1.00  0.00    -0.265 OA
ATOM     23  C   UNL A   1      35.720  22.359  23.854  1.00  0.00     0.001 A 
ENDBRANCH  12  13
ENDBRANCH  10  12
ENDBRANCH   7   8
BRANCH   7  24
ATOM     24  C   UNL A   1      31.895  28.712  23.660  1.00  0.00     0.068 C 
BRANCH  24  25
ATOM     25  C   UNL A   1      30.447  29.205  23.935  1.00  0.00    -0.037 C 
ATOM     26  C   UNL A   1      29.883  30.369  23.527  1.00  0.00     0.001 A 
ATOM     27  C   UNL A   1      29.551  28.155  23.427  1.00  0.00     0.174 C 
ATOM     28  C   UNL A   1      28.539  30.855  23.947  1.00  0.00     0.010 A 
ATOM     29  C   UNL A   1      29.631  29.872  22.139  1.00  0.00     0.065 A 
ATOM     30  N   UNL A   1      29.448  28.589  22.005  1.00  0.00    -0.280 NA
ATOM     31  C   UNL A   1      27.713  31.363  22.999  1.00  0.00     0.001 A 
ATOM     32  C   UNL A   1      29.253  30.896  21.165  1.00  0.00     0.028 A 
ATOM     33  C   UNL A   1      28.203  31.591  21.635  1.00  0.00     0.002 A 
ENDBRANCH  24  25
ENDBRANCH   7  24
ENDBRANCH   4   7
ENDBRANCH   2   3
ENDBRANCH   1   2
BRANCH   1  34
ATOM     34  C   UNL A   1      33.028  32.458  27.077  1.00  0.00     0.118 C 
BRANCH  34  35
ATOM     35  N   UNL A   1      32.773  33.806  27.580  1.00  0.00    -0.352 N 
ATOM     36  C   UNL A   1      33.238  34.423  28.722  1.00  0.00     0.251 C 
ATOM     37  H   UNL A   1      32.180  34.357  27.020  1.00  0.00     0.163 HD
ATOM     38  O   UNL A   1      32.640  35.402  29.163  1.00  0.00    -0.269 OA
BRANCH  36  39
ATOM     39  C   UNL A   1      34.439  33.907  29.419  1.00  0.00     0.039 A 
ATOM     40  C   UNL A   1      34.331  32.842  30.310  1.00  0.00     0.014 A 
ATOM     41  C   UNL A   1      35.698  34.456  29.152  1.00  0.00     0.014 A 
ATOM     42  C   UNL A   1      35.419  32.467  31.082  1.00  0.00     0.010 A 
ATOM     43  C   UNL A   1      36.827  33.971  29.824  1.00  0.00     0.010 A 
ATOM     44  C   UNL A   1      36.692  32.994  30.823  1.00  0.00    -0.014 A 
BRANCH  44  45
ATOM     45  C   UNL A   1      37.864  32.444  31.555  1.00  0.00     0.031 A 
ATOM     46  C   UNL A   1      38.799  31.463  30.904  1.00  0.00     0.074 A 
ATOM     47  C   UNL A   1      38.101  32.874  32.814  1.00  0.00     0.049 A 
ATOM     48  N   UNL A   1      39.860  30.888  31.407  1.00  0.00    -0.248 NA
ATOM     49  C   UNL A   1      38.509  31.068  29.516  1.00  0.00     0.031 C 
ATOM     50  C   UNL A   1      37.275  33.848  33.535  1.00  0.00     0.029 A 
ATOM     51  N   UNL A   1      39.114  32.588  33.695  1.00  0.00    -0.354 N 
ATOM     52  C   UNL A   1      40.344  30.042  30.417  1.00  0.00     0.074 A 
ATOM     53  C   UNL A   1      39.450  30.160  29.287  1.00  0.00     0.031 C 
ATOM     54  C   UNL A   1      37.860  34.143  34.702  1.00  0.00     0.029 A 
ATOM     55  C   UNL A   1      39.036  33.298  34.871  1.00  0.00     0.049 A 
ATOM     56  H   UNL A   1      39.826  31.937  33.504  1.00  0.00     0.167 HD
ATOM     57  C   UNL A   1      41.438  29.244  30.454  1.00  0.00     0.031 A 
ATOM     58  C   UNL A   1      39.800  33.263  35.981  1.00  0.00     0.031 A 
ATOM     59  C   UNL A   1      42.329  29.161  31.584  1.00  0.00     0.049 A 
ATOM     60  C   UNL A   1      40.966  32.325  36.019  1.00  0.00     0.074 A 
ATOM     61  C   UNL A   1      43.492  28.420  31.697  1.00  0.00     0.029 A 
ATOM     62  N   UNL A   1      42.162  29.829  32.789  1.00  0.00    -0.354 N 
ATOM     63  N   UNL A   1      41.422  31.550  35.064  1.00  0.00    -0.248 NA
ATOM     64  C   UNL A   1      41.712  32.237  37.280  1.00  0.00     0.031 C 
ATOM     65  C   UNL A   1      43.975  28.565  32.999  1.00  0.00     0.029 A 
ATOM     66  C   UNL A   1      43.167  29.471  33.671  1.00  0.00     0.049 A 
ATOM     67  H   UNL A   1      41.436  30.464  32.987  1.00  0.00     0.167 HD
ATOM     68  C   UNL A   1      42.511  30.883  35.606  1.00  0.00     0.074 A 
ATOM     69  C   UNL A   1      42.663  31.364  36.965  1.00  0.00     0.031 C 
ATOM     70  C   UNL A   1      43.303  29.949  35.028  1.00  0.00     0.031 A 
BRANCH  57  71
ATOM     71  C   UNL A   1      41.739  28.372  29.259  1.00  0.00    -0.014 A 
ATOM     72  C   UNL A   1      41.235  27.057  29.219  1.00  0.00     0.010 A 
ATOM     73  C   UNL A   1      42.612  28.796  28.240  1.00  0.00     0.010 A 
ATOM     74  C   UNL A   1      41.618  26.174  28.205  1.00  0.00     0.020 A 
ATOM     75  C   UNL A   1      42.970  27.926  27.204  1.00  0.00     0.020 A 
ATOM     76  C   UNL A   1      42.489  26.614  27.207  1.00  0.00     0.054 A 
BRANCH  76  77
ATOM     77  S   UNL A   1      42.988  25.450  25.906  1.00  0.00     0.124 S 
ATOM     78  O   UNL A   1      42.073  25.788  24.821  1.00  0.00    -0.237 OA
ATOM     79  O   UNL A   1      44.389  25.802  25.687  1.00  0.00    -0.237 OA
ATOM     80  O   UNL A   1      42.775  24.142  26.522  1.00  0.00    -0.744 OA
ENDBRANCH  76  77
ENDBRANCH  57  71
BRANCH  58  81
ATOM     81  C   UNL A   1      39.460  34.170  37.114  1.00  0.00    -0.014 A 
ATOM     82  C   UNL A   1      39.976  35.480  37.161  1.00  0.00     0.010 A 
ATOM     83  C   UNL A   1      38.750  33.677  38.223  1.00  0.00     0.010 A 
ATOM     84  C   UNL A   1      39.880  36.240  38.328  1.00  0.00     0.020 A 
ATOM     85  C   UNL A   1      38.618  34.451  39.380  1.00  0.00     0.020 A 
ATOM     86  C   UNL A   1      39.222  35.709  39.440  1.00  0.00     0.054 A 
BRANCH  86  87
ATOM     87  S   UNL A   1      39.220  36.664  40.982  1.00  0.00     0.124 S 
ATOM     88  O   UNL A   1      40.625  36.600  41.375  1.00  0.00    -0.237 OA
ATOM     89  O   UNL A   1      38.748  37.975  40.544  1.00  0.00    -0.237 OA
ATOM     90  O   UNL A   1      38.297  35.927  41.841  1.00  0.00    -0.744 OA
ENDBRANCH  86  87
ENDBRANCH  58  81
BRANCH  70  91
ATOM     91  C   UNL A   1      44.407  29.342  35.854  1.00  0.00    -0.014 A 
ATOM     92  C   UNL A   1      45.707  29.879  35.790  1.00  0.00     0.010 A 
ATOM     93  C   UNL A   1      44.194  28.141  36.555  1.00  0.00     0.010 A 
ATOM     94  C   UNL A   1      46.784  29.192  36.353  1.00  0.00     0.020 A 
ATOM     95  C   UNL A   1      45.265  27.470  37.151  1.00  0.00     0.020 A 
ATOM     96  C   UNL A   1      46.557  27.982  37.013  1.00  0.00     0.054 A 
BRANCH  96  97
ATOM     97  S   UNL A   1      47.982  27.062  37.656  1.00  0.00     0.124 S 
ATOM     98  O   UNL A   1      47.603  26.843  39.050  1.00  0.00    -0.237 OA
ATOM     99  O   UNL A   1      47.998  25.869  36.813  1.00  0.00    -0.237 OA
ATOM    100  O   UNL A   1      49.103  27.977  37.451  1.00  0.00    -0.744 OA
ENDBRANCH  96  97
ENDBRANCH  70  91
ENDBRANCH  44  45
ENDBRANCH  36  39
ENDBRANCH  34  35
ENDBRANCH   1  34
TORSDOF 18
ENDMDL
