MODEL 1
REMARK VINA RESULT:     -10.7      0.000      0.000
REMARK SMILES CCCC[C@@H](C(=O)NCCCNC(=O)c1ccc(-c2c3nc(c(-c4ccc(S(=O)(=O)[O-])cc4)c4ccc([nH]4)c(-c4ccc(S(=O)(=O)[O-])cc4)c4nc(c(-c5ccc(S(=O)(=O)[O-])cc5)c5ccc2[nH]5)C=C4)C=C3)cc1)[C@]1(O)COc2cc(O)ccc21
REMARK SMILES IDX 10 1 9 2 8 3 6 4 7 5 5 7 4 8 3 9 2 10 1 11 75 12 77 13 85 14
REMARK SMILES IDX 78 15 79 16 84 17 80 18 83 19 81 20 76 21 82 23 11 25 12 26
REMARK SMILES IDX 13 27 14 29 15 30 16 31 74 32 17 33 73 34 18 35 19 36 20 37
REMARK SMILES IDX 67 38 21 39 72 40 66 41 68 42 22 43 71 44 65 45 64 46 23 48
REMARK SMILES IDX 53 49 34 50 52 51 35 52 38 53 51 54 69 55 36 56 37 57 50 59
REMARK SMILES IDX 70 60 39 61 24 62 25 63 33 64 26 65 32 66 27 67 28 68 29 69
REMARK SMILES IDX 30 70 31 71 54 72 55 73 63 74 56 75 62 76 57 77 58 78 59 79
REMARK SMILES IDX 60 80 61 81 40 82 41 83 49 84 42 85 48 86 43 87 44 88 45 89
REMARK SMILES IDX 46 90 47 91
REMARK H PARENT 8 6 76 22 82 24 12 28 68 47 38 58
REMARK Flexibility Score: inf
ROOT
ATOM      1  C   UNL A   1      35.094  23.173  26.509  1.00  0.00     0.042 C 
ENDROOT
BRANCH   1   2
ATOM      2  C   UNL A   1      34.118  22.632  25.464  1.00  0.00     0.117 C 
BRANCH   2   3
ATOM      3  N   UNL A   1      32.753  22.733  25.947  1.00  0.00    -0.356 N 
ATOM      4  C   UNL A   1      32.149  23.856  26.445  1.00  0.00     0.226 C 
ATOM      5  O   UNL A   1      31.497  23.730  27.479  1.00  0.00    -0.275 OA
ATOM      6  H   UNL A   1      32.209  21.913  25.913  1.00  0.00     0.163 HD
BRANCH   4   7
ATOM      7  C   UNL A   1      32.259  25.175  25.679  1.00  0.00     0.118 C 
BRANCH   7   8
ATOM      8  C   UNL A   1      32.600  26.373  26.607  1.00  0.00     0.017 C 
BRANCH   8   9
ATOM      9  C   UNL A   1      33.639  27.406  26.171  1.00  0.00     0.001 C 
BRANCH   9  10
ATOM     10  C   UNL A   1      33.920  28.548  27.145  1.00  0.00    -0.003 C 
ATOM     11  C   UNL A   1      33.577  29.908  26.562  1.00  0.00     0.004 C 
ENDBRANCH   9  10
ENDBRANCH   8   9
ENDBRANCH   7   8
BRANCH   7  12
ATOM     12  C   UNL A   1      30.934  25.477  24.874  1.00  0.00     0.139 C 
ATOM     13  C   UNL A   1      30.694  24.629  23.594  1.00  0.00     0.270 C 
ATOM     14  C   UNL A   1      30.810  26.821  24.211  1.00  0.00     0.030 A 
ATOM     15  O   UNL A   1      31.169  25.356  22.445  1.00  0.00    -0.490 OA
ATOM     16  C   UNL A   1      31.015  26.660  22.839  1.00  0.00     0.129 A 
ATOM     17  C   UNL A   1      30.571  28.089  24.721  1.00  0.00     0.014 A 
ATOM     18  C   UNL A   1      31.078  27.720  21.958  1.00  0.00     0.093 A 
ATOM     19  C   UNL A   1      30.584  29.179  23.836  1.00  0.00     0.047 A 
ATOM     20  C   UNL A   1      30.861  28.988  22.474  1.00  0.00     0.119 A 
BRANCH  12  21
ATOM     21  O   UNL A   1      29.834  25.250  25.775  1.00  0.00    -0.381 OA
ATOM     22  H   UNL A   1      28.997  25.361  25.297  1.00  0.00     0.212 HD
ENDBRANCH  12  21
BRANCH  20  23
ATOM     23  O   UNL A   1      30.925  30.041  21.609  1.00  0.00    -0.508 OA
ATOM     24  H   UNL A   1      30.344  30.769  21.713  1.00  0.00     0.293 HD
ENDBRANCH  20  23
ENDBRANCH   7  12
ENDBRANCH   4   7
ENDBRANCH   2   3
ENDBRANCH   1   2
BRANCH   1  25
ATOM     25  C   UNL A   1      36.381  23.733  25.926  1.00  0.00     0.118 C 
BRANCH  25  26
ATOM     26  N   UNL A   1      37.453  22.756  25.927  1.00  0.00    -0.352 N 
ATOM     27  C   UNL A   1      38.777  22.920  26.253  1.00  0.00     0.251 C 
ATOM     28  H   UNL A   1      37.194  21.844  25.656  1.00  0.00     0.163 HD
ATOM     29  O   UNL A   1      39.579  22.035  25.974  1.00  0.00    -0.269 OA
BRANCH  27  30
ATOM     30  C   UNL A   1      39.235  24.163  26.917  1.00  0.00     0.039 A 
ATOM     31  C   UNL A   1      39.995  25.078  26.185  1.00  0.00     0.014 A 
ATOM     32  C   UNL A   1      38.943  24.418  28.261  1.00  0.00     0.014 A 
ATOM     33  C   UNL A   1      40.425  26.262  26.789  1.00  0.00     0.010 A 
ATOM     34  C   UNL A   1      39.288  25.640  28.830  1.00  0.00     0.010 A 
ATOM     35  C   UNL A   1      40.054  26.566  28.109  1.00  0.00    -0.014 A 
BRANCH  35  36
ATOM     36  C   UNL A   1      40.481  27.832  28.756  1.00  0.00     0.031 A 
ATOM     37  C   UNL A   1      41.857  27.946  29.359  1.00  0.00     0.074 A 
ATOM     38  C   UNL A   1      39.613  28.858  28.850  1.00  0.00     0.049 A 
ATOM     39  N   UNL A   1      42.399  28.957  29.989  1.00  0.00    -0.248 NA
ATOM     40  C   UNL A   1      42.726  26.762  29.271  1.00  0.00     0.031 C 
ATOM     41  C   UNL A   1      38.233  28.847  28.358  1.00  0.00     0.029 A 
ATOM     42  N   UNL A   1      39.759  30.108  29.399  1.00  0.00    -0.354 N 
ATOM     43  C   UNL A   1      43.656  28.520  30.394  1.00  0.00     0.074 A 
ATOM     44  C   UNL A   1      43.776  27.139  29.984  1.00  0.00     0.031 C 
ATOM     45  C   UNL A   1      37.670  30.040  28.602  1.00  0.00     0.029 A 
ATOM     46  C   UNL A   1      38.630  30.887  29.304  1.00  0.00     0.049 A 
ATOM     47  H   UNL A   1      40.593  30.417  29.820  1.00  0.00     0.167 HD
ATOM     48  C   UNL A   1      44.631  29.212  31.032  1.00  0.00     0.031 A 
ATOM     49  C   UNL A   1      38.389  32.138  29.740  1.00  0.00     0.031 A 
ATOM     50  C   UNL A   1      44.508  30.591  31.424  1.00  0.00     0.049 A 
ATOM     51  C   UNL A   1      39.491  32.896  30.426  1.00  0.00     0.074 A 
ATOM     52  C   UNL A   1      45.463  31.408  32.002  1.00  0.00     0.029 A 
ATOM     53  N   UNL A   1      43.358  31.353  31.286  1.00  0.00    -0.354 N 
ATOM     54  N   UNL A   1      40.707  32.498  30.715  1.00  0.00    -0.248 NA
ATOM     55  C   UNL A   1      39.195  34.277  30.832  1.00  0.00     0.031 C 
ATOM     56  C   UNL A   1      44.869  32.646  32.272  1.00  0.00     0.029 A 
ATOM     57  C   UNL A   1      43.566  32.622  31.799  1.00  0.00     0.049 A 
ATOM     58  H   UNL A   1      42.517  31.039  30.882  1.00  0.00     0.167 HD
ATOM     59  C   UNL A   1      41.329  33.585  31.319  1.00  0.00     0.074 A 
ATOM     60  C   UNL A   1      40.360  34.663  31.334  1.00  0.00     0.031 C 
ATOM     61  C   UNL A   1      42.588  33.681  31.816  1.00  0.00     0.031 A 
BRANCH  48  62
ATOM     62  C   UNL A   1      45.907  28.478  31.361  1.00  0.00    -0.014 A 
ATOM     63  C   UNL A   1      46.070  27.800  32.583  1.00  0.00     0.010 A 
ATOM     64  C   UNL A   1      46.953  28.446  30.420  1.00  0.00     0.010 A 
ATOM     65  C   UNL A   1      47.272  27.151  32.881  1.00  0.00     0.020 A 
ATOM     66  C   UNL A   1      48.145  27.770  30.700  1.00  0.00     0.020 A 
ATOM     67  C   UNL A   1      48.305  27.145  31.938  1.00  0.00     0.054 A 
BRANCH  67  68
ATOM     68  S   UNL A   1      49.850  26.289  32.347  1.00  0.00     0.124 S 
ATOM     69  O   UNL A   1      50.588  26.383  31.089  1.00  0.00    -0.237 OA
ATOM     70  O   UNL A   1      50.380  27.091  33.447  1.00  0.00    -0.237 OA
ATOM     71  O   UNL A   1      49.415  24.943  32.714  1.00  0.00    -0.744 OA
ENDBRANCH  67  68
ENDBRANCH  48  62
BRANCH  49  72
ATOM     72  C   UNL A   1      37.047  32.747  29.523  1.00  0.00    -0.014 A 
ATOM     73  C   UNL A   1      36.111  32.821  30.570  1.00  0.00     0.010 A 
ATOM     74  C   UNL A   1      36.717  33.302  28.272  1.00  0.00     0.010 A 
ATOM     75  C   UNL A   1      34.870  33.434  30.368  1.00  0.00     0.020 A 
ATOM     76  C   UNL A   1      35.489  33.939  28.075  1.00  0.00     0.020 A 
ATOM     77  C   UNL A   1      34.570  33.995  29.123  1.00  0.00     0.054 A 
BRANCH  77  78
ATOM     78  S   UNL A   1      32.985  34.853  28.909  1.00  0.00     0.124 S 
ATOM     79  O   UNL A   1      32.292  33.982  27.965  1.00  0.00    -0.237 OA
ATOM     80  O   UNL A   1      32.449  34.868  30.268  1.00  0.00    -0.237 OA
ATOM     81  O   UNL A   1      33.373  36.162  28.387  1.00  0.00    -0.744 OA
ENDBRANCH  77  78
ENDBRANCH  49  72
BRANCH  61  82
ATOM     82  C   UNL A   1      43.002  35.005  32.399  1.00  0.00    -0.014 A 
ATOM     83  C   UNL A   1      43.638  35.983  31.613  1.00  0.00     0.010 A 
ATOM     84  C   UNL A   1      42.700  35.296  33.742  1.00  0.00     0.010 A 
ATOM     85  C   UNL A   1      43.992  37.215  32.170  1.00  0.00     0.020 A 
ATOM     86  C   UNL A   1      43.024  36.538  34.294  1.00  0.00     0.020 A 
ATOM     87  C   UNL A   1      43.682  37.485  33.507  1.00  0.00     0.054 A 
BRANCH  87  88
ATOM     88  S   UNL A   1      44.117  39.106  34.194  1.00  0.00     0.124 S 
ATOM     89  O   UNL A   1      45.415  39.360  33.575  1.00  0.00    -0.237 OA
ATOM     90  O   UNL A   1      43.021  39.954  33.730  1.00  0.00    -0.237 OA
ATOM     91  O   UNL A   1      44.150  38.873  35.637  1.00  0.00    -0.744 OA
ENDBRANCH  87  88
ENDBRANCH  61  82
ENDBRANCH  35  36
ENDBRANCH  27  30
ENDBRANCH  25  26
ENDBRANCH   1  25
TORSDOF 19
ENDMDL
MODEL 2
REMARK VINA RESULT:     -10.6      2.787      9.336
REMARK SMILES CCCC[C@@H](C(=O)NCCCNC(=O)c1ccc(-c2c3nc(c(-c4ccc(S(=O)(=O)[O-])cc4)c4ccc([nH]4)c(-c4ccc(S(=O)(=O)[O-])cc4)c4nc(c(-c5ccc(S(=O)(=O)[O-])cc5)c5ccc2[nH]5)C=C4)C=C3)cc1)[C@]1(O)COc2cc(O)ccc21
REMARK SMILES IDX 10 1 9 2 8 3 6 4 7 5 5 7 4 8 3 9 2 10 1 11 75 12 77 13 85 14
REMARK SMILES IDX 78 15 79 16 84 17 80 18 83 19 81 20 76 21 82 23 11 25 12 26
REMARK SMILES IDX 13 27 14 29 15 30 16 31 74 32 17 33 73 34 18 35 19 36 20 37
REMARK SMILES IDX 67 38 21 39 72 40 66 41 68 42 22 43 71 44 65 45 64 46 23 48
REMARK SMILES IDX 53 49 34 50 52 51 35 52 38 53 51 54 69 55 36 56 37 57 50 59
REMARK SMILES IDX 70 60 39 61 24 62 25 63 33 64 26 65 32 66 27 67 28 68 29 69
REMARK SMILES IDX 30 70 31 71 54 72 55 73 63 74 56 75 62 76 57 77 58 78 59 79
REMARK SMILES IDX 60 80 61 81 40 82 41 83 49 84 42 85 48 86 43 87 44 88 45 89
REMARK SMILES IDX 46 90 47 91
REMARK H PARENT 8 6 76 22 82 24 12 28 68 47 38 58
REMARK Flexibility Score: inf
ROOT
ATOM      1  C   UNL A   1      33.258  28.018  25.212  1.00  0.00     0.042 C 
ENDROOT
BRANCH   1   2
ATOM      2  C   UNL A   1      33.870  28.384  23.859  1.00  0.00     0.117 C 
BRANCH   2   3
ATOM      3  N   UNL A   1      33.251  27.610  22.799  1.00  0.00    -0.356 N 
ATOM      4  C   UNL A   1      33.471  26.287  22.524  1.00  0.00     0.226 C 
ATOM      5  O   UNL A   1      33.646  25.981  21.347  1.00  0.00    -0.275 OA
ATOM      6  H   UNL A   1      32.609  28.084  22.221  1.00  0.00     0.163 HD
BRANCH   4   7
ATOM      7  C   UNL A   1      33.431  25.263  23.660  1.00  0.00     0.118 C 
BRANCH   7   8
ATOM      8  C   UNL A   1      34.625  24.271  23.606  1.00  0.00     0.017 C 
BRANCH   8   9
ATOM      9  C   UNL A   1      35.498  24.058  24.842  1.00  0.00     0.001 C 
BRANCH   9  10
ATOM     10  C   UNL A   1      35.454  22.671  25.480  1.00  0.00    -0.003 C 
ATOM     11  C   UNL A   1      36.003  21.591  24.564  1.00  0.00     0.004 C 
ENDBRANCH   9  10
ENDBRANCH   8   9
ENDBRANCH   7   8
BRANCH   7  12
ATOM     12  C   UNL A   1      32.067  24.467  23.659  1.00  0.00     0.139 C 
ATOM     13  C   UNL A   1      31.085  24.777  24.823  1.00  0.00     0.270 C 
ATOM     14  C   UNL A   1      32.127  22.980  23.881  1.00  0.00     0.030 A 
ATOM     15  O   UNL A   1      31.272  23.810  25.874  1.00  0.00    -0.490 OA
ATOM     16  C   UNL A   1      31.710  22.708  25.186  1.00  0.00     0.129 A 
ATOM     17  C   UNL A   1      32.526  21.936  23.060  1.00  0.00     0.014 A 
ATOM     18  C   UNL A   1      31.754  21.447  25.742  1.00  0.00     0.093 A 
ATOM     19  C   UNL A   1      32.535  20.635  23.590  1.00  0.00     0.047 A 
ATOM     20  C   UNL A   1      32.175  20.408  24.927  1.00  0.00     0.119 A 
BRANCH  12  21
ATOM     21  O   UNL A   1      31.403  24.771  22.419  1.00  0.00    -0.381 OA
ATOM     22  H   UNL A   1      30.673  24.147  22.282  1.00  0.00     0.212 HD
ENDBRANCH  12  21
BRANCH  20  23
ATOM     23  O   UNL A   1      32.223  19.158  25.472  1.00  0.00    -0.508 OA
ATOM     24  H   UNL A   1      32.854  18.960  26.136  1.00  0.00     0.293 HD
ENDBRANCH  20  23
ENDBRANCH   7  12
ENDBRANCH   4   7
ENDBRANCH   2   3
ENDBRANCH   1   2
BRANCH   1  25
ATOM     25  C   UNL A   1      34.136  28.362  26.404  1.00  0.00     0.118 C 
BRANCH  25  26
ATOM     26  N   UNL A   1      33.830  29.671  26.949  1.00  0.00    -0.352 N 
ATOM     27  C   UNL A   1      34.552  30.433  27.834  1.00  0.00     0.251 C 
ATOM     28  H   UNL A   1      32.983  30.070  26.640  1.00  0.00     0.163 HD
ATOM     29  O   UNL A   1      34.025  31.409  28.356  1.00  0.00    -0.269 OA
BRANCH  27  30
ATOM     30  C   UNL A   1      35.948  30.068  28.170  1.00  0.00     0.039 A 
ATOM     31  C   UNL A   1      36.232  29.600  29.454  1.00  0.00     0.014 A 
ATOM     32  C   UNL A   1      36.980  30.210  27.237  1.00  0.00     0.014 A 
ATOM     33  C   UNL A   1      37.540  29.237  29.787  1.00  0.00     0.010 A 
ATOM     34  C   UNL A   1      38.260  29.758  27.538  1.00  0.00     0.010 A 
ATOM     35  C   UNL A   1      38.561  29.289  28.824  1.00  0.00    -0.014 A 
BRANCH  35  36
ATOM     36  C   UNL A   1      39.951  28.882  29.154  1.00  0.00     0.031 A 
ATOM     37  C   UNL A   1      40.887  29.859  29.816  1.00  0.00     0.074 A 
ATOM     38  C   UNL A   1      40.386  27.655  28.808  1.00  0.00     0.049 A 
ATOM     39  N   UNL A   1      42.141  29.698  30.155  1.00  0.00    -0.248 NA
ATOM     40  C   UNL A   1      40.357  31.201  30.107  1.00  0.00     0.031 C 
ATOM     41  C   UNL A   1      39.592  26.640  28.108  1.00  0.00     0.029 A 
ATOM     42  N   UNL A   1      41.606  27.052  28.989  1.00  0.00    -0.354 N 
ATOM     43  C   UNL A   1      42.553  30.922  30.671  1.00  0.00     0.074 A 
ATOM     44  C   UNL A   1      41.434  31.829  30.554  1.00  0.00     0.031 C 
ATOM     45  C   UNL A   1      40.336  25.536  27.946  1.00  0.00     0.029 A 
ATOM     46  C   UNL A   1      41.669  25.773  28.489  1.00  0.00     0.049 A 
ATOM     47  H   UNL A   1      42.364  27.494  29.436  1.00  0.00     0.167 HD
ATOM     48  C   UNL A   1      43.749  31.256  31.213  1.00  0.00     0.031 A 
ATOM     49  C   UNL A   1      42.687  24.892  28.461  1.00  0.00     0.031 A 
ATOM     50  C   UNL A   1      44.854  30.342  31.339  1.00  0.00     0.049 A 
ATOM     51  C   UNL A   1      44.000  25.274  29.086  1.00  0.00     0.074 A 
ATOM     52  C   UNL A   1      46.079  30.553  31.944  1.00  0.00     0.029 A 
ATOM     53  N   UNL A   1      44.869  29.046  30.844  1.00  0.00    -0.354 N 
ATOM     54  N   UNL A   1      44.341  26.405  29.656  1.00  0.00    -0.248 NA
ATOM     55  C   UNL A   1      45.061  24.257  29.080  1.00  0.00     0.031 C 
ATOM     56  C   UNL A   1      46.859  29.407  31.758  1.00  0.00     0.029 A 
ATOM     57  C   UNL A   1      46.095  28.456  31.100  1.00  0.00     0.049 A 
ATOM     58  H   UNL A   1      44.118  28.610  30.380  1.00  0.00     0.167 HD
ATOM     59  C   UNL A   1      45.649  26.231  30.094  1.00  0.00     0.074 A 
ATOM     60  C   UNL A   1      46.028  24.877  29.741  1.00  0.00     0.031 C 
ATOM     61  C   UNL A   1      46.461  27.111  30.731  1.00  0.00     0.031 A 
BRANCH  48  62
ATOM     62  C   UNL A   1      43.927  32.675  31.691  1.00  0.00    -0.014 A 
ATOM     63  C   UNL A   1      44.446  33.675  30.848  1.00  0.00     0.010 A 
ATOM     64  C   UNL A   1      43.547  33.020  33.002  1.00  0.00     0.010 A 
ATOM     65  C   UNL A   1      44.631  34.977  31.321  1.00  0.00     0.020 A 
ATOM     66  C   UNL A   1      43.699  34.330  33.469  1.00  0.00     0.020 A 
ATOM     67  C   UNL A   1      44.261  35.295  32.631  1.00  0.00     0.054 A 
BRANCH  67  68
ATOM     68  S   UNL A   1      44.505  36.995  33.215  1.00  0.00     0.124 S 
ATOM     69  O   UNL A   1      43.947  36.932  34.565  1.00  0.00    -0.237 OA
ATOM     70  O   UNL A   1      45.955  37.154  33.143  1.00  0.00    -0.237 OA
ATOM     71  O   UNL A   1      43.744  37.801  32.265  1.00  0.00    -0.744 OA
ENDBRANCH  67  68
ENDBRANCH  48  62
BRANCH  49  72
ATOM     72  C   UNL A   1      42.490  23.559  27.825  1.00  0.00    -0.014 A 
ATOM     73  C   UNL A   1      42.885  23.329  26.496  1.00  0.00     0.010 A 
ATOM     74  C   UNL A   1      41.946  22.496  28.570  1.00  0.00     0.010 A 
ATOM     75  C   UNL A   1      42.734  22.063  25.922  1.00  0.00     0.020 A 
ATOM     76  C   UNL A   1      41.821  21.222  28.009  1.00  0.00     0.020 A 
ATOM     77  C   UNL A   1      42.210  21.015  26.684  1.00  0.00     0.054 A 
BRANCH  77  78
ATOM     78  S   UNL A   1      42.098  19.363  25.943  1.00  0.00     0.124 S 
ATOM     79  O   UNL A   1      40.668  19.244  25.679  1.00  0.00    -0.237 OA
ATOM     80  O   UNL A   1      42.952  19.488  24.764  1.00  0.00    -0.237 OA
ATOM     81  O   UNL A   1      42.619  18.483  26.987  1.00  0.00    -0.744 OA
ENDBRANCH  77  78
ENDBRANCH  49  72
BRANCH  61  82
ATOM     82  C   UNL A   1      47.837  26.633  31.110  1.00  0.00    -0.014 A 
ATOM     83  C   UNL A   1      48.957  26.921  30.309  1.00  0.00     0.010 A 
ATOM     84  C   UNL A   1      48.020  25.932  32.316  1.00  0.00     0.010 A 
ATOM     85  C   UNL A   1      50.229  26.489  30.693  1.00  0.00     0.020 A 
ATOM     86  C   UNL A   1      49.294  25.526  32.719  1.00  0.00     0.020 A 
ATOM     87  C   UNL A   1      50.390  25.794  31.897  1.00  0.00     0.054 A 
BRANCH  87  88
ATOM     88  S   UNL A   1      52.057  25.278  32.391  1.00  0.00     0.124 S 
ATOM     89  O   UNL A   1      51.859  23.863  32.693  1.00  0.00    -0.237 OA
ATOM     90  O   UNL A   1      52.847  25.563  31.196  1.00  0.00    -0.237 OA
ATOM     91  O   UNL A   1      52.353  26.126  33.545  1.00  0.00    -0.744 OA
ENDBRANCH  87  88
ENDBRANCH  61  82
ENDBRANCH  35  36
ENDBRANCH  27  30
ENDBRANCH  25  26
ENDBRANCH   1  25
TORSDOF 19
ENDMDL
MODEL 3
REMARK VINA RESULT:     -10.4      3.363      9.303
REMARK SMILES CCCC[C@@H](C(=O)NCCCNC(=O)c1ccc(-c2c3nc(c(-c4ccc(S(=O)(=O)[O-])cc4)c4ccc([nH]4)c(-c4ccc(S(=O)(=O)[O-])cc4)c4nc(c(-c5ccc(S(=O)(=O)[O-])cc5)c5ccc2[nH]5)C=C4)C=C3)cc1)[C@]1(O)COc2cc(O)ccc21
REMARK SMILES IDX 10 1 9 2 8 3 6 4 7 5 5 7 4 8 3 9 2 10 1 11 75 12 77 13 85 14
REMARK SMILES IDX 78 15 79 16 84 17 80 18 83 19 81 20 76 21 82 23 11 25 12 26
REMARK SMILES IDX 13 27 14 29 15 30 16 31 74 32 17 33 73 34 18 35 19 36 20 37
REMARK SMILES IDX 67 38 21 39 72 40 66 41 68 42 22 43 71 44 65 45 64 46 23 48
REMARK SMILES IDX 53 49 34 50 52 51 35 52 38 53 51 54 69 55 36 56 37 57 50 59
REMARK SMILES IDX 70 60 39 61 24 62 25 63 33 64 26 65 32 66 27 67 28 68 29 69
REMARK SMILES IDX 30 70 31 71 54 72 55 73 63 74 56 75 62 76 57 77 58 78 59 79
REMARK SMILES IDX 60 80 61 81 40 82 41 83 49 84 42 85 48 86 43 87 44 88 45 89
REMARK SMILES IDX 46 90 47 91
REMARK H PARENT 8 6 76 22 82 24 12 28 68 47 38 58
REMARK Flexibility Score: inf
ROOT
ATOM      1  C   UNL A   1      33.300  28.523  24.834  1.00  0.00     0.042 C 
ENDROOT
BRANCH   1   2
ATOM      2  C   UNL A   1      34.090  28.408  23.530  1.00  0.00     0.117 C 
BRANCH   2   3
ATOM      3  N   UNL A   1      33.350  27.619  22.560  1.00  0.00    -0.356 N 
ATOM      4  C   UNL A   1      33.444  26.267  22.373  1.00  0.00     0.226 C 
ATOM      5  O   UNL A   1      33.527  25.866  21.215  1.00  0.00    -0.275 OA
ATOM      6  H   UNL A   1      32.720  28.107  21.982  1.00  0.00     0.163 HD
BRANCH   4   7
ATOM      7  C   UNL A   1      33.380  25.331  23.582  1.00  0.00     0.118 C 
BRANCH   7   8
ATOM      8  C   UNL A   1      34.567  24.329  23.618  1.00  0.00     0.017 C 
BRANCH   8   9
ATOM      9  C   UNL A   1      35.385  24.160  24.898  1.00  0.00     0.001 C 
BRANCH   9  10
ATOM     10  C   UNL A   1      35.417  22.761  25.510  1.00  0.00    -0.003 C 
ATOM     11  C   UNL A   1      35.940  21.714  24.542  1.00  0.00     0.004 C 
ENDBRANCH   9  10
ENDBRANCH   8   9
ENDBRANCH   7   8
BRANCH   7  12
ATOM     12  C   UNL A   1      32.010  24.546  23.621  1.00  0.00     0.139 C 
ATOM     13  C   UNL A   1      31.059  24.875  24.805  1.00  0.00     0.270 C 
ATOM     14  C   UNL A   1      32.063  23.061  23.856  1.00  0.00     0.030 A 
ATOM     15  O   UNL A   1      31.263  23.917  25.861  1.00  0.00    -0.490 OA
ATOM     16  C   UNL A   1      31.675  22.805  25.173  1.00  0.00     0.129 A 
ATOM     17  C   UNL A   1      32.434  22.005  23.036  1.00  0.00     0.014 A 
ATOM     18  C   UNL A   1      31.722  21.549  25.741  1.00  0.00     0.093 A 
ATOM     19  C   UNL A   1      32.445  20.710  23.579  1.00  0.00     0.047 A 
ATOM     20  C   UNL A   1      32.115  20.499  24.926  1.00  0.00     0.119 A 
BRANCH  12  21
ATOM     21  O   UNL A   1      31.319  24.844  22.394  1.00  0.00    -0.381 OA
ATOM     22  H   UNL A   1      30.362  24.837  22.553  1.00  0.00     0.212 HD
ENDBRANCH  12  21
BRANCH  20  23
ATOM     23  O   UNL A   1      32.166  19.254  25.482  1.00  0.00    -0.508 OA
ATOM     24  H   UNL A   1      31.391  18.727  25.524  1.00  0.00     0.293 HD
ENDBRANCH  20  23
ENDBRANCH   7  12
ENDBRANCH   4   7
ENDBRANCH   2   3
ENDBRANCH   1   2
BRANCH   1  25
ATOM     25  C   UNL A   1      34.118  29.027  26.012  1.00  0.00     0.118 C 
BRANCH  25  26
ATOM     26  N   UNL A   1      33.721  30.360  26.424  1.00  0.00    -0.352 N 
ATOM     27  C   UNL A   1      34.201  31.128  27.456  1.00  0.00     0.251 C 
ATOM     28  H   UNL A   1      33.004  30.772  25.887  1.00  0.00     0.163 HD
ATOM     29  O   UNL A   1      33.586  32.134  27.792  1.00  0.00    -0.269 OA
BRANCH  27  30
ATOM     30  C   UNL A   1      35.440  30.736  28.167  1.00  0.00     0.039 A 
ATOM     31  C   UNL A   1      35.379  29.704  29.107  1.00  0.00     0.014 A 
ATOM     32  C   UNL A   1      36.651  31.395  27.934  1.00  0.00     0.014 A 
ATOM     33  C   UNL A   1      36.539  29.309  29.779  1.00  0.00     0.010 A 
ATOM     34  C   UNL A   1      37.821  30.936  28.531  1.00  0.00     0.010 A 
ATOM     35  C   UNL A   1      37.775  29.905  29.478  1.00  0.00    -0.014 A 
BRANCH  35  36
ATOM     36  C   UNL A   1      39.021  29.478  30.165  1.00  0.00     0.031 A 
ATOM     37  C   UNL A   1      39.463  30.170  31.428  1.00  0.00     0.074 A 
ATOM     38  C   UNL A   1      39.782  28.509  29.622  1.00  0.00     0.049 A 
ATOM     39  N   UNL A   1      40.532  29.960  32.153  1.00  0.00    -0.248 NA
ATOM     40  C   UNL A   1      38.610  31.262  31.925  1.00  0.00     0.031 C 
ATOM     41  C   UNL A   1      39.491  27.804  28.370  1.00  0.00     0.029 A 
ATOM     42  N   UNL A   1      40.961  27.951  30.049  1.00  0.00    -0.354 N 
ATOM     43  C   UNL A   1      40.493  30.907  33.170  1.00  0.00     0.074 A 
ATOM     44  C   UNL A   1      39.323  31.725  32.940  1.00  0.00     0.031 C 
ATOM     45  C   UNL A   1      40.449  26.892  28.146  1.00  0.00     0.029 A 
ATOM     46  C   UNL A   1      41.444  26.972  29.212  1.00  0.00     0.049 A 
ATOM     47  H   UNL A   1      41.419  28.225  30.877  1.00  0.00     0.167 HD
ATOM     48  C   UNL A   1      41.342  31.069  34.214  1.00  0.00     0.031 A 
ATOM     49  C   UNL A   1      42.564  26.228  29.286  1.00  0.00     0.031 A 
ATOM     50  C   UNL A   1      42.495  30.239  34.442  1.00  0.00     0.049 A 
ATOM     51  C   UNL A   1      43.482  26.408  30.463  1.00  0.00     0.074 A 
ATOM     52  C   UNL A   1      43.374  30.266  35.510  1.00  0.00     0.029 A 
ATOM     53  N   UNL A   1      42.934  29.241  33.585  1.00  0.00    -0.354 N 
ATOM     54  N   UNL A   1      43.377  27.246  31.467  1.00  0.00    -0.248 NA
ATOM     55  C   UNL A   1      44.661  25.534  30.527  1.00  0.00     0.031 C 
ATOM     56  C   UNL A   1      44.382  29.327  35.266  1.00  0.00     0.029 A 
ATOM     57  C   UNL A   1      44.092  28.667  34.082  1.00  0.00     0.049 A 
ATOM     58  H   UNL A   1      42.489  28.980  32.748  1.00  0.00     0.167 HD
ATOM     59  C   UNL A   1      44.465  26.987  32.293  1.00  0.00     0.074 A 
ATOM     60  C   UNL A   1      45.203  25.900  31.679  1.00  0.00     0.031 C 
ATOM     61  C   UNL A   1      44.821  27.593  33.453  1.00  0.00     0.031 A 
BRANCH  48  62
ATOM     62  C   UNL A   1      41.061  32.197  35.173  1.00  0.00    -0.014 A 
ATOM     63  C   UNL A   1      40.327  31.991  36.356  1.00  0.00     0.010 A 
ATOM     64  C   UNL A   1      41.560  33.485  34.898  1.00  0.00     0.010 A 
ATOM     65  C   UNL A   1      40.052  33.057  37.217  1.00  0.00     0.020 A 
ATOM     66  C   UNL A   1      41.316  34.548  35.774  1.00  0.00     0.020 A 
ATOM     67  C   UNL A   1      40.545  34.331  36.917  1.00  0.00     0.054 A 
BRANCH  67  68
ATOM     68  S   UNL A   1      40.180  35.694  38.056  1.00  0.00     0.124 S 
ATOM     69  O   UNL A   1      39.968  36.808  37.134  1.00  0.00    -0.237 OA
ATOM     70  O   UNL A   1      38.986  35.221  38.751  1.00  0.00    -0.237 OA
ATOM     71  O   UNL A   1      41.382  35.790  38.880  1.00  0.00    -0.744 OA
ENDBRANCH  67  68
ENDBRANCH  48  62
BRANCH  49  72
ATOM     72  C   UNL A   1      42.863  25.239  28.213  1.00  0.00    -0.014 A 
ATOM     73  C   UNL A   1      43.627  25.603  27.091  1.00  0.00     0.010 A 
ATOM     74  C   UNL A   1      42.421  23.909  28.337  1.00  0.00     0.010 A 
ATOM     75  C   UNL A   1      43.939  24.655  26.110  1.00  0.00     0.020 A 
ATOM     76  C   UNL A   1      42.755  22.953  27.374  1.00  0.00     0.020 A 
ATOM     77  C   UNL A   1      43.506  23.335  26.261  1.00  0.00     0.054 A 
BRANCH  77  78
ATOM     78  S   UNL A   1      43.990  22.107  25.016  1.00  0.00     0.124 S 
ATOM     79  O   UNL A   1      43.666  22.794  23.769  1.00  0.00    -0.237 OA
ATOM     80  O   UNL A   1      45.414  21.926  25.288  1.00  0.00    -0.237 OA
ATOM     81  O   UNL A   1      43.153  20.951  25.331  1.00  0.00    -0.744 OA
ENDBRANCH  77  78
ENDBRANCH  49  72
BRANCH  61  82
ATOM     82  C   UNL A   1      46.052  27.082  34.153  1.00  0.00    -0.014 A 
ATOM     83  C   UNL A   1      47.318  27.645  33.909  1.00  0.00     0.010 A 
ATOM     84  C   UNL A   1      45.930  26.058  35.110  1.00  0.00     0.010 A 
ATOM     85  C   UNL A   1      48.443  27.170  34.588  1.00  0.00     0.020 A 
ATOM     86  C   UNL A   1      47.048  25.603  35.813  1.00  0.00     0.020 A 
ATOM     87  C   UNL A   1      48.301  26.152  35.536  1.00  0.00     0.054 A 
BRANCH  87  88
ATOM     88  S   UNL A   1      49.772  25.582  36.432  1.00  0.00     0.124 S 
ATOM     89  O   UNL A   1      50.760  26.594  36.068  1.00  0.00    -0.237 OA
ATOM     90  O   UNL A   1      49.328  25.608  37.824  1.00  0.00    -0.237 OA
ATOM     91  O   UNL A   1      50.015  24.249  35.885  1.00  0.00    -0.744 OA
ENDBRANCH  87  88
ENDBRANCH  61  82
ENDBRANCH  35  36
ENDBRANCH  27  30
ENDBRANCH  25  26
ENDBRANCH   1  25
TORSDOF 19
ENDMDL
