MODEL 1
REMARK VINA RESULT:     -12.3      0.000      0.000
REMARK SMILES COc1cc(OC)cc(-n2nnc(C(=O)NCCCNC(=O)c3ccc(-c4c5nc(c(-c6ccc(S(=O)(=O)[O-])cc6)c6ccc([nH]6)c(-c6ccc(S(=O)(=O)[O-])cc6)c6nc(c(-c7ccc(S(=O)(=O)[O-])cc7)c7ccc4[nH]7)C=C6)C=C5)cc3)c2C(C)(C)C)c1
REMARK SMILES IDX 18 1 17 2 16 3 14 4 15 5 13 7 10 8 11 9 83 10 12 11 9 12
REMARK SMILES IDX 3 13 4 14 88 15 5 16 8 17 2 18 1 19 6 20 7 21 84 22 85 23
REMARK SMILES IDX 86 24 87 25 19 26 20 27 21 28 22 30 23 31 24 32 82 33 25 34
REMARK SMILES IDX 81 35 26 36 27 37 28 38 75 39 29 40 80 41 74 42 76 43 30 44
REMARK SMILES IDX 79 45 73 46 72 47 31 49 61 50 42 51 60 52 43 53 46 54 59 55
REMARK SMILES IDX 77 56 44 57 45 58 58 60 78 61 47 62 32 63 33 64 41 65 34 66
REMARK SMILES IDX 40 67 35 68 36 69 37 70 38 71 39 72 62 73 63 74 71 75 64 76
REMARK SMILES IDX 70 77 65 78 66 79 67 80 68 81 69 82 48 83 49 84 57 85 50 86
REMARK SMILES IDX 56 87 51 88 52 89 53 90 54 91 55 92
REMARK H PARENT 16 6 20 29 76 48 46 59
REMARK Flexibility Score: inf
ROOT
ATOM      1  C   UNL A   1      38.065  21.006  25.232  1.00  0.00     0.042 C 
ENDROOT
BRANCH   1   2
ATOM      2  C   UNL A   1      37.196  21.783  24.244  1.00  0.00     0.118 C 
BRANCH   2   3
ATOM      3  N   UNL A   1      35.757  21.578  24.418  1.00  0.00    -0.351 N 
ATOM      4  C   UNL A   1      34.525  22.137  24.180  1.00  0.00     0.273 C 
ATOM      5  O   UNL A   1      33.631  21.286  24.302  1.00  0.00    -0.267 OA
ATOM      6  H   UNL A   1      35.621  20.717  24.875  1.00  0.00     0.163 HD
BRANCH   4   7
ATOM      7  C   UNL A   1      34.121  23.527  23.847  1.00  0.00     0.174 A 
ATOM      8  N   UNL A   1      33.299  25.516  23.398  1.00  0.00    -0.216 N 
ATOM      9  N   UNL A   1      33.984  25.130  22.320  1.00  0.00    -0.061 NA
ATOM     10  C   UNL A   1      33.292  24.534  24.382  1.00  0.00     0.083 A 
ATOM     11  N   UNL A   1      34.541  23.968  22.596  1.00  0.00    -0.124 NA
BRANCH   8  12
ATOM     12  C   UNL A   1      32.550  26.698  23.360  1.00  0.00     0.074 A 
ATOM     13  C   UNL A   1      32.261  28.865  24.341  1.00  0.00     0.124 A 
ATOM     14  C   UNL A   1      30.886  28.761  24.079  1.00  0.00     0.093 A 
ATOM     15  C   UNL A   1      33.109  27.842  23.934  1.00  0.00     0.075 A 
ATOM     16  C   UNL A   1      30.343  27.634  23.440  1.00  0.00     0.124 A 
ATOM     17  C   UNL A   1      31.188  26.599  23.052  1.00  0.00     0.075 A 
BRANCH  13  18
ATOM     18  O   UNL A   1      32.642  29.940  25.099  1.00  0.00    -0.497 OA
ATOM     19  C   UNL A   1      31.912  30.163  26.306  1.00  0.00     0.278 C 
ENDBRANCH  13  18
BRANCH  16  20
ATOM     20  O   UNL A   1      28.978  27.624  23.333  1.00  0.00    -0.497 OA
ATOM     21  C   UNL A   1      28.299  26.511  23.908  1.00  0.00     0.278 C 
ENDBRANCH  16  20
ENDBRANCH   8  12
BRANCH  10  22
ATOM     22  C   UNL A   1      32.432  24.549  25.635  1.00  0.00     0.007 C 
ATOM     23  C   UNL A   1      31.085  23.953  25.161  1.00  0.00     0.017 C 
ATOM     24  C   UNL A   1      33.310  23.916  26.739  1.00  0.00     0.017 C 
ATOM     25  C   UNL A   1      31.936  25.834  26.321  1.00  0.00     0.017 C 
ENDBRANCH  10  22
ENDBRANCH   4   7
ENDBRANCH   2   3
ENDBRANCH   1   2
BRANCH   1  26
ATOM     26  C   UNL A   1      38.931  21.841  26.142  1.00  0.00     0.118 C 
BRANCH  26  27
ATOM     27  N   UNL A   1      40.357  21.824  25.797  1.00  0.00    -0.352 N 
ATOM     28  C   UNL A   1      41.285  22.811  26.119  1.00  0.00     0.251 C 
ATOM     29  H   UNL A   1      40.685  21.046  25.292  1.00  0.00     0.163 HD
ATOM     30  O   UNL A   1      42.345  22.908  25.530  1.00  0.00    -0.269 OA
BRANCH  28  31
ATOM     31  C   UNL A   1      40.893  23.754  27.188  1.00  0.00     0.039 A 
ATOM     32  C   UNL A   1      41.744  24.019  28.259  1.00  0.00     0.014 A 
ATOM     33  C   UNL A   1      39.823  24.585  26.898  1.00  0.00     0.014 A 
ATOM     34  C   UNL A   1      41.609  25.237  28.929  1.00  0.00     0.010 A 
ATOM     35  C   UNL A   1      39.846  25.861  27.411  1.00  0.00     0.010 A 
ATOM     36  C   UNL A   1      40.710  26.209  28.448  1.00  0.00    -0.014 A 
BRANCH  36  37
ATOM     37  C   UNL A   1      40.760  27.598  28.936  1.00  0.00     0.031 A 
ATOM     38  C   UNL A   1      41.859  28.455  28.400  1.00  0.00     0.074 A 
ATOM     39  C   UNL A   1      39.822  28.196  29.708  1.00  0.00     0.049 A 
ATOM     40  N   UNL A   1      42.961  28.768  29.001  1.00  0.00    -0.248 NA
ATOM     41  C   UNL A   1      41.785  28.938  27.012  1.00  0.00     0.031 C 
ATOM     42  C   UNL A   1      38.525  27.671  30.156  1.00  0.00     0.029 A 
ATOM     43  N   UNL A   1      39.808  29.469  30.206  1.00  0.00    -0.354 N 
ATOM     44  C   UNL A   1      43.615  29.673  28.170  1.00  0.00     0.074 A 
ATOM     45  C   UNL A   1      42.943  29.600  26.896  1.00  0.00     0.031 C 
ATOM     46  C   UNL A   1      37.756  28.672  30.631  1.00  0.00     0.029 A 
ATOM     47  C   UNL A   1      38.592  29.846  30.757  1.00  0.00     0.049 A 
ATOM     48  H   UNL A   1      40.592  30.065  30.178  1.00  0.00     0.167 HD
ATOM     49  C   UNL A   1      44.489  30.591  28.672  1.00  0.00     0.031 A 
ATOM     50  C   UNL A   1      38.280  30.993  31.396  1.00  0.00     0.031 A 
ATOM     51  C   UNL A   1      44.755  30.356  30.068  1.00  0.00     0.049 A 
ATOM     52  C   UNL A   1      39.528  31.532  31.969  1.00  0.00     0.074 A 
ATOM     53  C   UNL A   1      45.477  29.459  30.823  1.00  0.00     0.029 A 
ATOM     54  N   UNL A   1      43.878  30.988  30.914  1.00  0.00    -0.354 N 
ATOM     55  N   UNL A   1      40.207  30.910  32.894  1.00  0.00    -0.248 NA
ATOM     56  C   UNL A   1      40.230  32.622  31.308  1.00  0.00     0.031 C 
ATOM     57  C   UNL A   1      44.824  29.397  32.091  1.00  0.00     0.029 A 
ATOM     58  C   UNL A   1      43.742  30.278  32.079  1.00  0.00     0.049 A 
ATOM     59  H   UNL A   1      43.414  31.833  30.713  1.00  0.00     0.167 HD
ATOM     60  C   UNL A   1      41.522  31.237  32.634  1.00  0.00     0.074 A 
ATOM     61  C   UNL A   1      41.461  32.418  31.786  1.00  0.00     0.031 C 
ATOM     62  C   UNL A   1      42.529  30.347  32.871  1.00  0.00     0.031 A 
BRANCH  49  63
ATOM     63  C   UNL A   1      44.753  31.961  28.080  1.00  0.00    -0.014 A 
ATOM     64  C   UNL A   1      46.073  32.286  27.690  1.00  0.00     0.010 A 
ATOM     65  C   UNL A   1      43.838  33.027  28.168  1.00  0.00     0.010 A 
ATOM     66  C   UNL A   1      46.469  33.615  27.471  1.00  0.00     0.020 A 
ATOM     67  C   UNL A   1      44.213  34.351  27.914  1.00  0.00     0.020 A 
ATOM     68  C   UNL A   1      45.535  34.641  27.603  1.00  0.00     0.054 A 
BRANCH  68  69
ATOM     69  S   UNL A   1      46.078  36.362  27.443  1.00  0.00     0.124 S 
ATOM     70  O   UNL A   1      44.885  37.004  26.898  1.00  0.00    -0.237 OA
ATOM     71  O   UNL A   1      46.416  36.711  28.820  1.00  0.00    -0.237 OA
ATOM     72  O   UNL A   1      47.216  36.276  26.530  1.00  0.00    -0.744 OA
ENDBRANCH  68  69
ENDBRANCH  49  63
BRANCH  50  73
ATOM     73  C   UNL A   1      36.978  31.679  31.474  1.00  0.00    -0.014 A 
ATOM     74  C   UNL A   1      36.326  31.863  32.704  1.00  0.00     0.010 A 
ATOM     75  C   UNL A   1      36.519  32.408  30.357  1.00  0.00     0.010 A 
ATOM     76  C   UNL A   1      35.304  32.811  32.834  1.00  0.00     0.020 A 
ATOM     77  C   UNL A   1      35.497  33.354  30.480  1.00  0.00     0.020 A 
ATOM     78  C   UNL A   1      34.917  33.574  31.728  1.00  0.00     0.054 A 
BRANCH  78  79
ATOM     79  S   UNL A   1      33.757  34.952  31.965  1.00  0.00     0.124 S 
ATOM     80  O   UNL A   1      34.640  36.026  32.413  1.00  0.00    -0.237 OA
ATOM     81  O   UNL A   1      33.188  35.117  30.631  1.00  0.00    -0.237 OA
ATOM     82  O   UNL A   1      32.827  34.449  32.974  1.00  0.00    -0.744 OA
ENDBRANCH  78  79
ENDBRANCH  50  73
BRANCH  62  83
ATOM     83  C   UNL A   1      42.278  29.251  33.873  1.00  0.00    -0.014 A 
ATOM     84  C   UNL A   1      41.916  27.936  33.528  1.00  0.00     0.010 A 
ATOM     85  C   UNL A   1      42.497  29.554  35.228  1.00  0.00     0.010 A 
ATOM     86  C   UNL A   1      41.757  26.954  34.517  1.00  0.00     0.020 A 
ATOM     87  C   UNL A   1      42.358  28.578  36.216  1.00  0.00     0.020 A 
ATOM     88  C   UNL A   1      41.981  27.283  35.858  1.00  0.00     0.054 A 
BRANCH  88  89
ATOM     89  S   UNL A   1      41.819  26.001  37.132  1.00  0.00     0.124 S 
ATOM     90  O   UNL A   1      40.458  26.205  37.619  1.00  0.00    -0.237 OA
ATOM     91  O   UNL A   1      42.040  24.767  36.379  1.00  0.00    -0.237 OA
ATOM     92  O   UNL A   1      42.875  26.327  38.090  1.00  0.00    -0.744 OA
ENDBRANCH  88  89
ENDBRANCH  62  83
ENDBRANCH  36  37
ENDBRANCH  28  31
ENDBRANCH  26  27
ENDBRANCH   1  26
TORSDOF 17
ENDMDL
MODEL 2
REMARK VINA RESULT:     -12.0      2.989      9.680
REMARK SMILES COc1cc(OC)cc(-n2nnc(C(=O)NCCCNC(=O)c3ccc(-c4c5nc(c(-c6ccc(S(=O)(=O)[O-])cc6)c6ccc([nH]6)c(-c6ccc(S(=O)(=O)[O-])cc6)c6nc(c(-c7ccc(S(=O)(=O)[O-])cc7)c7ccc4[nH]7)C=C6)C=C5)cc3)c2C(C)(C)C)c1
REMARK SMILES IDX 18 1 17 2 16 3 14 4 15 5 13 7 10 8 11 9 83 10 12 11 9 12
REMARK SMILES IDX 3 13 4 14 88 15 5 16 8 17 2 18 1 19 6 20 7 21 84 22 85 23
REMARK SMILES IDX 86 24 87 25 19 26 20 27 21 28 22 30 23 31 24 32 82 33 25 34
REMARK SMILES IDX 81 35 26 36 27 37 28 38 75 39 29 40 80 41 74 42 76 43 30 44
REMARK SMILES IDX 79 45 73 46 72 47 31 49 61 50 42 51 60 52 43 53 46 54 59 55
REMARK SMILES IDX 77 56 44 57 45 58 58 60 78 61 47 62 32 63 33 64 41 65 34 66
REMARK SMILES IDX 40 67 35 68 36 69 37 70 38 71 39 72 62 73 63 74 71 75 64 76
REMARK SMILES IDX 70 77 65 78 66 79 67 80 68 81 69 82 48 83 49 84 57 85 50 86
REMARK SMILES IDX 56 87 51 88 52 89 53 90 54 91 55 92
REMARK H PARENT 16 6 20 29 76 48 46 59
REMARK Flexibility Score: inf
ROOT
ATOM      1  C   UNL A   1      32.973  28.829  26.731  1.00  0.00     0.042 C 
ENDROOT
BRANCH   1   2
ATOM      2  C   UNL A   1      32.106  27.954  27.634  1.00  0.00     0.118 C 
BRANCH   2   3
ATOM      3  N   UNL A   1      31.118  27.143  26.919  1.00  0.00    -0.351 N 
ATOM      4  C   UNL A   1      30.840  25.871  26.484  1.00  0.00     0.273 C 
ATOM      5  O   UNL A   1      29.640  25.765  26.188  1.00  0.00    -0.267 OA
ATOM      6  H   UNL A   1      30.374  27.729  26.652  1.00  0.00     0.163 HD
BRANCH   4   7
ATOM      7  C   UNL A   1      31.710  24.682  26.295  1.00  0.00     0.174 A 
ATOM      8  N   UNL A   1      32.885  22.888  25.808  1.00  0.00    -0.216 N 
ATOM      9  N   UNL A   1      32.305  22.660  26.988  1.00  0.00    -0.061 NA
ATOM     10  C   UNL A   1      32.513  24.120  25.282  1.00  0.00     0.083 A 
ATOM     11  N   UNL A   1      31.650  23.751  27.329  1.00  0.00    -0.124 NA
BRANCH   8  12
ATOM     12  C   UNL A   1      33.602  21.866  25.176  1.00  0.00     0.074 A 
ATOM     13  C   UNL A   1      33.603  19.538  24.607  1.00  0.00     0.124 A 
ATOM     14  C   UNL A   1      35.000  19.544  24.733  1.00  0.00     0.093 A 
ATOM     15  C   UNL A   1      32.900  20.724  24.784  1.00  0.00     0.075 A 
ATOM     16  C   UNL A   1      35.704  20.715  25.061  1.00  0.00     0.124 A 
ATOM     17  C   UNL A   1      34.999  21.898  25.262  1.00  0.00     0.075 A 
BRANCH  13  18
ATOM     18  O   UNL A   1      33.027  18.307  24.431  1.00  0.00    -0.497 OA
ATOM     19  C   UNL A   1      32.466  17.693  25.591  1.00  0.00     0.278 C 
ENDBRANCH  13  18
BRANCH  16  20
ATOM     20  O   UNL A   1      37.051  20.556  25.243  1.00  0.00    -0.497 OA
ATOM     21  C   UNL A   1      37.824  21.746  25.374  1.00  0.00     0.278 C 
ENDBRANCH  16  20
ENDBRANCH   8  12
BRANCH  10  22
ATOM     22  C   UNL A   1      32.806  24.599  23.870  1.00  0.00     0.007 C 
ATOM     23  C   UNL A   1      31.406  24.923  23.295  1.00  0.00     0.017 C 
ATOM     24  C   UNL A   1      33.935  25.644  24.020  1.00  0.00     0.017 C 
ATOM     25  C   UNL A   1      33.357  23.694  22.753  1.00  0.00     0.017 C 
ENDBRANCH  10  22
ENDBRANCH   4   7
ENDBRANCH   2   3
ENDBRANCH   1   2
BRANCH   1  26
ATOM     26  C   UNL A   1      34.215  29.401  27.367  1.00  0.00     0.118 C 
BRANCH  26  27
ATOM     27  N   UNL A   1      34.491  30.794  27.000  1.00  0.00    -0.352 N 
ATOM     28  C   UNL A   1      35.300  31.679  27.709  1.00  0.00     0.251 C 
ATOM     29  H   UNL A   1      34.066  31.133  26.180  1.00  0.00     0.163 HD
ATOM     30  O   UNL A   1      35.221  32.882  27.553  1.00  0.00    -0.269 OA
BRANCH  28  31
ATOM     31  C   UNL A   1      36.230  31.074  28.687  1.00  0.00     0.039 A 
ATOM     32  C   UNL A   1      36.103  29.740  29.068  1.00  0.00     0.014 A 
ATOM     33  C   UNL A   1      37.395  31.783  28.931  1.00  0.00     0.014 A 
ATOM     34  C   UNL A   1      37.236  29.074  29.540  1.00  0.00     0.010 A 
ATOM     35  C   UNL A   1      38.542  31.065  29.179  1.00  0.00     0.010 A 
ATOM     36  C   UNL A   1      38.491  29.713  29.514  1.00  0.00    -0.014 A 
BRANCH  36  37
ATOM     37  C   UNL A   1      39.736  28.952  29.712  1.00  0.00     0.031 A 
ATOM     38  C   UNL A   1      40.203  28.791  31.121  1.00  0.00     0.074 A 
ATOM     39  C   UNL A   1      40.407  28.274  28.751  1.00  0.00     0.049 A 
ATOM     40  N   UNL A   1      41.146  29.456  31.706  1.00  0.00    -0.248 NA
ATOM     41  C   UNL A   1      39.489  27.867  32.016  1.00  0.00     0.031 C 
ATOM     42  C   UNL A   1      40.030  28.050  27.348  1.00  0.00     0.029 A 
ATOM     43  N   UNL A   1      41.568  27.561  28.858  1.00  0.00    -0.354 N 
ATOM     44  C   UNL A   1      41.305  28.883  32.965  1.00  0.00     0.074 A 
ATOM     45  C   UNL A   1      40.151  28.041  33.167  1.00  0.00     0.031 C 
ATOM     46  C   UNL A   1      40.789  27.072  26.813  1.00  0.00     0.029 A 
ATOM     47  C   UNL A   1      41.860  26.788  27.743  1.00  0.00     0.049 A 
ATOM     48  H   UNL A   1      42.146  27.594  29.654  1.00  0.00     0.167 HD
ATOM     49  C   UNL A   1      42.496  28.947  33.627  1.00  0.00     0.031 A 
ATOM     50  C   UNL A   1      42.959  26.042  27.504  1.00  0.00     0.031 A 
ATOM     51  C   UNL A   1      43.427  29.814  32.950  1.00  0.00     0.049 A 
ATOM     52  C   UNL A   1      44.065  26.624  28.288  1.00  0.00     0.074 A 
ATOM     53  C   UNL A   1      43.607  31.167  32.777  1.00  0.00     0.029 A 
ATOM     54  N   UNL A   1      44.190  29.176  32.003  1.00  0.00    -0.354 N 
ATOM     55  N   UNL A   1      44.529  27.824  28.071  1.00  0.00    -0.248 NA
ATOM     56  C   UNL A   1      44.478  26.014  29.543  1.00  0.00     0.031 C 
ATOM     57  C   UNL A   1      44.297  31.316  31.535  1.00  0.00     0.029 A 
ATOM     58  C   UNL A   1      44.541  30.048  31.005  1.00  0.00     0.049 A 
ATOM     59  H   UNL A   1      44.448  28.226  32.036  1.00  0.00     0.167 HD
ATOM     60  C   UNL A   1      44.921  28.272  29.316  1.00  0.00     0.074 A 
ATOM     61  C   UNL A   1      45.041  27.072  30.132  1.00  0.00     0.031 C 
ATOM     62  C   UNL A   1      44.811  29.589  29.657  1.00  0.00     0.031 A 
BRANCH  49  63
ATOM     63  C   UNL A   1      43.011  27.907  34.601  1.00  0.00    -0.014 A 
ATOM     64  C   UNL A   1      43.648  28.346  35.785  1.00  0.00     0.010 A 
ATOM     65  C   UNL A   1      43.164  26.548  34.266  1.00  0.00     0.010 A 
ATOM     66  C   UNL A   1      44.450  27.487  36.551  1.00  0.00     0.020 A 
ATOM     67  C   UNL A   1      43.931  25.673  35.044  1.00  0.00     0.020 A 
ATOM     68  C   UNL A   1      44.599  26.157  36.161  1.00  0.00     0.054 A 
BRANCH  68  69
ATOM     69  S   UNL A   1      45.734  25.084  37.079  1.00  0.00     0.124 S 
ATOM     70  O   UNL A   1      46.962  25.872  37.076  1.00  0.00    -0.237 OA
ATOM     71  O   UNL A   1      45.064  24.955  38.371  1.00  0.00    -0.237 OA
ATOM     72  O   UNL A   1      45.770  23.862  36.278  1.00  0.00    -0.744 OA
ENDBRANCH  68  69
ENDBRANCH  49  63
BRANCH  50  73
ATOM     73  C   UNL A   1      43.082  24.816  26.695  1.00  0.00    -0.014 A 
ATOM     74  C   UNL A   1      43.802  24.811  25.490  1.00  0.00     0.010 A 
ATOM     75  C   UNL A   1      42.725  23.577  27.268  1.00  0.00     0.010 A 
ATOM     76  C   UNL A   1      44.229  23.604  24.920  1.00  0.00     0.020 A 
ATOM     77  C   UNL A   1      43.145  22.370  26.702  1.00  0.00     0.020 A 
ATOM     78  C   UNL A   1      43.925  22.393  25.547  1.00  0.00     0.054 A 
BRANCH  78  79
ATOM     79  S   UNL A   1      44.677  20.861  24.924  1.00  0.00     0.124 S 
ATOM     80  O   UNL A   1      43.850  19.833  25.550  1.00  0.00    -0.237 OA
ATOM     81  O   UNL A   1      44.524  21.001  23.479  1.00  0.00    -0.237 OA
ATOM     82  O   UNL A   1      46.054  20.933  25.408  1.00  0.00    -0.744 OA
ENDBRANCH  78  79
ENDBRANCH  50  73
BRANCH  62  83
ATOM     83  C   UNL A   1      44.769  30.603  28.544  1.00  0.00    -0.014 A 
ATOM     84  C   UNL A   1      43.589  31.002  27.888  1.00  0.00     0.010 A 
ATOM     85  C   UNL A   1      45.976  31.236  28.202  1.00  0.00     0.010 A 
ATOM     86  C   UNL A   1      43.623  31.997  26.900  1.00  0.00     0.020 A 
ATOM     87  C   UNL A   1      46.014  32.239  27.232  1.00  0.00     0.020 A 
ATOM     88  C   UNL A   1      44.838  32.610  26.578  1.00  0.00     0.054 A 
BRANCH  88  89
ATOM     89  S   UNL A   1      44.871  33.929  25.332  1.00  0.00     0.124 S 
ATOM     90  O   UNL A   1      44.006  34.946  25.922  1.00  0.00    -0.237 OA
ATOM     91  O   UNL A   1      46.290  34.274  25.263  1.00  0.00    -0.237 OA
ATOM     92  O   UNL A   1      44.341  33.286  24.130  1.00  0.00    -0.744 OA
ENDBRANCH  88  89
ENDBRANCH  62  83
ENDBRANCH  36  37
ENDBRANCH  28  31
ENDBRANCH  26  27
ENDBRANCH   1  26
TORSDOF 17
ENDMDL
MODEL 3
REMARK VINA RESULT:     -12.0      1.092      2.027
REMARK SMILES COc1cc(OC)cc(-n2nnc(C(=O)NCCCNC(=O)c3ccc(-c4c5nc(c(-c6ccc(S(=O)(=O)[O-])cc6)c6ccc([nH]6)c(-c6ccc(S(=O)(=O)[O-])cc6)c6nc(c(-c7ccc(S(=O)(=O)[O-])cc7)c7ccc4[nH]7)C=C6)C=C5)cc3)c2C(C)(C)C)c1
REMARK SMILES IDX 18 1 17 2 16 3 14 4 15 5 13 7 10 8 11 9 83 10 12 11 9 12
REMARK SMILES IDX 3 13 4 14 88 15 5 16 8 17 2 18 1 19 6 20 7 21 84 22 85 23
REMARK SMILES IDX 86 24 87 25 19 26 20 27 21 28 22 30 23 31 24 32 82 33 25 34
REMARK SMILES IDX 81 35 26 36 27 37 28 38 75 39 29 40 80 41 74 42 76 43 30 44
REMARK SMILES IDX 79 45 73 46 72 47 31 49 61 50 42 51 60 52 43 53 46 54 59 55
REMARK SMILES IDX 77 56 44 57 45 58 58 60 78 61 47 62 32 63 33 64 41 65 34 66
REMARK SMILES IDX 40 67 35 68 36 69 37 70 38 71 39 72 62 73 63 74 71 75 64 76
REMARK SMILES IDX 70 77 65 78 66 79 67 80 68 81 69 82 48 83 49 84 57 85 50 86
REMARK SMILES IDX 56 87 51 88 52 89 53 90 54 91 55 92
REMARK H PARENT 16 6 20 29 76 48 46 59
REMARK Flexibility Score: inf
ROOT
ATOM      1  C   UNL A   1      37.712  21.028  25.361  1.00  0.00     0.042 C 
ENDROOT
BRANCH   1   2
ATOM      2  C   UNL A   1      36.371  21.665  25.003  1.00  0.00     0.118 C 
BRANCH   2   3
ATOM      3  N   UNL A   1      35.211  21.009  25.609  1.00  0.00    -0.351 N 
ATOM      4  C   UNL A   1      33.880  21.174  25.907  1.00  0.00     0.273 C 
ATOM      5  O   UNL A   1      33.354  20.080  26.163  1.00  0.00    -0.267 OA
ATOM      6  H   UNL A   1      35.488  20.117  25.917  1.00  0.00     0.163 HD
BRANCH   4   7
ATOM      7  C   UNL A   1      33.033  22.390  25.994  1.00  0.00     0.174 A 
ATOM      8  N   UNL A   1      31.976  24.317  26.079  1.00  0.00    -0.216 N 
ATOM      9  N   UNL A   1      31.753  23.703  27.243  1.00  0.00    -0.061 NA
ATOM     10  C   UNL A   1      32.821  23.575  25.261  1.00  0.00     0.083 A 
ATOM     11  N   UNL A   1      32.323  22.517  27.185  1.00  0.00    -0.124 NA
BRANCH   8  12
ATOM     12  C   UNL A   1      31.531  25.630  25.888  1.00  0.00     0.074 A 
ATOM     13  C   UNL A   1      30.239  27.074  24.477  1.00  0.00     0.124 A 
ATOM     14  C   UNL A   1      31.122  28.117  24.798  1.00  0.00     0.093 A 
ATOM     15  C   UNL A   1      30.419  25.828  25.066  1.00  0.00     0.075 A 
ATOM     16  C   UNL A   1      32.199  27.924  25.680  1.00  0.00     0.124 A 
ATOM     17  C   UNL A   1      32.393  26.671  26.252  1.00  0.00     0.075 A 
BRANCH  13  18
ATOM     18  O   UNL A   1      29.324  27.349  23.496  1.00  0.00    -0.497 OA
ATOM     19  C   UNL A   1      29.528  28.550  22.751  1.00  0.00     0.278 C 
ENDBRANCH  13  18
BRANCH  16  20
ATOM     20  O   UNL A   1      33.031  29.001  25.828  1.00  0.00    -0.497 OA
ATOM     21  C   UNL A   1      32.410  30.265  26.042  1.00  0.00     0.278 C 
ENDBRANCH  16  20
ENDBRANCH   8  12
BRANCH  10  22
ATOM     22  C   UNL A   1      33.456  24.070  23.972  1.00  0.00     0.007 C 
ATOM     23  C   UNL A   1      34.755  24.764  24.446  1.00  0.00     0.017 C 
ATOM     24  C   UNL A   1      33.431  22.857  23.014  1.00  0.00     0.017 C 
ATOM     25  C   UNL A   1      32.858  25.182  23.092  1.00  0.00     0.017 C 
ENDBRANCH  10  22
ENDBRANCH   4   7
ENDBRANCH   2   3
ENDBRANCH   1   2
BRANCH   1  26
ATOM     26  C   UNL A   1      38.676  21.907  26.118  1.00  0.00     0.118 C 
BRANCH  26  27
ATOM     27  N   UNL A   1      40.085  21.692  25.771  1.00  0.00    -0.352 N 
ATOM     28  C   UNL A   1      41.144  22.533  26.104  1.00  0.00     0.251 C 
ATOM     29  H   UNL A   1      40.300  20.882  25.256  1.00  0.00     0.163 HD
ATOM     30  O   UNL A   1      42.207  22.487  25.516  1.00  0.00    -0.269 OA
BRANCH  28  31
ATOM     31  C   UNL A   1      40.889  23.508  27.186  1.00  0.00     0.039 A 
ATOM     32  C   UNL A   1      41.876  23.822  28.118  1.00  0.00     0.014 A 
ATOM     33  C   UNL A   1      39.775  24.316  27.022  1.00  0.00     0.014 A 
ATOM     34  C   UNL A   1      41.815  25.062  28.759  1.00  0.00     0.010 A 
ATOM     35  C   UNL A   1      39.848  25.610  27.483  1.00  0.00     0.010 A 
ATOM     36  C   UNL A   1      40.842  26.005  28.377  1.00  0.00    -0.014 A 
BRANCH  36  37
ATOM     37  C   UNL A   1      40.936  27.411  28.806  1.00  0.00     0.031 A 
ATOM     38  C   UNL A   1      42.032  28.222  28.199  1.00  0.00     0.074 A 
ATOM     39  C   UNL A   1      40.037  28.058  29.584  1.00  0.00     0.049 A 
ATOM     40  N   UNL A   1      43.160  28.535  28.749  1.00  0.00    -0.248 NA
ATOM     41  C   UNL A   1      41.920  28.651  26.796  1.00  0.00     0.031 C 
ATOM     42  C   UNL A   1      38.746  27.578  30.096  1.00  0.00     0.029 A 
ATOM     43  N   UNL A   1      40.065  29.350  30.031  1.00  0.00    -0.354 N 
ATOM     44  C   UNL A   1      43.803  29.392  27.861  1.00  0.00     0.074 A 
ATOM     45  C   UNL A   1      43.086  29.283  26.614  1.00  0.00     0.031 C 
ATOM     46  C   UNL A   1      38.014  28.614  30.556  1.00  0.00     0.029 A 
ATOM     47  C   UNL A   1      38.876  29.774  30.607  1.00  0.00     0.049 A 
ATOM     48  H   UNL A   1      40.859  29.927  29.952  1.00  0.00     0.167 HD
ATOM     49  C   UNL A   1      44.711  30.312  28.296  1.00  0.00     0.031 A 
ATOM     50  C   UNL A   1      38.609  30.952  31.209  1.00  0.00     0.031 A 
ATOM     51  C   UNL A   1      45.021  30.126  29.691  1.00  0.00     0.049 A 
ATOM     52  C   UNL A   1      39.887  31.487  31.717  1.00  0.00     0.074 A 
ATOM     53  C   UNL A   1      45.751  29.246  30.456  1.00  0.00     0.029 A 
ATOM     54  N   UNL A   1      44.186  30.810  30.540  1.00  0.00    -0.354 N 
ATOM     55  N   UNL A   1      40.585  30.888  32.643  1.00  0.00    -0.248 NA
ATOM     56  C   UNL A   1      40.587  32.535  30.990  1.00  0.00     0.031 C 
ATOM     57  C   UNL A   1      45.140  29.248  31.747  1.00  0.00     0.029 A 
ATOM     58  C   UNL A   1      44.076  30.150  31.736  1.00  0.00     0.049 A 
ATOM     59  H   UNL A   1      43.732  31.656  30.320  1.00  0.00     0.167 HD
ATOM     60  C   UNL A   1      41.896  31.177  32.327  1.00  0.00     0.074 A 
ATOM     61  C   UNL A   1      41.829  32.324  31.434  1.00  0.00     0.031 C 
ATOM     62  C   UNL A   1      42.893  30.276  32.565  1.00  0.00     0.031 A 
BRANCH  49  63
ATOM     63  C   UNL A   1      44.982  31.652  27.640  1.00  0.00    -0.014 A 
ATOM     64  C   UNL A   1      46.323  32.078  27.501  1.00  0.00     0.010 A 
ATOM     65  C   UNL A   1      43.984  32.623  27.434  1.00  0.00     0.010 A 
ATOM     66  C   UNL A   1      46.646  33.418  27.240  1.00  0.00     0.020 A 
ATOM     67  C   UNL A   1      44.293  33.954  27.135  1.00  0.00     0.020 A 
ATOM     68  C   UNL A   1      45.623  34.352  27.076  1.00  0.00     0.054 A 
BRANCH  68  69
ATOM     69  S   UNL A   1      46.043  36.101  26.864  1.00  0.00     0.124 S 
ATOM     70  O   UNL A   1      46.877  36.354  28.034  1.00  0.00    -0.237 OA
ATOM     71  O   UNL A   1      46.734  36.102  25.577  1.00  0.00    -0.237 OA
ATOM     72  O   UNL A   1      44.741  36.766  26.866  1.00  0.00    -0.744 OA
ENDBRANCH  68  69
ENDBRANCH  49  63
BRANCH  50  73
ATOM     73  C   UNL A   1      37.324  31.668  31.303  1.00  0.00    -0.014 A 
ATOM     74  C   UNL A   1      36.550  31.621  32.474  1.00  0.00     0.010 A 
ATOM     75  C   UNL A   1      37.006  32.636  30.327  1.00  0.00     0.010 A 
ATOM     76  C   UNL A   1      35.544  32.568  32.702  1.00  0.00     0.020 A 
ATOM     77  C   UNL A   1      36.001  33.583  30.548  1.00  0.00     0.020 A 
ATOM     78  C   UNL A   1      35.298  33.563  31.751  1.00  0.00     0.054 A 
BRANCH  78  79
ATOM     79  S   UNL A   1      34.155  34.915  32.162  1.00  0.00     0.124 S 
ATOM     80  O   UNL A   1      34.990  35.789  32.980  1.00  0.00    -0.237 OA
ATOM     81  O   UNL A   1      33.797  35.434  30.845  1.00  0.00    -0.237 OA
ATOM     82  O   UNL A   1      33.070  34.243  32.875  1.00  0.00    -0.744 OA
ENDBRANCH  78  79
ENDBRANCH  50  73
BRANCH  62  83
ATOM     83  C   UNL A   1      42.656  29.226  33.619  1.00  0.00    -0.014 A 
ATOM     84  C   UNL A   1      43.043  29.362  34.965  1.00  0.00     0.010 A 
ATOM     85  C   UNL A   1      41.936  28.081  33.239  1.00  0.00     0.010 A 
ATOM     86  C   UNL A   1      42.733  28.364  35.902  1.00  0.00     0.020 A 
ATOM     87  C   UNL A   1      41.609  27.093  34.169  1.00  0.00     0.020 A 
ATOM     88  C   UNL A   1      42.017  27.234  35.496  1.00  0.00     0.054 A 
BRANCH  88  89
ATOM     89  S   UNL A   1      41.578  25.967  36.719  1.00  0.00     0.124 S 
ATOM     90  O   UNL A   1      41.317  24.797  35.885  1.00  0.00    -0.237 OA
ATOM     91  O   UNL A   1      42.777  25.892  37.552  1.00  0.00    -0.237 OA
ATOM     92  O   UNL A   1      40.403  26.523  37.390  1.00  0.00    -0.744 OA
ENDBRANCH  88  89
ENDBRANCH  62  83
ENDBRANCH  36  37
ENDBRANCH  28  31
ENDBRANCH  26  27
ENDBRANCH   1  26
TORSDOF 17
ENDMDL
