MODEL 1
REMARK VINA RESULT:      -9.7      0.000      0.000
REMARK SMILES CCCC[C@@H](C(=O)NCCCNC(=O)c1ccc(-c2c3nc(c(-c4ccc(S(=O)(=O)[O-])cc4)c4ccc([nH]4)c(-c4ccc(S(=O)(=O)[O-])cc4)c4nc(c(-c5ccc(S(=O)(=O)[O-])cc5)c5ccc2[nH]5)C=C4)C=C3)cc1)C1(O)Cc2ccccc2C1
REMARK SMILES IDX 10 1 9 2 8 3 6 4 7 5 5 7 4 8 3 9 2 10 1 11 75 12 77 13 84 14
REMARK SMILES IDX 78 15 83 16 79 17 82 18 80 19 81 20 76 21 11 23 12 24 13 25
REMARK SMILES IDX 14 27 15 28 16 29 74 30 17 31 73 32 18 33 19 34 20 35 67 36
REMARK SMILES IDX 21 37 72 38 66 39 68 40 22 41 71 42 65 43 64 44 23 46 53 47
REMARK SMILES IDX 34 48 52 49 35 50 38 51 51 52 69 53 36 54 37 55 50 57 70 58
REMARK SMILES IDX 39 59 24 60 25 61 33 62 26 63 32 64 27 65 28 66 29 67 30 68
REMARK SMILES IDX 31 69 54 70 55 71 63 72 56 73 62 74 57 75 58 76 59 77 60 78
REMARK SMILES IDX 61 79 40 80 41 81 49 82 42 83 48 84 43 85 44 86 45 87 46 88
REMARK SMILES IDX 47 89
REMARK H PARENT 8 6 76 22 12 26 68 45 38 56
REMARK Flexibility Score: inf
ROOT
ATOM      1  C   UNL A   1      34.491  32.886  30.139  1.00  0.00     0.042 C 
ENDROOT
BRANCH   1   2
ATOM      2  C   UNL A   1      34.214  34.328  30.516  1.00  0.00     0.117 C 
BRANCH   2   3
ATOM      3  N   UNL A   1      34.088  34.491  31.952  1.00  0.00    -0.356 N 
ATOM      4  C   UNL A   1      35.049  35.187  32.619  1.00  0.00     0.226 C 
ATOM      5  O   UNL A   1      34.847  36.395  32.771  1.00  0.00    -0.275 OA
ATOM      6  H   UNL A   1      33.321  34.105  32.435  1.00  0.00     0.163 HD
BRANCH   4   7
ATOM      7  C   UNL A   1      36.377  34.513  33.020  1.00  0.00     0.111 C 
BRANCH   7   8
ATOM      8  C   UNL A   1      37.267  33.899  31.898  1.00  0.00     0.016 C 
BRANCH   8   9
ATOM      9  C   UNL A   1      38.583  34.522  31.419  1.00  0.00     0.001 C 
BRANCH   9  10
ATOM     10  C   UNL A   1      38.782  34.769  29.930  1.00  0.00    -0.003 C 
ATOM     11  C   UNL A   1      38.062  33.755  29.063  1.00  0.00     0.004 C 
ENDBRANCH   9  10
ENDBRANCH   8   9
ENDBRANCH   7   8
BRANCH   7  12
ATOM     12  C   UNL A   1      36.166  33.402  34.161  1.00  0.00     0.084 C 
ATOM     13  C   UNL A   1      36.883  33.728  35.517  1.00  0.00     0.072 C 
ATOM     14  C   UNL A   1      36.699  31.959  33.897  1.00  0.00     0.072 C 
ATOM     15  C   UNL A   1      38.238  33.146  35.257  1.00  0.00    -0.042 A 
ATOM     16  C   UNL A   1      38.129  32.111  34.322  1.00  0.00    -0.042 A 
ATOM     17  C   UNL A   1      39.470  33.565  35.724  1.00  0.00     0.004 A 
ATOM     18  C   UNL A   1      39.251  31.478  33.819  1.00  0.00     0.004 A 
ATOM     19  C   UNL A   1      40.611  32.957  35.195  1.00  0.00     0.000 A 
ATOM     20  C   UNL A   1      40.503  31.927  34.245  1.00  0.00     0.000 A 
BRANCH  12  21
ATOM     21  O   UNL A   1      34.746  33.303  34.390  1.00  0.00    -0.388 OA
ATOM     22  H   UNL A   1      34.458  32.390  34.238  1.00  0.00     0.211 HD
ENDBRANCH  12  21
ENDBRANCH   7  12
ENDBRANCH   4   7
ENDBRANCH   2   3
ENDBRANCH   1   2
BRANCH   1  23
ATOM     23  C   UNL A   1      34.619  32.706  28.641  1.00  0.00     0.118 C 
BRANCH  23  24
ATOM     24  N   UNL A   1      33.961  31.486  28.191  1.00  0.00    -0.352 N 
ATOM     25  C   UNL A   1      34.516  30.275  27.858  1.00  0.00     0.251 C 
ATOM     26  H   UNL A   1      32.981  31.537  28.115  1.00  0.00     0.163 HD
ATOM     27  O   UNL A   1      33.850  29.448  27.235  1.00  0.00    -0.269 OA
BRANCH  25  28
ATOM     28  C   UNL A   1      35.912  29.977  28.236  1.00  0.00     0.039 A 
ATOM     29  C   UNL A   1      36.198  29.515  29.522  1.00  0.00     0.014 A 
ATOM     30  C   UNL A   1      36.943  30.152  27.311  1.00  0.00     0.014 A 
ATOM     31  C   UNL A   1      37.512  29.174  29.854  1.00  0.00     0.010 A 
ATOM     32  C   UNL A   1      38.218  29.689  27.598  1.00  0.00     0.010 A 
ATOM     33  C   UNL A   1      38.526  29.225  28.883  1.00  0.00    -0.014 A 
BRANCH  33  34
ATOM     34  C   UNL A   1      39.928  28.848  29.196  1.00  0.00     0.031 A 
ATOM     35  C   UNL A   1      40.838  29.851  29.859  1.00  0.00     0.074 A 
ATOM     36  C   UNL A   1      40.396  27.639  28.829  1.00  0.00     0.049 A 
ATOM     37  N   UNL A   1      42.107  29.741  30.157  1.00  0.00    -0.248 NA
ATOM     38  C   UNL A   1      40.257  31.162  30.200  1.00  0.00     0.031 C 
ATOM     39  C   UNL A   1      39.624  26.605  28.133  1.00  0.00     0.029 A 
ATOM     40  N   UNL A   1      41.635  27.074  28.988  1.00  0.00    -0.354 N 
ATOM     41  C   UNL A   1      42.475  30.971  30.693  1.00  0.00     0.074 A 
ATOM     42  C   UNL A   1      41.319  31.833  30.617  1.00  0.00     0.031 C 
ATOM     43  C   UNL A   1      40.396  25.520  27.963  1.00  0.00     0.029 A 
ATOM     44  C   UNL A   1      41.728  25.795  28.492  1.00  0.00     0.049 A 
ATOM     45  H   UNL A   1      42.388  27.540  29.417  1.00  0.00     0.167 HD
ATOM     46  C   UNL A   1      43.661  31.341  31.230  1.00  0.00     0.031 A 
ATOM     47  C   UNL A   1      42.769  24.941  28.464  1.00  0.00     0.031 A 
ATOM     48  C   UNL A   1      44.799  30.468  31.324  1.00  0.00     0.049 A 
ATOM     49  C   UNL A   1      44.077  25.374  29.067  1.00  0.00     0.074 A 
ATOM     50  C   UNL A   1      46.028  30.719  31.906  1.00  0.00     0.029 A 
ATOM     51  N   UNL A   1      44.846  29.175  30.824  1.00  0.00    -0.354 N 
ATOM     52  N   UNL A   1      44.384  26.516  29.635  1.00  0.00    -0.248 NA
ATOM     53  C   UNL A   1      45.175  24.399  29.036  1.00  0.00     0.031 C 
ATOM     54  C   UNL A   1      46.839  29.598  31.705  1.00  0.00     0.029 A 
ATOM     55  C   UNL A   1      46.093  28.624  31.060  1.00  0.00     0.049 A 
ATOM     56  H   UNL A   1      44.102  28.718  30.369  1.00  0.00     0.167 HD
ATOM     57  C   UNL A   1      45.704  26.386  30.056  1.00  0.00     0.074 A 
ATOM     58  C   UNL A   1      46.128  25.050  29.692  1.00  0.00     0.031 C 
ATOM     59  C   UNL A   1      46.493  27.291  30.687  1.00  0.00     0.031 A 
BRANCH  46  60
ATOM     60  C   UNL A   1      43.784  32.749  31.753  1.00  0.00    -0.014 A 
ATOM     61  C   UNL A   1      43.645  33.033  33.126  1.00  0.00     0.010 A 
ATOM     62  C   UNL A   1      44.075  33.802  30.867  1.00  0.00     0.010 A 
ATOM     63  C   UNL A   1      43.752  34.346  33.592  1.00  0.00     0.020 A 
ATOM     64  C   UNL A   1      44.217  35.111  31.335  1.00  0.00     0.020 A 
ATOM     65  C   UNL A   1      44.038  35.377  32.693  1.00  0.00     0.054 A 
BRANCH  65  66
ATOM     66  S   UNL A   1      44.200  37.065  33.334  1.00  0.00     0.124 S 
ATOM     67  O   UNL A   1      44.442  37.829  32.113  1.00  0.00    -0.237 OA
ATOM     68  O   UNL A   1      42.905  37.291  33.970  1.00  0.00    -0.237 OA
ATOM     69  O   UNL A   1      45.336  36.981  34.250  1.00  0.00    -0.744 OA
ENDBRANCH  65  66
ENDBRANCH  46  60
BRANCH  47  70
ATOM     70  C   UNL A   1      42.608  23.589  27.859  1.00  0.00    -0.014 A 
ATOM     71  C   UNL A   1      43.094  23.319  26.567  1.00  0.00     0.010 A 
ATOM     72  C   UNL A   1      41.977  22.557  28.579  1.00  0.00     0.010 A 
ATOM     73  C   UNL A   1      42.936  22.049  26.002  1.00  0.00     0.020 A 
ATOM     74  C   UNL A   1      41.845  21.279  28.029  1.00  0.00     0.020 A 
ATOM     75  C   UNL A   1      42.316  21.036  26.737  1.00  0.00     0.054 A 
BRANCH  75  76
ATOM     76  S   UNL A   1      42.167  19.385  26.001  1.00  0.00     0.124 S 
ATOM     77  O   UNL A   1      42.979  19.515  24.796  1.00  0.00    -0.237 OA
ATOM     78  O   UNL A   1      42.714  18.525  27.046  1.00  0.00    -0.237 OA
ATOM     79  O   UNL A   1      40.730  19.240  25.775  1.00  0.00    -0.744 OA
ENDBRANCH  75  76
ENDBRANCH  47  70
BRANCH  59  80
ATOM     80  C   UNL A   1      47.886  26.855  31.058  1.00  0.00    -0.014 A 
ATOM     81  C   UNL A   1      48.162  26.274  32.307  1.00  0.00     0.010 A 
ATOM     82  C   UNL A   1      48.922  26.974  30.113  1.00  0.00     0.010 A 
ATOM     83  C   UNL A   1      49.456  25.850  32.618  1.00  0.00     0.020 A 
ATOM     84  C   UNL A   1      50.209  26.522  30.407  1.00  0.00     0.020 A 
ATOM     85  C   UNL A   1      50.471  25.976  31.664  1.00  0.00     0.054 A 
BRANCH  85  86
ATOM     86  S   UNL A   1      52.132  25.377  32.077  1.00  0.00     0.124 S 
ATOM     87  O   UNL A   1      52.907  25.806  30.916  1.00  0.00    -0.237 OA
ATOM     88  O   UNL A   1      52.424  26.081  33.323  1.00  0.00    -0.237 OA
ATOM     89  O   UNL A   1      51.956  23.933  32.211  1.00  0.00    -0.744 OA
ENDBRANCH  85  86
ENDBRANCH  59  80
ENDBRANCH  33  34
ENDBRANCH  25  28
ENDBRANCH  23  24
ENDBRANCH   1  23
TORSDOF 18
ENDMDL
MODEL 2
REMARK VINA RESULT:      -9.5      3.504      6.782
REMARK SMILES CCCC[C@@H](C(=O)NCCCNC(=O)c1ccc(-c2c3nc(c(-c4ccc(S(=O)(=O)[O-])cc4)c4ccc([nH]4)c(-c4ccc(S(=O)(=O)[O-])cc4)c4nc(c(-c5ccc(S(=O)(=O)[O-])cc5)c5ccc2[nH]5)C=C4)C=C3)cc1)C1(O)Cc2ccccc2C1
REMARK SMILES IDX 10 1 9 2 8 3 6 4 7 5 5 7 4 8 3 9 2 10 1 11 75 12 77 13 84 14
REMARK SMILES IDX 78 15 83 16 79 17 82 18 80 19 81 20 76 21 11 23 12 24 13 25
REMARK SMILES IDX 14 27 15 28 16 29 74 30 17 31 73 32 18 33 19 34 20 35 67 36
REMARK SMILES IDX 21 37 72 38 66 39 68 40 22 41 71 42 65 43 64 44 23 46 53 47
REMARK SMILES IDX 34 48 52 49 35 50 38 51 51 52 69 53 36 54 37 55 50 57 70 58
REMARK SMILES IDX 39 59 24 60 25 61 33 62 26 63 32 64 27 65 28 66 29 67 30 68
REMARK SMILES IDX 31 69 54 70 55 71 63 72 56 73 62 74 57 75 58 76 59 77 60 78
REMARK SMILES IDX 61 79 40 80 41 81 49 82 42 83 48 84 43 85 44 86 45 87 46 88
REMARK SMILES IDX 47 89
REMARK H PARENT 8 6 76 22 12 26 68 45 38 56
REMARK Flexibility Score: inf
ROOT
ATOM      1  C   UNL A   1      32.425  27.754  26.426  1.00  0.00     0.042 C 
ENDROOT
BRANCH   1   2
ATOM      2  C   UNL A   1      32.104  26.460  27.146  1.00  0.00     0.117 C 
BRANCH   2   3
ATOM      3  N   UNL A   1      30.972  25.780  26.546  1.00  0.00    -0.356 N 
ATOM      4  C   UNL A   1      31.045  24.435  26.349  1.00  0.00     0.226 C 
ATOM      5  O   UNL A   1      30.604  23.723  27.254  1.00  0.00    -0.275 OA
ATOM      6  H   UNL A   1      30.165  26.283  26.286  1.00  0.00     0.163 HD
BRANCH   4   7
ATOM      7  C   UNL A   1      31.778  23.856  25.122  1.00  0.00     0.111 C 
BRANCH   7   8
ATOM      8  C   UNL A   1      31.028  23.820  23.757  1.00  0.00     0.016 C 
BRANCH   8   9
ATOM      9  C   UNL A   1      31.419  24.678  22.548  1.00  0.00     0.001 C 
BRANCH   9  10
ATOM     10  C   UNL A   1      32.889  24.793  22.170  1.00  0.00    -0.003 C 
ATOM     11  C   UNL A   1      33.611  25.882  22.937  1.00  0.00     0.004 C 
ENDBRANCH   9  10
ENDBRANCH   8   9
ENDBRANCH   7   8
BRANCH   7  12
ATOM     12  C   UNL A   1      32.370  22.391  25.411  1.00  0.00     0.084 C 
ATOM     13  C   UNL A   1      33.457  22.347  26.540  1.00  0.00     0.072 C 
ATOM     14  C   UNL A   1      33.125  21.657  24.259  1.00  0.00     0.072 C 
ATOM     15  C   UNL A   1      34.691  22.644  25.744  1.00  0.00    -0.042 A 
ATOM     16  C   UNL A   1      34.501  22.233  24.420  1.00  0.00    -0.042 A 
ATOM     17  C   UNL A   1      35.836  23.313  26.131  1.00  0.00     0.004 A 
ATOM     18  C   UNL A   1      35.446  22.496  23.445  1.00  0.00     0.004 A 
ATOM     19  C   UNL A   1      36.780  23.616  25.147  1.00  0.00     0.000 A 
ATOM     20  C   UNL A   1      36.583  23.217  23.814  1.00  0.00     0.000 A 
BRANCH  12  21
ATOM     21  O   UNL A   1      31.257  21.560  25.795  1.00  0.00    -0.388 OA
ATOM     22  H   UNL A   1      30.814  21.224  25.000  1.00  0.00     0.211 HD
ENDBRANCH  12  21
ENDBRANCH   7  12
ENDBRANCH   4   7
ENDBRANCH   2   3
ENDBRANCH   1   2
BRANCH   1  23
ATOM     23  C   UNL A   1      33.748  28.341  26.874  1.00  0.00     0.118 C 
BRANCH  23  24
ATOM     24  N   UNL A   1      33.600  29.724  27.308  1.00  0.00    -0.352 N 
ATOM     25  C   UNL A   1      34.447  30.488  28.072  1.00  0.00     0.251 C 
ATOM     26  H   UNL A   1      32.776  30.174  27.011  1.00  0.00     0.163 HD
ATOM     27  O   UNL A   1      34.040  31.535  28.575  1.00  0.00    -0.269 OA
BRANCH  25  28
ATOM     28  C   UNL A   1      35.836  30.041  28.298  1.00  0.00     0.039 A 
ATOM     29  C   UNL A   1      36.761  30.098  27.254  1.00  0.00     0.014 A 
ATOM     30  C   UNL A   1      36.227  29.568  29.553  1.00  0.00     0.014 A 
ATOM     31  C   UNL A   1      38.089  29.735  27.491  1.00  0.00     0.010 A 
ATOM     32  C   UNL A   1      37.567  29.336  29.820  1.00  0.00     0.010 A 
ATOM     33  C   UNL A   1      38.510  29.385  28.785  1.00  0.00    -0.014 A 
BRANCH  33  34
ATOM     34  C   UNL A   1      39.918  29.016  29.076  1.00  0.00     0.031 A 
ATOM     35  C   UNL A   1      40.843  30.034  29.694  1.00  0.00     0.074 A 
ATOM     36  C   UNL A   1      40.378  27.797  28.732  1.00  0.00     0.049 A 
ATOM     37  N   UNL A   1      42.118  29.932  29.966  1.00  0.00    -0.248 NA
ATOM     38  C   UNL A   1      40.270  31.355  30.012  1.00  0.00     0.031 C 
ATOM     39  C   UNL A   1      39.591  26.745  28.080  1.00  0.00     0.029 A 
ATOM     40  N   UNL A   1      41.621  27.235  28.878  1.00  0.00    -0.354 N 
ATOM     41  C   UNL A   1      42.498  31.175  30.462  1.00  0.00     0.074 A 
ATOM     42  C   UNL A   1      41.341  32.036  30.388  1.00  0.00     0.031 C 
ATOM     43  C   UNL A   1      40.358  25.656  27.922  1.00  0.00     0.029 A 
ATOM     44  C   UNL A   1      41.702  25.943  28.414  1.00  0.00     0.049 A 
ATOM     45  H   UNL A   1      42.383  27.712  29.278  1.00  0.00     0.167 HD
ATOM     46  C   UNL A   1      43.695  31.558  30.963  1.00  0.00     0.031 A 
ATOM     47  C   UNL A   1      42.742  25.088  28.386  1.00  0.00     0.031 A 
ATOM     48  C   UNL A   1      44.835  30.687  31.055  1.00  0.00     0.049 A 
ATOM     49  C   UNL A   1      44.063  25.536  28.949  1.00  0.00     0.074 A 
ATOM     50  C   UNL A   1      46.076  30.952  31.604  1.00  0.00     0.029 A 
ATOM     51  N   UNL A   1      44.871  29.381  30.589  1.00  0.00    -0.354 N 
ATOM     52  N   UNL A   1      44.383  26.692  29.480  1.00  0.00    -0.248 NA
ATOM     53  C   UNL A   1      45.160  24.560  28.920  1.00  0.00     0.031 C 
ATOM     54  C   UNL A   1      46.883  29.826  31.414  1.00  0.00     0.029 A 
ATOM     55  C   UNL A   1      46.123  28.835  30.812  1.00  0.00     0.049 A 
ATOM     56  H   UNL A   1      44.117  28.913  30.162  1.00  0.00     0.167 HD
ATOM     57  C   UNL A   1      45.711  26.572  29.876  1.00  0.00     0.074 A 
ATOM     58  C   UNL A   1      46.127  25.227  29.538  1.00  0.00     0.031 C 
ATOM     59  C   UNL A   1      46.515  27.493  30.465  1.00  0.00     0.031 A 
BRANCH  46  60
ATOM     60  C   UNL A   1      43.830  32.980  31.446  1.00  0.00    -0.014 A 
ATOM     61  C   UNL A   1      44.260  34.006  30.583  1.00  0.00     0.010 A 
ATOM     62  C   UNL A   1      43.492  33.303  32.772  1.00  0.00     0.010 A 
ATOM     63  C   UNL A   1      44.389  35.317  31.049  1.00  0.00     0.020 A 
ATOM     64  C   UNL A   1      43.587  34.619  33.233  1.00  0.00     0.020 A 
ATOM     65  C   UNL A   1      44.052  35.615  32.372  1.00  0.00     0.054 A 
BRANCH  65  66
ATOM     66  S   UNL A   1      44.202  37.331  32.939  1.00  0.00     0.124 S 
ATOM     67  O   UNL A   1      43.220  37.379  34.019  1.00  0.00    -0.237 OA
ATOM     68  O   UNL A   1      45.598  37.408  33.356  1.00  0.00    -0.237 OA
ATOM     69  O   UNL A   1      43.862  38.118  31.755  1.00  0.00    -0.744 OA
ENDBRANCH  65  66
ENDBRANCH  46  60
BRANCH  47  70
ATOM     70  C   UNL A   1      42.567  23.721  27.820  1.00  0.00    -0.014 A 
ATOM     71  C   UNL A   1      42.123  22.661  28.631  1.00  0.00     0.010 A 
ATOM     72  C   UNL A   1      42.830  23.474  26.460  1.00  0.00     0.010 A 
ATOM     73  C   UNL A   1      41.964  21.378  28.097  1.00  0.00     0.020 A 
ATOM     74  C   UNL A   1      42.643  22.200  25.916  1.00  0.00     0.020 A 
ATOM     75  C   UNL A   1      42.222  21.157  26.742  1.00  0.00     0.054 A 
BRANCH  75  76
ATOM     76  S   UNL A   1      41.962  19.495  26.062  1.00  0.00     0.124 S 
ATOM     77  O   UNL A   1      40.520  19.480  25.837  1.00  0.00    -0.237 OA
ATOM     78  O   UNL A   1      42.791  19.514  24.860  1.00  0.00    -0.237 OA
ATOM     79  O   UNL A   1      42.439  18.611  27.125  1.00  0.00    -0.744 OA
ENDBRANCH  75  76
ENDBRANCH  47  70
BRANCH  59  80
ATOM     80  C   UNL A   1      47.915  27.066  30.817  1.00  0.00    -0.014 A 
ATOM     81  C   UNL A   1      48.988  27.283  29.936  1.00  0.00     0.010 A 
ATOM     82  C   UNL A   1      48.167  26.493  32.077  1.00  0.00     0.010 A 
ATOM     83  C   UNL A   1      50.283  26.905  30.296  1.00  0.00     0.020 A 
ATOM     84  C   UNL A   1      49.464  26.143  32.454  1.00  0.00     0.020 A 
ATOM     85  C   UNL A   1      50.513  26.339  31.554  1.00  0.00     0.054 A 
BRANCH  85  86
ATOM     86  S   UNL A   1      52.211  25.898  32.013  1.00  0.00     0.124 S 
ATOM     87  O   UNL A   1      52.037  24.559  32.570  1.00  0.00    -0.237 OA
ATOM     88  O   UNL A   1      52.914  25.962  30.735  1.00  0.00    -0.237 OA
ATOM     89  O   UNL A   1      52.588  26.930  32.977  1.00  0.00    -0.744 OA
ENDBRANCH  85  86
ENDBRANCH  59  80
ENDBRANCH  33  34
ENDBRANCH  25  28
ENDBRANCH  23  24
ENDBRANCH   1  23
TORSDOF 18
ENDMDL
MODEL 3
REMARK VINA RESULT:      -9.5      4.001     11.030
REMARK SMILES CCCC[C@@H](C(=O)NCCCNC(=O)c1ccc(-c2c3nc(c(-c4ccc(S(=O)(=O)[O-])cc4)c4ccc([nH]4)c(-c4ccc(S(=O)(=O)[O-])cc4)c4nc(c(-c5ccc(S(=O)(=O)[O-])cc5)c5ccc2[nH]5)C=C4)C=C3)cc1)C1(O)Cc2ccccc2C1
REMARK SMILES IDX 10 1 9 2 8 3 6 4 7 5 5 7 4 8 3 9 2 10 1 11 75 12 77 13 84 14
REMARK SMILES IDX 78 15 83 16 79 17 82 18 80 19 81 20 76 21 11 23 12 24 13 25
REMARK SMILES IDX 14 27 15 28 16 29 74 30 17 31 73 32 18 33 19 34 20 35 67 36
REMARK SMILES IDX 21 37 72 38 66 39 68 40 22 41 71 42 65 43 64 44 23 46 53 47
REMARK SMILES IDX 34 48 52 49 35 50 38 51 51 52 69 53 36 54 37 55 50 57 70 58
REMARK SMILES IDX 39 59 24 60 25 61 33 62 26 63 32 64 27 65 28 66 29 67 30 68
REMARK SMILES IDX 31 69 54 70 55 71 63 72 56 73 62 74 57 75 58 76 59 77 60 78
REMARK SMILES IDX 61 79 40 80 41 81 49 82 42 83 48 84 43 85 44 86 45 87 46 88
REMARK SMILES IDX 47 89
REMARK H PARENT 8 6 76 22 12 26 68 45 38 56
REMARK Flexibility Score: inf
ROOT
ATOM      1  C   UNL A   1      36.021  23.343  23.854  1.00  0.00     0.042 C 
ENDROOT
BRANCH   1   2
ATOM      2  C   UNL A   1      34.833  22.480  24.229  1.00  0.00     0.117 C 
BRANCH   2   3
ATOM      3  N   UNL A   1      34.244  22.898  25.488  1.00  0.00    -0.356 N 
ATOM      4  C   UNL A   1      32.923  23.228  25.516  1.00  0.00     0.226 C 
ATOM      5  O   UNL A   1      32.137  22.320  25.798  1.00  0.00    -0.275 OA
ATOM      6  H   UNL A   1      34.790  22.941  26.307  1.00  0.00     0.163 HD
BRANCH   4   7
ATOM      7  C   UNL A   1      32.450  24.625  25.068  1.00  0.00     0.111 C 
BRANCH   7   8
ATOM      8  C   UNL A   1      33.525  25.702  24.736  1.00  0.00     0.016 C 
BRANCH   8   9
ATOM      9  C   UNL A   1      33.719  26.311  23.343  1.00  0.00     0.001 C 
BRANCH   9  10
ATOM     10  C   UNL A   1      33.299  25.505  22.121  1.00  0.00    -0.003 C 
ATOM     11  C   UNL A   1      31.977  25.964  21.538  1.00  0.00     0.004 C 
ENDBRANCH   9  10
ENDBRANCH   8   9
ENDBRANCH   7   8
BRANCH   7  12
ATOM     12  C   UNL A   1      31.399  25.263  26.101  1.00  0.00     0.084 C 
ATOM     13  C   UNL A   1      29.923  25.309  25.573  1.00  0.00     0.072 C 
ATOM     14  C   UNL A   1      31.593  26.751  26.531  1.00  0.00     0.072 C 
ATOM     15  C   UNL A   1      29.934  26.615  24.841  1.00  0.00    -0.042 A 
ATOM     16  C   UNL A   1      30.899  27.457  25.405  1.00  0.00    -0.042 A 
ATOM     17  C   UNL A   1      29.230  26.986  23.711  1.00  0.00     0.004 A 
ATOM     18  C   UNL A   1      31.195  28.686  24.843  1.00  0.00     0.004 A 
ATOM     19  C   UNL A   1      29.547  28.208  23.114  1.00  0.00     0.000 A 
ATOM     20  C   UNL A   1      30.527  29.048  23.672  1.00  0.00     0.000 A 
BRANCH  12  21
ATOM     21  O   UNL A   1      31.448  24.459  27.297  1.00  0.00    -0.388 OA
ATOM     22  H   UNL A   1      31.189  24.998  28.060  1.00  0.00     0.211 HD
ENDBRANCH  12  21
ENDBRANCH   7  12
ENDBRANCH   4   7
ENDBRANCH   2   3
ENDBRANCH   1   2
BRANCH   1  23
ATOM     23  C   UNL A   1      36.832  23.750  25.067  1.00  0.00     0.118 C 
BRANCH  23  24
ATOM     24  N   UNL A   1      37.788  22.717  25.442  1.00  0.00    -0.352 N 
ATOM     25  C   UNL A   1      39.002  22.846  26.070  1.00  0.00     0.251 C 
ATOM     26  H   UNL A   1      37.528  21.796  25.212  1.00  0.00     0.163 HD
ATOM     27  O   UNL A   1      39.800  21.909  26.057  1.00  0.00    -0.269 OA
BRANCH  25  28
ATOM     28  C   UNL A   1      39.349  24.113  26.745  1.00  0.00     0.039 A 
ATOM     29  C   UNL A   1      38.923  24.340  28.055  1.00  0.00     0.014 A 
ATOM     30  C   UNL A   1      40.105  25.080  26.078  1.00  0.00     0.014 A 
ATOM     31  C   UNL A   1      39.308  25.512  28.710  1.00  0.00     0.010 A 
ATOM     32  C   UNL A   1      40.595  26.176  26.772  1.00  0.00     0.010 A 
ATOM     33  C   UNL A   1      40.176  26.423  28.086  1.00  0.00    -0.014 A 
BRANCH  33  34
ATOM     34  C   UNL A   1      40.623  27.667  28.762  1.00  0.00     0.031 A 
ATOM     35  C   UNL A   1      42.003  27.731  29.367  1.00  0.00     0.074 A 
ATOM     36  C   UNL A   1      39.774  28.706  28.885  1.00  0.00     0.049 A 
ATOM     37  N   UNL A   1      42.558  28.697  30.052  1.00  0.00    -0.248 NA
ATOM     38  C   UNL A   1      42.859  26.540  29.215  1.00  0.00     0.031 C 
ATOM     39  C   UNL A   1      38.396  28.741  28.387  1.00  0.00     0.029 A 
ATOM     40  N   UNL A   1      39.944  29.934  29.472  1.00  0.00    -0.354 N 
ATOM     41  C   UNL A   1      43.809  28.219  30.429  1.00  0.00     0.074 A 
ATOM     42  C   UNL A   1      43.906  26.857  29.959  1.00  0.00     0.031 C 
ATOM     43  C   UNL A   1      37.863  29.943  28.653  1.00  0.00     0.029 A 
ATOM     44  C   UNL A   1      38.839  30.748  29.380  1.00  0.00     0.049 A 
ATOM     45  H   UNL A   1      40.779  30.208  29.915  1.00  0.00     0.167 HD
ATOM     46  C   UNL A   1      44.803  28.867  31.082  1.00  0.00     0.031 A 
ATOM     47  C   UNL A   1      38.634  31.999  29.835  1.00  0.00     0.031 A 
ATOM     48  C   UNL A   1      44.707  30.232  31.525  1.00  0.00     0.049 A 
ATOM     49  C   UNL A   1      39.752  32.699  30.558  1.00  0.00     0.074 A 
ATOM     50  C   UNL A   1      45.675  31.005  32.138  1.00  0.00     0.029 A 
ATOM     51  N   UNL A   1      43.576  31.025  31.399  1.00  0.00    -0.354 N 
ATOM     52  N   UNL A   1      40.955  32.257  30.840  1.00  0.00    -0.248 NA
ATOM     53  C   UNL A   1      39.491  34.071  31.011  1.00  0.00     0.031 C 
ATOM     54  C   UNL A   1      45.109  32.248  32.439  1.00  0.00     0.029 A 
ATOM     55  C   UNL A   1      43.812  32.272  31.949  1.00  0.00     0.049 A 
ATOM     56  H   UNL A   1      42.731  30.741  30.981  1.00  0.00     0.167 HD
ATOM     57  C   UNL A   1      41.604  33.308  31.480  1.00  0.00     0.074 A 
ATOM     58  C   UNL A   1      40.667  34.410  31.525  1.00  0.00     0.031 C 
ATOM     59  C   UNL A   1      42.862  33.356  31.984  1.00  0.00     0.031 A 
BRANCH  46  60
ATOM     60  C   UNL A   1      46.074  28.105  31.356  1.00  0.00    -0.014 A 
ATOM     61  C   UNL A   1      47.176  28.186  30.483  1.00  0.00     0.010 A 
ATOM     62  C   UNL A   1      46.184  27.323  32.519  1.00  0.00     0.010 A 
ATOM     63  C   UNL A   1      48.344  27.465  30.746  1.00  0.00     0.020 A 
ATOM     64  C   UNL A   1      47.362  26.627  32.804  1.00  0.00     0.020 A 
ATOM     65  C   UNL A   1      48.429  26.689  31.906  1.00  0.00     0.054 A 
BRANCH  65  66
ATOM     66  S   UNL A   1      49.968  25.789  32.235  1.00  0.00     0.124 S 
ATOM     67  O   UNL A   1      49.673  25.144  33.512  1.00  0.00    -0.237 OA
ATOM     68  O   UNL A   1      50.066  24.894  31.086  1.00  0.00    -0.237 OA
ATOM     69  O   UNL A   1      50.980  26.842  32.290  1.00  0.00    -0.744 OA
ENDBRANCH  65  66
ENDBRANCH  46  60
BRANCH  47  70
ATOM     70  C   UNL A   1      37.325  32.671  29.604  1.00  0.00    -0.014 A 
ATOM     71  C   UNL A   1      37.048  33.297  28.375  1.00  0.00     0.010 A 
ATOM     72  C   UNL A   1      36.339  32.675  30.608  1.00  0.00     0.010 A 
ATOM     73  C   UNL A   1      35.819  33.930  28.163  1.00  0.00     0.020 A 
ATOM     74  C   UNL A   1      35.098  33.280  30.388  1.00  0.00     0.020 A 
ATOM     75  C   UNL A   1      34.850  33.915  29.170  1.00  0.00     0.054 A 
BRANCH  75  76
ATOM     76  S   UNL A   1      33.246  34.701  28.854  1.00  0.00     0.124 S 
ATOM     77  O   UNL A   1      32.665  33.813  27.851  1.00  0.00    -0.237 OA
ATOM     78  O   UNL A   1      32.616  34.669  30.171  1.00  0.00    -0.237 OA
ATOM     79  O   UNL A   1      33.607  36.035  28.376  1.00  0.00    -0.744 OA
ENDBRANCH  75  76
ENDBRANCH  47  70
BRANCH  59  80
ATOM     80  C   UNL A   1      43.314  34.655  32.597  1.00  0.00    -0.014 A 
ATOM     81  C   UNL A   1      43.773  35.718  31.801  1.00  0.00     0.010 A 
ATOM     82  C   UNL A   1      43.216  34.832  33.989  1.00  0.00     0.010 A 
ATOM     83  C   UNL A   1      44.159  36.924  32.389  1.00  0.00     0.020 A 
ATOM     84  C   UNL A   1      43.569  36.047  34.578  1.00  0.00     0.020 A 
ATOM     85  C   UNL A   1      44.052  37.081  33.775  1.00  0.00     0.054 A 
BRANCH  85  86
ATOM     86  S   UNL A   1      44.518  38.673  34.509  1.00  0.00     0.124 S 
ATOM     87  O   UNL A   1      43.322  39.477  34.274  1.00  0.00    -0.237 OA
ATOM     88  O   UNL A   1      44.775  38.319  35.902  1.00  0.00    -0.237 OA
ATOM     89  O   UNL A   1      45.698  39.073  33.746  1.00  0.00    -0.744 OA
ENDBRANCH  85  86
ENDBRANCH  59  80
ENDBRANCH  33  34
ENDBRANCH  25  28
ENDBRANCH  23  24
ENDBRANCH   1  23
TORSDOF 18
ENDMDL
