MODEL 1
REMARK VINA RESULT:     -11.4      0.000      0.000
REMARK SMILES CC[C@H](C)Nc1ncnc(N2CCC(C(=O)NCCCNC(=O)c3ccc(-c4c5nc(c(-c6ccc(S(=O)(=O)[O-])cc6)c6ccc([nH]6)c(-c6ccc(S(=O)(=O)[O-])cc6)c6nc(c(-c7ccc(S(=O)(=O)[O-])cc7)c7ccc4[nH]7)C=C6)C=C5)cc3)CC2)c1[N+](=O)[O-]
REMARK SMILES IDX 18 1 17 2 15 3 16 4 14 6 11 7 12 8 85 9 13 10 84 11 10 12
REMARK SMILES IDX 6 13 7 14 86 15 8 16 9 17 5 18 3 20 4 21 2 22 1 23 87 24
REMARK SMILES IDX 88 25 89 26 19 27 20 28 21 29 22 30 23 32 24 33 25 34 83 35
REMARK SMILES IDX 26 36 82 37 27 38 28 39 29 40 76 41 30 42 81 43 75 44 77 45
REMARK SMILES IDX 31 46 80 47 74 48 73 49 32 51 62 52 43 53 61 54 44 55 47 56
REMARK SMILES IDX 60 57 78 58 45 59 46 60 59 62 79 63 48 64 33 65 34 66 42 67
REMARK SMILES IDX 35 68 41 69 36 70 37 71 38 72 39 73 40 74 63 75 64 76 72 77
REMARK SMILES IDX 65 78 71 79 66 80 67 81 68 82 69 83 70 84 49 85 50 86 58 87
REMARK SMILES IDX 51 88 57 89 52 90 53 91 54 92 55 93 56 94
REMARK H PARENT 17 5 5 19 21 31 77 50 47 61
REMARK Flexibility Score: inf
ROOT
ATOM      1  C   UNL A   1      38.134  22.281  26.107  1.00  0.00     0.117 C 
ENDROOT
BRANCH   1   2
ATOM      2  N   UNL A   1      37.861  22.607  24.712  1.00  0.00    -0.356 N 
ATOM      3  C   UNL A   1      36.684  22.827  24.063  1.00  0.00     0.223 C 
ATOM      4  O   UNL A   1      36.724  23.101  22.861  1.00  0.00    -0.275 OA
ATOM      5  H   UNL A   1      38.663  22.682  24.144  1.00  0.00     0.163 HD
BRANCH   3   6
ATOM      6  C   UNL A   1      35.352  22.763  24.796  1.00  0.00     0.082 C 
ATOM      7  N   UNL A   1      32.831  24.030  24.813  1.00  0.00    -0.351 N 
ATOM      8  C   UNL A   1      33.666  24.289  25.975  1.00  0.00     0.119 C 
ATOM      9  C   UNL A   1      32.839  22.674  24.293  1.00  0.00     0.119 C 
ATOM     10  C   UNL A   1      35.120  24.051  25.604  1.00  0.00     0.035 C 
ATOM     11  C   UNL A   1      34.241  22.327  23.823  1.00  0.00     0.035 C 
BRANCH   7  12
ATOM     12  C   UNL A   1      31.829  24.935  24.546  1.00  0.00     0.213 A 
ATOM     13  C   UNL A   1      30.864  26.888  23.540  1.00  0.00     0.211 A 
ATOM     14  N   UNL A   1      29.721  26.653  24.211  1.00  0.00    -0.213 NA
ATOM     15  C   UNL A   1      31.945  26.042  23.715  1.00  0.00     0.353 A 
ATOM     16  C   UNL A   1      29.664  25.553  24.975  1.00  0.00     0.227 A 
ATOM     17  N   UNL A   1      30.658  24.677  25.161  1.00  0.00    -0.212 NA
BRANCH  13  18
ATOM     18  N   UNL A   1      30.763  28.004  22.750  1.00  0.00    -0.362 N 
ATOM     19  H   UNL A   1      31.289  27.999  21.918  1.00  0.00     0.162 HD
BRANCH  18  20
ATOM     20  C   UNL A   1      29.966  29.197  23.001  1.00  0.00     0.077 C 
ATOM     21  C   UNL A   1      30.573  29.975  24.167  1.00  0.00     0.031 C 
BRANCH  20  22
ATOM     22  C   UNL A   1      29.855  30.022  21.708  1.00  0.00     0.021 C 
ATOM     23  C   UNL A   1      28.765  31.087  21.711  1.00  0.00     0.006 C 
ENDBRANCH  20  22
ENDBRANCH  18  20
ENDBRANCH  13  18
BRANCH  15  24
ATOM     24  N   UNL A   1      33.186  26.280  23.060  1.00  0.00     0.070 N 
ATOM     25  O   UNL A   1      33.877  27.228  23.468  1.00  0.00    -0.258 OA
ATOM     26  O   UNL A   1      33.480  25.546  22.105  1.00  0.00    -0.258 OA
ENDBRANCH  15  24
ENDBRANCH   7  12
ENDBRANCH   3   6
ENDBRANCH   1   2
BRANCH   1  27
ATOM     27  C   UNL A   1      39.624  22.193  26.404  1.00  0.00     0.042 C 
BRANCH  27  28
ATOM     28  C   UNL A   1      40.217  23.478  26.961  1.00  0.00     0.118 C 
BRANCH  28  29
ATOM     29  N   UNL A   1      40.926  24.253  25.952  1.00  0.00    -0.352 N 
ATOM     30  C   UNL A   1      41.323  25.567  25.969  1.00  0.00     0.251 C 
ATOM     31  H   UNL A   1      41.156  23.757  25.132  1.00  0.00     0.163 HD
ATOM     32  O   UNL A   1      41.734  26.088  24.936  1.00  0.00    -0.269 OA
BRANCH  30  33
ATOM     33  C   UNL A   1      41.235  26.355  27.217  1.00  0.00     0.039 A 
ATOM     34  C   UNL A   1      42.240  27.282  27.504  1.00  0.00     0.014 A 
ATOM     35  C   UNL A   1      40.169  26.183  28.103  1.00  0.00     0.014 A 
ATOM     36  C   UNL A   1      42.132  28.087  28.640  1.00  0.00     0.010 A 
ATOM     37  C   UNL A   1      40.014  27.049  29.179  1.00  0.00     0.010 A 
ATOM     38  C   UNL A   1      40.997  28.010  29.464  1.00  0.00    -0.014 A 
BRANCH  38  39
ATOM     39  C   UNL A   1      40.812  28.929  30.616  1.00  0.00     0.031 A 
ATOM     40  C   UNL A   1      41.653  28.773  31.854  1.00  0.00     0.074 A 
ATOM     41  C   UNL A   1      39.841  29.863  30.572  1.00  0.00     0.049 A 
ATOM     42  N   UNL A   1      41.601  29.443  32.976  1.00  0.00    -0.248 NA
ATOM     43  C   UNL A   1      42.671  27.708  31.842  1.00  0.00     0.031 C 
ATOM     44  C   UNL A   1      38.930  30.086  29.446  1.00  0.00     0.029 A 
ATOM     45  N   UNL A   1      39.454  30.799  31.498  1.00  0.00    -0.354 N 
ATOM     46  C   UNL A   1      42.561  28.874  33.804  1.00  0.00     0.074 A 
ATOM     47  C   UNL A   1      43.145  27.769  33.078  1.00  0.00     0.031 C 
ATOM     48  C   UNL A   1      38.115  31.112  29.735  1.00  0.00     0.029 A 
ATOM     49  C   UNL A   1      38.409  31.589  31.082  1.00  0.00     0.049 A 
ATOM     50  H   UNL A   1      39.885  30.895  32.378  1.00  0.00     0.167 HD
ATOM     51  C   UNL A   1      42.939  29.251  35.050  1.00  0.00     0.031 A 
ATOM     52  C   UNL A   1      37.751  32.580  31.715  1.00  0.00     0.031 A 
ATOM     53  C   UNL A   1      42.358  30.355  35.767  1.00  0.00     0.049 A 
ATOM     54  C   UNL A   1      38.174  32.966  33.106  1.00  0.00     0.074 A 
ATOM     55  C   UNL A   1      42.708  30.851  37.011  1.00  0.00     0.029 A 
ATOM     56  N   UNL A   1      41.302  31.130  35.310  1.00  0.00    -0.354 N 
ATOM     57  N   UNL A   1      39.135  32.462  33.844  1.00  0.00    -0.248 NA
ATOM     58  C   UNL A   1      37.433  34.061  33.746  1.00  0.00     0.031 C 
ATOM     59  C   UNL A   1      41.824  31.885  37.333  1.00  0.00     0.029 A 
ATOM     60  C   UNL A   1      40.967  32.080  36.261  1.00  0.00     0.049 A 
ATOM     61  H   UNL A   1      40.857  31.020  34.440  1.00  0.00     0.167 HD
ATOM     62  C   UNL A   1      39.130  33.196  35.025  1.00  0.00     0.074 A 
ATOM     63  C   UNL A   1      38.084  34.190  34.894  1.00  0.00     0.031 C 
ATOM     64  C   UNL A   1      39.919  33.060  36.118  1.00  0.00     0.031 A 
BRANCH  51  65
ATOM     65  C   UNL A   1      44.028  28.454  35.721  1.00  0.00    -0.014 A 
ATOM     66  C   UNL A   1      45.384  28.803  35.574  1.00  0.00     0.010 A 
ATOM     67  C   UNL A   1      43.691  27.366  36.547  1.00  0.00     0.010 A 
ATOM     68  C   UNL A   1      46.381  28.056  36.205  1.00  0.00     0.020 A 
ATOM     69  C   UNL A   1      44.684  26.635  37.207  1.00  0.00     0.020 A 
ATOM     70  C   UNL A   1      46.025  26.976  37.017  1.00  0.00     0.054 A 
BRANCH  70  71
ATOM     71  S   UNL A   1      47.341  26.041  37.845  1.00  0.00     0.124 S 
ATOM     72  O   UNL A   1      48.542  26.701  37.338  1.00  0.00    -0.237 OA
ATOM     73  O   UNL A   1      47.051  26.266  39.259  1.00  0.00    -0.237 OA
ATOM     74  O   UNL A   1      47.141  24.671  37.381  1.00  0.00    -0.744 OA
ENDBRANCH  70  71
ENDBRANCH  51  65
BRANCH  52  75
ATOM     75  C   UNL A   1      36.628  33.283  31.033  1.00  0.00    -0.014 A 
ATOM     76  C   UNL A   1      36.861  34.057  29.883  1.00  0.00     0.010 A 
ATOM     77  C   UNL A   1      35.315  33.169  31.526  1.00  0.00     0.010 A 
ATOM     78  C   UNL A   1      35.805  34.721  29.249  1.00  0.00     0.020 A 
ATOM     79  C   UNL A   1      34.252  33.805  30.876  1.00  0.00     0.020 A 
ATOM     80  C   UNL A   1      34.507  34.586  29.747  1.00  0.00     0.054 A 
BRANCH  80  81
ATOM     81  S   UNL A   1      33.146  35.413  28.878  1.00  0.00     0.124 S 
ATOM     82  O   UNL A   1      32.363  35.955  29.983  1.00  0.00    -0.237 OA
ATOM     83  O   UNL A   1      33.849  36.395  28.057  1.00  0.00    -0.237 OA
ATOM     84  O   UNL A   1      32.510  34.330  28.130  1.00  0.00    -0.744 OA
ENDBRANCH  80  81
ENDBRANCH  52  75
BRANCH  64  85
ATOM     85  C   UNL A   1      39.707  34.029  37.253  1.00  0.00    -0.014 A 
ATOM     86  C   UNL A   1      38.952  33.676  38.385  1.00  0.00     0.010 A 
ATOM     87  C   UNL A   1      40.318  35.296  37.205  1.00  0.00     0.010 A 
ATOM     88  C   UNL A   1      38.784  34.584  39.434  1.00  0.00     0.020 A 
ATOM     89  C   UNL A   1      40.179  36.195  38.266  1.00  0.00     0.020 A 
ATOM     90  C   UNL A   1      39.400  35.837  39.368  1.00  0.00     0.054 A 
BRANCH  90  91
ATOM     91  S   UNL A   1      39.201  36.981  40.761  1.00  0.00     0.124 S 
ATOM     92  O   UNL A   1      38.555  36.134  41.760  1.00  0.00    -0.237 OA
ATOM     93  O   UNL A   1      40.579  37.364  41.058  1.00  0.00    -0.237 OA
ATOM     94  O   UNL A   1      38.367  38.050  40.218  1.00  0.00    -0.744 OA
ENDBRANCH  90  91
ENDBRANCH  64  85
ENDBRANCH  38  39
ENDBRANCH  30  33
ENDBRANCH  28  29
ENDBRANCH  27  28
ENDBRANCH   1  27
TORSDOF 18
ENDMDL
MODEL 2
REMARK VINA RESULT:     -11.3      5.879     10.581
REMARK SMILES CC[C@H](C)Nc1ncnc(N2CCC(C(=O)NCCCNC(=O)c3ccc(-c4c5nc(c(-c6ccc(S(=O)(=O)[O-])cc6)c6ccc([nH]6)c(-c6ccc(S(=O)(=O)[O-])cc6)c6nc(c(-c7ccc(S(=O)(=O)[O-])cc7)c7ccc4[nH]7)C=C6)C=C5)cc3)CC2)c1[N+](=O)[O-]
REMARK SMILES IDX 18 1 17 2 15 3 16 4 14 6 11 7 12 8 85 9 13 10 84 11 10 12
REMARK SMILES IDX 6 13 7 14 86 15 8 16 9 17 5 18 3 20 4 21 2 22 1 23 87 24
REMARK SMILES IDX 88 25 89 26 19 27 20 28 21 29 22 30 23 32 24 33 25 34 83 35
REMARK SMILES IDX 26 36 82 37 27 38 28 39 29 40 76 41 30 42 81 43 75 44 77 45
REMARK SMILES IDX 31 46 80 47 74 48 73 49 32 51 62 52 43 53 61 54 44 55 47 56
REMARK SMILES IDX 60 57 78 58 45 59 46 60 59 62 79 63 48 64 33 65 34 66 42 67
REMARK SMILES IDX 35 68 41 69 36 70 37 71 38 72 39 73 40 74 63 75 64 76 72 77
REMARK SMILES IDX 65 78 71 79 66 80 67 81 68 82 69 83 70 84 49 85 50 86 58 87
REMARK SMILES IDX 51 88 57 89 52 90 53 91 54 92 55 93 56 94
REMARK H PARENT 17 5 5 19 21 31 77 50 47 61
REMARK Flexibility Score: inf
ROOT
ATOM      1  C   UNL A   1      36.723  21.869  25.155  1.00  0.00     0.117 C 
ENDROOT
BRANCH   1   2
ATOM      2  N   UNL A   1      36.129  22.253  23.880  1.00  0.00    -0.356 N 
ATOM      3  C   UNL A   1      35.059  23.050  23.600  1.00  0.00     0.223 C 
ATOM      4  O   UNL A   1      34.760  23.229  22.417  1.00  0.00    -0.275 OA
ATOM      5  H   UNL A   1      36.576  21.874  23.088  1.00  0.00     0.163 HD
BRANCH   3   6
ATOM      6  C   UNL A   1      34.264  23.725  24.707  1.00  0.00     0.082 C 
ATOM      7  N   UNL A   1      32.715  26.041  25.153  1.00  0.00    -0.351 N 
ATOM      8  C   UNL A   1      33.995  26.005  25.842  1.00  0.00     0.119 C 
ATOM      9  C   UNL A   1      31.968  24.797  25.099  1.00  0.00     0.119 C 
ATOM     10  C   UNL A   1      34.926  25.053  25.112  1.00  0.00     0.035 C 
ATOM     11  C   UNL A   1      32.772  23.763  24.331  1.00  0.00     0.035 C 
BRANCH   7  12
ATOM     12  C   UNL A   1      32.139  27.276  24.962  1.00  0.00     0.213 A 
ATOM     13  C   UNL A   1      31.230  29.083  23.672  1.00  0.00     0.211 A 
ATOM     14  N   UNL A   1      31.067  29.793  24.804  1.00  0.00    -0.213 NA
ATOM     15  C   UNL A   1      31.790  27.820  23.732  1.00  0.00     0.353 A 
ATOM     16  C   UNL A   1      31.398  29.202  25.961  1.00  0.00     0.227 A 
ATOM     17  N   UNL A   1      31.911  27.973  26.093  1.00  0.00    -0.212 NA
BRANCH  13  18
ATOM     18  N   UNL A   1      30.792  29.781  22.575  1.00  0.00    -0.362 N 
ATOM     19  H   UNL A   1      31.489  30.169  21.999  1.00  0.00     0.162 HD
BRANCH  18  20
ATOM     20  C   UNL A   1      29.414  30.013  22.165  1.00  0.00     0.077 C 
ATOM     21  C   UNL A   1      28.531  28.885  22.697  1.00  0.00     0.031 C 
BRANCH  20  22
ATOM     22  C   UNL A   1      28.968  31.409  22.629  1.00  0.00     0.021 C 
ATOM     23  C   UNL A   1      27.769  31.426  23.570  1.00  0.00     0.006 C 
ENDBRANCH  20  22
ENDBRANCH  18  20
ENDBRANCH  13  18
BRANCH  15  24
ATOM     24  N   UNL A   1      32.020  27.055  22.554  1.00  0.00     0.070 N 
ATOM     25  O   UNL A   1      33.196  26.922  22.178  1.00  0.00    -0.258 OA
ATOM     26  O   UNL A   1      31.030  26.598  21.964  1.00  0.00    -0.258 OA
ENDBRANCH  15  24
ENDBRANCH   7  12
ENDBRANCH   3   6
ENDBRANCH   1   2
BRANCH   1  27
ATOM     27  C   UNL A   1      37.863  20.873  24.990  1.00  0.00     0.042 C 
BRANCH  27  28
ATOM     28  C   UNL A   1      38.986  21.052  26.000  1.00  0.00     0.118 C 
BRANCH  28  29
ATOM     29  N   UNL A   1      39.882  19.905  26.052  1.00  0.00    -0.352 N 
ATOM     30  C   UNL A   1      41.250  19.860  26.162  1.00  0.00     0.251 C 
ATOM     31  H   UNL A   1      39.438  19.027  26.001  1.00  0.00     0.163 HD
ATOM     32  O   UNL A   1      41.836  18.796  25.988  1.00  0.00    -0.269 OA
BRANCH  30  33
ATOM     33  C   UNL A   1      42.013  21.090  26.464  1.00  0.00     0.039 A 
ATOM     34  C   UNL A   1      42.391  21.928  25.412  1.00  0.00     0.014 A 
ATOM     35  C   UNL A   1      42.358  21.419  27.778  1.00  0.00     0.014 A 
ATOM     36  C   UNL A   1      43.046  23.130  25.688  1.00  0.00     0.010 A 
ATOM     37  C   UNL A   1      42.922  22.659  28.057  1.00  0.00     0.010 A 
ATOM     38  C   UNL A   1      43.277  23.528  27.015  1.00  0.00    -0.014 A 
BRANCH  38  39
ATOM     39  C   UNL A   1      43.876  24.849  27.333  1.00  0.00     0.031 A 
ATOM     40  C   UNL A   1      43.005  25.985  27.802  1.00  0.00     0.074 A 
ATOM     41  C   UNL A   1      45.195  25.045  27.137  1.00  0.00     0.049 A 
ATOM     42  N   UNL A   1      43.339  27.219  28.076  1.00  0.00    -0.248 NA
ATOM     43  C   UNL A   1      41.568  25.704  27.960  1.00  0.00     0.031 C 
ATOM     44  C   UNL A   1      46.138  24.037  26.644  1.00  0.00     0.029 A 
ATOM     45  N   UNL A   1      45.973  26.161  27.323  1.00  0.00    -0.354 N 
ATOM     46  C   UNL A   1      42.157  27.864  28.422  1.00  0.00     0.074 A 
ATOM     47  C   UNL A   1      41.090  26.900  28.271  1.00  0.00     0.031 C 
ATOM     48  C   UNL A   1      47.369  24.570  26.599  1.00  0.00     0.029 A 
ATOM     49  C   UNL A   1      47.299  25.968  27.011  1.00  0.00     0.049 A 
ATOM     50  H   UNL A   1      45.617  27.017  27.651  1.00  0.00     0.167 HD
ATOM     51  C   UNL A   1      41.977  29.138  28.847  1.00  0.00     0.031 A 
ATOM     52  C   UNL A   1      48.341  26.821  27.042  1.00  0.00     0.031 A 
ATOM     53  C   UNL A   1      43.044  30.092  29.000  1.00  0.00     0.049 A 
ATOM     54  C   UNL A   1      48.113  28.237  27.497  1.00  0.00     0.074 A 
ATOM     55  C   UNL A   1      42.974  31.390  29.476  1.00  0.00     0.029 A 
ATOM     56  N   UNL A   1      44.372  29.857  28.673  1.00  0.00    -0.354 N 
ATOM     57  N   UNL A   1      46.998  28.806  27.890  1.00  0.00    -0.248 NA
ATOM     58  C   UNL A   1      49.285  29.122  27.523  1.00  0.00     0.031 C 
ATOM     59  C   UNL A   1      44.247  31.960  29.379  1.00  0.00     0.029 A 
ATOM     60  C   UNL A   1      45.125  30.996  28.908  1.00  0.00     0.049 A 
ATOM     61  H   UNL A   1      44.725  29.007  28.326  1.00  0.00     0.167 HD
ATOM     62  C   UNL A   1      47.340  30.109  28.235  1.00  0.00     0.074 A 
ATOM     63  C   UNL A   1      48.768  30.236  28.022  1.00  0.00     0.031 C 
ATOM     64  C   UNL A   1      46.545  31.109  28.687  1.00  0.00     0.031 A 
BRANCH  51  65
ATOM     65  C   UNL A   1      40.572  29.576  29.169  1.00  0.00    -0.014 A 
ATOM     66  C   UNL A   1      39.629  29.809  28.151  1.00  0.00     0.010 A 
ATOM     67  C   UNL A   1      40.172  29.713  30.511  1.00  0.00     0.010 A 
ATOM     68  C   UNL A   1      38.329  30.211  28.466  1.00  0.00     0.020 A 
ATOM     69  C   UNL A   1      38.862  30.084  30.832  1.00  0.00     0.020 A 
ATOM     70  C   UNL A   1      37.954  30.347  29.806  1.00  0.00     0.054 A 
BRANCH  70  71
ATOM     71  S   UNL A   1      36.251  30.844  30.184  1.00  0.00     0.124 S 
ATOM     72  O   UNL A   1      36.387  32.291  30.336  1.00  0.00    -0.237 OA
ATOM     73  O   UNL A   1      35.520  30.404  29.000  1.00  0.00    -0.237 OA
ATOM     74  O   UNL A   1      35.941  30.116  31.412  1.00  0.00    -0.744 OA
ENDBRANCH  70  71
ENDBRANCH  51  65
BRANCH  52  75
ATOM     75  C   UNL A   1      49.697  26.355  26.636  1.00  0.00    -0.014 A 
ATOM     76  C   UNL A   1      50.599  25.858  27.594  1.00  0.00     0.010 A 
ATOM     77  C   UNL A   1      50.088  26.395  25.285  1.00  0.00     0.010 A 
ATOM     78  C   UNL A   1      51.874  25.428  27.210  1.00  0.00     0.020 A 
ATOM     79  C   UNL A   1      51.349  25.935  24.894  1.00  0.00     0.020 A 
ATOM     80  C   UNL A   1      52.238  25.465  25.862  1.00  0.00     0.054 A 
BRANCH  80  81
ATOM     81  S   UNL A   1      53.877  24.852  25.382  1.00  0.00     0.124 S 
ATOM     82  O   UNL A   1      53.596  23.460  25.048  1.00  0.00    -0.237 OA
ATOM     83  O   UNL A   1      54.218  25.719  24.256  1.00  0.00    -0.237 OA
ATOM     84  O   UNL A   1      54.686  25.060  26.582  1.00  0.00    -0.744 OA
ENDBRANCH  80  81
ENDBRANCH  52  75
BRANCH  64  85
ATOM     85  C   UNL A   1      47.202  32.425  29.015  1.00  0.00    -0.014 A 
ATOM     86  C   UNL A   1      47.297  33.453  28.061  1.00  0.00     0.010 A 
ATOM     87  C   UNL A   1      47.687  32.652  30.317  1.00  0.00     0.010 A 
ATOM     88  C   UNL A   1      47.894  34.673  28.393  1.00  0.00     0.020 A 
ATOM     89  C   UNL A   1      48.255  33.881  30.662  1.00  0.00     0.020 A 
ATOM     90  C   UNL A   1      48.368  34.878  29.692  1.00  0.00     0.054 A 
BRANCH  90  91
ATOM     91  S   UNL A   1      49.100  36.484  30.108  1.00  0.00     0.124 S 
ATOM     92  O   UNL A   1      49.817  36.181  31.344  1.00  0.00    -0.237 OA
ATOM     93  O   UNL A   1      49.941  36.763  28.946  1.00  0.00    -0.237 OA
ATOM     94  O   UNL A   1      47.945  37.365  30.260  1.00  0.00    -0.744 OA
ENDBRANCH  90  91
ENDBRANCH  64  85
ENDBRANCH  38  39
ENDBRANCH  30  33
ENDBRANCH  28  29
ENDBRANCH  27  28
ENDBRANCH   1  27
TORSDOF 18
ENDMDL
MODEL 3
REMARK VINA RESULT:     -11.0      5.035      6.444
REMARK SMILES CC[C@H](C)Nc1ncnc(N2CCC(C(=O)NCCCNC(=O)c3ccc(-c4c5nc(c(-c6ccc(S(=O)(=O)[O-])cc6)c6ccc([nH]6)c(-c6ccc(S(=O)(=O)[O-])cc6)c6nc(c(-c7ccc(S(=O)(=O)[O-])cc7)c7ccc4[nH]7)C=C6)C=C5)cc3)CC2)c1[N+](=O)[O-]
REMARK SMILES IDX 18 1 17 2 15 3 16 4 14 6 11 7 12 8 85 9 13 10 84 11 10 12
REMARK SMILES IDX 6 13 7 14 86 15 8 16 9 17 5 18 3 20 4 21 2 22 1 23 87 24
REMARK SMILES IDX 88 25 89 26 19 27 20 28 21 29 22 30 23 32 24 33 25 34 83 35
REMARK SMILES IDX 26 36 82 37 27 38 28 39 29 40 76 41 30 42 81 43 75 44 77 45
REMARK SMILES IDX 31 46 80 47 74 48 73 49 32 51 62 52 43 53 61 54 44 55 47 56
REMARK SMILES IDX 60 57 78 58 45 59 46 60 59 62 79 63 48 64 33 65 34 66 42 67
REMARK SMILES IDX 35 68 41 69 36 70 37 71 38 72 39 73 40 74 63 75 64 76 72 77
REMARK SMILES IDX 65 78 71 79 66 80 67 81 68 82 69 83 70 84 49 85 50 86 58 87
REMARK SMILES IDX 51 88 57 89 52 90 53 91 54 92 55 93 56 94
REMARK H PARENT 17 5 5 19 21 31 77 50 47 61
REMARK Flexibility Score: inf
ROOT
ATOM      1  C   UNL A   1      34.611  22.991  25.125  1.00  0.00     0.117 C 
ENDROOT
BRANCH   1   2
ATOM      2  N   UNL A   1      34.706  24.413  24.816  1.00  0.00    -0.356 N 
ATOM      3  C   UNL A   1      33.736  25.358  24.666  1.00  0.00     0.223 C 
ATOM      4  O   UNL A   1      34.084  26.513  24.411  1.00  0.00    -0.275 OA
ATOM      5  H   UNL A   1      35.625  24.746  24.696  1.00  0.00     0.163 HD
BRANCH   3   6
ATOM      6  C   UNL A   1      32.263  25.014  24.830  1.00  0.00     0.082 C 
ATOM      7  N   UNL A   1      29.716  26.071  24.233  1.00  0.00    -0.351 N 
ATOM      8  C   UNL A   1      30.067  26.051  25.644  1.00  0.00     0.119 C 
ATOM      9  C   UNL A   1      30.106  24.914  23.447  1.00  0.00     0.119 C 
ATOM     10  C   UNL A   1      31.579  26.013  25.779  1.00  0.00     0.035 C 
ATOM     11  C   UNL A   1      31.620  24.795  23.449  1.00  0.00     0.035 C 
BRANCH   7  12
ATOM     12  C   UNL A   1      28.733  26.952  23.843  1.00  0.00     0.213 A 
ATOM     13  C   UNL A   1      27.861  28.912  22.768  1.00  0.00     0.211 A 
ATOM     14  N   UNL A   1      26.637  28.611  23.239  1.00  0.00    -0.213 NA
ATOM     15  C   UNL A   1      28.934  28.096  23.082  1.00  0.00     0.353 A 
ATOM     16  C   UNL A   1      26.504  27.478  23.945  1.00  0.00     0.227 A 
ATOM     17  N   UNL A   1      27.491  26.629  24.254  1.00  0.00    -0.212 NA
BRANCH  13  18
ATOM     18  N   UNL A   1      27.841  30.056  22.012  1.00  0.00    -0.362 N 
ATOM     19  H   UNL A   1      27.928  29.938  21.039  1.00  0.00     0.162 HD
BRANCH  18  20
ATOM     20  C   UNL A   1      27.704  31.427  22.485  1.00  0.00     0.077 C 
ATOM     21  C   UNL A   1      28.282  31.536  23.895  1.00  0.00     0.031 C 
BRANCH  20  22
ATOM     22  C   UNL A   1      28.363  32.385  21.479  1.00  0.00     0.021 C 
ATOM     23  C   UNL A   1      27.790  32.336  20.068  1.00  0.00     0.006 C 
ENDBRANCH  20  22
ENDBRANCH  18  20
ENDBRANCH  13  18
BRANCH  15  24
ATOM     24  N   UNL A   1      30.252  28.404  22.641  1.00  0.00     0.070 N 
ATOM     25  O   UNL A   1      30.688  27.779  21.660  1.00  0.00    -0.258 OA
ATOM     26  O   UNL A   1      30.889  29.251  23.284  1.00  0.00    -0.258 OA
ENDBRANCH  15  24
ENDBRANCH   7  12
ENDBRANCH   3   6
ENDBRANCH   1   2
BRANCH   1  27
ATOM     27  C   UNL A   1      35.697  22.529  26.087  1.00  0.00     0.042 C 
BRANCH  27  28
ATOM     28  C   UNL A   1      37.073  23.099  25.779  1.00  0.00     0.118 C 
BRANCH  28  29
ATOM     29  N   UNL A   1      38.142  22.135  26.000  1.00  0.00    -0.352 N 
ATOM     30  C   UNL A   1      39.446  22.337  26.381  1.00  0.00     0.251 C 
ATOM     31  H   UNL A   1      37.891  21.194  25.852  1.00  0.00     0.163 HD
ATOM     32  O   UNL A   1      40.245  21.408  26.319  1.00  0.00    -0.269 OA
BRANCH  30  33
ATOM     33  C   UNL A   1      39.888  23.671  26.842  1.00  0.00     0.039 A 
ATOM     34  C   UNL A   1      40.323  23.821  28.161  1.00  0.00     0.014 A 
ATOM     35  C   UNL A   1      39.873  24.771  25.981  1.00  0.00     0.014 A 
ATOM     36  C   UNL A   1      40.814  25.056  28.589  1.00  0.00     0.010 A 
ATOM     37  C   UNL A   1      40.451  25.972  26.380  1.00  0.00     0.010 A 
ATOM     38  C   UNL A   1      40.924  26.130  27.690  1.00  0.00    -0.014 A 
BRANCH  38  39
ATOM     39  C   UNL A   1      41.541  27.419  28.097  1.00  0.00     0.031 A 
ATOM     40  C   UNL A   1      43.033  27.604  28.022  1.00  0.00     0.074 A 
ATOM     41  C   UNL A   1      40.762  28.400  28.596  1.00  0.00     0.049 A 
ATOM     42  N   UNL A   1      43.754  28.635  28.381  1.00  0.00    -0.248 NA
ATOM     43  C   UNL A   1      43.821  26.476  27.498  1.00  0.00     0.031 C 
ATOM     44  C   UNL A   1      39.308  28.327  28.761  1.00  0.00     0.029 A 
ATOM     45  N   UNL A   1      41.084  29.651  29.061  1.00  0.00    -0.354 N 
ATOM     46  C   UNL A   1      45.076  28.274  28.144  1.00  0.00     0.074 A 
ATOM     47  C   UNL A   1      45.062  26.912  27.660  1.00  0.00     0.031 C 
ATOM     48  C   UNL A   1      38.862  29.491  29.258  1.00  0.00     0.029 A 
ATOM     49  C   UNL A   1      39.998  30.376  29.493  1.00  0.00     0.049 A 
ATOM     50  H   UNL A   1      42.005  29.997  29.083  1.00  0.00     0.167 HD
ATOM     51  C   UNL A   1      46.199  29.018  28.293  1.00  0.00     0.031 A 
ATOM     52  C   UNL A   1      39.922  31.609  30.029  1.00  0.00     0.031 A 
ATOM     53  C   UNL A   1      46.206  30.376  28.770  1.00  0.00     0.049 A 
ATOM     54  C   UNL A   1      41.185  32.408  30.206  1.00  0.00     0.074 A 
ATOM     55  C   UNL A   1      47.284  31.233  28.905  1.00  0.00     0.029 A 
ATOM     56  N   UNL A   1      45.085  31.073  29.196  1.00  0.00    -0.354 N 
ATOM     57  N   UNL A   1      42.418  32.075  29.905  1.00  0.00    -0.248 NA
ATOM     58  C   UNL A   1      41.045  33.751  30.783  1.00  0.00     0.031 C 
ATOM     59  C   UNL A   1      46.825  32.426  29.471  1.00  0.00     0.029 A 
ATOM     60  C   UNL A   1      45.450  32.339  29.624  1.00  0.00     0.049 A 
ATOM     61  H   UNL A   1      44.167  30.720  29.195  1.00  0.00     0.167 HD
ATOM     62  C   UNL A   1      43.198  33.178  30.234  1.00  0.00     0.074 A 
ATOM     63  C   UNL A   1      42.295  34.193  30.736  1.00  0.00     0.031 C 
ATOM     64  C   UNL A   1      44.540  33.337  30.128  1.00  0.00     0.031 A 
BRANCH  51  65
ATOM     65  C   UNL A   1      47.516  28.373  27.945  1.00  0.00    -0.014 A 
ATOM     66  C   UNL A   1      48.203  27.570  28.874  1.00  0.00     0.010 A 
ATOM     67  C   UNL A   1      48.053  28.534  26.655  1.00  0.00     0.010 A 
ATOM     68  C   UNL A   1      49.421  26.976  28.535  1.00  0.00     0.020 A 
ATOM     69  C   UNL A   1      49.256  27.915  26.300  1.00  0.00     0.020 A 
ATOM     70  C   UNL A   1      49.940  27.154  27.249  1.00  0.00     0.054 A 
BRANCH  70  71
ATOM     71  S   UNL A   1      51.511  26.348  26.830  1.00  0.00     0.124 S 
ATOM     72  O   UNL A   1      51.710  26.778  25.448  1.00  0.00    -0.237 OA
ATOM     73  O   UNL A   1      52.434  26.922  27.804  1.00  0.00    -0.237 OA
ATOM     74  O   UNL A   1      51.229  24.925  27.004  1.00  0.00    -0.744 OA
ENDBRANCH  70  71
ENDBRANCH  51  65
BRANCH  52  75
ATOM     75  C   UNL A   1      38.600  32.168  30.429  1.00  0.00    -0.014 A 
ATOM     76  C   UNL A   1      37.828  32.905  29.514  1.00  0.00     0.010 A 
ATOM     77  C   UNL A   1      38.101  31.953  31.727  1.00  0.00     0.010 A 
ATOM     78  C   UNL A   1      36.590  33.434  29.895  1.00  0.00     0.020 A 
ATOM     79  C   UNL A   1      36.849  32.451  32.101  1.00  0.00     0.020 A 
ATOM     80  C   UNL A   1      36.107  33.199  31.185  1.00  0.00     0.054 A 
BRANCH  80  81
ATOM     81  S   UNL A   1      34.476  33.850  31.641  1.00  0.00     0.124 S 
ATOM     82  O   UNL A   1      33.916  32.751  32.419  1.00  0.00    -0.237 OA
ATOM     83  O   UNL A   1      34.818  35.053  32.396  1.00  0.00    -0.237 OA
ATOM     84  O   UNL A   1      33.834  34.097  30.351  1.00  0.00    -0.744 OA
ENDBRANCH  80  81
ENDBRANCH  52  75
BRANCH  64  85
ATOM     85  C   UNL A   1      45.116  34.669  30.534  1.00  0.00    -0.014 A 
ATOM     86  C   UNL A   1      45.579  34.898  31.842  1.00  0.00     0.010 A 
ATOM     87  C   UNL A   1      45.242  35.692  29.574  1.00  0.00     0.010 A 
ATOM     88  C   UNL A   1      46.127  36.136  32.191  1.00  0.00     0.020 A 
ATOM     89  C   UNL A   1      45.818  36.919  29.911  1.00  0.00     0.020 A 
ATOM     90  C   UNL A   1      46.243  37.137  31.222  1.00  0.00     0.054 A 
BRANCH  90  91
ATOM     91  S   UNL A   1      46.996  38.719  31.691  1.00  0.00     0.124 S 
ATOM     92  O   UNL A   1      47.413  39.253  30.397  1.00  0.00    -0.237 OA
ATOM     93  O   UNL A   1      45.889  39.422  32.334  1.00  0.00    -0.237 OA
ATOM     94  O   UNL A   1      48.086  38.335  32.586  1.00  0.00    -0.744 OA
ENDBRANCH  90  91
ENDBRANCH  64  85
ENDBRANCH  38  39
ENDBRANCH  30  33
ENDBRANCH  28  29
ENDBRANCH  27  28
ENDBRANCH   1  27
TORSDOF 18
ENDMDL
