MODEL 1
REMARK VINA RESULT:     -11.4      0.000      0.000
REMARK SMILES O=C(NCCCNC(=O)[C@H]1[C@H]2C[C@@H]3[C@@H](OC(=O)[C@@H]31)[C@@H]2Sc1ccccc1)c1ccc(-c2c3nc(c(-c4ccc(S(=O)(=O)[O-])cc4)c4ccc([nH]4)c(-c4ccc(S(=O)(=O)[O-])cc4)c4nc(c(-c5ccc(S(=O)(=O)[O-])cc5)c5ccc2[nH]5)C=C4)C=C3)cc1
REMARK SMILES IDX 4 1 3 2 1 3 2 4 27 6 28 7 86 8 29 9 85 10 30 11 31 12 32 13
REMARK SMILES IDX 79 14 33 15 84 16 78 17 80 18 34 19 83 20 77 21 76 22 35 24
REMARK SMILES IDX 65 25 46 26 64 27 47 28 50 29 63 30 81 31 48 32 49 33 62 35
REMARK SMILES IDX 82 36 51 37 36 38 37 39 45 40 38 41 44 42 39 43 40 44 41 45
REMARK SMILES IDX 42 46 43 47 66 48 67 49 75 50 68 51 74 52 69 53 70 54 71 55
REMARK SMILES IDX 72 56 73 57 52 58 53 59 61 60 54 61 60 62 55 63 56 64 57 65
REMARK SMILES IDX 58 66 59 67 5 68 6 69 7 70 8 71 9 73 10 74 11 75 18 76 12 77
REMARK SMILES IDX 19 78 13 79 16 80 14 81 15 82 17 83 20 84 21 85 22 86 26 87
REMARK SMILES IDX 23 88 25 89 24 90
REMARK H PARENT 3 5 80 23 50 34 7 72
REMARK Flexibility Score: inf
ROOT
ATOM      1  C   UNL A   1      34.066  28.238  26.635  1.00  0.00     0.118 C 
ENDROOT
BRANCH   1   2
ATOM      2  N   UNL A   1      33.838  29.617  27.079  1.00  0.00    -0.352 N 
ATOM      3  O   UNL A   1      34.059  31.454  28.367  1.00  0.00    -0.269 OA
ATOM      4  C   UNL A   1      34.569  30.433  27.916  1.00  0.00     0.251 C 
ATOM      5  H   UNL A   1      33.022  30.032  26.718  1.00  0.00     0.163 HD
BRANCH   4   6
ATOM      6  C   UNL A   1      35.951  30.063  28.276  1.00  0.00     0.039 A 
ATOM      7  C   UNL A   1      36.971  30.292  27.362  1.00  0.00     0.014 A 
ATOM      8  C   UNL A   1      36.249  29.493  29.517  1.00  0.00     0.014 A 
ATOM      9  C   UNL A   1      38.207  29.713  27.553  1.00  0.00     0.010 A 
ATOM     10  C   UNL A   1      37.564  29.096  29.798  1.00  0.00     0.010 A 
ATOM     11  C   UNL A   1      38.547  29.175  28.800  1.00  0.00    -0.014 A 
BRANCH  11  12
ATOM     12  C   UNL A   1      39.976  28.843  29.026  1.00  0.00     0.031 A 
ATOM     13  C   UNL A   1      40.556  27.520  28.616  1.00  0.00     0.074 A 
ATOM     14  C   UNL A   1      40.767  29.816  29.529  1.00  0.00     0.049 A 
ATOM     15  N   UNL A   1      41.799  27.122  28.690  1.00  0.00    -0.248 NA
ATOM     16  C   UNL A   1      39.637  26.513  28.066  1.00  0.00     0.031 C 
ATOM     17  C   UNL A   1      40.301  31.142  29.964  1.00  0.00     0.029 A 
ATOM     18  N   UNL A   1      42.123  29.878  29.707  1.00  0.00    -0.354 N 
ATOM     19  C   UNL A   1      41.812  25.815  28.219  1.00  0.00     0.074 A 
ATOM     20  C   UNL A   1      40.446  25.478  27.881  1.00  0.00     0.031 C 
ATOM     21  C   UNL A   1      41.355  31.912  30.254  1.00  0.00     0.029 A 
ATOM     22  C   UNL A   1      42.560  31.104  30.154  1.00  0.00     0.049 A 
ATOM     23  H   UNL A   1      42.726  29.120  29.533  1.00  0.00     0.167 HD
ATOM     24  C   UNL A   1      42.871  24.981  28.080  1.00  0.00     0.031 A 
ATOM     25  C   UNL A   1      43.791  31.531  30.485  1.00  0.00     0.031 A 
ATOM     26  C   UNL A   1      44.225  25.337  28.423  1.00  0.00     0.049 A 
ATOM     27  C   UNL A   1      44.930  30.566  30.361  1.00  0.00     0.074 A 
ATOM     28  C   UNL A   1      45.369  24.565  28.317  1.00  0.00     0.029 A 
ATOM     29  N   UNL A   1      44.620  26.563  28.937  1.00  0.00    -0.354 N 
ATOM     30  N   UNL A   1      44.918  29.336  29.905  1.00  0.00    -0.248 NA
ATOM     31  C   UNL A   1      46.245  31.041  30.803  1.00  0.00     0.031 C 
ATOM     32  C   UNL A   1      46.445  25.303  28.821  1.00  0.00     0.029 A 
ATOM     33  C   UNL A   1      45.985  26.561  29.177  1.00  0.00     0.049 A 
ATOM     34  H   UNL A   1      44.019  27.325  29.108  1.00  0.00     0.167 HD
ATOM     35  C   UNL A   1      46.229  28.891  29.998  1.00  0.00     0.074 A 
ATOM     36  C   UNL A   1      47.010  30.000  30.510  1.00  0.00     0.031 C 
ATOM     37  C   UNL A   1      46.741  27.672  29.697  1.00  0.00     0.031 A 
BRANCH  24  38
ATOM     38  C   UNL A   1      42.614  23.591  27.556  1.00  0.00    -0.014 A 
ATOM     39  C   UNL A   1      42.808  23.275  26.200  1.00  0.00     0.010 A 
ATOM     40  C   UNL A   1      42.258  22.565  28.451  1.00  0.00     0.010 A 
ATOM     41  C   UNL A   1      42.634  21.964  25.745  1.00  0.00     0.020 A 
ATOM     42  C   UNL A   1      42.110  21.246  28.007  1.00  0.00     0.020 A 
ATOM     43  C   UNL A   1      42.292  20.957  26.654  1.00  0.00     0.054 A 
BRANCH  43  44
ATOM     44  S   UNL A   1      42.131  19.256  26.043  1.00  0.00     0.124 S 
ATOM     45  O   UNL A   1      43.005  19.273  24.874  1.00  0.00    -0.237 OA
ATOM     46  O   UNL A   1      42.611  18.465  27.174  1.00  0.00    -0.237 OA
ATOM     47  O   UNL A   1      40.706  19.123  25.752  1.00  0.00    -0.744 OA
ENDBRANCH  43  44
ENDBRANCH  24  38
BRANCH  25  48
ATOM     48  C   UNL A   1      43.986  32.902  31.030  1.00  0.00    -0.014 A 
ATOM     49  C   UNL A   1      44.260  33.989  30.183  1.00  0.00     0.010 A 
ATOM     50  C   UNL A   1      43.904  33.123  32.418  1.00  0.00     0.010 A 
ATOM     51  C   UNL A   1      44.487  35.261  30.718  1.00  0.00     0.020 A 
ATOM     52  C   UNL A   1      44.085  34.399  32.953  1.00  0.00     0.020 A 
ATOM     53  C   UNL A   1      44.400  35.456  32.099  1.00  0.00     0.054 A 
BRANCH  53  54
ATOM     54  S   UNL A   1      44.690  37.114  32.773  1.00  0.00     0.124 S 
ATOM     55  O   UNL A   1      44.278  37.966  31.662  1.00  0.00    -0.237 OA
ATOM     56  O   UNL A   1      43.819  37.134  33.945  1.00  0.00    -0.237 OA
ATOM     57  O   UNL A   1      46.121  37.117  33.070  1.00  0.00    -0.744 OA
ENDBRANCH  53  54
ENDBRANCH  25  48
BRANCH  37  58
ATOM     58  C   UNL A   1      48.222  27.497  29.892  1.00  0.00    -0.014 A 
ATOM     59  C   UNL A   1      49.132  27.797  28.863  1.00  0.00     0.010 A 
ATOM     60  C   UNL A   1      48.708  27.030  31.126  1.00  0.00     0.010 A 
ATOM     61  C   UNL A   1      50.500  27.579  29.046  1.00  0.00     0.020 A 
ATOM     62  C   UNL A   1      50.078  26.847  31.326  1.00  0.00     0.020 A 
ATOM     63  C   UNL A   1      50.962  27.102  30.276  1.00  0.00     0.054 A 
BRANCH  63  64
ATOM     64  S   UNL A   1      52.743  26.842  30.494  1.00  0.00     0.124 S 
ATOM     65  O   UNL A   1      53.163  28.107  31.090  1.00  0.00    -0.237 OA
ATOM     66  O   UNL A   1      52.790  25.683  31.382  1.00  0.00    -0.237 OA
ATOM     67  O   UNL A   1      53.227  26.600  29.137  1.00  0.00    -0.744 OA
ENDBRANCH  63  64
ENDBRANCH  37  58
ENDBRANCH  11  12
ENDBRANCH   4   6
ENDBRANCH   1   2
BRANCH   1  68
ATOM     68  C   UNL A   1      33.851  28.082  25.145  1.00  0.00     0.042 C 
BRANCH  68  69
ATOM     69  C   UNL A   1      32.384  28.188  24.802  1.00  0.00     0.117 C 
BRANCH  69  70
ATOM     70  N   UNL A   1      31.568  27.187  25.474  1.00  0.00    -0.356 N 
ATOM     71  C   UNL A   1      31.579  25.836  25.540  1.00  0.00     0.224 C 
ATOM     72  H   UNL A   1      30.841  27.586  26.005  1.00  0.00     0.163 HD
ATOM     73  O   UNL A   1      30.809  25.329  26.364  1.00  0.00    -0.275 OA
BRANCH  71  74
ATOM     74  C   UNL A   1      32.450  24.914  24.696  1.00  0.00     0.097 C 
ATOM     75  C   UNL A   1      32.668  23.452  25.137  1.00  0.00     0.020 C 
ATOM     76  C   UNL A   1      31.882  24.734  23.263  1.00  0.00     0.119 C 
ATOM     77  C   UNL A   1      31.417  22.786  24.529  1.00  0.00     0.014 C 
ATOM     78  C   UNL A   1      33.826  22.896  24.277  1.00  0.00     0.097 C 
ATOM     79  C   UNL A   1      31.720  23.219  23.128  1.00  0.00     0.047 C 
ATOM     80  C   UNL A   1      32.922  24.973  22.208  1.00  0.00     0.310 C 
ATOM     81  C   UNL A   1      33.162  22.798  22.879  1.00  0.00     0.194 C 
ATOM     82  O   UNL A   1      33.645  23.824  22.001  1.00  0.00    -0.461 OA
ATOM     83  O   UNL A   1      33.123  26.025  21.619  1.00  0.00    -0.252 OA
BRANCH  78  84
ATOM     84  S   UNL A   1      34.700  21.391  24.883  1.00  0.00    -0.119 SA
BRANCH  84  85
ATOM     85  C   UNL A   1      36.310  21.949  25.392  1.00  0.00     0.008 A 
ATOM     86  C   UNL A   1      36.515  23.286  25.754  1.00  0.00     0.015 A 
ATOM     87  C   UNL A   1      37.406  21.081  25.354  1.00  0.00     0.015 A 
ATOM     88  C   UNL A   1      37.788  23.733  26.124  1.00  0.00     0.001 A 
ATOM     89  C   UNL A   1      38.672  21.519  25.751  1.00  0.00     0.001 A 
ATOM     90  C   UNL A   1      38.863  22.845  26.137  1.00  0.00     0.000 A 
ENDBRANCH  84  85
ENDBRANCH  78  84
ENDBRANCH  71  74
ENDBRANCH  69  70
ENDBRANCH  68  69
ENDBRANCH   1  68
TORSDOF 15
ENDMDL
MODEL 2
REMARK VINA RESULT:     -11.2      3.238      9.587
REMARK SMILES O=C(NCCCNC(=O)[C@H]1[C@H]2C[C@@H]3[C@@H](OC(=O)[C@@H]31)[C@@H]2Sc1ccccc1)c1ccc(-c2c3nc(c(-c4ccc(S(=O)(=O)[O-])cc4)c4ccc([nH]4)c(-c4ccc(S(=O)(=O)[O-])cc4)c4nc(c(-c5ccc(S(=O)(=O)[O-])cc5)c5ccc2[nH]5)C=C4)C=C3)cc1
REMARK SMILES IDX 4 1 3 2 1 3 2 4 27 6 28 7 86 8 29 9 85 10 30 11 31 12 32 13
REMARK SMILES IDX 79 14 33 15 84 16 78 17 80 18 34 19 83 20 77 21 76 22 35 24
REMARK SMILES IDX 65 25 46 26 64 27 47 28 50 29 63 30 81 31 48 32 49 33 62 35
REMARK SMILES IDX 82 36 51 37 36 38 37 39 45 40 38 41 44 42 39 43 40 44 41 45
REMARK SMILES IDX 42 46 43 47 66 48 67 49 75 50 68 51 74 52 69 53 70 54 71 55
REMARK SMILES IDX 72 56 73 57 52 58 53 59 61 60 54 61 60 62 55 63 56 64 57 65
REMARK SMILES IDX 58 66 59 67 5 68 6 69 7 70 8 71 9 73 10 74 11 75 18 76 12 77
REMARK SMILES IDX 19 78 13 79 16 80 14 81 15 82 17 83 20 84 21 85 22 86 26 87
REMARK SMILES IDX 23 88 25 89 24 90
REMARK H PARENT 3 5 80 23 50 34 7 72
REMARK Flexibility Score: inf
ROOT
ATOM      1  C   UNL A   1      35.513  30.446  27.907  1.00  0.00     0.118 C 
ENDROOT
BRANCH   1   2
ATOM      2  N   UNL A   1      35.592  30.285  29.362  1.00  0.00    -0.352 N 
ATOM      3  O   UNL A   1      36.305  29.448  31.330  1.00  0.00    -0.269 OA
ATOM      4  C   UNL A   1      36.562  29.721  30.161  1.00  0.00     0.251 C 
ATOM      5  H   UNL A   1      34.817  30.642  29.854  1.00  0.00     0.163 HD
BRANCH   4   6
ATOM      6  C   UNL A   1      37.896  29.432  29.600  1.00  0.00     0.039 A 
ATOM      7  C   UNL A   1      38.929  29.084  30.459  1.00  0.00     0.014 A 
ATOM      8  C   UNL A   1      38.133  29.498  28.223  1.00  0.00     0.014 A 
ATOM      9  C   UNL A   1      40.230  29.080  30.003  1.00  0.00     0.010 A 
ATOM     10  C   UNL A   1      39.429  29.279  27.734  1.00  0.00     0.010 A 
ATOM     11  C   UNL A   1      40.494  29.099  28.628  1.00  0.00    -0.014 A 
BRANCH  11  12
ATOM     12  C   UNL A   1      41.883  28.795  28.202  1.00  0.00     0.031 A 
ATOM     13  C   UNL A   1      42.968  29.832  28.238  1.00  0.00     0.074 A 
ATOM     14  C   UNL A   1      42.163  27.515  27.871  1.00  0.00     0.049 A 
ATOM     15  N   UNL A   1      44.238  29.687  27.960  1.00  0.00    -0.248 NA
ATOM     16  C   UNL A   1      42.591  31.201  28.620  1.00  0.00     0.031 C 
ATOM     17  C   UNL A   1      41.176  26.427  27.801  1.00  0.00     0.029 A 
ATOM     18  N   UNL A   1      43.349  26.893  27.589  1.00  0.00    -0.354 N 
ATOM     19  C   UNL A   1      44.808  30.944  28.111  1.00  0.00     0.074 A 
ATOM     20  C   UNL A   1      43.742  31.848  28.483  1.00  0.00     0.031 C 
ATOM     21  C   UNL A   1      41.809  25.265  27.604  1.00  0.00     0.029 A 
ATOM     22  C   UNL A   1      43.223  25.535  27.403  1.00  0.00     0.049 A 
ATOM     23  H   UNL A   1      44.208  27.369  27.526  1.00  0.00     0.167 HD
ATOM     24  C   UNL A   1      46.106  31.303  27.954  1.00  0.00     0.031 A 
ATOM     25  C   UNL A   1      44.135  24.605  27.070  1.00  0.00     0.031 A 
ATOM     26  C   UNL A   1      47.154  30.387  27.582  1.00  0.00     0.049 A 
ATOM     27  C   UNL A   1      45.551  25.048  26.861  1.00  0.00     0.074 A 
ATOM     28  C   UNL A   1      48.501  30.650  27.401  1.00  0.00     0.029 A 
ATOM     29  N   UNL A   1      46.978  29.033  27.334  1.00  0.00    -0.354 N 
ATOM     30  N   UNL A   1      46.068  26.243  27.017  1.00  0.00    -0.248 NA
ATOM     31  C   UNL A   1      46.503  24.021  26.424  1.00  0.00     0.031 C 
ATOM     32  C   UNL A   1      49.127  29.470  26.987  1.00  0.00     0.029 A 
ATOM     33  C   UNL A   1      48.185  28.454  26.977  1.00  0.00     0.049 A 
ATOM     34  H   UNL A   1      46.120  28.553  27.402  1.00  0.00     0.167 HD
ATOM     35  C   UNL A   1      47.414  26.110  26.704  1.00  0.00     0.074 A 
ATOM     36  C   UNL A   1      47.634  24.710  26.395  1.00  0.00     0.031 C 
ATOM     37  C   UNL A   1      48.379  27.061  26.664  1.00  0.00     0.031 A 
BRANCH  24  38
ATOM     38  C   UNL A   1      46.470  32.752  28.160  1.00  0.00    -0.014 A 
ATOM     39  C   UNL A   1      46.908  33.223  29.411  1.00  0.00     0.010 A 
ATOM     40  C   UNL A   1      46.458  33.635  27.065  1.00  0.00     0.010 A 
ATOM     41  C   UNL A   1      47.310  34.553  29.566  1.00  0.00     0.020 A 
ATOM     42  C   UNL A   1      46.886  34.960  27.208  1.00  0.00     0.020 A 
ATOM     43  C   UNL A   1      47.301  35.411  28.461  1.00  0.00     0.054 A 
BRANCH  43  44
ATOM     44  S   UNL A   1      47.885  37.115  28.682  1.00  0.00     0.124 S 
ATOM     45  O   UNL A   1      49.198  36.907  29.286  1.00  0.00    -0.237 OA
ATOM     46  O   UNL A   1      47.897  37.628  27.314  1.00  0.00    -0.237 OA
ATOM     47  O   UNL A   1      46.884  37.715  29.562  1.00  0.00    -0.744 OA
ENDBRANCH  43  44
ENDBRANCH  24  38
BRANCH  25  48
ATOM     48  C   UNL A   1      43.718  23.195  26.845  1.00  0.00    -0.014 A 
ATOM     49  C   UNL A   1      43.898  22.573  25.598  1.00  0.00     0.010 A 
ATOM     50  C   UNL A   1      43.124  22.464  27.892  1.00  0.00     0.010 A 
ATOM     51  C   UNL A   1      43.457  21.262  25.393  1.00  0.00     0.020 A 
ATOM     52  C   UNL A   1      42.722  21.141  27.704  1.00  0.00     0.020 A 
ATOM     53  C   UNL A   1      42.870  20.556  26.447  1.00  0.00     0.054 A 
BRANCH  53  54
ATOM     54  S   UNL A   1      42.311  18.855  26.162  1.00  0.00     0.124 S 
ATOM     55  O   UNL A   1      42.481  18.258  27.481  1.00  0.00    -0.237 OA
ATOM     56  O   UNL A   1      40.931  19.047  25.724  1.00  0.00    -0.237 OA
ATOM     57  O   UNL A   1      43.222  18.365  25.128  1.00  0.00    -0.744 OA
ENDBRANCH  53  54
ENDBRANCH  25  48
BRANCH  37  58
ATOM     58  C   UNL A   1      49.764  26.599  26.300  1.00  0.00    -0.014 A 
ATOM     59  C   UNL A   1      50.621  26.037  27.263  1.00  0.00     0.010 A 
ATOM     60  C   UNL A   1      50.210  26.727  24.972  1.00  0.00     0.010 A 
ATOM     61  C   UNL A   1      51.921  25.662  26.916  1.00  0.00     0.020 A 
ATOM     62  C   UNL A   1      51.496  26.318  24.614  1.00  0.00     0.020 A 
ATOM     63  C   UNL A   1      52.350  25.808  25.594  1.00  0.00     0.054 A 
BRANCH  63  64
ATOM     64  S   UNL A   1      54.037  25.300  25.165  1.00  0.00     0.124 S 
ATOM     65  O   UNL A   1      54.775  25.649  26.376  1.00  0.00    -0.237 OA
ATOM     66  O   UNL A   1      53.885  23.869  24.912  1.00  0.00    -0.237 OA
ATOM     67  O   UNL A   1      54.353  26.105  23.989  1.00  0.00    -0.744 OA
ENDBRANCH  63  64
ENDBRANCH  37  58
ENDBRANCH  11  12
ENDBRANCH   4   6
ENDBRANCH   1   2
BRANCH   1  68
ATOM     68  C   UNL A   1      34.093  30.684  27.441  1.00  0.00     0.042 C 
BRANCH  68  69
ATOM     69  C   UNL A   1      33.512  29.432  26.829  1.00  0.00     0.117 C 
BRANCH  69  70
ATOM     70  N   UNL A   1      33.691  29.369  25.385  1.00  0.00    -0.356 N 
ATOM     71  C   UNL A   1      32.916  28.989  24.344  1.00  0.00     0.224 C 
ATOM     72  H   UNL A   1      34.582  29.676  25.101  1.00  0.00     0.163 HD
ATOM     73  O   UNL A   1      33.364  29.236  23.219  1.00  0.00    -0.275 OA
BRANCH  71  74
ATOM     74  C   UNL A   1      31.563  28.297  24.452  1.00  0.00     0.097 C 
ATOM     75  C   UNL A   1      30.526  28.464  23.322  1.00  0.00     0.020 C 
ATOM     76  C   UNL A   1      31.707  26.754  24.528  1.00  0.00     0.119 C 
ATOM     77  C   UNL A   1      30.987  27.356  22.352  1.00  0.00     0.014 C 
ATOM     78  C   UNL A   1      29.183  27.928  23.869  1.00  0.00     0.097 C 
ATOM     79  C   UNL A   1      30.857  26.255  23.359  1.00  0.00     0.047 C 
ATOM     80  C   UNL A   1      30.933  26.169  25.673  1.00  0.00     0.310 C 
ATOM     81  C   UNL A   1      29.456  26.404  23.939  1.00  0.00     0.194 C 
ATOM     82  O   UNL A   1      29.627  25.969  25.295  1.00  0.00    -0.461 OA
ATOM     83  O   UNL A   1      31.371  25.915  26.785  1.00  0.00    -0.252 OA
BRANCH  78  84
ATOM     84  S   UNL A   1      27.638  28.450  23.011  1.00  0.00    -0.119 SA
BRANCH  84  85
ATOM     85  C   UNL A   1      27.917  30.135  22.513  1.00  0.00     0.008 A 
ATOM     86  C   UNL A   1      27.992  31.154  23.470  1.00  0.00     0.015 A 
ATOM     87  C   UNL A   1      27.978  30.472  21.157  1.00  0.00     0.015 A 
ATOM     88  C   UNL A   1      28.180  32.483  23.077  1.00  0.00     0.001 A 
ATOM     89  C   UNL A   1      28.194  31.796  20.765  1.00  0.00     0.001 A 
ATOM     90  C   UNL A   1      28.297  32.801  21.725  1.00  0.00     0.000 A 
ENDBRANCH  84  85
ENDBRANCH  78  84
ENDBRANCH  71  74
ENDBRANCH  69  70
ENDBRANCH  68  69
ENDBRANCH   1  68
TORSDOF 15
ENDMDL
MODEL 3
REMARK VINA RESULT:     -11.1      3.103      9.295
REMARK SMILES O=C(NCCCNC(=O)[C@H]1[C@H]2C[C@@H]3[C@@H](OC(=O)[C@@H]31)[C@@H]2Sc1ccccc1)c1ccc(-c2c3nc(c(-c4ccc(S(=O)(=O)[O-])cc4)c4ccc([nH]4)c(-c4ccc(S(=O)(=O)[O-])cc4)c4nc(c(-c5ccc(S(=O)(=O)[O-])cc5)c5ccc2[nH]5)C=C4)C=C3)cc1
REMARK SMILES IDX 4 1 3 2 1 3 2 4 27 6 28 7 86 8 29 9 85 10 30 11 31 12 32 13
REMARK SMILES IDX 79 14 33 15 84 16 78 17 80 18 34 19 83 20 77 21 76 22 35 24
REMARK SMILES IDX 65 25 46 26 64 27 47 28 50 29 63 30 81 31 48 32 49 33 62 35
REMARK SMILES IDX 82 36 51 37 36 38 37 39 45 40 38 41 44 42 39 43 40 44 41 45
REMARK SMILES IDX 42 46 43 47 66 48 67 49 75 50 68 51 74 52 69 53 70 54 71 55
REMARK SMILES IDX 72 56 73 57 52 58 53 59 61 60 54 61 60 62 55 63 56 64 57 65
REMARK SMILES IDX 58 66 59 67 5 68 6 69 7 70 8 71 9 73 10 74 11 75 18 76 12 77
REMARK SMILES IDX 19 78 13 79 16 80 14 81 15 82 17 83 20 84 21 85 22 86 26 87
REMARK SMILES IDX 23 88 25 89 24 90
REMARK H PARENT 3 5 80 23 50 34 7 72
REMARK Flexibility Score: inf
ROOT
ATOM      1  C   UNL A   1      36.943  23.895  25.716  1.00  0.00     0.118 C 
ENDROOT
BRANCH   1   2
ATOM      2  N   UNL A   1      38.056  22.942  25.774  1.00  0.00    -0.352 N 
ATOM      3  O   UNL A   1      40.197  22.242  25.860  1.00  0.00    -0.269 OA
ATOM      4  C   UNL A   1      39.373  23.106  26.144  1.00  0.00     0.251 C 
ATOM      5  H   UNL A   1      37.823  22.025  25.500  1.00  0.00     0.163 HD
BRANCH   4   6
ATOM      6  C   UNL A   1      39.785  24.329  26.861  1.00  0.00     0.039 A 
ATOM      7  C   UNL A   1      39.513  24.439  28.217  1.00  0.00     0.014 A 
ATOM      8  C   UNL A   1      40.444  25.370  26.200  1.00  0.00     0.014 A 
ATOM      9  C   UNL A   1      39.632  25.660  28.845  1.00  0.00     0.010 A 
ATOM     10  C   UNL A   1      40.762  26.542  26.901  1.00  0.00     0.010 A 
ATOM     11  C   UNL A   1      40.327  26.706  28.224  1.00  0.00    -0.014 A 
BRANCH  11  12
ATOM     12  C   UNL A   1      40.674  27.880  29.064  1.00  0.00     0.031 A 
ATOM     13  C   UNL A   1      39.719  29.020  29.264  1.00  0.00     0.074 A 
ATOM     14  C   UNL A   1      41.851  27.841  29.727  1.00  0.00     0.049 A 
ATOM     15  N   UNL A   1      39.862  30.075  30.024  1.00  0.00    -0.248 NA
ATOM     16  C   UNL A   1      38.451  28.988  28.519  1.00  0.00     0.031 C 
ATOM     17  C   UNL A   1      42.857  26.776  29.600  1.00  0.00     0.029 A 
ATOM     18  N   UNL A   1      42.381  28.673  30.676  1.00  0.00    -0.354 N 
ATOM     19  C   UNL A   1      38.720  30.842  29.835  1.00  0.00     0.074 A 
ATOM     20  C   UNL A   1      37.900  30.143  28.869  1.00  0.00     0.031 C 
ATOM     21  C   UNL A   1      43.821  26.963  30.508  1.00  0.00     0.029 A 
ATOM     22  C   UNL A   1      43.575  28.223  31.191  1.00  0.00     0.049 A 
ATOM     23  H   UNL A   1      41.951  29.511  30.962  1.00  0.00     0.167 HD
ATOM     24  C   UNL A   1      38.391  32.019  30.419  1.00  0.00     0.031 A 
ATOM     25  C   UNL A   1      44.409  28.775  32.090  1.00  0.00     0.031 A 
ATOM     26  C   UNL A   1      39.223  32.700  31.380  1.00  0.00     0.049 A 
ATOM     27  C   UNL A   1      44.033  30.100  32.681  1.00  0.00     0.074 A 
ATOM     28  C   UNL A   1      38.978  33.896  32.033  1.00  0.00     0.029 A 
ATOM     29  N   UNL A   1      40.456  32.249  31.826  1.00  0.00    -0.354 N 
ATOM     30  N   UNL A   1      42.943  30.803  32.491  1.00  0.00    -0.248 NA
ATOM     31  C   UNL A   1      45.001  30.708  33.599  1.00  0.00     0.031 C 
ATOM     32  C   UNL A   1      40.089  34.197  32.828  1.00  0.00     0.029 A 
ATOM     33  C   UNL A   1      40.996  33.155  32.726  1.00  0.00     0.049 A 
ATOM     34  H   UNL A   1      40.887  31.409  31.545  1.00  0.00     0.167 HD
ATOM     35  C   UNL A   1      43.090  31.938  33.276  1.00  0.00     0.074 A 
ATOM     36  C   UNL A   1      44.353  31.801  33.974  1.00  0.00     0.031 C 
ATOM     37  C   UNL A   1      42.260  33.004  33.401  1.00  0.00     0.031 A 
BRANCH  24  38
ATOM     38  C   UNL A   1      37.087  32.666  30.026  1.00  0.00    -0.014 A 
ATOM     39  C   UNL A   1      35.926  32.497  30.800  1.00  0.00     0.010 A 
ATOM     40  C   UNL A   1      37.045  33.527  28.913  1.00  0.00     0.010 A 
ATOM     41  C   UNL A   1      34.744  33.162  30.460  1.00  0.00     0.020 A 
ATOM     42  C   UNL A   1      35.873  34.216  28.584  1.00  0.00     0.020 A 
ATOM     43  C   UNL A   1      34.727  34.022  29.357  1.00  0.00     0.054 A 
BRANCH  43  44
ATOM     44  S   UNL A   1      33.194  34.916  28.977  1.00  0.00     0.124 S 
ATOM     45  O   UNL A   1      32.537  34.954  30.280  1.00  0.00    -0.237 OA
ATOM     46  O   UNL A   1      33.688  36.199  28.484  1.00  0.00    -0.237 OA
ATOM     47  O   UNL A   1      32.541  34.076  27.976  1.00  0.00    -0.744 OA
ENDBRANCH  43  44
ENDBRANCH  24  38
BRANCH  25  48
ATOM     48  C   UNL A   1      45.700  28.113  32.419  1.00  0.00    -0.014 A 
ATOM     49  C   UNL A   1      46.877  28.424  31.717  1.00  0.00     0.010 A 
ATOM     50  C   UNL A   1      45.753  27.151  33.446  1.00  0.00     0.010 A 
ATOM     51  C   UNL A   1      48.070  27.757  32.010  1.00  0.00     0.020 A 
ATOM     52  C   UNL A   1      46.951  26.515  33.771  1.00  0.00     0.020 A 
ATOM     53  C   UNL A   1      48.099  26.805  33.033  1.00  0.00     0.054 A 
BRANCH  53  54
ATOM     54  S   UNL A   1      49.657  25.957  33.402  1.00  0.00     0.124 S 
ATOM     55  O   UNL A   1      49.421  25.467  34.755  1.00  0.00    -0.237 OA
ATOM     56  O   UNL A   1      49.715  24.937  32.357  1.00  0.00    -0.237 OA
ATOM     57  O   UNL A   1      50.659  27.016  33.283  1.00  0.00    -0.744 OA
ENDBRANCH  53  54
ENDBRANCH  25  48
BRANCH  37  58
ATOM     58  C   UNL A   1      42.693  34.085  34.352  1.00  0.00    -0.014 A 
ATOM     59  C   UNL A   1      43.413  35.206  33.902  1.00  0.00     0.010 A 
ATOM     60  C   UNL A   1      42.372  33.977  35.717  1.00  0.00     0.010 A 
ATOM     61  C   UNL A   1      43.851  36.174  34.809  1.00  0.00     0.020 A 
ATOM     62  C   UNL A   1      42.775  34.962  36.621  1.00  0.00     0.020 A 
ATOM     63  C   UNL A   1      43.531  36.043  36.163  1.00  0.00     0.054 A 
BRANCH  63  64
ATOM     64  S   UNL A   1      44.098  37.319  37.319  1.00  0.00     0.124 S 
ATOM     65  O   UNL A   1      45.173  36.631  38.026  1.00  0.00    -0.237 OA
ATOM     66  O   UNL A   1      44.521  38.394  36.425  1.00  0.00    -0.237 OA
ATOM     67  O   UNL A   1      42.912  37.613  38.120  1.00  0.00    -0.744 OA
ENDBRANCH  63  64
ENDBRANCH  37  58
ENDBRANCH  11  12
ENDBRANCH   4   6
ENDBRANCH   1   2
BRANCH   1  68
ATOM     68  C   UNL A   1      35.643  23.273  26.177  1.00  0.00     0.042 C 
BRANCH  68  69
ATOM     69  C   UNL A   1      35.219  22.164  25.243  1.00  0.00     0.117 C 
BRANCH  69  70
ATOM     70  N   UNL A   1      34.716  22.655  23.968  1.00  0.00    -0.356 N 
ATOM     71  C   UNL A   1      33.877  23.646  23.592  1.00  0.00     0.224 C 
ATOM     72  H   UNL A   1      35.070  22.148  23.202  1.00  0.00     0.163 HD
ATOM     73  O   UNL A   1      33.816  23.871  22.378  1.00  0.00    -0.275 OA
BRANCH  71  74
ATOM     74  C   UNL A   1      33.022  24.489  24.531  1.00  0.00     0.097 C 
ATOM     75  C   UNL A   1      32.368  25.786  24.013  1.00  0.00     0.020 C 
ATOM     76  C   UNL A   1      31.795  23.700  25.059  1.00  0.00     0.119 C 
ATOM     77  C   UNL A   1      31.077  25.219  23.388  1.00  0.00     0.014 C 
ATOM     78  C   UNL A   1      31.859  26.554  25.255  1.00  0.00     0.097 C 
ATOM     79  C   UNL A   1      30.605  24.572  24.653  1.00  0.00     0.047 C 
ATOM     80  C   UNL A   1      31.671  23.780  26.553  1.00  0.00     0.310 C 
ATOM     81  C   UNL A   1      30.676  25.664  25.713  1.00  0.00     0.194 C 
ATOM     82  O   UNL A   1      31.006  24.931  26.901  1.00  0.00    -0.461 OA
ATOM     83  O   UNL A   1      32.100  22.966  27.356  1.00  0.00    -0.252 OA
BRANCH  78  84
ATOM     84  S   UNL A   1      31.514  28.354  25.069  1.00  0.00    -0.119 SA
BRANCH  84  85
ATOM     85  C   UNL A   1      32.702  29.176  26.107  1.00  0.00     0.008 A 
ATOM     86  C   UNL A   1      32.469  30.482  26.554  1.00  0.00     0.015 A 
ATOM     87  C   UNL A   1      33.919  28.560  26.416  1.00  0.00     0.015 A 
ATOM     88  C   UNL A   1      33.418  31.141  27.343  1.00  0.00     0.001 A 
ATOM     89  C   UNL A   1      34.854  29.206  27.229  1.00  0.00     0.001 A 
ATOM     90  C   UNL A   1      34.603  30.496  27.693  1.00  0.00     0.000 A 
ENDBRANCH  84  85
ENDBRANCH  78  84
ENDBRANCH  71  74
ENDBRANCH  69  70
ENDBRANCH  68  69
ENDBRANCH   1  68
TORSDOF 15
ENDMDL
