MODEL 1
REMARK VINA RESULT:     -14.4      0.000      0.000
REMARK SMILES O=C(NCCCNC(=O)c1ccc(N2C(=O)[C@@H]3N=NC(c4ccccc4)=C3[C@H]2c2cccc(Br)c2)cc1)c1ccc(-c2c3nc(c(-c4ccc(S(=O)(=O)[O-])cc4)c4ccc([nH]4)c(-c4ccc(S(=O)(=O)[O-])cc4)c4nc(c(-c5ccc(S(=O)(=O)[O-])cc5)c5ccc2[nH]5)C=C4)C=C3)cc1
REMARK SMILES IDX 4 1 3 2 1 3 2 4 38 6 39 7 97 8 40 9 96 10 41 11 42 12 43 13
REMARK SMILES IDX 90 14 44 15 95 16 89 17 91 18 45 19 94 20 88 21 87 22 46 24
REMARK SMILES IDX 76 25 57 26 75 27 58 28 61 29 74 30 92 31 59 32 60 33 73 35
REMARK SMILES IDX 93 36 62 37 47 38 48 39 56 40 49 41 55 42 50 43 51 44 52 45
REMARK SMILES IDX 53 46 54 47 77 48 78 49 86 50 79 51 85 52 80 53 81 54 82 55
REMARK SMILES IDX 83 56 84 57 63 58 64 59 72 60 65 61 71 62 66 63 67 64 68 65
REMARK SMILES IDX 69 66 70 67 5 68 6 69 7 70 8 71 9 73 10 74 11 75 37 76 12 77
REMARK SMILES IDX 36 78 13 79 14 80 15 81 28 82 17 83 16 84 27 85 18 86 20 87
REMARK SMILES IDX 19 88 29 89 30 90 35 91 31 92 33 93 32 94 34 95 21 96 22 97
REMARK SMILES IDX 26 98 23 99 25 100 24 101
REMARK H PARENT 3 5 91 23 61 34 7 72
REMARK Flexibility Score: inf
ROOT
ATOM      1  C   UNL A   1      36.807  21.851  25.784  1.00  0.00     0.118 C 
ENDROOT
BRANCH   1   2
ATOM      2  N   UNL A   1      38.181  21.394  25.700  1.00  0.00    -0.352 N 
ATOM      3  O   UNL A   1      40.315  21.022  26.112  1.00  0.00    -0.269 OA
ATOM      4  C   UNL A   1      39.372  21.811  26.227  1.00  0.00     0.251 C 
ATOM      5  H   UNL A   1      38.278  20.597  25.131  1.00  0.00     0.163 HD
BRANCH   4   6
ATOM      6  C   UNL A   1      39.628  23.145  26.836  1.00  0.00     0.039 A 
ATOM      7  C   UNL A   1      38.867  24.299  26.642  1.00  0.00     0.014 A 
ATOM      8  C   UNL A   1      40.761  23.220  27.669  1.00  0.00     0.014 A 
ATOM      9  C   UNL A   1      39.276  25.514  27.198  1.00  0.00     0.010 A 
ATOM     10  C   UNL A   1      41.169  24.424  28.230  1.00  0.00     0.010 A 
ATOM     11  C   UNL A   1      40.442  25.581  27.968  1.00  0.00    -0.014 A 
BRANCH  11  12
ATOM     12  C   UNL A   1      40.792  26.840  28.628  1.00  0.00     0.031 A 
ATOM     13  C   UNL A   1      41.963  27.554  28.040  1.00  0.00     0.074 A 
ATOM     14  C   UNL A   1      40.027  27.439  29.563  1.00  0.00     0.049 A 
ATOM     15  N   UNL A   1      43.092  27.838  28.601  1.00  0.00    -0.248 NA
ATOM     16  C   UNL A   1      41.900  27.912  26.613  1.00  0.00     0.031 C 
ATOM     17  C   UNL A   1      38.694  27.037  30.022  1.00  0.00     0.029 A 
ATOM     18  N   UNL A   1      40.233  28.620  30.220  1.00  0.00    -0.354 N 
ATOM     19  C   UNL A   1      43.813  28.581  27.668  1.00  0.00     0.074 A 
ATOM     20  C   UNL A   1      43.097  28.467  26.422  1.00  0.00     0.031 C 
ATOM     21  C   UNL A   1      38.124  28.067  30.691  1.00  0.00     0.029 A 
ATOM     22  C   UNL A   1      39.093  29.141  30.824  1.00  0.00     0.049 A 
ATOM     23  H   UNL A   1      41.111  29.062  30.262  1.00  0.00     0.167 HD
ATOM     24  C   UNL A   1      44.831  29.414  28.026  1.00  0.00     0.031 A 
ATOM     25  C   UNL A   1      38.936  30.390  31.339  1.00  0.00     0.031 A 
ATOM     26  C   UNL A   1      45.273  29.175  29.374  1.00  0.00     0.049 A 
ATOM     27  C   UNL A   1      40.287  30.941  31.595  1.00  0.00     0.074 A 
ATOM     28  C   UNL A   1      45.813  28.102  30.052  1.00  0.00     0.029 A 
ATOM     29  N   UNL A   1      44.848  30.059  30.336  1.00  0.00    -0.354 N 
ATOM     30  N   UNL A   1      41.095  30.473  32.503  1.00  0.00    -0.248 NA
ATOM     31  C   UNL A   1      40.912  31.750  30.561  1.00  0.00     0.031 C 
ATOM     32  C   UNL A   1      45.250  28.176  31.359  1.00  0.00     0.029 A 
ATOM     33  C   UNL A   1      44.450  29.319  31.417  1.00  0.00     0.049 A 
ATOM     34  H   UNL A   1      44.832  31.041  30.261  1.00  0.00     0.167 HD
ATOM     35  C   UNL A   1      42.355  30.552  31.929  1.00  0.00     0.074 A 
ATOM     36  C   UNL A   1      42.191  31.440  30.781  1.00  0.00     0.031 C 
ATOM     37  C   UNL A   1      43.343  29.677  32.277  1.00  0.00     0.031 A 
BRANCH  24  38
ATOM     38  C   UNL A   1      45.164  30.700  27.308  1.00  0.00    -0.014 A 
ATOM     39  C   UNL A   1      46.518  30.997  27.035  1.00  0.00     0.010 A 
ATOM     40  C   UNL A   1      44.238  31.752  27.157  1.00  0.00     0.010 A 
ATOM     41  C   UNL A   1      46.929  32.297  26.715  1.00  0.00     0.020 A 
ATOM     42  C   UNL A   1      44.632  33.043  26.794  1.00  0.00     0.020 A 
ATOM     43  C   UNL A   1      45.981  33.316  26.615  1.00  0.00     0.054 A 
BRANCH  43  44
ATOM     44  S   UNL A   1      46.533  35.014  26.323  1.00  0.00     0.124 S 
ATOM     45  O   UNL A   1      45.275  35.752  26.371  1.00  0.00    -0.237 OA
ATOM     46  O   UNL A   1      47.444  35.240  27.441  1.00  0.00    -0.237 OA
ATOM     47  O   UNL A   1      47.172  34.945  25.011  1.00  0.00    -0.744 OA
ENDBRANCH  43  44
ENDBRANCH  24  38
BRANCH  25  48
ATOM     48  C   UNL A   1      37.721  31.247  31.336  1.00  0.00    -0.014 A 
ATOM     49  C   UNL A   1      36.733  31.119  32.333  1.00  0.00     0.010 A 
ATOM     50  C   UNL A   1      37.672  32.393  30.515  1.00  0.00     0.010 A 
ATOM     51  C   UNL A   1      35.777  32.129  32.543  1.00  0.00     0.020 A 
ATOM     52  C   UNL A   1      36.718  33.399  30.713  1.00  0.00     0.020 A 
ATOM     53  C   UNL A   1      35.791  33.275  31.744  1.00  0.00     0.054 A 
BRANCH  53  54
ATOM     54  S   UNL A   1      34.679  34.660  32.138  1.00  0.00     0.124 S 
ATOM     55  O   UNL A   1      34.301  35.143  30.813  1.00  0.00    -0.237 OA
ATOM     56  O   UNL A   1      33.617  34.010  32.901  1.00  0.00    -0.237 OA
ATOM     57  O   UNL A   1      35.523  35.569  32.911  1.00  0.00    -0.744 OA
ENDBRANCH  53  54
ENDBRANCH  25  48
BRANCH  37  58
ATOM     58  C   UNL A   1      43.163  28.837  33.519  1.00  0.00    -0.014 A 
ATOM     59  C   UNL A   1      43.433  29.294  34.824  1.00  0.00     0.010 A 
ATOM     60  C   UNL A   1      42.552  27.581  33.360  1.00  0.00     0.010 A 
ATOM     61  C   UNL A   1      43.123  28.499  35.938  1.00  0.00     0.020 A 
ATOM     62  C   UNL A   1      42.223  26.794  34.465  1.00  0.00     0.020 A 
ATOM     63  C   UNL A   1      42.519  27.251  35.748  1.00  0.00     0.054 A 
BRANCH  63  64
ATOM     64  S   UNL A   1      42.077  26.245  37.192  1.00  0.00     0.124 S 
ATOM     65  O   UNL A   1      43.125  26.586  38.150  1.00  0.00    -0.237 OA
ATOM     66  O   UNL A   1      40.739  26.727  37.527  1.00  0.00    -0.237 OA
ATOM     67  O   UNL A   1      42.124  24.873  36.688  1.00  0.00    -0.744 OA
ENDBRANCH  63  64
ENDBRANCH  37  58
ENDBRANCH  11  12
ENDBRANCH   4   6
ENDBRANCH   1   2
BRANCH   1  68
ATOM     68  C   UNL A   1      35.920  21.528  24.582  1.00  0.00     0.042 C 
BRANCH  68  69
ATOM     69  C   UNL A   1      34.786  20.531  24.832  1.00  0.00     0.118 C 
BRANCH  69  70
ATOM     70  N   UNL A   1      34.220  20.621  26.170  1.00  0.00    -0.352 N 
ATOM     71  C   UNL A   1      33.417  21.576  26.739  1.00  0.00     0.251 C 
ATOM     72  H   UNL A   1      34.453  19.872  26.765  1.00  0.00     0.163 HD
ATOM     73  O   UNL A   1      33.143  21.490  27.936  1.00  0.00    -0.269 OA
BRANCH  71  74
ATOM     74  C   UNL A   1      32.895  22.731  25.967  1.00  0.00     0.039 A 
ATOM     75  C   UNL A   1      33.510  23.966  26.171  1.00  0.00     0.016 A 
ATOM     76  C   UNL A   1      31.779  22.653  25.119  1.00  0.00     0.016 A 
ATOM     77  C   UNL A   1      33.063  25.091  25.476  1.00  0.00     0.027 A 
ATOM     78  C   UNL A   1      31.320  23.796  24.428  1.00  0.00     0.027 A 
ATOM     79  C   UNL A   1      31.977  25.018  24.583  1.00  0.00     0.045 A 
BRANCH  79  80
ATOM     80  N   UNL A   1      31.635  26.167  23.795  1.00  0.00    -0.299 N 
ATOM     81  C   UNL A   1      32.507  26.432  22.683  1.00  0.00     0.259 C 
ATOM     82  C   UNL A   1      31.234  27.434  24.453  1.00  0.00     0.152 C 
ATOM     83  C   UNL A   1      32.712  27.912  22.595  1.00  0.00     0.248 C 
ATOM     84  O   UNL A   1      33.063  25.596  21.976  1.00  0.00    -0.271 OA
ATOM     85  C   UNL A   1      32.394  28.233  24.004  1.00  0.00     0.021 C 
ATOM     86  N   UNL A   1      34.106  28.373  22.491  1.00  0.00    -0.170 NA
ATOM     87  C   UNL A   1      33.400  28.967  24.466  1.00  0.00     0.097 C 
ATOM     88  N   UNL A   1      34.393  29.070  23.512  1.00  0.00    -0.154 NA
BRANCH  82  89
ATOM     89  C   UNL A   1      29.926  28.086  23.953  1.00  0.00    -0.020 A 
ATOM     90  C   UNL A   1      28.760  27.303  23.724  1.00  0.00     0.006 A 
ATOM     91  C   UNL A   1      29.846  29.444  23.616  1.00  0.00     0.022 A 
ATOM     92  C   UNL A   1      27.574  27.842  23.225  1.00  0.00     0.002 A 
ATOM     93  C   UNL A   1      28.657  29.977  23.083  1.00  0.00     0.018 A 
ATOM     94  C   UNL A   1      27.523  29.186  22.894  1.00  0.00     0.016 A 
ATOM     95  Br  UNL A   1      28.581  31.796  22.567  1.00  0.00    -0.051 Br
ENDBRANCH  82  89
BRANCH  87  96
ATOM     96  C   UNL A   1      33.649  29.484  25.807  1.00  0.00     0.002 A 
ATOM     97  C   UNL A   1      32.908  30.568  26.297  1.00  0.00     0.010 A 
ATOM     98  C   UNL A   1      34.775  29.047  26.516  1.00  0.00     0.010 A 
ATOM     99  C   UNL A   1      33.342  31.259  27.431  1.00  0.00     0.001 A 
ATOM    100  C   UNL A   1      35.205  29.738  27.650  1.00  0.00     0.001 A 
ATOM    101  C   UNL A   1      34.503  30.858  28.092  1.00  0.00     0.000 A 
ENDBRANCH  87  96
ENDBRANCH  79  80
ENDBRANCH  71  74
ENDBRANCH  69  70
ENDBRANCH  68  69
ENDBRANCH   1  68
TORSDOF 16
ENDMDL
MODEL 2
REMARK VINA RESULT:     -12.9      2.637      5.168
REMARK SMILES O=C(NCCCNC(=O)c1ccc(N2C(=O)[C@@H]3N=NC(c4ccccc4)=C3[C@H]2c2cccc(Br)c2)cc1)c1ccc(-c2c3nc(c(-c4ccc(S(=O)(=O)[O-])cc4)c4ccc([nH]4)c(-c4ccc(S(=O)(=O)[O-])cc4)c4nc(c(-c5ccc(S(=O)(=O)[O-])cc5)c5ccc2[nH]5)C=C4)C=C3)cc1
REMARK SMILES IDX 4 1 3 2 1 3 2 4 38 6 39 7 97 8 40 9 96 10 41 11 42 12 43 13
REMARK SMILES IDX 90 14 44 15 95 16 89 17 91 18 45 19 94 20 88 21 87 22 46 24
REMARK SMILES IDX 76 25 57 26 75 27 58 28 61 29 74 30 92 31 59 32 60 33 73 35
REMARK SMILES IDX 93 36 62 37 47 38 48 39 56 40 49 41 55 42 50 43 51 44 52 45
REMARK SMILES IDX 53 46 54 47 77 48 78 49 86 50 79 51 85 52 80 53 81 54 82 55
REMARK SMILES IDX 83 56 84 57 63 58 64 59 72 60 65 61 71 62 66 63 67 64 68 65
REMARK SMILES IDX 69 66 70 67 5 68 6 69 7 70 8 71 9 73 10 74 11 75 37 76 12 77
REMARK SMILES IDX 36 78 13 79 14 80 15 81 28 82 17 83 16 84 27 85 18 86 20 87
REMARK SMILES IDX 19 88 29 89 30 90 35 91 31 92 33 93 32 94 34 95 21 96 22 97
REMARK SMILES IDX 26 98 23 99 25 100 24 101
REMARK H PARENT 3 5 91 23 61 34 7 72
REMARK Flexibility Score: inf
ROOT
ATOM      1  C   UNL A   1      42.912  19.676  26.068  1.00  0.00     0.118 C 
ENDROOT
BRANCH   1   2
ATOM      2  N   UNL A   1      43.582  20.335  24.965  1.00  0.00    -0.352 N 
ATOM      3  O   UNL A   1      44.854  21.671  23.756  1.00  0.00    -0.269 OA
ATOM      4  C   UNL A   1      44.179  21.552  24.783  1.00  0.00     0.251 C 
ATOM      5  H   UNL A   1      43.616  19.774  24.156  1.00  0.00     0.163 HD
BRANCH   4   6
ATOM      6  C   UNL A   1      44.010  22.737  25.668  1.00  0.00     0.039 A 
ATOM      7  C   UNL A   1      44.428  22.842  26.995  1.00  0.00     0.014 A 
ATOM      8  C   UNL A   1      43.347  23.834  25.084  1.00  0.00     0.014 A 
ATOM      9  C   UNL A   1      44.116  23.980  27.744  1.00  0.00     0.010 A 
ATOM     10  C   UNL A   1      43.040  24.972  25.822  1.00  0.00     0.010 A 
ATOM     11  C   UNL A   1      43.398  25.032  27.165  1.00  0.00    -0.014 A 
BRANCH  11  12
ATOM     12  C   UNL A   1      43.178  26.257  27.934  1.00  0.00     0.031 A 
ATOM     13  C   UNL A   1      44.234  27.298  27.777  1.00  0.00     0.074 A 
ATOM     14  C   UNL A   1      42.032  26.542  28.586  1.00  0.00     0.049 A 
ATOM     15  N   UNL A   1      45.018  27.788  28.681  1.00  0.00    -0.248 NA
ATOM     16  C   UNL A   1      44.517  27.786  26.417  1.00  0.00     0.031 C 
ATOM     17  C   UNL A   1      40.782  25.776  28.577  1.00  0.00     0.029 A 
ATOM     18  N   UNL A   1      41.701  27.657  29.304  1.00  0.00    -0.354 N 
ATOM     19  C   UNL A   1      45.762  28.785  28.051  1.00  0.00     0.074 A 
ATOM     20  C   UNL A   1      45.519  28.636  26.638  1.00  0.00     0.031 C 
ATOM     21  C   UNL A   1      39.779  26.552  29.052  1.00  0.00     0.029 A 
ATOM     22  C   UNL A   1      40.335  27.811  29.519  1.00  0.00     0.049 A 
ATOM     23  H   UNL A   1      42.371  28.294  29.641  1.00  0.00     0.167 HD
ATOM     24  C   UNL A   1      46.357  29.797  28.742  1.00  0.00     0.031 A 
ATOM     25  C   UNL A   1      39.698  28.917  29.987  1.00  0.00     0.031 A 
ATOM     26  C   UNL A   1      46.413  29.527  30.154  1.00  0.00     0.049 A 
ATOM     27  C   UNL A   1      40.705  29.752  30.682  1.00  0.00     0.074 A 
ATOM     28  C   UNL A   1      46.987  28.552  30.943  1.00  0.00     0.029 A 
ATOM     29  N   UNL A   1      45.493  30.167  30.948  1.00  0.00    -0.354 N 
ATOM     30  N   UNL A   1      41.291  29.400  31.791  1.00  0.00    -0.248 NA
ATOM     31  C   UNL A   1      41.374  30.800  29.927  1.00  0.00     0.031 C 
ATOM     32  C   UNL A   1      46.053  28.339  31.998  1.00  0.00     0.029 A 
ATOM     33  C   UNL A   1      44.998  29.236  31.822  1.00  0.00     0.049 A 
ATOM     34  H   UNL A   1      45.237  31.116  30.898  1.00  0.00     0.167 HD
ATOM     35  C   UNL A   1      42.595  29.851  31.659  1.00  0.00     0.074 A 
ATOM     36  C   UNL A   1      42.559  30.792  30.542  1.00  0.00     0.031 C 
ATOM     37  C   UNL A   1      43.627  29.213  32.286  1.00  0.00     0.031 A 
BRANCH  24  38
ATOM     38  C   UNL A   1      46.535  31.198  28.204  1.00  0.00    -0.014 A 
ATOM     39  C   UNL A   1      45.387  31.962  27.901  1.00  0.00     0.010 A 
ATOM     40  C   UNL A   1      47.766  31.675  27.711  1.00  0.00     0.010 A 
ATOM     41  C   UNL A   1      45.460  33.092  27.078  1.00  0.00     0.020 A 
ATOM     42  C   UNL A   1      47.856  32.827  26.926  1.00  0.00     0.020 A 
ATOM     43  C   UNL A   1      46.696  33.507  26.581  1.00  0.00     0.054 A 
BRANCH  43  44
ATOM     44  S   UNL A   1      46.764  34.892  25.419  1.00  0.00     0.124 S 
ATOM     45  O   UNL A   1      48.100  34.741  24.850  1.00  0.00    -0.237 OA
ATOM     46  O   UNL A   1      45.653  34.598  24.519  1.00  0.00    -0.237 OA
ATOM     47  O   UNL A   1      46.574  36.063  26.273  1.00  0.00    -0.744 OA
ENDBRANCH  43  44
ENDBRANCH  24  38
BRANCH  25  48
ATOM     48  C   UNL A   1      38.358  29.443  29.612  1.00  0.00    -0.014 A 
ATOM     49  C   UNL A   1      37.539  30.096  30.555  1.00  0.00     0.010 A 
ATOM     50  C   UNL A   1      38.006  29.560  28.252  1.00  0.00     0.010 A 
ATOM     51  C   UNL A   1      36.451  30.888  30.146  1.00  0.00     0.020 A 
ATOM     52  C   UNL A   1      36.919  30.341  27.838  1.00  0.00     0.020 A 
ATOM     53  C   UNL A   1      36.162  31.024  28.786  1.00  0.00     0.054 A 
BRANCH  53  54
ATOM     54  S   UNL A   1      34.879  32.196  28.251  1.00  0.00     0.124 S 
ATOM     55  O   UNL A   1      34.323  32.652  29.522  1.00  0.00    -0.237 OA
ATOM     56  O   UNL A   1      35.644  33.190  27.504  1.00  0.00    -0.237 OA
ATOM     57  O   UNL A   1      33.980  31.376  27.440  1.00  0.00    -0.744 OA
ENDBRANCH  53  54
ENDBRANCH  25  48
BRANCH  37  58
ATOM     58  C   UNL A   1      43.309  28.222  33.380  1.00  0.00    -0.014 A 
ATOM     59  C   UNL A   1      43.360  26.824  33.214  1.00  0.00     0.010 A 
ATOM     60  C   UNL A   1      43.094  28.738  34.670  1.00  0.00     0.010 A 
ATOM     61  C   UNL A   1      43.172  25.967  34.309  1.00  0.00     0.020 A 
ATOM     62  C   UNL A   1      42.926  27.891  35.767  1.00  0.00     0.020 A 
ATOM     63  C   UNL A   1      42.957  26.510  35.580  1.00  0.00     0.054 A 
BRANCH  63  64
ATOM     64  S   UNL A   1      42.761  25.400  37.003  1.00  0.00     0.124 S 
ATOM     65  O   UNL A   1      43.876  24.472  36.838  1.00  0.00    -0.237 OA
ATOM     66  O   UNL A   1      42.864  26.311  38.141  1.00  0.00    -0.237 OA
ATOM     67  O   UNL A   1      41.436  24.814  36.808  1.00  0.00    -0.744 OA
ENDBRANCH  63  64
ENDBRANCH  37  58
ENDBRANCH  11  12
ENDBRANCH   4   6
ENDBRANCH   1   2
BRANCH   1  68
ATOM     68  C   UNL A   1      41.518  19.123  25.772  1.00  0.00     0.042 C 
BRANCH  68  69
ATOM     69  C   UNL A   1      40.345  20.058  26.077  1.00  0.00     0.118 C 
BRANCH  69  70
ATOM     70  N   UNL A   1      40.741  21.282  26.756  1.00  0.00    -0.352 N 
ATOM     71  C   UNL A   1      40.069  22.464  26.932  1.00  0.00     0.251 C 
ATOM     72  H   UNL A   1      41.641  21.257  27.155  1.00  0.00     0.163 HD
ATOM     73  O   UNL A   1      40.653  23.411  27.460  1.00  0.00    -0.269 OA
BRANCH  71  74
ATOM     74  C   UNL A   1      38.670  22.654  26.475  1.00  0.00     0.039 A 
ATOM     75  C   UNL A   1      38.135  23.938  26.571  1.00  0.00     0.016 A 
ATOM     76  C   UNL A   1      37.852  21.602  26.033  1.00  0.00     0.016 A 
ATOM     77  C   UNL A   1      36.823  24.180  26.158  1.00  0.00     0.027 A 
ATOM     78  C   UNL A   1      36.521  21.847  25.630  1.00  0.00     0.027 A 
ATOM     79  C   UNL A   1      36.007  23.144  25.666  1.00  0.00     0.045 A 
BRANCH  79  80
ATOM     80  N   UNL A   1      34.712  23.461  25.133  1.00  0.00    -0.299 N 
ATOM     81  C   UNL A   1      33.642  23.489  26.092  1.00  0.00     0.259 C 
ATOM     82  C   UNL A   1      34.255  22.848  23.863  1.00  0.00     0.152 C 
ATOM     83  C   UNL A   1      32.436  22.866  25.461  1.00  0.00     0.248 C 
ATOM     84  O   UNL A   1      33.715  23.870  27.256  1.00  0.00    -0.271 OA
ATOM     85  C   UNL A   1      33.147  22.061  24.443  1.00  0.00     0.021 C 
ATOM     86  N   UNL A   1      31.753  21.823  26.244  1.00  0.00    -0.170 NA
ATOM     87  C   UNL A   1      32.693  20.818  24.553  1.00  0.00     0.097 C 
ATOM     88  N   UNL A   1      31.820  20.721  25.618  1.00  0.00    -0.154 NA
BRANCH  82  89
ATOM     89  C   UNL A   1      33.704  23.814  22.790  1.00  0.00    -0.020 A 
ATOM     90  C   UNL A   1      33.225  23.326  21.543  1.00  0.00     0.006 A 
ATOM     91  C   UNL A   1      33.733  25.207  22.951  1.00  0.00     0.022 A 
ATOM     92  C   UNL A   1      32.767  24.167  20.529  1.00  0.00     0.002 A 
ATOM     93  C   UNL A   1      33.300  26.052  21.912  1.00  0.00     0.018 A 
ATOM     94  C   UNL A   1      32.811  25.539  20.710  1.00  0.00     0.016 A 
ATOM     95  Br  UNL A   1      33.407  27.931  22.111  1.00  0.00    -0.051 Br
ENDBRANCH  82  89
BRANCH  87  96
ATOM     96  C   UNL A   1      33.104  19.601  23.860  1.00  0.00     0.002 A 
ATOM     97  C   UNL A   1      32.329  19.088  22.811  1.00  0.00     0.010 A 
ATOM     98  C   UNL A   1      34.144  18.826  24.387  1.00  0.00     0.010 A 
ATOM     99  C   UNL A   1      32.537  17.782  22.360  1.00  0.00     0.001 A 
ATOM    100  C   UNL A   1      34.351  17.522  23.932  1.00  0.00     0.001 A 
ATOM    101  C   UNL A   1      33.531  16.993  22.937  1.00  0.00     0.000 A 
ENDBRANCH  87  96
ENDBRANCH  79  80
ENDBRANCH  71  74
ENDBRANCH  69  70
ENDBRANCH  68  69
ENDBRANCH   1  68
TORSDOF 16
ENDMDL
MODEL 3
REMARK VINA RESULT:     -12.6      5.125      9.280
REMARK SMILES O=C(NCCCNC(=O)c1ccc(N2C(=O)[C@@H]3N=NC(c4ccccc4)=C3[C@H]2c2cccc(Br)c2)cc1)c1ccc(-c2c3nc(c(-c4ccc(S(=O)(=O)[O-])cc4)c4ccc([nH]4)c(-c4ccc(S(=O)(=O)[O-])cc4)c4nc(c(-c5ccc(S(=O)(=O)[O-])cc5)c5ccc2[nH]5)C=C4)C=C3)cc1
REMARK SMILES IDX 4 1 3 2 1 3 2 4 38 6 39 7 97 8 40 9 96 10 41 11 42 12 43 13
REMARK SMILES IDX 90 14 44 15 95 16 89 17 91 18 45 19 94 20 88 21 87 22 46 24
REMARK SMILES IDX 76 25 57 26 75 27 58 28 61 29 74 30 92 31 59 32 60 33 73 35
REMARK SMILES IDX 93 36 62 37 47 38 48 39 56 40 49 41 55 42 50 43 51 44 52 45
REMARK SMILES IDX 53 46 54 47 77 48 78 49 86 50 79 51 85 52 80 53 81 54 82 55
REMARK SMILES IDX 83 56 84 57 63 58 64 59 72 60 65 61 71 62 66 63 67 64 68 65
REMARK SMILES IDX 69 66 70 67 5 68 6 69 7 70 8 71 9 73 10 74 11 75 37 76 12 77
REMARK SMILES IDX 36 78 13 79 14 80 15 81 28 82 17 83 16 84 27 85 18 86 20 87
REMARK SMILES IDX 19 88 29 89 30 90 35 91 31 92 33 93 32 94 34 95 21 96 22 97
REMARK SMILES IDX 26 98 23 99 25 100 24 101
REMARK H PARENT 3 5 91 23 61 34 7 72
REMARK Flexibility Score: inf
ROOT
ATOM      1  C   UNL A   1      41.431  21.110  25.862  1.00  0.00     0.118 C 
ENDROOT
BRANCH   1   2
ATOM      2  N   UNL A   1      40.011  21.404  25.871  1.00  0.00    -0.352 N 
ATOM      3  O   UNL A   1      38.065  22.442  25.843  1.00  0.00    -0.269 OA
ATOM      4  C   UNL A   1      39.252  22.499  26.180  1.00  0.00     0.251 C 
ATOM      5  H   UNL A   1      39.466  20.635  25.588  1.00  0.00     0.163 HD
BRANCH   4   6
ATOM      6  C   UNL A   1      39.720  23.686  26.947  1.00  0.00     0.039 A 
ATOM      7  C   UNL A   1      40.919  23.790  27.654  1.00  0.00     0.014 A 
ATOM      8  C   UNL A   1      38.840  24.785  26.952  1.00  0.00     0.014 A 
ATOM      9  C   UNL A   1      41.191  24.930  28.415  1.00  0.00     0.010 A 
ATOM     10  C   UNL A   1      39.108  25.925  27.701  1.00  0.00     0.010 A 
ATOM     11  C   UNL A   1      40.272  25.984  28.461  1.00  0.00    -0.014 A 
BRANCH  11  12
ATOM     12  C   UNL A   1      40.626  27.211  29.176  1.00  0.00     0.031 A 
ATOM     13  C   UNL A   1      41.669  28.048  28.514  1.00  0.00     0.074 A 
ATOM     14  C   UNL A   1      39.949  27.684  30.243  1.00  0.00     0.049 A 
ATOM     15  N   UNL A   1      42.841  28.367  28.958  1.00  0.00    -0.248 NA
ATOM     16  C   UNL A   1      41.407  28.507  27.140  1.00  0.00     0.031 C 
ATOM     17  C   UNL A   1      38.711  27.156  30.823  1.00  0.00     0.029 A 
ATOM     18  N   UNL A   1      40.164  28.823  30.967  1.00  0.00    -0.354 N 
ATOM     19  C   UNL A   1      43.394  29.227  28.010  1.00  0.00     0.074 A 
ATOM     20  C   UNL A   1      42.535  29.157  26.853  1.00  0.00     0.031 C 
ATOM     21  C   UNL A   1      38.168  28.090  31.640  1.00  0.00     0.029 A 
ATOM     22  C   UNL A   1      39.080  29.217  31.745  1.00  0.00     0.049 A 
ATOM     23  H   UNL A   1      41.013  29.321  30.940  1.00  0.00     0.167 HD
ATOM     24  C   UNL A   1      44.396  30.099  28.312  1.00  0.00     0.031 A 
ATOM     25  C   UNL A   1      38.913  30.409  32.377  1.00  0.00     0.031 A 
ATOM     26  C   UNL A   1      45.017  29.790  29.572  1.00  0.00     0.049 A 
ATOM     27  C   UNL A   1      40.251  31.032  32.515  1.00  0.00     0.074 A 
ATOM     28  C   UNL A   1      45.701  28.709  30.090  1.00  0.00     0.029 A 
ATOM     29  N   UNL A   1      44.663  30.567  30.649  1.00  0.00    -0.354 N 
ATOM     30  N   UNL A   1      41.192  30.554  33.277  1.00  0.00    -0.248 NA
ATOM     31  C   UNL A   1      40.691  31.958  31.484  1.00  0.00     0.031 C 
ATOM     32  C   UNL A   1      45.302  28.645  31.456  1.00  0.00     0.029 A 
ATOM     33  C   UNL A   1      44.448  29.722  31.704  1.00  0.00     0.049 A 
ATOM     34  H   UNL A   1      44.579  31.548  30.659  1.00  0.00     0.167 HD
ATOM     35  C   UNL A   1      42.363  30.764  32.565  1.00  0.00     0.074 A 
ATOM     36  C   UNL A   1      42.005  31.722  31.522  1.00  0.00     0.031 C 
ATOM     37  C   UNL A   1      43.438  29.936  32.718  1.00  0.00     0.031 A 
BRANCH  24  38
ATOM     38  C   UNL A   1      44.559  31.456  27.669  1.00  0.00    -0.014 A 
ATOM     39  C   UNL A   1      45.685  31.689  26.849  1.00  0.00     0.010 A 
ATOM     40  C   UNL A   1      43.818  32.585  28.071  1.00  0.00     0.010 A 
ATOM     41  C   UNL A   1      46.093  32.990  26.525  1.00  0.00     0.020 A 
ATOM     42  C   UNL A   1      44.190  33.884  27.715  1.00  0.00     0.020 A 
ATOM     43  C   UNL A   1      45.350  34.080  26.977  1.00  0.00     0.054 A 
BRANCH  43  44
ATOM     44  S   UNL A   1      45.952  35.756  26.658  1.00  0.00     0.124 S 
ATOM     45  O   UNL A   1      46.785  36.004  27.832  1.00  0.00    -0.237 OA
ATOM     46  O   UNL A   1      46.666  35.594  25.396  1.00  0.00    -0.237 OA
ATOM     47  O   UNL A   1      44.728  36.549  26.578  1.00  0.00    -0.744 OA
ENDBRANCH  43  44
ENDBRANCH  24  38
BRANCH  25  48
ATOM     48  C   UNL A   1      37.658  31.177  32.591  1.00  0.00    -0.014 A 
ATOM     49  C   UNL A   1      37.493  32.009  33.716  1.00  0.00     0.010 A 
ATOM     50  C   UNL A   1      36.733  31.318  31.536  1.00  0.00     0.010 A 
ATOM     51  C   UNL A   1      36.483  32.987  33.754  1.00  0.00     0.020 A 
ATOM     52  C   UNL A   1      35.720  32.284  31.570  1.00  0.00     0.020 A 
ATOM     53  C   UNL A   1      35.616  33.133  32.669  1.00  0.00     0.054 A 
BRANCH  53  54
ATOM     54  S   UNL A   1      34.438  34.518  32.638  1.00  0.00     0.124 S 
ATOM     55  O   UNL A   1      35.055  35.474  33.554  1.00  0.00    -0.237 OA
ATOM     56  O   UNL A   1      34.434  34.904  31.230  1.00  0.00    -0.237 OA
ATOM     57  O   UNL A   1      33.192  33.920  33.114  1.00  0.00    -0.744 OA
ENDBRANCH  53  54
ENDBRANCH  25  48
BRANCH  37  58
ATOM     58  C   UNL A   1      43.465  28.994  33.897  1.00  0.00    -0.014 A 
ATOM     59  C   UNL A   1      44.043  29.309  35.143  1.00  0.00     0.010 A 
ATOM     60  C   UNL A   1      42.740  27.796  33.778  1.00  0.00     0.010 A 
ATOM     61  C   UNL A   1      43.920  28.432  36.231  1.00  0.00     0.020 A 
ATOM     62  C   UNL A   1      42.597  26.928  34.863  1.00  0.00     0.020 A 
ATOM     63  C   UNL A   1      43.196  27.245  36.081  1.00  0.00     0.054 A 
BRANCH  63  64
ATOM     64  S   UNL A   1      42.998  26.133  37.502  1.00  0.00     0.124 S 
ATOM     65  O   UNL A   1      43.883  26.732  38.498  1.00  0.00    -0.237 OA
ATOM     66  O   UNL A   1      41.569  26.228  37.792  1.00  0.00    -0.237 OA
ATOM     67  O   UNL A   1      43.434  24.834  36.991  1.00  0.00    -0.744 OA
ENDBRANCH  63  64
ENDBRANCH  37  58
ENDBRANCH  11  12
ENDBRANCH   4   6
ENDBRANCH   1   2
BRANCH   1  68
ATOM     68  C   UNL A   1      41.815  19.655  26.126  1.00  0.00     0.042 C 
BRANCH  68  69
ATOM     69  C   UNL A   1      43.306  19.324  26.019  1.00  0.00     0.118 C 
BRANCH  69  70
ATOM     70  N   UNL A   1      43.822  19.408  24.661  1.00  0.00    -0.352 N 
ATOM     71  C   UNL A   1      44.544  20.393  24.038  1.00  0.00     0.251 C 
ATOM     72  H   UNL A   1      43.619  18.628  24.096  1.00  0.00     0.163 HD
ATOM     73  O   UNL A   1      44.786  20.289  22.836  1.00  0.00    -0.269 OA
BRANCH  71  74
ATOM     74  C   UNL A   1      45.016  21.602  24.759  1.00  0.00     0.039 A 
ATOM     75  C   UNL A   1      45.487  22.663  23.985  1.00  0.00     0.016 A 
ATOM     76  C   UNL A   1      45.081  21.692  26.157  1.00  0.00     0.016 A 
ATOM     77  C   UNL A   1      45.945  23.827  24.604  1.00  0.00     0.027 A 
ATOM     78  C   UNL A   1      45.559  22.866  26.781  1.00  0.00     0.027 A 
ATOM     79  C   UNL A   1      45.970  23.952  26.006  1.00  0.00     0.045 A 
BRANCH  79  80
ATOM     80  N   UNL A   1      46.326  25.211  26.595  1.00  0.00    -0.299 N 
ATOM     81  C   UNL A   1      45.357  26.260  26.437  1.00  0.00     0.259 C 
ATOM     82  C   UNL A   1      47.701  25.746  26.442  1.00  0.00     0.152 C 
ATOM     83  C   UNL A   1      46.092  27.534  26.156  1.00  0.00     0.248 C 
ATOM     84  O   UNL A   1      44.137  26.133  26.440  1.00  0.00    -0.271 OA
ATOM     85  C   UNL A   1      47.334  26.926  25.630  1.00  0.00     0.021 C 
ATOM     86  N   UNL A   1      45.628  28.315  24.998  1.00  0.00    -0.170 NA
ATOM     87  C   UNL A   1      47.582  27.509  24.463  1.00  0.00     0.097 C 
ATOM     88  N   UNL A   1      46.557  28.374  24.135  1.00  0.00    -0.154 NA
BRANCH  82  89
ATOM     89  C   UNL A   1      48.410  26.204  27.737  1.00  0.00    -0.020 A 
ATOM     90  C   UNL A   1      49.678  26.846  27.688  1.00  0.00     0.006 A 
ATOM     91  C   UNL A   1      47.892  25.932  29.011  1.00  0.00     0.022 A 
ATOM     92  C   UNL A   1      50.375  27.228  28.834  1.00  0.00     0.002 A 
ATOM     93  C   UNL A   1      48.615  26.291  30.165  1.00  0.00     0.018 A 
ATOM     94  C   UNL A   1      49.845  26.943  30.081  1.00  0.00     0.016 A 
ATOM     95  Br  UNL A   1      47.940  25.858  31.879  1.00  0.00    -0.051 Br
ENDBRANCH  82  89
BRANCH  87  96
ATOM     96  C   UNL A   1      48.624  27.239  23.478  1.00  0.00     0.002 A 
ATOM     97  C   UNL A   1      49.940  26.989  23.891  1.00  0.00     0.010 A 
ATOM     98  C   UNL A   1      48.361  27.452  22.120  1.00  0.00     0.010 A 
ATOM     99  C   UNL A   1      50.986  27.041  22.966  1.00  0.00     0.001 A 
ATOM    100  C   UNL A   1      49.407  27.501  21.198  1.00  0.00     0.001 A 
ATOM    101  C   UNL A   1      50.722  27.321  21.626  1.00  0.00     0.000 A 
ENDBRANCH  87  96
ENDBRANCH  79  80
ENDBRANCH  71  74
ENDBRANCH  69  70
ENDBRANCH  68  69
ENDBRANCH   1  68
TORSDOF 16
ENDMDL
