MODEL 1
REMARK VINA RESULT:     -11.0      0.000      0.000
REMARK SMILES Cc1cccc(C[N@@H+](C)C[C@]2(C(=O)NCCCNC(=O)c3ccc(-c4c5nc(c(-c6ccc(S(=O)(=O)[O-])cc6)c6ccc([nH]6)c(-c6ccc(S(=O)(=O)[O-])cc6)c6nc(c(-c7ccc(S(=O)(=O)[O-])cc7)c7ccc4[nH]7)C=C6)C=C5)cc3)CCC[C@H](C)C2)n1
REMARK SMILES IDX 15 1 14 2 12 3 13 4 11 6 81 7 86 8 82 9 84 10 83 11 85 12
REMARK SMILES IDX 10 13 8 14 9 15 7 17 6 18 1 19 2 20 3 21 87 22 4 23 5 24
REMARK SMILES IDX 16 25 17 26 18 27 19 28 20 30 21 31 22 32 80 33 23 34 79 35
REMARK SMILES IDX 24 36 25 37 26 38 73 39 27 40 78 41 72 42 74 43 28 44 77 45
REMARK SMILES IDX 71 46 70 47 29 49 59 50 40 51 58 52 41 53 44 54 57 55 75 56
REMARK SMILES IDX 42 57 43 58 56 60 76 61 45 62 30 63 31 64 39 65 32 66 38 67
REMARK SMILES IDX 33 68 34 69 35 70 36 71 37 72 60 73 61 74 69 75 62 76 68 77
REMARK SMILES IDX 63 78 64 79 65 80 66 81 67 82 46 83 47 84 55 85 48 86 54 87
REMARK SMILES IDX 49 88 50 89 51 90 52 91 53 92
REMARK H PARENT 14 5 8 16 18 29 74 48 44 59
REMARK Flexibility Score: inf
ROOT
ATOM      1  C   UNL A   1      34.856  24.669  25.358  1.00  0.00     0.117 C 
ENDROOT
BRANCH   1   2
ATOM      2  N   UNL A   1      33.724  24.757  26.256  1.00  0.00    -0.355 N 
ATOM      3  C   UNL A   1      32.635  25.572  26.217  1.00  0.00     0.231 C 
ATOM      4  O   UNL A   1      31.683  25.217  26.926  1.00  0.00    -0.274 OA
ATOM      5  H   UNL A   1      33.745  24.129  27.012  1.00  0.00     0.163 HD
BRANCH   3   6
ATOM      6  C   UNL A   1      32.572  26.879  25.373  1.00  0.00     0.098 C 
ATOM      7  C   UNL A   1      31.273  27.656  25.793  1.00  0.00     0.023 C 
ATOM      8  C   UNL A   1      33.759  27.838  25.653  1.00  0.00     0.026 C 
ATOM      9  C   UNL A   1      31.301  28.226  27.215  1.00  0.00     0.002 C 
ATOM     10  C   UNL A   1      33.815  28.339  27.109  1.00  0.00    -0.013 C 
ATOM     11  C   UNL A   1      32.531  29.088  27.464  1.00  0.00     0.003 C 
ATOM     12  C   UNL A   1      35.034  29.237  27.323  1.00  0.00     0.007 C 
BRANCH   6  13
ATOM     13  C   UNL A   1      32.369  26.524  23.847  1.00  0.00     0.279 C 
BRANCH  13  14
ATOM     14  N   UNL A   1      30.997  26.532  23.325  1.00  0.00    -0.331 N 
ATOM     15  C   UNL A   1      30.510  25.212  22.925  1.00  0.00     0.333 C 
ATOM     16  H   UNL A   1      30.490  26.847  24.151  1.00  0.00     0.348 HD
BRANCH  14  17
ATOM     17  C   UNL A   1      30.679  27.520  22.274  1.00  0.00     0.319 C 
BRANCH  17  18
ATOM     18  C   UNL A   1      29.538  28.494  22.541  1.00  0.00     0.095 A 
ATOM     19  C   UNL A   1      28.833  32.072  22.001  1.00  0.00     0.067 C 
ATOM     20  C   UNL A   1      28.651  30.643  22.417  1.00  0.00     0.038 A 
ATOM     21  C   UNL A   1      27.448  30.219  22.973  1.00  0.00     0.023 A 
ATOM     22  N   UNL A   1      29.697  29.802  22.212  1.00  0.00    -0.252 NA
ATOM     23  C   UNL A   1      27.307  28.885  23.330  1.00  0.00     0.004 A 
ATOM     24  C   UNL A   1      28.361  28.009  23.111  1.00  0.00     0.030 A 
ENDBRANCH  17  18
ENDBRANCH  14  17
ENDBRANCH  13  14
ENDBRANCH   6  13
ENDBRANCH   3   6
ENDBRANCH   1   2
BRANCH   1  25
ATOM     25  C   UNL A   1      35.880  23.636  25.768  1.00  0.00     0.042 C 
BRANCH  25  26
ATOM     26  C   UNL A   1      37.178  23.758  25.000  1.00  0.00     0.118 C 
BRANCH  26  27
ATOM     27  N   UNL A   1      38.178  22.781  25.425  1.00  0.00    -0.352 N 
ATOM     28  C   UNL A   1      39.325  22.937  26.165  1.00  0.00     0.251 C 
ATOM     29  H   UNL A   1      37.999  21.857  25.133  1.00  0.00     0.163 HD
ATOM     30  O   UNL A   1      40.132  22.013  26.246  1.00  0.00    -0.269 OA
BRANCH  28  31
ATOM     31  C   UNL A   1      39.603  24.223  26.840  1.00  0.00     0.039 A 
ATOM     32  C   UNL A   1      39.095  24.453  28.120  1.00  0.00     0.014 A 
ATOM     33  C   UNL A   1      40.375  25.201  26.213  1.00  0.00     0.014 A 
ATOM     34  C   UNL A   1      39.434  25.627  28.798  1.00  0.00     0.010 A 
ATOM     35  C   UNL A   1      40.824  26.294  26.936  1.00  0.00     0.010 A 
ATOM     36  C   UNL A   1      40.340  26.535  28.228  1.00  0.00    -0.014 A 
BRANCH  36  37
ATOM     37  C   UNL A   1      40.770  27.769  28.934  1.00  0.00     0.031 A 
ATOM     38  C   UNL A   1      42.137  27.824  29.569  1.00  0.00     0.074 A 
ATOM     39  C   UNL A   1      39.912  28.799  29.075  1.00  0.00     0.049 A 
ATOM     40  N   UNL A   1      42.663  28.761  30.314  1.00  0.00    -0.248 NA
ATOM     41  C   UNL A   1      43.012  26.655  29.376  1.00  0.00     0.031 C 
ATOM     42  C   UNL A   1      38.543  28.846  28.552  1.00  0.00     0.029 A 
ATOM     43  N   UNL A   1      40.062  30.007  29.709  1.00  0.00    -0.354 N 
ATOM     44  C   UNL A   1      43.909  28.281  30.700  1.00  0.00     0.074 A 
ATOM     45  C   UNL A   1      44.034  26.945  30.163  1.00  0.00     0.031 C 
ATOM     46  C   UNL A   1      37.996  30.034  28.855  1.00  0.00     0.029 A 
ATOM     47  C   UNL A   1      38.952  30.814  29.632  1.00  0.00     0.049 A 
ATOM     48  H   UNL A   1      40.889  30.270  30.176  1.00  0.00     0.167 HD
ATOM     49  C   UNL A   1      44.878  28.904  31.411  1.00  0.00     0.031 A 
ATOM     50  C   UNL A   1      38.729  32.044  30.135  1.00  0.00     0.031 A 
ATOM     51  C   UNL A   1      44.761  30.245  31.912  1.00  0.00     0.049 A 
ATOM     52  C   UNL A   1      39.824  32.722  30.912  1.00  0.00     0.074 A 
ATOM     53  C   UNL A   1      45.707  30.997  32.586  1.00  0.00     0.029 A 
ATOM     54  N   UNL A   1      43.630  31.039  31.788  1.00  0.00    -0.354 N 
ATOM     55  N   UNL A   1      41.021  32.276  31.210  1.00  0.00    -0.248 NA
ATOM     56  C   UNL A   1      39.542  34.075  31.411  1.00  0.00     0.031 C 
ATOM     57  C   UNL A   1      45.130  32.227  32.914  1.00  0.00     0.029 A 
ATOM     58  C   UNL A   1      43.846  32.265  32.391  1.00  0.00     0.049 A 
ATOM     59  H   UNL A   1      42.797  30.769  31.338  1.00  0.00     0.167 HD
ATOM     60  C   UNL A   1      41.646  33.306  31.906  1.00  0.00     0.074 A 
ATOM     61  C   UNL A   1      40.699  34.400  31.971  1.00  0.00     0.031 C 
ATOM     62  C   UNL A   1      42.891  33.343  32.441  1.00  0.00     0.031 A 
BRANCH  49  63
ATOM     63  C   UNL A   1      46.148  28.138  31.678  1.00  0.00    -0.014 A 
ATOM     64  C   UNL A   1      46.301  27.367  32.845  1.00  0.00     0.010 A 
ATOM     65  C   UNL A   1      47.194  28.168  30.738  1.00  0.00     0.010 A 
ATOM     66  C   UNL A   1      47.492  26.678  33.088  1.00  0.00     0.020 A 
ATOM     67  C   UNL A   1      48.374  27.453  30.961  1.00  0.00     0.020 A 
ATOM     68  C   UNL A   1      48.523  26.727  32.145  1.00  0.00     0.054 A 
BRANCH  68  69
ATOM     69  S   UNL A   1      50.046  25.802  32.477  1.00  0.00     0.124 S 
ATOM     70  O   UNL A   1      50.686  25.795  31.164  1.00  0.00    -0.237 OA
ATOM     71  O   UNL A   1      50.704  26.622  33.491  1.00  0.00    -0.237 OA
ATOM     72  O   UNL A   1      49.569  24.503  32.944  1.00  0.00    -0.744 OA
ENDBRANCH  68  69
ENDBRANCH  49  63
BRANCH  50  73
ATOM     73  C   UNL A   1      37.424  32.721  29.897  1.00  0.00    -0.014 A 
ATOM     74  C   UNL A   1      37.272  33.623  28.829  1.00  0.00     0.010 A 
ATOM     75  C   UNL A   1      36.319  32.458  30.730  1.00  0.00     0.010 A 
ATOM     76  C   UNL A   1      36.049  34.264  28.610  1.00  0.00     0.020 A 
ATOM     77  C   UNL A   1      35.087  33.076  30.496  1.00  0.00     0.020 A 
ATOM     78  C   UNL A   1      34.963  33.985  29.443  1.00  0.00     0.054 A 
BRANCH  78  79
ATOM     79  S   UNL A   1      33.374  34.795  29.111  1.00  0.00     0.124 S 
ATOM     80  O   UNL A   1      33.795  36.073  28.549  1.00  0.00    -0.237 OA
ATOM     81  O   UNL A   1      32.739  33.869  28.175  1.00  0.00    -0.237 OA
ATOM     82  O   UNL A   1      32.744  34.866  30.428  1.00  0.00    -0.744 OA
ENDBRANCH  78  79
ENDBRANCH  50  73
BRANCH  62  83
ATOM     83  C   UNL A   1      43.320  34.620  33.111  1.00  0.00    -0.014 A 
ATOM     84  C   UNL A   1      43.872  35.682  32.374  1.00  0.00     0.010 A 
ATOM     85  C   UNL A   1      43.108  34.779  34.493  1.00  0.00     0.010 A 
ATOM     86  C   UNL A   1      44.234  36.871  33.014  1.00  0.00     0.020 A 
ATOM     87  C   UNL A   1      43.439  35.977  35.130  1.00  0.00     0.020 A 
ATOM     88  C   UNL A   1      44.013  37.010  34.388  1.00  0.00     0.054 A 
BRANCH  88  89
ATOM     89  S   UNL A   1      44.448  38.580  35.185  1.00  0.00     0.124 S 
ATOM     90  O   UNL A   1      43.670  39.541  34.407  1.00  0.00    -0.237 OA
ATOM     91  O   UNL A   1      44.001  38.376  36.561  1.00  0.00    -0.237 OA
ATOM     92  O   UNL A   1      45.896  38.667  35.014  1.00  0.00    -0.744 OA
ENDBRANCH  88  89
ENDBRANCH  62  83
ENDBRANCH  36  37
ENDBRANCH  28  31
ENDBRANCH  26  27
ENDBRANCH  25  26
ENDBRANCH   1  25
TORSDOF 17
ENDMDL
MODEL 2
REMARK VINA RESULT:     -10.8      1.839      4.129
REMARK SMILES Cc1cccc(C[N@@H+](C)C[C@]2(C(=O)NCCCNC(=O)c3ccc(-c4c5nc(c(-c6ccc(S(=O)(=O)[O-])cc6)c6ccc([nH]6)c(-c6ccc(S(=O)(=O)[O-])cc6)c6nc(c(-c7ccc(S(=O)(=O)[O-])cc7)c7ccc4[nH]7)C=C6)C=C5)cc3)CCC[C@H](C)C2)n1
REMARK SMILES IDX 15 1 14 2 12 3 13 4 11 6 81 7 86 8 82 9 84 10 83 11 85 12
REMARK SMILES IDX 10 13 8 14 9 15 7 17 6 18 1 19 2 20 3 21 87 22 4 23 5 24
REMARK SMILES IDX 16 25 17 26 18 27 19 28 20 30 21 31 22 32 80 33 23 34 79 35
REMARK SMILES IDX 24 36 25 37 26 38 73 39 27 40 78 41 72 42 74 43 28 44 77 45
REMARK SMILES IDX 71 46 70 47 29 49 59 50 40 51 58 52 41 53 44 54 57 55 75 56
REMARK SMILES IDX 42 57 43 58 56 60 76 61 45 62 30 63 31 64 39 65 32 66 38 67
REMARK SMILES IDX 33 68 34 69 35 70 36 71 37 72 60 73 61 74 69 75 62 76 68 77
REMARK SMILES IDX 63 78 64 79 65 80 66 81 67 82 46 83 47 84 55 85 48 86 54 87
REMARK SMILES IDX 49 88 50 89 51 90 52 91 53 92
REMARK H PARENT 14 5 8 16 18 29 74 48 44 59
REMARK Flexibility Score: inf
ROOT
ATOM      1  C   UNL A   1      34.624  24.314  25.157  1.00  0.00     0.117 C 
ENDROOT
BRANCH   1   2
ATOM      2  N   UNL A   1      33.564  24.720  26.056  1.00  0.00    -0.355 N 
ATOM      3  C   UNL A   1      32.216  24.747  25.867  1.00  0.00     0.231 C 
ATOM      4  O   UNL A   1      31.539  24.837  26.899  1.00  0.00    -0.274 OA
ATOM      5  H   UNL A   1      33.865  25.023  26.941  1.00  0.00     0.163 HD
BRANCH   3   6
ATOM      6  C   UNL A   1      31.547  24.698  24.462  1.00  0.00     0.098 C 
ATOM      7  C   UNL A   1      30.226  25.544  24.534  1.00  0.00     0.023 C 
ATOM      8  C   UNL A   1      32.417  25.349  23.354  1.00  0.00     0.026 C 
ATOM      9  C   UNL A   1      30.440  27.052  24.704  1.00  0.00     0.002 C 
ATOM     10  C   UNL A   1      32.687  26.847  23.584  1.00  0.00    -0.013 C 
ATOM     11  C   UNL A   1      31.371  27.623  23.644  1.00  0.00     0.003 C 
ATOM     12  C   UNL A   1      33.588  27.408  22.483  1.00  0.00     0.007 C 
BRANCH   6  13
ATOM     13  C   UNL A   1      31.079  23.224  24.140  1.00  0.00     0.279 C 
BRANCH  13  14
ATOM     14  N   UNL A   1      32.120  22.211  23.927  1.00  0.00    -0.331 N 
ATOM     15  C   UNL A   1      32.191  21.717  22.552  1.00  0.00     0.333 C 
ATOM     16  H   UNL A   1      32.953  22.761  24.135  1.00  0.00     0.348 HD
BRANCH  14  17
ATOM     17  C   UNL A   1      32.161  21.074  24.869  1.00  0.00     0.319 C 
BRANCH  17  18
ATOM     18  C   UNL A   1      33.330  20.104  24.755  1.00  0.00     0.095 A 
ATOM     19  C   UNL A   1      33.871  16.602  23.737  1.00  0.00     0.067 C 
ATOM     20  C   UNL A   1      34.154  17.993  24.222  1.00  0.00     0.038 A 
ATOM     21  C   UNL A   1      35.459  18.391  24.497  1.00  0.00     0.023 A 
ATOM     22  N   UNL A   1      33.092  18.827  24.360  1.00  0.00    -0.252 NA
ATOM     23  C   UNL A   1      35.687  19.691  24.927  1.00  0.00     0.004 A 
ATOM     24  C   UNL A   1      34.613  20.561  25.056  1.00  0.00     0.030 A 
ENDBRANCH  17  18
ENDBRANCH  14  17
ENDBRANCH  13  14
ENDBRANCH   6  13
ENDBRANCH   3   6
ENDBRANCH   1   2
BRANCH   1  25
ATOM     25  C   UNL A   1      35.877  23.850  25.863  1.00  0.00     0.042 C 
BRANCH  25  26
ATOM     26  C   UNL A   1      37.074  23.762  24.941  1.00  0.00     0.118 C 
BRANCH  26  27
ATOM     27  N   UNL A   1      38.065  22.790  25.396  1.00  0.00    -0.352 N 
ATOM     28  C   UNL A   1      39.195  22.954  26.161  1.00  0.00     0.251 C 
ATOM     29  H   UNL A   1      37.894  21.864  25.108  1.00  0.00     0.163 HD
ATOM     30  O   UNL A   1      40.001  22.033  26.267  1.00  0.00    -0.269 OA
BRANCH  28  31
ATOM     31  C   UNL A   1      39.455  24.246  26.831  1.00  0.00     0.039 A 
ATOM     32  C   UNL A   1      38.980  24.457  28.128  1.00  0.00     0.014 A 
ATOM     33  C   UNL A   1      40.178  25.248  26.185  1.00  0.00     0.014 A 
ATOM     34  C   UNL A   1      39.305  25.638  28.799  1.00  0.00     0.010 A 
ATOM     35  C   UNL A   1      40.617  26.352  26.899  1.00  0.00     0.010 A 
ATOM     36  C   UNL A   1      40.165  26.575  28.205  1.00  0.00    -0.014 A 
BRANCH  36  37
ATOM     37  C   UNL A   1      40.581  27.819  28.902  1.00  0.00     0.031 A 
ATOM     38  C   UNL A   1      41.940  27.889  29.552  1.00  0.00     0.074 A 
ATOM     39  C   UNL A   1      39.715  28.845  29.023  1.00  0.00     0.049 A 
ATOM     40  N   UNL A   1      42.452  28.837  30.293  1.00  0.00    -0.248 NA
ATOM     41  C   UNL A   1      42.824  26.723  29.381  1.00  0.00     0.031 C 
ATOM     42  C   UNL A   1      38.351  28.878  28.485  1.00  0.00     0.029 A 
ATOM     43  N   UNL A   1      39.851  30.061  29.645  1.00  0.00    -0.354 N 
ATOM     44  C   UNL A   1      43.696  28.368  30.697  1.00  0.00     0.074 A 
ATOM     45  C   UNL A   1      43.836  27.028  30.177  1.00  0.00     0.031 C 
ATOM     46  C   UNL A   1      37.794  30.066  28.768  1.00  0.00     0.029 A 
ATOM     47  C   UNL A   1      38.737  30.860  29.547  1.00  0.00     0.049 A 
ATOM     48  H   UNL A   1      40.670  30.334  30.119  1.00  0.00     0.167 HD
ATOM     49  C   UNL A   1      44.654  29.006  31.412  1.00  0.00     0.031 A 
ATOM     50  C   UNL A   1      38.501  32.094  30.034  1.00  0.00     0.031 A 
ATOM     51  C   UNL A   1      44.524  30.351  31.898  1.00  0.00     0.049 A 
ATOM     52  C   UNL A   1      39.583  32.787  30.816  1.00  0.00     0.074 A 
ATOM     53  C   UNL A   1      45.457  31.116  32.574  1.00  0.00     0.029 A 
ATOM     54  N   UNL A   1      43.389  31.136  31.753  1.00  0.00    -0.354 N 
ATOM     55  N   UNL A   1      40.779  32.352  31.132  1.00  0.00    -0.248 NA
ATOM     56  C   UNL A   1      39.287  34.143  31.297  1.00  0.00     0.031 C 
ATOM     57  C   UNL A   1      44.869  32.346  32.882  1.00  0.00     0.029 A 
ATOM     58  C   UNL A   1      43.591  32.371  32.344  1.00  0.00     0.049 A 
ATOM     59  H   UNL A   1      42.563  30.857  31.296  1.00  0.00     0.167 HD
ATOM     60  C   UNL A   1      41.391  33.393  31.823  1.00  0.00     0.074 A 
ATOM     61  C   UNL A   1      40.436  34.482  31.866  1.00  0.00     0.031 C 
ATOM     62  C   UNL A   1      42.629  33.443  32.372  1.00  0.00     0.031 A 
BRANCH  49  63
ATOM     63  C   UNL A   1      45.926  28.250  31.702  1.00  0.00    -0.014 A 
ATOM     64  C   UNL A   1      47.043  28.353  30.853  1.00  0.00     0.010 A 
ATOM     65  C   UNL A   1      46.015  27.447  32.854  1.00  0.00     0.010 A 
ATOM     66  C   UNL A   1      48.208  27.632  31.125  1.00  0.00     0.020 A 
ATOM     67  C   UNL A   1      47.190  26.750  33.147  1.00  0.00     0.020 A 
ATOM     68  C   UNL A   1      48.274  26.832  32.270  1.00  0.00     0.054 A 
BRANCH  68  69
ATOM     69  S   UNL A   1      49.808  25.928  32.610  1.00  0.00     0.124 S 
ATOM     70  O   UNL A   1      49.576  25.442  33.967  1.00  0.00    -0.237 OA
ATOM     71  O   UNL A   1      49.812  24.904  31.568  1.00  0.00    -0.237 OA
ATOM     72  O   UNL A   1      50.847  26.947  32.481  1.00  0.00    -0.744 OA
ENDBRANCH  68  69
ENDBRANCH  49  63
BRANCH  50  73
ATOM     73  C   UNL A   1      37.194  32.761  29.774  1.00  0.00    -0.014 A 
ATOM     74  C   UNL A   1      36.160  32.700  30.725  1.00  0.00     0.010 A 
ATOM     75  C   UNL A   1      36.980  33.473  28.579  1.00  0.00     0.010 A 
ATOM     76  C   UNL A   1      34.932  33.320  30.479  1.00  0.00     0.020 A 
ATOM     77  C   UNL A   1      35.762  34.118  28.342  1.00  0.00     0.020 A 
ATOM     78  C   UNL A   1      34.741  34.027  29.289  1.00  0.00     0.054 A 
BRANCH  78  79
ATOM     79  S   UNL A   1      33.154  34.862  29.013  1.00  0.00     0.124 S 
ATOM     80  O   UNL A   1      32.561  34.837  30.345  1.00  0.00    -0.237 OA
ATOM     81  O   UNL A   1      33.570  36.177  28.528  1.00  0.00    -0.237 OA
ATOM     82  O   UNL A   1      32.494  34.021  28.016  1.00  0.00    -0.744 OA
ENDBRANCH  78  79
ENDBRANCH  50  73
BRANCH  62  83
ATOM     83  C   UNL A   1      43.043  34.730  33.032  1.00  0.00    -0.014 A 
ATOM     84  C   UNL A   1      42.858  34.938  34.410  1.00  0.00     0.010 A 
ATOM     85  C   UNL A   1      43.685  35.722  32.267  1.00  0.00     0.010 A 
ATOM     86  C   UNL A   1      43.279  36.129  35.006  1.00  0.00     0.020 A 
ATOM     87  C   UNL A   1      44.136  36.900  32.866  1.00  0.00     0.020 A 
ATOM     88  C   UNL A   1      43.918  37.103  34.229  1.00  0.00     0.054 A 
BRANCH  88  89
ATOM     89  S   UNL A   1      44.498  38.619  35.037  1.00  0.00     0.124 S 
ATOM     90  O   UNL A   1      44.085  38.403  36.421  1.00  0.00    -0.237 OA
ATOM     91  O   UNL A   1      45.938  38.580  34.796  1.00  0.00    -0.237 OA
ATOM     92  O   UNL A   1      43.783  39.682  34.333  1.00  0.00    -0.744 OA
ENDBRANCH  88  89
ENDBRANCH  62  83
ENDBRANCH  36  37
ENDBRANCH  28  31
ENDBRANCH  26  27
ENDBRANCH  25  26
ENDBRANCH   1  25
TORSDOF 17
ENDMDL
MODEL 3
REMARK VINA RESULT:     -10.6      3.436      4.499
REMARK SMILES Cc1cccc(C[N@@H+](C)C[C@]2(C(=O)NCCCNC(=O)c3ccc(-c4c5nc(c(-c6ccc(S(=O)(=O)[O-])cc6)c6ccc([nH]6)c(-c6ccc(S(=O)(=O)[O-])cc6)c6nc(c(-c7ccc(S(=O)(=O)[O-])cc7)c7ccc4[nH]7)C=C6)C=C5)cc3)CCC[C@H](C)C2)n1
REMARK SMILES IDX 15 1 14 2 12 3 13 4 11 6 81 7 86 8 82 9 84 10 83 11 85 12
REMARK SMILES IDX 10 13 8 14 9 15 7 17 6 18 1 19 2 20 3 21 87 22 4 23 5 24
REMARK SMILES IDX 16 25 17 26 18 27 19 28 20 30 21 31 22 32 80 33 23 34 79 35
REMARK SMILES IDX 24 36 25 37 26 38 73 39 27 40 78 41 72 42 74 43 28 44 77 45
REMARK SMILES IDX 71 46 70 47 29 49 59 50 40 51 58 52 41 53 44 54 57 55 75 56
REMARK SMILES IDX 42 57 43 58 56 60 76 61 45 62 30 63 31 64 39 65 32 66 38 67
REMARK SMILES IDX 33 68 34 69 35 70 36 71 37 72 60 73 61 74 69 75 62 76 68 77
REMARK SMILES IDX 63 78 64 79 65 80 66 81 67 82 46 83 47 84 55 85 48 86 54 87
REMARK SMILES IDX 49 88 50 89 51 90 52 91 53 92
REMARK H PARENT 14 5 8 16 18 29 74 48 44 59
REMARK Flexibility Score: inf
ROOT
ATOM      1  C   UNL A   1      35.955  23.521  25.445  1.00  0.00     0.117 C 
ENDROOT
BRANCH   1   2
ATOM      2  N   UNL A   1      35.278  23.111  24.232  1.00  0.00    -0.355 N 
ATOM      3  C   UNL A   1      34.269  23.712  23.545  1.00  0.00     0.231 C 
ATOM      4  O   UNL A   1      34.103  23.306  22.387  1.00  0.00    -0.274 OA
ATOM      5  H   UNL A   1      35.598  22.265  23.846  1.00  0.00     0.163 HD
BRANCH   3   6
ATOM      6  C   UNL A   1      33.354  24.814  24.155  1.00  0.00     0.098 C 
ATOM      7  C   UNL A   1      32.029  24.853  23.313  1.00  0.00     0.023 C 
ATOM      8  C   UNL A   1      32.929  24.508  25.615  1.00  0.00     0.026 C 
ATOM      9  C   UNL A   1      31.138  23.615  23.465  1.00  0.00     0.002 C 
ATOM     10  C   UNL A   1      32.101  23.217  25.758  1.00  0.00    -0.013 C 
ATOM     11  C   UNL A   1      30.824  23.309  24.922  1.00  0.00     0.003 C 
ATOM     12  C   UNL A   1      31.761  22.954  27.225  1.00  0.00     0.007 C 
BRANCH   6  13
ATOM     13  C   UNL A   1      34.016  26.234  23.954  1.00  0.00     0.279 C 
BRANCH  13  14
ATOM     14  N   UNL A   1      33.459  27.358  24.716  1.00  0.00    -0.331 N 
ATOM     15  C   UNL A   1      33.333  28.592  23.941  1.00  0.00     0.333 C 
ATOM     16  H   UNL A   1      32.531  26.992  24.927  1.00  0.00     0.348 HD
BRANCH  14  17
ATOM     17  C   UNL A   1      34.067  27.652  26.029  1.00  0.00     0.319 C 
BRANCH  17  18
ATOM     18  C   UNL A   1      33.890  29.057  26.591  1.00  0.00     0.095 A 
ATOM     19  C   UNL A   1      31.311  31.693  26.562  1.00  0.00     0.067 C 
ATOM     20  C   UNL A   1      32.596  30.976  26.852  1.00  0.00     0.038 A 
ATOM     21  C   UNL A   1      33.562  31.562  27.664  1.00  0.00     0.023 A 
ATOM     22  N   UNL A   1      32.753  29.744  26.304  1.00  0.00    -0.252 NA
ATOM     23  C   UNL A   1      34.731  30.863  27.927  1.00  0.00     0.004 A 
ATOM     24  C   UNL A   1      34.900  29.594  27.389  1.00  0.00     0.030 A 
ENDBRANCH  17  18
ENDBRANCH  14  17
ENDBRANCH  13  14
ENDBRANCH   6  13
ENDBRANCH   3   6
ENDBRANCH   1   2
BRANCH   1  25
ATOM     25  C   UNL A   1      37.416  23.139  25.485  1.00  0.00     0.042 C 
BRANCH  25  26
ATOM     26  C   UNL A   1      38.247  24.078  26.334  1.00  0.00     0.118 C 
BRANCH  26  27
ATOM     27  N   UNL A   1      39.682  23.910  26.120  1.00  0.00    -0.352 N 
ATOM     28  C   UNL A   1      40.746  24.664  26.554  1.00  0.00     0.251 C 
ATOM     29  H   UNL A   1      39.927  23.127  25.577  1.00  0.00     0.163 HD
ATOM     30  O   UNL A   1      41.869  24.457  26.098  1.00  0.00    -0.269 OA
BRANCH  28  31
ATOM     31  C   UNL A   1      40.538  25.741  27.545  1.00  0.00     0.039 A 
ATOM     32  C   UNL A   1      39.543  25.600  28.516  1.00  0.00     0.014 A 
ATOM     33  C   UNL A   1      41.331  26.888  27.525  1.00  0.00     0.014 A 
ATOM     34  C   UNL A   1      39.407  26.571  29.511  1.00  0.00     0.010 A 
ATOM     35  C   UNL A   1      41.289  27.775  28.589  1.00  0.00     0.010 A 
ATOM     36  C   UNL A   1      40.310  27.643  29.582  1.00  0.00    -0.014 A 
BRANCH  36  37
ATOM     37  C   UNL A   1      40.236  28.670  30.653  1.00  0.00     0.031 A 
ATOM     38  C   UNL A   1      41.125  28.546  31.864  1.00  0.00     0.074 A 
ATOM     39  C   UNL A   1      39.321  29.657  30.578  1.00  0.00     0.049 A 
ATOM     40  N   UNL A   1      41.144  29.272  32.952  1.00  0.00    -0.248 NA
ATOM     41  C   UNL A   1      42.093  27.434  31.873  1.00  0.00     0.031 C 
ATOM     42  C   UNL A   1      38.367  29.854  29.482  1.00  0.00     0.029 A 
ATOM     43  N   UNL A   1      39.039  30.681  31.447  1.00  0.00    -0.354 N 
ATOM     44  C   UNL A   1      42.097  28.688  33.778  1.00  0.00     0.074 A 
ATOM     45  C   UNL A   1      42.586  27.511  33.098  1.00  0.00     0.031 C 
ATOM     46  C   UNL A   1      37.633  30.950  29.729  1.00  0.00     0.029 A 
ATOM     47  C   UNL A   1      38.028  31.508  31.018  1.00  0.00     0.049 A 
ATOM     48  H   UNL A   1      39.515  30.810  32.299  1.00  0.00     0.167 HD
ATOM     49  C   UNL A   1      42.549  29.108  34.983  1.00  0.00     0.031 A 
ATOM     50  C   UNL A   1      37.479  32.592  31.599  1.00  0.00     0.031 A 
ATOM     51  C   UNL A   1      42.083  30.298  35.640  1.00  0.00     0.049 A 
ATOM     52  C   UNL A   1      38.004  33.047  32.934  1.00  0.00     0.074 A 
ATOM     53  C   UNL A   1      42.520  30.851  36.829  1.00  0.00     0.029 A 
ATOM     54  N   UNL A   1      41.077  31.122  35.157  1.00  0.00    -0.354 N 
ATOM     55  N   UNL A   1      38.952  32.518  33.670  1.00  0.00    -0.248 NA
ATOM     56  C   UNL A   1      37.393  34.252  33.510  1.00  0.00     0.031 C 
ATOM     57  C   UNL A   1      41.744  31.984  37.092  1.00  0.00     0.029 A 
ATOM     58  C   UNL A   1      40.865  32.170  36.035  1.00  0.00     0.049 A 
ATOM     59  H   UNL A   1      40.587  30.983  34.314  1.00  0.00     0.167 HD
ATOM     60  C   UNL A   1      39.073  33.343  34.783  1.00  0.00     0.074 A 
ATOM     61  C   UNL A   1      38.110  34.413  34.614  1.00  0.00     0.031 C 
ATOM     62  C   UNL A   1      39.904  33.228  35.847  1.00  0.00     0.031 A 
BRANCH  49  63
ATOM     63  C   UNL A   1      43.606  28.273  35.661  1.00  0.00    -0.014 A 
ATOM     64  C   UNL A   1      43.258  27.241  36.551  1.00  0.00     0.010 A 
ATOM     65  C   UNL A   1      44.965  28.505  35.383  1.00  0.00     0.010 A 
ATOM     66  C   UNL A   1      44.249  26.488  37.186  1.00  0.00     0.020 A 
ATOM     67  C   UNL A   1      45.959  27.733  35.990  1.00  0.00     0.020 A 
ATOM     68  C   UNL A   1      45.594  26.740  36.903  1.00  0.00     0.054 A 
BRANCH  68  69
ATOM     69  S   UNL A   1      46.857  25.731  37.723  1.00  0.00     0.124 S 
ATOM     70  O   UNL A   1      46.289  25.565  39.058  1.00  0.00    -0.237 OA
ATOM     71  O   UNL A   1      46.888  24.525  36.899  1.00  0.00    -0.237 OA
ATOM     72  O   UNL A   1      48.060  26.558  37.656  1.00  0.00    -0.744 OA
ENDBRANCH  68  69
ENDBRANCH  49  63
BRANCH  50  73
ATOM     73  C   UNL A   1      36.386  33.334  30.911  1.00  0.00    -0.014 A 
ATOM     74  C   UNL A   1      35.116  33.447  31.505  1.00  0.00     0.010 A 
ATOM     75  C   UNL A   1      36.612  33.946  29.663  1.00  0.00     0.010 A 
ATOM     76  C   UNL A   1      34.088  34.137  30.857  1.00  0.00     0.020 A 
ATOM     77  C   UNL A   1      35.594  34.661  29.025  1.00  0.00     0.020 A 
ATOM     78  C   UNL A   1      34.334  34.743  29.621  1.00  0.00     0.054 A 
BRANCH  78  79
ATOM     79  S   UNL A   1      32.998  35.673  28.821  1.00  0.00     0.124 S 
ATOM     80  O   UNL A   1      33.732  36.724  28.126  1.00  0.00    -0.237 OA
ATOM     81  O   UNL A   1      32.377  34.661  27.968  1.00  0.00    -0.237 OA
ATOM     82  O   UNL A   1      32.174  36.120  29.943  1.00  0.00    -0.744 OA
ENDBRANCH  78  79
ENDBRANCH  50  73
BRANCH  62  83
ATOM     83  C   UNL A   1      39.842  34.305  36.896  1.00  0.00    -0.014 A 
ATOM     84  C   UNL A   1      40.597  35.484  36.778  1.00  0.00     0.010 A 
ATOM     85  C   UNL A   1      38.965  34.155  37.986  1.00  0.00     0.010 A 
ATOM     86  C   UNL A   1      40.499  36.484  37.749  1.00  0.00     0.020 A 
ATOM     87  C   UNL A   1      38.841  35.166  38.942  1.00  0.00     0.020 A 
ATOM     88  C   UNL A   1      39.619  36.318  38.825  1.00  0.00     0.054 A 
BRANCH  88  89
ATOM     89  S   UNL A   1      39.475  37.651  40.046  1.00  0.00     0.124 S 
ATOM     90  O   UNL A   1      39.361  36.906  41.296  1.00  0.00    -0.237 OA
ATOM     91  O   UNL A   1      40.723  38.388  39.864  1.00  0.00    -0.237 OA
ATOM     92  O   UNL A   1      38.270  38.368  39.636  1.00  0.00    -0.744 OA
ENDBRANCH  88  89
ENDBRANCH  62  83
ENDBRANCH  36  37
ENDBRANCH  28  31
ENDBRANCH  26  27
ENDBRANCH  25  26
ENDBRANCH   1  25
TORSDOF 17
ENDMDL
