MODEL 1
REMARK VINA RESULT:     -11.7      0.000      0.000
REMARK SMILES CCCc1cc2c(cc1Cl)C=C(C(=O)NCCCNC(=O)c1ccc(-c3c4nc(c(-c5ccc(S(=O)(=O)[O-])cc5)c5ccc([nH]5)c(-c5ccc(S(=O)(=O)[O-])cc5)c5nc(c(-c6ccc(S(=O)(=O)[O-])cc6)c6ccc3[nH]6)C=C5)C=C4)cc1)[C@@H](C(F)(F)F)O2
REMARK SMILES IDX 17 1 16 2 15 3 13 4 14 5 12 7 4 8 5 9 9 10 6 11 8 12 10 13
REMARK SMILES IDX 7 14 87 15 11 16 82 17 3 18 2 19 1 20 83 21 84 22 85 23
REMARK SMILES IDX 86 24 18 25 19 26 20 27 21 29 22 30 23 31 81 32 24 33 80 34
REMARK SMILES IDX 25 35 26 36 27 37 74 38 28 39 79 40 73 41 75 42 29 43 78 44
REMARK SMILES IDX 72 45 71 46 30 48 60 49 41 50 59 51 42 52 45 53 58 54 76 55
REMARK SMILES IDX 43 56 44 57 57 59 77 60 46 61 31 62 32 63 40 64 33 65 39 66
REMARK SMILES IDX 34 67 35 68 36 69 37 70 38 71 61 72 62 73 70 74 63 75 69 76
REMARK SMILES IDX 64 77 65 78 66 79 67 80 68 81 47 82 48 83 56 84 49 85 55 86
REMARK SMILES IDX 50 87 51 88 52 89 53 90 54 91
REMARK H PARENT 15 6 19 28 75 47 45 58
REMARK Flexibility Score: inf
ROOT
ATOM      1  C   UNL A   1      31.884  27.929  27.301  1.00  0.00     0.042 C 
ENDROOT
BRANCH   1   2
ATOM      2  C   UNL A   1      31.286  27.862  25.907  1.00  0.00     0.118 C 
BRANCH   2   3
ATOM      3  N   UNL A   1      32.298  27.992  24.868  1.00  0.00    -0.352 N 
ATOM      4  C   UNL A   1      33.076  27.161  24.139  1.00  0.00     0.251 C 
ATOM      5  O   UNL A   1      33.816  27.716  23.320  1.00  0.00    -0.270 OA
ATOM      6  H   UNL A   1      32.459  28.935  24.637  1.00  0.00     0.163 HD
BRANCH   4   7
ATOM      7  C   UNL A   1      33.094  25.674  24.265  1.00  0.00     0.067 C 
ATOM      8  C   UNL A   1      34.686  20.881  24.667  1.00  0.00    -0.026 A 
ATOM      9  C   UNL A   1      33.436  21.521  24.738  1.00  0.00     0.052 A 
ATOM     10  C   UNL A   1      35.820  21.679  24.447  1.00  0.00     0.045 A 
ATOM     11  C   UNL A   1      33.325  22.904  24.591  1.00  0.00     0.128 A 
ATOM     12  C   UNL A   1      35.697  23.059  24.244  1.00  0.00     0.032 A 
ATOM     13  Cl  UNL A   1      37.426  21.043  24.494  1.00  0.00    -0.084 Cl
ATOM     14  C   UNL A   1      34.447  23.677  24.320  1.00  0.00     0.019 A 
ATOM     15  O   UNL A   1      32.085  23.427  24.785  1.00  0.00    -0.475 OA
ATOM     16  C   UNL A   1      34.315  25.117  24.182  1.00  0.00     0.025 C 
ATOM     17  C   UNL A   1      31.867  24.826  24.458  1.00  0.00     0.314 C 
BRANCH   8  18
ATOM     18  C   UNL A   1      34.730  19.383  24.867  1.00  0.00     0.037 C 
BRANCH  18  19
ATOM     19  C   UNL A   1      33.441  18.644  24.484  1.00  0.00     0.001 C 
ATOM     20  C   UNL A   1      32.688  18.052  25.666  1.00  0.00     0.004 C 
ENDBRANCH  18  19
ENDBRANCH   8  18
BRANCH  17  21
ATOM     21  C   UNL A   1      30.902  24.862  23.258  1.00  0.00     0.429 C 
ATOM     22  F   UNL A   1      30.237  23.684  23.155  1.00  0.00    -0.167 F 
ATOM     23  F   UNL A   1      29.959  25.825  23.356  1.00  0.00    -0.167 F 
ATOM     24  F   UNL A   1      31.546  25.066  22.087  1.00  0.00    -0.167 F 
ENDBRANCH  17  21
ENDBRANCH   4   7
ENDBRANCH   2   3
ENDBRANCH   1   2
BRANCH   1  25
ATOM     25  C   UNL A   1      33.313  28.449  27.295  1.00  0.00     0.118 C 
BRANCH  25  26
ATOM     26  N   UNL A   1      33.374  29.903  27.440  1.00  0.00    -0.352 N 
ATOM     27  C   UNL A   1      34.357  30.709  27.963  1.00  0.00     0.251 C 
ATOM     28  H   UNL A   1      32.581  30.383  27.107  1.00  0.00     0.163 HD
ATOM     29  O   UNL A   1      34.108  31.885  28.216  1.00  0.00    -0.269 OA
BRANCH  27  30
ATOM     30  C   UNL A   1      35.698  30.155  28.234  1.00  0.00     0.039 A 
ATOM     31  C   UNL A   1      35.974  29.573  29.469  1.00  0.00     0.014 A 
ATOM     32  C   UNL A   1      36.692  30.221  27.254  1.00  0.00     0.014 A 
ATOM     33  C   UNL A   1      37.282  29.267  29.806  1.00  0.00     0.010 A 
ATOM     34  C   UNL A   1      37.988  29.784  27.552  1.00  0.00     0.010 A 
ATOM     35  C   UNL A   1      38.306  29.353  28.849  1.00  0.00    -0.014 A 
BRANCH  35  36
ATOM     36  C   UNL A   1      39.687  28.966  29.240  1.00  0.00     0.031 A 
ATOM     37  C   UNL A   1      40.508  29.847  30.144  1.00  0.00     0.074 A 
ATOM     38  C   UNL A   1      40.162  27.770  28.836  1.00  0.00     0.049 A 
ATOM     39  N   UNL A   1      41.714  29.640  30.607  1.00  0.00    -0.248 NA
ATOM     40  C   UNL A   1      39.912  31.119  30.588  1.00  0.00     0.031 C 
ATOM     41  C   UNL A   1      39.437  26.820  27.984  1.00  0.00     0.029 A 
ATOM     42  N   UNL A   1      41.337  27.120  29.122  1.00  0.00    -0.354 N 
ATOM     43  C   UNL A   1      42.027  30.756  31.375  1.00  0.00     0.074 A 
ATOM     44  C   UNL A   1      40.898  31.655  31.296  1.00  0.00     0.031 C 
ATOM     45  C   UNL A   1      40.139  25.684  27.893  1.00  0.00     0.029 A 
ATOM     46  C   UNL A   1      41.408  25.851  28.592  1.00  0.00     0.049 A 
ATOM     47  H   UNL A   1      42.060  27.523  29.654  1.00  0.00     0.167 HD
ATOM     48  C   UNL A   1      43.150  30.998  32.091  1.00  0.00     0.031 A 
ATOM     49  C   UNL A   1      42.384  24.925  28.645  1.00  0.00     0.031 A 
ATOM     50  C   UNL A   1      44.253  30.076  32.188  1.00  0.00     0.049 A 
ATOM     51  C   UNL A   1      43.642  25.249  29.399  1.00  0.00     0.074 A 
ATOM     52  C   UNL A   1      45.426  30.225  32.908  1.00  0.00     0.029 A 
ATOM     53  N   UNL A   1      44.320  28.839  31.566  1.00  0.00    -0.354 N 
ATOM     54  N   UNL A   1      43.915  26.312  30.118  1.00  0.00    -0.248 NA
ATOM     55  C   UNL A   1      44.725  24.259  29.346  1.00  0.00     0.031 C 
ATOM     56  C   UNL A   1      46.232  29.112  32.663  1.00  0.00     0.029 A 
ATOM     57  C   UNL A   1      45.528  28.230  31.859  1.00  0.00     0.049 A 
ATOM     58  H   UNL A   1      43.613  28.451  31.000  1.00  0.00     0.167 HD
ATOM     59  C   UNL A   1      45.197  26.112  30.614  1.00  0.00     0.074 A 
ATOM     60  C   UNL A   1      45.633  24.815  30.138  1.00  0.00     0.031 C 
ATOM     61  C   UNL A   1      45.947  26.934  31.386  1.00  0.00     0.031 A 
BRANCH  48  62
ATOM     62  C   UNL A   1      43.271  32.295  32.850  1.00  0.00    -0.014 A 
ATOM     63  C   UNL A   1      42.682  32.409  34.125  1.00  0.00     0.010 A 
ATOM     64  C   UNL A   1      43.796  33.444  32.235  1.00  0.00     0.010 A 
ATOM     65  C   UNL A   1      42.562  33.656  34.743  1.00  0.00     0.020 A 
ATOM     66  C   UNL A   1      43.703  34.690  32.863  1.00  0.00     0.020 A 
ATOM     67  C   UNL A   1      43.055  34.792  34.097  1.00  0.00     0.054 A 
BRANCH  67  68
ATOM     68  S   UNL A   1      42.806  36.414  34.873  1.00  0.00     0.124 S 
ATOM     69  O   UNL A   1      41.474  36.276  35.451  1.00  0.00    -0.237 OA
ATOM     70  O   UNL A   1      43.909  36.482  35.829  1.00  0.00    -0.237 OA
ATOM     71  O   UNL A   1      42.908  37.348  33.752  1.00  0.00    -0.744 OA
ENDBRANCH  67  68
ENDBRANCH  48  62
BRANCH  49  72
ATOM     72  C   UNL A   1      42.198  23.612  27.966  1.00  0.00    -0.014 A 
ATOM     73  C   UNL A   1      41.578  22.540  28.638  1.00  0.00     0.010 A 
ATOM     74  C   UNL A   1      42.689  23.404  26.665  1.00  0.00     0.010 A 
ATOM     75  C   UNL A   1      41.501  21.277  28.047  1.00  0.00     0.020 A 
ATOM     76  C   UNL A   1      42.579  22.150  26.054  1.00  0.00     0.020 A 
ATOM     77  C   UNL A   1      42.011  21.088  26.761  1.00  0.00     0.054 A 
BRANCH  77  78
ATOM     78  S   UNL A   1      41.915  19.435  26.023  1.00  0.00     0.124 S 
ATOM     79  O   UNL A   1      42.759  19.587  24.840  1.00  0.00    -0.237 OA
ATOM     80  O   UNL A   1      42.458  18.582  27.077  1.00  0.00    -0.237 OA
ATOM     81  O   UNL A   1      40.490  19.261  25.757  1.00  0.00    -0.744 OA
ENDBRANCH  77  78
ENDBRANCH  49  72
BRANCH  61  82
ATOM     82  C   UNL A   1      47.326  26.475  31.782  1.00  0.00    -0.014 A 
ATOM     83  C   UNL A   1      48.371  26.515  30.841  1.00  0.00     0.010 A 
ATOM     84  C   UNL A   1      47.552  25.879  33.035  1.00  0.00     0.010 A 
ATOM     85  C   UNL A   1      49.606  25.930  31.128  1.00  0.00     0.020 A 
ATOM     86  C   UNL A   1      48.797  25.323  33.339  1.00  0.00     0.020 A 
ATOM     87  C   UNL A   1      49.806  25.326  32.373  1.00  0.00     0.054 A 
BRANCH  87  88
ATOM     88  S   UNL A   1      51.402  24.534  32.711  1.00  0.00     0.124 S 
ATOM     89  O   UNL A   1      51.214  23.206  32.134  1.00  0.00    -0.237 OA
ATOM     90  O   UNL A   1      52.346  25.399  32.007  1.00  0.00    -0.237 OA
ATOM     91  O   UNL A   1      51.501  24.572  34.169  1.00  0.00    -0.744 OA
ENDBRANCH  87  88
ENDBRANCH  61  82
ENDBRANCH  35  36
ENDBRANCH  27  30
ENDBRANCH  25  26
ENDBRANCH   1  25
TORSDOF 16
ENDMDL
MODEL 2
REMARK VINA RESULT:     -11.6      3.246      8.830
REMARK SMILES CCCc1cc2c(cc1Cl)C=C(C(=O)NCCCNC(=O)c1ccc(-c3c4nc(c(-c5ccc(S(=O)(=O)[O-])cc5)c5ccc([nH]5)c(-c5ccc(S(=O)(=O)[O-])cc5)c5nc(c(-c6ccc(S(=O)(=O)[O-])cc6)c6ccc3[nH]6)C=C5)C=C4)cc1)[C@@H](C(F)(F)F)O2
REMARK SMILES IDX 17 1 16 2 15 3 13 4 14 5 12 7 4 8 5 9 9 10 6 11 8 12 10 13
REMARK SMILES IDX 7 14 87 15 11 16 82 17 3 18 2 19 1 20 83 21 84 22 85 23
REMARK SMILES IDX 86 24 18 25 19 26 20 27 21 29 22 30 23 31 81 32 24 33 80 34
REMARK SMILES IDX 25 35 26 36 27 37 74 38 28 39 79 40 73 41 75 42 29 43 78 44
REMARK SMILES IDX 72 45 71 46 30 48 60 49 41 50 59 51 42 52 45 53 58 54 76 55
REMARK SMILES IDX 43 56 44 57 57 59 77 60 46 61 31 62 32 63 40 64 33 65 39 66
REMARK SMILES IDX 34 67 35 68 36 69 37 70 38 71 61 72 62 73 70 74 63 75 69 76
REMARK SMILES IDX 64 77 65 78 66 79 67 80 68 81 47 82 48 83 56 84 49 85 55 86
REMARK SMILES IDX 50 87 51 88 52 89 53 90 54 91
REMARK H PARENT 15 6 19 28 75 47 45 58
REMARK Flexibility Score: inf
ROOT
ATOM      1  C   UNL A   1      35.496  22.746  26.082  1.00  0.00     0.042 C 
ENDROOT
BRANCH   1   2
ATOM      2  C   UNL A   1      34.373  23.762  25.978  1.00  0.00     0.118 C 
BRANCH   2   3
ATOM      3  N   UNL A   1      33.082  23.133  25.741  1.00  0.00    -0.352 N 
ATOM      4  C   UNL A   1      31.919  23.463  25.136  1.00  0.00     0.251 C 
ATOM      5  O   UNL A   1      31.049  22.586  25.153  1.00  0.00    -0.270 OA
ATOM      6  H   UNL A   1      33.047  22.227  26.124  1.00  0.00     0.163 HD
BRANCH   4   7
ATOM      7  C   UNL A   1      31.638  24.773  24.479  1.00  0.00     0.067 C 
ATOM      8  C   UNL A   1      29.250  28.895  22.755  1.00  0.00    -0.026 A 
ATOM      9  C   UNL A   1      30.592  28.480  22.819  1.00  0.00     0.052 A 
ATOM     10  C   UNL A   1      28.271  28.036  23.278  1.00  0.00     0.045 A 
ATOM     11  C   UNL A   1      30.940  27.251  23.381  1.00  0.00     0.128 A 
ATOM     12  C   UNL A   1      28.620  26.780  23.790  1.00  0.00     0.032 A 
ATOM     13  Cl  UNL A   1      26.609  28.491  23.405  1.00  0.00    -0.084 Cl
ATOM     14  C   UNL A   1      29.958  26.386  23.847  1.00  0.00     0.019 A 
ATOM     15  O   UNL A   1      32.271  26.999  23.488  1.00  0.00    -0.475 OA
ATOM     16  C   UNL A   1      30.338  25.115  24.441  1.00  0.00     0.025 C 
ATOM     17  C   UNL A   1      32.692  25.665  23.883  1.00  0.00     0.314 C 
BRANCH   8  18
ATOM     18  C   UNL A   1      28.955  30.253  22.160  1.00  0.00     0.037 C 
BRANCH  18  19
ATOM     19  C   UNL A   1      28.608  31.344  23.182  1.00  0.00     0.001 C 
ATOM     20  C   UNL A   1      28.875  32.760  22.697  1.00  0.00     0.004 C 
ENDBRANCH  18  19
ENDBRANCH   8  18
BRANCH  17  21
ATOM     21  C   UNL A   1      33.409  25.043  22.671  1.00  0.00     0.429 C 
ATOM     22  F   UNL A   1      33.686  25.998  21.748  1.00  0.00    -0.167 F 
ATOM     23  F   UNL A   1      34.589  24.463  22.985  1.00  0.00    -0.167 F 
ATOM     24  F   UNL A   1      32.660  24.096  22.062  1.00  0.00    -0.167 F 
ENDBRANCH  17  21
ENDBRANCH   4   7
ENDBRANCH   2   3
ENDBRANCH   1   2
BRANCH   1  25
ATOM     25  C   UNL A   1      36.813  23.278  25.537  1.00  0.00     0.118 C 
BRANCH  25  26
ATOM     26  N   UNL A   1      37.945  22.423  25.893  1.00  0.00    -0.352 N 
ATOM     27  C   UNL A   1      39.181  22.743  26.402  1.00  0.00     0.251 C 
ATOM     28  H   UNL A   1      37.797  21.461  25.744  1.00  0.00     0.163 HD
ATOM     29  O   UNL A   1      40.076  21.900  26.398  1.00  0.00    -0.269 OA
BRANCH  27  30
ATOM     30  C   UNL A   1      39.433  24.097  26.931  1.00  0.00     0.039 A 
ATOM     31  C   UNL A   1      40.043  25.057  26.126  1.00  0.00     0.014 A 
ATOM     32  C   UNL A   1      39.066  24.414  28.242  1.00  0.00     0.014 A 
ATOM     33  C   UNL A   1      40.488  26.242  26.689  1.00  0.00     0.010 A 
ATOM     34  C   UNL A   1      39.397  25.667  28.769  1.00  0.00     0.010 A 
ATOM     35  C   UNL A   1      40.158  26.572  28.013  1.00  0.00    -0.014 A 
BRANCH  35  36
ATOM     36  C   UNL A   1      40.612  27.877  28.561  1.00  0.00     0.031 A 
ATOM     37  C   UNL A   1      39.642  29.012  28.755  1.00  0.00     0.074 A 
ATOM     38  C   UNL A   1      41.895  28.001  28.959  1.00  0.00     0.049 A 
ATOM     39  N   UNL A   1      39.866  30.201  29.253  1.00  0.00    -0.248 NA
ATOM     40  C   UNL A   1      38.243  28.795  28.344  1.00  0.00     0.031 C 
ATOM     41  C   UNL A   1      42.916  26.953  28.847  1.00  0.00     0.029 A 
ATOM     42  N   UNL A   1      42.554  29.032  29.580  1.00  0.00    -0.354 N 
ATOM     43  C   UNL A   1      38.652  30.877  29.196  1.00  0.00     0.074 A 
ATOM     44  C   UNL A   1      37.695  29.979  28.589  1.00  0.00     0.031 C 
ATOM     45  C   UNL A   1      44.035  27.359  29.459  1.00  0.00     0.029 A 
ATOM     46  C   UNL A   1      43.854  28.730  29.920  1.00  0.00     0.049 A 
ATOM     47  H   UNL A   1      42.138  29.905  29.765  1.00  0.00     0.167 HD
ATOM     48  C   UNL A   1      38.364  32.127  29.625  1.00  0.00     0.031 A 
ATOM     49  C   UNL A   1      44.804  29.471  30.521  1.00  0.00     0.031 A 
ATOM     50  C   UNL A   1      39.321  32.998  30.259  1.00  0.00     0.049 A 
ATOM     51  C   UNL A   1      44.468  30.876  30.931  1.00  0.00     0.074 A 
ATOM     52  C   UNL A   1      39.116  34.277  30.747  1.00  0.00     0.029 A 
ATOM     53  N   UNL A   1      40.648  32.684  30.506  1.00  0.00    -0.354 N 
ATOM     54  N   UNL A   1      43.313  31.494  30.868  1.00  0.00    -0.248 NA
ATOM     55  C   UNL A   1      45.558  31.688  31.487  1.00  0.00     0.031 C 
ATOM     56  C   UNL A   1      40.334  34.763  31.223  1.00  0.00     0.029 A 
ATOM     57  C   UNL A   1      41.281  33.758  31.108  1.00  0.00     0.049 A 
ATOM     58  H   UNL A   1      41.077  31.826  30.285  1.00  0.00     0.167 HD
ATOM     59  C   UNL A   1      43.534  32.763  31.387  1.00  0.00     0.074 A 
ATOM     60  C   UNL A   1      44.926  32.815  31.787  1.00  0.00     0.031 C 
ATOM     61  C   UNL A   1      42.665  33.794  31.511  1.00  0.00     0.031 A 
BRANCH  48  62
ATOM     62  C   UNL A   1      36.964  32.657  29.451  1.00  0.00    -0.014 A 
ATOM     63  C   UNL A   1      36.601  33.274  28.237  1.00  0.00     0.010 A 
ATOM     64  C   UNL A   1      36.075  32.714  30.538  1.00  0.00     0.010 A 
ATOM     65  C   UNL A   1      35.405  33.988  28.133  1.00  0.00     0.020 A 
ATOM     66  C   UNL A   1      34.863  33.404  30.428  1.00  0.00     0.020 A 
ATOM     67  C   UNL A   1      34.553  34.066  29.236  1.00  0.00     0.054 A 
BRANCH  67  68
ATOM     68  S   UNL A   1      33.051  35.076  29.110  1.00  0.00     0.124 S 
ATOM     69  O   UNL A   1      32.311  34.394  28.052  1.00  0.00    -0.237 OA
ATOM     70  O   UNL A   1      32.482  34.969  30.451  1.00  0.00    -0.237 OA
ATOM     71  O   UNL A   1      33.559  36.402  28.762  1.00  0.00    -0.744 OA
ENDBRANCH  67  68
ENDBRANCH  48  62
BRANCH  49  72
ATOM     72  C   UNL A   1      46.153  28.888  30.768  1.00  0.00    -0.014 A 
ATOM     73  C   UNL A   1      47.210  29.123  29.867  1.00  0.00     0.010 A 
ATOM     74  C   UNL A   1      46.378  28.049  31.873  1.00  0.00     0.010 A 
ATOM     75  C   UNL A   1      48.444  28.489  30.034  1.00  0.00     0.020 A 
ATOM     76  C   UNL A   1      47.625  27.443  32.066  1.00  0.00     0.020 A 
ATOM     77  C   UNL A   1      48.640  27.645  31.129  1.00  0.00     0.054 A 
BRANCH  77  78
ATOM     78  S   UNL A   1      50.244  26.821  31.314  1.00  0.00     0.124 S 
ATOM     79  O   UNL A   1      49.859  25.411  31.300  1.00  0.00    -0.237 OA
ATOM     80  O   UNL A   1      50.979  27.283  30.140  1.00  0.00    -0.237 OA
ATOM     81  O   UNL A   1      50.740  27.321  32.593  1.00  0.00    -0.744 OA
ENDBRANCH  77  78
ENDBRANCH  49  72
BRANCH  61  82
ATOM     82  C   UNL A   1      43.171  35.082  32.107  1.00  0.00    -0.014 A 
ATOM     83  C   UNL A   1      42.891  35.384  33.453  1.00  0.00     0.010 A 
ATOM     84  C   UNL A   1      43.802  36.047  31.303  1.00  0.00     0.010 A 
ATOM     85  C   UNL A   1      43.192  36.645  33.972  1.00  0.00     0.020 A 
ATOM     86  C   UNL A   1      44.135  37.297  31.829  1.00  0.00     0.020 A 
ATOM     87  C   UNL A   1      43.802  37.597  33.152  1.00  0.00     0.054 A 
BRANCH  87  88
ATOM     88  S   UNL A   1      44.146  39.242  33.833  1.00  0.00     0.124 S 
ATOM     89  O   UNL A   1      42.830  39.872  33.793  1.00  0.00    -0.237 OA
ATOM     90  O   UNL A   1      44.659  38.937  35.166  1.00  0.00    -0.237 OA
ATOM     91  O   UNL A   1      45.131  39.798  32.907  1.00  0.00    -0.744 OA
ENDBRANCH  87  88
ENDBRANCH  61  82
ENDBRANCH  35  36
ENDBRANCH  27  30
ENDBRANCH  25  26
ENDBRANCH   1  25
TORSDOF 16
ENDMDL
MODEL 3
REMARK VINA RESULT:     -11.6      3.077      8.679
REMARK SMILES CCCc1cc2c(cc1Cl)C=C(C(=O)NCCCNC(=O)c1ccc(-c3c4nc(c(-c5ccc(S(=O)(=O)[O-])cc5)c5ccc([nH]5)c(-c5ccc(S(=O)(=O)[O-])cc5)c5nc(c(-c6ccc(S(=O)(=O)[O-])cc6)c6ccc3[nH]6)C=C5)C=C4)cc1)[C@@H](C(F)(F)F)O2
REMARK SMILES IDX 17 1 16 2 15 3 13 4 14 5 12 7 4 8 5 9 9 10 6 11 8 12 10 13
REMARK SMILES IDX 7 14 87 15 11 16 82 17 3 18 2 19 1 20 83 21 84 22 85 23
REMARK SMILES IDX 86 24 18 25 19 26 20 27 21 29 22 30 23 31 81 32 24 33 80 34
REMARK SMILES IDX 25 35 26 36 27 37 74 38 28 39 79 40 73 41 75 42 29 43 78 44
REMARK SMILES IDX 72 45 71 46 30 48 60 49 41 50 59 51 42 52 45 53 58 54 76 55
REMARK SMILES IDX 43 56 44 57 57 59 77 60 46 61 31 62 32 63 40 64 33 65 39 66
REMARK SMILES IDX 34 67 35 68 36 69 37 70 38 71 61 72 62 73 70 74 63 75 69 76
REMARK SMILES IDX 64 77 65 78 66 79 67 80 68 81 47 82 48 83 56 84 49 85 55 86
REMARK SMILES IDX 50 87 51 88 52 89 53 90 54 91
REMARK H PARENT 15 6 19 28 75 47 45 58
REMARK Flexibility Score: inf
ROOT
ATOM      1  C   UNL A   1      36.250  22.349  24.574  1.00  0.00     0.042 C 
ENDROOT
BRANCH   1   2
ATOM      2  C   UNL A   1      35.627  21.028  24.988  1.00  0.00     0.118 C 
BRANCH   2   3
ATOM      3  N   UNL A   1      34.305  20.839  24.409  1.00  0.00    -0.352 N 
ATOM      4  C   UNL A   1      33.140  21.523  24.365  1.00  0.00     0.251 C 
ATOM      5  O   UNL A   1      32.235  20.981  23.721  1.00  0.00    -0.270 OA
ATOM      6  H   UNL A   1      34.243  19.985  23.922  1.00  0.00     0.163 HD
BRANCH   4   7
ATOM      7  C   UNL A   1      32.894  22.839  25.024  1.00  0.00     0.067 C 
ATOM      8  C   UNL A   1      32.469  27.819  25.853  1.00  0.00    -0.026 A 
ATOM      9  C   UNL A   1      32.160  26.661  26.588  1.00  0.00     0.052 A 
ATOM     10  C   UNL A   1      33.019  27.657  24.572  1.00  0.00     0.045 A 
ATOM     11  C   UNL A   1      32.395  25.389  26.062  1.00  0.00     0.128 A 
ATOM     12  C   UNL A   1      33.305  26.380  24.072  1.00  0.00     0.032 A 
ATOM     13  Cl  UNL A   1      33.298  28.988  23.506  1.00  0.00    -0.084 Cl
ATOM     14  C   UNL A   1      32.989  25.241  24.815  1.00  0.00     0.019 A 
ATOM     15  O   UNL A   1      31.959  24.343  26.813  1.00  0.00    -0.475 OA
ATOM     16  C   UNL A   1      33.215  23.911  24.277  1.00  0.00     0.025 C 
ATOM     17  C   UNL A   1      32.345  23.000  26.415  1.00  0.00     0.314 C 
BRANCH   8  18
ATOM     18  C   UNL A   1      32.157  29.160  26.477  1.00  0.00     0.037 C 
BRANCH  18  19
ATOM     19  C   UNL A   1      33.354  30.112  26.592  1.00  0.00     0.001 C 
ATOM     20  C   UNL A   1      34.443  29.632  27.540  1.00  0.00     0.004 C 
ENDBRANCH  18  19
ENDBRANCH   8  18
BRANCH  17  21
ATOM     21  C   UNL A   1      33.281  22.458  27.510  1.00  0.00     0.429 C 
ATOM     22  F   UNL A   1      34.495  23.060  27.431  1.00  0.00    -0.167 F 
ATOM     23  F   UNL A   1      32.827  22.681  28.764  1.00  0.00    -0.167 F 
ATOM     24  F   UNL A   1      33.483  21.125  27.401  1.00  0.00    -0.167 F 
ENDBRANCH  17  21
ENDBRANCH   4   7
ENDBRANCH   2   3
ENDBRANCH   1   2
BRANCH   1  25
ATOM     25  C   UNL A   1      37.119  22.950  25.668  1.00  0.00     0.118 C 
BRANCH  25  26
ATOM     26  N   UNL A   1      38.327  22.161  25.911  1.00  0.00    -0.352 N 
ATOM     27  C   UNL A   1      39.576  22.547  26.336  1.00  0.00     0.251 C 
ATOM     28  H   UNL A   1      38.229  21.196  25.743  1.00  0.00     0.163 HD
ATOM     29  O   UNL A   1      40.519  21.766  26.239  1.00  0.00    -0.269 OA
BRANCH  27  30
ATOM     30  C   UNL A   1      39.781  23.900  26.888  1.00  0.00     0.039 A 
ATOM     31  C   UNL A   1      40.404  24.880  26.118  1.00  0.00     0.014 A 
ATOM     32  C   UNL A   1      39.357  24.196  28.187  1.00  0.00     0.014 A 
ATOM     33  C   UNL A   1      40.804  26.066  26.710  1.00  0.00     0.010 A 
ATOM     34  C   UNL A   1      39.643  25.449  28.739  1.00  0.00     0.010 A 
ATOM     35  C   UNL A   1      40.417  26.376  28.023  1.00  0.00    -0.014 A 
BRANCH  35  36
ATOM     36  C   UNL A   1      40.824  27.683  28.602  1.00  0.00     0.031 A 
ATOM     37  C   UNL A   1      39.829  28.803  28.756  1.00  0.00     0.074 A 
ATOM     38  C   UNL A   1      42.084  27.822  29.064  1.00  0.00     0.049 A 
ATOM     39  N   UNL A   1      40.011  29.991  29.271  1.00  0.00    -0.248 NA
ATOM     40  C   UNL A   1      38.456  28.570  28.274  1.00  0.00     0.031 C 
ATOM     41  C   UNL A   1      43.124  26.789  28.996  1.00  0.00     0.029 A 
ATOM     42  N   UNL A   1      42.697  28.858  29.724  1.00  0.00    -0.354 N 
ATOM     43  C   UNL A   1      38.792  30.650  29.159  1.00  0.00     0.074 A 
ATOM     44  C   UNL A   1      37.880  29.744  28.500  1.00  0.00     0.031 C 
ATOM     45  C   UNL A   1      44.206  27.207  29.666  1.00  0.00     0.029 A 
ATOM     46  C   UNL A   1      43.982  28.572  30.126  1.00  0.00     0.049 A 
ATOM     47  H   UNL A   1      42.259  29.723  29.894  1.00  0.00     0.167 HD
ATOM     48  C   UNL A   1      38.466  31.893  29.582  1.00  0.00     0.031 A 
ATOM     49  C   UNL A   1      44.891  29.321  30.779  1.00  0.00     0.031 A 
ATOM     50  C   UNL A   1      39.377  32.772  30.269  1.00  0.00     0.049 A 
ATOM     51  C   UNL A   1      44.515  30.718  31.181  1.00  0.00     0.074 A 
ATOM     52  C   UNL A   1      39.129  34.045  30.755  1.00  0.00     0.029 A 
ATOM     53  N   UNL A   1      40.695  32.476  30.579  1.00  0.00    -0.354 N 
ATOM     54  N   UNL A   1      43.355  31.320  31.064  1.00  0.00    -0.248 NA
ATOM     55  C   UNL A   1      45.564  31.541  31.796  1.00  0.00     0.031 C 
ATOM     56  C   UNL A   1      40.315  34.545  31.293  1.00  0.00     0.029 A 
ATOM     57  C   UNL A   1      41.282  33.554  31.219  1.00  0.00     0.049 A 
ATOM     58  H   UNL A   1      41.146  31.625  30.374  1.00  0.00     0.167 HD
ATOM     59  C   UNL A   1      43.532  32.588  31.603  1.00  0.00     0.074 A 
ATOM     60  C   UNL A   1      44.902  32.656  32.072  1.00  0.00     0.031 C 
ATOM     61  C   UNL A   1      42.643  33.606  31.690  1.00  0.00     0.031 A 
BRANCH  48  62
ATOM     62  C   UNL A   1      37.068  32.405  29.343  1.00  0.00    -0.014 A 
ATOM     63  C   UNL A   1      36.779  33.105  28.154  1.00  0.00     0.010 A 
ATOM     64  C   UNL A   1      36.099  32.359  30.360  1.00  0.00     0.010 A 
ATOM     65  C   UNL A   1      35.576  33.800  28.013  1.00  0.00     0.020 A 
ATOM     66  C   UNL A   1      34.881  33.030  30.210  1.00  0.00     0.020 A 
ATOM     67  C   UNL A   1      34.643  33.774  29.051  1.00  0.00     0.054 A 
BRANCH  67  68
ATOM     68  S   UNL A   1      33.127  34.758  28.887  1.00  0.00     0.124 S 
ATOM     69  O   UNL A   1      33.636  36.021  28.363  1.00  0.00    -0.237 OA
ATOM     70  O   UNL A   1      32.330  33.962  27.957  1.00  0.00    -0.237 OA
ATOM     71  O   UNL A   1      32.605  34.813  30.252  1.00  0.00    -0.744 OA
ENDBRANCH  67  68
ENDBRANCH  48  62
BRANCH  49  72
ATOM     72  C   UNL A   1      46.234  28.755  31.088  1.00  0.00    -0.014 A 
ATOM     73  C   UNL A   1      47.268  28.804  30.133  1.00  0.00     0.010 A 
ATOM     74  C   UNL A   1      46.474  28.114  32.316  1.00  0.00     0.010 A 
ATOM     75  C   UNL A   1      48.493  28.177  30.376  1.00  0.00     0.020 A 
ATOM     76  C   UNL A   1      47.713  27.519  32.579  1.00  0.00     0.020 A 
ATOM     77  C   UNL A   1      48.704  27.530  31.595  1.00  0.00     0.054 A 
BRANCH  77  78
ATOM     78  S   UNL A   1      50.295  26.709  31.879  1.00  0.00     0.124 S 
ATOM     79  O   UNL A   1      50.429  26.811  33.331  1.00  0.00    -0.237 OA
ATOM     80  O   UNL A   1      50.057  25.364  31.363  1.00  0.00    -0.237 OA
ATOM     81  O   UNL A   1      51.238  27.513  31.106  1.00  0.00    -0.744 OA
ENDBRANCH  77  78
ENDBRANCH  49  72
BRANCH  61  82
ATOM     82  C   UNL A   1      43.100  34.896  32.319  1.00  0.00    -0.014 A 
ATOM     83  C   UNL A   1      42.845  35.136  33.682  1.00  0.00     0.010 A 
ATOM     84  C   UNL A   1      43.657  35.921  31.534  1.00  0.00     0.010 A 
ATOM     85  C   UNL A   1      43.097  36.391  34.240  1.00  0.00     0.020 A 
ATOM     86  C   UNL A   1      43.943  37.167  32.097  1.00  0.00     0.020 A 
ATOM     87  C   UNL A   1      43.633  37.403  33.439  1.00  0.00     0.054 A 
BRANCH  87  88
ATOM     88  S   UNL A   1      43.913  39.038  34.171  1.00  0.00     0.124 S 
ATOM     89  O   UNL A   1      45.213  39.404  33.616  1.00  0.00    -0.237 OA
ATOM     90  O   UNL A   1      42.776  39.810  33.676  1.00  0.00    -0.237 OA
ATOM     91  O   UNL A   1      43.901  38.776  35.609  1.00  0.00    -0.744 OA
ENDBRANCH  87  88
ENDBRANCH  61  82
ENDBRANCH  35  36
ENDBRANCH  27  30
ENDBRANCH  25  26
ENDBRANCH   1  25
TORSDOF 16
ENDMDL
