MODEL 1
REMARK VINA RESULT:     -11.2      0.000      0.000
REMARK SMILES CCC[C@@]1(C(=O)NCCCNC(=O)c2ccc(-c3c4nc(c(-c5ccc(S(=O)(=O)[O-])cc5)c5ccc([nH]5)c(-c5ccc(S(=O)(=O)[O-])cc5)c5nc(c(-c6ccc(S(=O)(=O)[O-])cc6)c6ccc3[nH]6)C=C5)C=C4)cc2)CCCN(C(=O)CCn2cncn2)C1
REMARK SMILES IDX 8 1 7 2 5 3 6 4 4 6 74 7 87 8 75 9 77 10 76 11 3 12 2 13
REMARK SMILES IDX 1 14 78 15 79 16 80 17 81 18 82 19 83 20 86 21 84 22 85 23
REMARK SMILES IDX 9 24 10 25 11 26 12 27 13 29 14 30 15 31 73 32 16 33 72 34
REMARK SMILES IDX 17 35 18 36 19 37 66 38 20 39 71 40 65 41 67 42 21 43 70 44
REMARK SMILES IDX 64 45 63 46 22 48 52 49 33 50 51 51 34 52 37 53 50 54 68 55
REMARK SMILES IDX 35 56 36 57 49 59 69 60 38 61 23 62 24 63 32 64 25 65 31 66
REMARK SMILES IDX 26 67 27 68 28 69 29 70 30 71 53 72 54 73 62 74 55 75 61 76
REMARK SMILES IDX 56 77 57 78 58 79 59 80 60 81 39 82 40 83 48 84 41 85 47 86
REMARK SMILES IDX 42 87 43 88 44 89 45 90 46 91
REMARK H PARENT 7 5 11 28 67 47 37 58
REMARK Flexibility Score: inf
ROOT
ATOM      1  C   UNL A   1      33.019  29.553  26.102  1.00  0.00     0.117 C 
ENDROOT
BRANCH   1   2
ATOM      2  N   UNL A   1      33.670  29.387  24.816  1.00  0.00    -0.355 N 
ATOM      3  C   UNL A   1      33.967  28.325  24.026  1.00  0.00     0.228 C 
ATOM      4  O   UNL A   1      34.735  28.582  23.092  1.00  0.00    -0.274 OA
ATOM      5  H   UNL A   1      33.962  30.243  24.426  1.00  0.00     0.163 HD
BRANCH   3   6
ATOM      6  C   UNL A   1      33.329  26.926  24.182  1.00  0.00     0.067 C 
ATOM      7  C   UNL A   1      33.496  26.020  22.930  1.00  0.00     0.020 C 
ATOM      8  C   UNL A   1      31.789  27.070  24.384  1.00  0.00     0.136 C 
ATOM      9  C   UNL A   1      32.782  26.596  21.707  1.00  0.00     0.023 C 
ATOM     10  N   UNL A   1      31.088  27.574  23.200  1.00  0.00    -0.342 N 
ATOM     11  C   UNL A   1      31.298  26.799  21.983  1.00  0.00     0.119 C 
BRANCH   6  12
ATOM     12  C   UNL A   1      33.924  26.214  25.435  1.00  0.00     0.018 C 
BRANCH  12  13
ATOM     13  C   UNL A   1      34.103  24.682  25.415  1.00  0.00    -0.002 C 
ATOM     14  C   UNL A   1      35.475  24.120  25.754  1.00  0.00     0.004 C 
ENDBRANCH  12  13
ENDBRANCH   6  12
BRANCH  10  15
ATOM     15  C   UNL A   1      30.231  28.650  23.366  1.00  0.00     0.224 C 
ATOM     16  O   UNL A   1      30.300  29.407  24.339  1.00  0.00    -0.275 OA
BRANCH  15  17
ATOM     17  C   UNL A   1      29.166  28.925  22.331  1.00  0.00     0.124 C 
BRANCH  17  18
ATOM     18  C   UNL A   1      28.079  29.844  22.881  1.00  0.00     0.156 C 
BRANCH  18  19
ATOM     19  N   UNL A   1      28.018  31.142  22.242  1.00  0.00    -0.252 N 
ATOM     20  C   UNL A   1      28.258  32.359  22.805  1.00  0.00     0.219 A 
ATOM     21  N   UNL A   1      27.749  31.268  20.930  1.00  0.00    -0.160 NA
ATOM     22  N   UNL A   1      28.077  33.301  21.911  1.00  0.00    -0.224 NA
ATOM     23  C   UNL A   1      27.803  32.594  20.776  1.00  0.00     0.246 A 
ENDBRANCH  18  19
ENDBRANCH  17  18
ENDBRANCH  15  17
ENDBRANCH  10  15
ENDBRANCH   3   6
ENDBRANCH   1   2
BRANCH   1  24
ATOM     24  C   UNL A   1      33.832  28.878  27.210  1.00  0.00     0.042 C 
BRANCH  24  25
ATOM     25  C   UNL A   1      35.201  29.521  27.465  1.00  0.00     0.118 C 
BRANCH  25  26
ATOM     26  N   UNL A   1      35.237  30.293  28.699  1.00  0.00    -0.352 N 
ATOM     27  C   UNL A   1      36.255  30.477  29.605  1.00  0.00     0.251 C 
ATOM     28  H   UNL A   1      34.398  30.757  28.922  1.00  0.00     0.163 HD
ATOM     29  O   UNL A   1      36.010  31.051  30.663  1.00  0.00    -0.269 OA
BRANCH  27  30
ATOM     30  C   UNL A   1      37.626  29.977  29.340  1.00  0.00     0.039 A 
ATOM     31  C   UNL A   1      38.065  29.916  28.013  1.00  0.00     0.014 A 
ATOM     32  C   UNL A   1      38.462  29.525  30.365  1.00  0.00     0.014 A 
ATOM     33  C   UNL A   1      39.356  29.462  27.719  1.00  0.00     0.010 A 
ATOM     34  C   UNL A   1      39.771  29.128  30.076  1.00  0.00     0.010 A 
ATOM     35  C   UNL A   1      40.235  29.097  28.752  1.00  0.00    -0.014 A 
BRANCH  35  36
ATOM     36  C   UNL A   1      41.645  28.715  28.461  1.00  0.00     0.031 A 
ATOM     37  C   UNL A   1      42.741  29.748  28.460  1.00  0.00     0.074 A 
ATOM     38  C   UNL A   1      41.934  27.437  28.143  1.00  0.00     0.049 A 
ATOM     39  N   UNL A   1      44.011  29.603  28.178  1.00  0.00    -0.248 NA
ATOM     40  C   UNL A   1      42.358  31.127  28.803  1.00  0.00     0.031 C 
ATOM     41  C   UNL A   1      40.964  26.340  28.080  1.00  0.00     0.029 A 
ATOM     42  N   UNL A   1      43.124  26.842  27.803  1.00  0.00    -0.354 N 
ATOM     43  C   UNL A   1      44.576  30.868  28.296  1.00  0.00     0.074 A 
ATOM     44  C   UNL A   1      43.500  31.777  28.633  1.00  0.00     0.031 C 
ATOM     45  C   UNL A   1      41.600  25.207  27.748  1.00  0.00     0.029 A 
ATOM     46  C   UNL A   1      43.013  25.499  27.525  1.00  0.00     0.049 A 
ATOM     47  H   UNL A   1      43.978  27.331  27.762  1.00  0.00     0.167 HD
ATOM     48  C   UNL A   1      45.872  31.239  28.151  1.00  0.00     0.031 A 
ATOM     49  C   UNL A   1      43.936  24.602  27.122  1.00  0.00     0.031 A 
ATOM     50  C   UNL A   1      46.942  30.335  27.813  1.00  0.00     0.049 A 
ATOM     51  C   UNL A   1      45.362  25.045  26.936  1.00  0.00     0.074 A 
ATOM     52  C   UNL A   1      48.294  30.610  27.693  1.00  0.00     0.029 A 
ATOM     53  N   UNL A   1      46.785  28.985  27.536  1.00  0.00    -0.354 N 
ATOM     54  N   UNL A   1      45.885  26.235  27.115  1.00  0.00    -0.248 NA
ATOM     55  C   UNL A   1      46.324  24.022  26.506  1.00  0.00     0.031 C 
ATOM     56  C   UNL A   1      48.944  29.442  27.281  1.00  0.00     0.029 A 
ATOM     57  C   UNL A   1      48.009  28.421  27.215  1.00  0.00     0.049 A 
ATOM     58  H   UNL A   1      45.928  28.499  27.563  1.00  0.00     0.167 HD
ATOM     59  C   UNL A   1      47.243  26.095  26.847  1.00  0.00     0.074 A 
ATOM     60  C   UNL A   1      47.462  24.702  26.511  1.00  0.00     0.031 C 
ATOM     61  C   UNL A   1      48.220  27.035  26.880  1.00  0.00     0.031 A 
BRANCH  48  62
ATOM     62  C   UNL A   1      46.209  32.697  28.344  1.00  0.00    -0.014 A 
ATOM     63  C   UNL A   1      46.558  33.203  29.608  1.00  0.00     0.010 A 
ATOM     64  C   UNL A   1      46.229  33.562  27.234  1.00  0.00     0.010 A 
ATOM     65  C   UNL A   1      46.881  34.554  29.768  1.00  0.00     0.020 A 
ATOM     66  C   UNL A   1      46.581  34.908  27.384  1.00  0.00     0.020 A 
ATOM     67  C   UNL A   1      46.888  35.398  28.654  1.00  0.00     0.054 A 
BRANCH  67  68
ATOM     68  S   UNL A   1      47.332  37.142  28.887  1.00  0.00     0.124 S 
ATOM     69  O   UNL A   1      47.704  37.170  30.300  1.00  0.00    -0.237 OA
ATOM     70  O   UNL A   1      48.434  37.320  27.945  1.00  0.00    -0.237 OA
ATOM     71  O   UNL A   1      46.107  37.862  28.552  1.00  0.00    -0.744 OA
ENDBRANCH  67  68
ENDBRANCH  48  62
BRANCH  49  72
ATOM     72  C   UNL A   1      43.538  23.188  26.871  1.00  0.00    -0.014 A 
ATOM     73  C   UNL A   1      43.732  22.605  25.606  1.00  0.00     0.010 A 
ATOM     74  C   UNL A   1      42.968  22.416  27.900  1.00  0.00     0.010 A 
ATOM     75  C   UNL A   1      43.346  21.282  25.370  1.00  0.00     0.020 A 
ATOM     76  C   UNL A   1      42.611  21.084  27.676  1.00  0.00     0.020 A 
ATOM     77  C   UNL A   1      42.791  20.528  26.408  1.00  0.00     0.054 A 
BRANCH  77  78
ATOM     78  S   UNL A   1      42.346  18.798  26.093  1.00  0.00     0.124 S 
ATOM     79  O   UNL A   1      43.331  18.410  25.087  1.00  0.00    -0.237 OA
ATOM     80  O   UNL A   1      42.512  18.186  27.410  1.00  0.00    -0.237 OA
ATOM     81  O   UNL A   1      40.966  18.879  25.621  1.00  0.00    -0.744 OA
ENDBRANCH  77  78
ENDBRANCH  49  72
BRANCH  61  82
ATOM     82  C   UNL A   1      49.628  26.587  26.583  1.00  0.00    -0.014 A 
ATOM     83  C   UNL A   1      50.143  26.603  25.273  1.00  0.00     0.010 A 
ATOM     84  C   UNL A   1      50.468  26.196  27.641  1.00  0.00     0.010 A 
ATOM     85  C   UNL A   1      51.459  26.203  25.026  1.00  0.00     0.020 A 
ATOM     86  C   UNL A   1      51.794  25.826  27.403  1.00  0.00     0.020 A 
ATOM     87  C   UNL A   1      52.278  25.818  26.093  1.00  0.00     0.054 A 
BRANCH  87  88
ATOM     88  S   UNL A   1      53.995  25.347  25.750  1.00  0.00     0.124 S 
ATOM     89  O   UNL A   1      53.825  24.162  24.914  1.00  0.00    -0.237 OA
ATOM     90  O   UNL A   1      54.521  26.528  25.069  1.00  0.00    -0.237 OA
ATOM     91  O   UNL A   1      54.558  25.099  27.075  1.00  0.00    -0.744 OA
ENDBRANCH  87  88
ENDBRANCH  61  82
ENDBRANCH  35  36
ENDBRANCH  27  30
ENDBRANCH  25  26
ENDBRANCH  24  25
ENDBRANCH   1  24
TORSDOF 19
ENDMDL
MODEL 2
REMARK VINA RESULT:     -11.1      2.540      3.068
REMARK SMILES CCC[C@@]1(C(=O)NCCCNC(=O)c2ccc(-c3c4nc(c(-c5ccc(S(=O)(=O)[O-])cc5)c5ccc([nH]5)c(-c5ccc(S(=O)(=O)[O-])cc5)c5nc(c(-c6ccc(S(=O)(=O)[O-])cc6)c6ccc3[nH]6)C=C5)C=C4)cc2)CCCN(C(=O)CCn2cncn2)C1
REMARK SMILES IDX 8 1 7 2 5 3 6 4 4 6 74 7 87 8 75 9 77 10 76 11 3 12 2 13
REMARK SMILES IDX 1 14 78 15 79 16 80 17 81 18 82 19 83 20 86 21 84 22 85 23
REMARK SMILES IDX 9 24 10 25 11 26 12 27 13 29 14 30 15 31 73 32 16 33 72 34
REMARK SMILES IDX 17 35 18 36 19 37 66 38 20 39 71 40 65 41 67 42 21 43 70 44
REMARK SMILES IDX 64 45 63 46 22 48 52 49 33 50 51 51 34 52 37 53 50 54 68 55
REMARK SMILES IDX 35 56 36 57 49 59 69 60 38 61 23 62 24 63 32 64 25 65 31 66
REMARK SMILES IDX 26 67 27 68 28 69 29 70 30 71 53 72 54 73 62 74 55 75 61 76
REMARK SMILES IDX 56 77 57 78 58 79 59 80 60 81 39 82 40 83 48 84 41 85 47 86
REMARK SMILES IDX 42 87 43 88 44 89 45 90 46 91
REMARK H PARENT 7 5 11 28 67 47 37 58
REMARK Flexibility Score: inf
ROOT
ATOM      1  C   UNL A   1      31.772  28.682  25.868  1.00  0.00     0.117 C 
ENDROOT
BRANCH   1   2
ATOM      2  N   UNL A   1      32.772  28.777  24.821  1.00  0.00    -0.355 N 
ATOM      3  C   UNL A   1      33.490  27.878  24.102  1.00  0.00     0.228 C 
ATOM      4  O   UNL A   1      34.414  28.370  23.446  1.00  0.00    -0.274 OA
ATOM      5  H   UNL A   1      32.975  29.709  24.575  1.00  0.00     0.163 HD
BRANCH   3   6
ATOM      6  C   UNL A   1      33.139  26.376  23.998  1.00  0.00     0.067 C 
ATOM      7  C   UNL A   1      33.652  25.703  22.694  1.00  0.00     0.020 C 
ATOM      8  C   UNL A   1      31.588  26.199  23.969  1.00  0.00     0.136 C 
ATOM      9  C   UNL A   1      33.004  26.302  21.447  1.00  0.00     0.023 C 
ATOM     10  N   UNL A   1      30.962  26.725  22.753  1.00  0.00    -0.342 N 
ATOM     11  C   UNL A   1      31.486  26.183  21.505  1.00  0.00     0.119 C 
BRANCH   6  12
ATOM     12  C   UNL A   1      33.696  25.619  25.241  1.00  0.00     0.018 C 
BRANCH  12  13
ATOM     13  C   UNL A   1      32.784  24.620  25.985  1.00  0.00    -0.002 C 
ATOM     14  C   UNL A   1      33.441  23.438  26.680  1.00  0.00     0.004 C 
ENDBRANCH  12  13
ENDBRANCH   6  12
BRANCH  10  15
ATOM     15  C   UNL A   1      29.887  27.587  22.901  1.00  0.00     0.224 C 
ATOM     16  O   UNL A   1      28.842  27.250  23.465  1.00  0.00    -0.275 OA
BRANCH  15  17
ATOM     17  C   UNL A   1      29.976  28.994  22.359  1.00  0.00     0.124 C 
BRANCH  17  18
ATOM     18  C   UNL A   1      29.097  29.954  23.155  1.00  0.00     0.156 C 
BRANCH  18  19
ATOM     19  N   UNL A   1      28.652  31.112  22.408  1.00  0.00    -0.252 N 
ATOM     20  C   UNL A   1      28.535  32.394  22.852  1.00  0.00     0.219 A 
ATOM     21  N   UNL A   1      28.342  31.030  21.102  1.00  0.00    -0.160 NA
ATOM     22  N   UNL A   1      28.077  33.154  21.887  1.00  0.00    -0.224 NA
ATOM     23  C   UNL A   1      28.006  32.294  20.830  1.00  0.00     0.246 A 
ENDBRANCH  18  19
ENDBRANCH  17  18
ENDBRANCH  15  17
ENDBRANCH  10  15
ENDBRANCH   3   6
ENDBRANCH   1   2
BRANCH   1  24
ATOM     24  C   UNL A   1      32.417  28.270  27.195  1.00  0.00     0.042 C 
BRANCH  24  25
ATOM     25  C   UNL A   1      33.807  28.874  27.431  1.00  0.00     0.118 C 
BRANCH  25  26
ATOM     26  N   UNL A   1      33.751  30.268  27.846  1.00  0.00    -0.352 N 
ATOM     27  C   UNL A   1      34.684  31.044  28.492  1.00  0.00     0.251 C 
ATOM     28  H   UNL A   1      32.909  30.730  27.631  1.00  0.00     0.163 HD
ATOM     29  O   UNL A   1      34.358  32.162  28.881  1.00  0.00    -0.269 OA
BRANCH  27  30
ATOM     30  C   UNL A   1      36.059  30.548  28.747  1.00  0.00     0.039 A 
ATOM     31  C   UNL A   1      36.973  30.553  27.687  1.00  0.00     0.014 A 
ATOM     32  C   UNL A   1      36.445  30.037  29.989  1.00  0.00     0.014 A 
ATOM     33  C   UNL A   1      38.284  30.106  27.887  1.00  0.00     0.010 A 
ATOM     34  C   UNL A   1      37.770  29.646  30.203  1.00  0.00     0.010 A 
ATOM     35  C   UNL A   1      38.706  29.681  29.157  1.00  0.00    -0.014 A 
BRANCH  35  36
ATOM     36  C   UNL A   1      40.124  29.303  29.409  1.00  0.00     0.031 A 
ATOM     37  C   UNL A   1      41.096  30.296  29.992  1.00  0.00     0.074 A 
ATOM     38  C   UNL A   1      40.556  28.074  29.062  1.00  0.00     0.049 A 
ATOM     39  N   UNL A   1      42.376  30.156  30.228  1.00  0.00    -0.248 NA
ATOM     40  C   UNL A   1      40.565  31.625  30.338  1.00  0.00     0.031 C 
ATOM     41  C   UNL A   1      39.727  27.024  28.463  1.00  0.00     0.029 A 
ATOM     42  N   UNL A   1      41.800  27.499  29.151  1.00  0.00    -0.354 N 
ATOM     43  C   UNL A   1      42.806  31.377  30.736  1.00  0.00     0.074 A 
ATOM     44  C   UNL A   1      41.659  32.260  30.734  1.00  0.00     0.031 C 
ATOM     45  C   UNL A   1      40.478  25.930  28.262  1.00  0.00     0.029 A 
ATOM     46  C   UNL A   1      41.852  26.211  28.669  1.00  0.00     0.049 A 
ATOM     47  H   UNL A   1      42.583  27.966  29.525  1.00  0.00     0.167 HD
ATOM     48  C   UNL A   1      44.039  31.728  31.177  1.00  0.00     0.031 A 
ATOM     49  C   UNL A   1      42.885  25.354  28.553  1.00  0.00     0.031 A 
ATOM     50  C   UNL A   1      45.182  30.850  31.178  1.00  0.00     0.049 A 
ATOM     51  C   UNL A   1      44.251  25.778  29.020  1.00  0.00     0.074 A 
ATOM     52  C   UNL A   1      46.459  31.102  31.651  1.00  0.00     0.029 A 
ATOM     53  N   UNL A   1      45.191  29.556  30.678  1.00  0.00    -0.354 N 
ATOM     54  N   UNL A   1      44.622  26.917  29.556  1.00  0.00    -0.248 NA
ATOM     55  C   UNL A   1      45.336  24.798  28.877  1.00  0.00     0.031 C 
ATOM     56  C   UNL A   1      47.255  29.984  31.380  1.00  0.00     0.029 A 
ATOM     57  C   UNL A   1      46.458  29.009  30.803  1.00  0.00     0.049 A 
ATOM     58  H   UNL A   1      44.412  29.095  30.291  1.00  0.00     0.167 HD
ATOM     59  C   UNL A   1      45.977  26.778  29.841  1.00  0.00     0.074 A 
ATOM     60  C   UNL A   1      46.354  25.440  29.433  1.00  0.00     0.031 C 
ATOM     61  C   UNL A   1      46.828  27.677  30.393  1.00  0.00     0.031 A 
BRANCH  48  62
ATOM     62  C   UNL A   1      44.226  33.135  31.689  1.00  0.00    -0.014 A 
ATOM     63  C   UNL A   1      44.052  33.446  33.049  1.00  0.00     0.010 A 
ATOM     64  C   UNL A   1      44.633  34.152  30.804  1.00  0.00     0.010 A 
ATOM     65  C   UNL A   1      44.241  34.753  33.509  1.00  0.00     0.020 A 
ATOM     66  C   UNL A   1      44.853  35.454  31.266  1.00  0.00     0.020 A 
ATOM     67  C   UNL A   1      44.639  35.749  32.613  1.00  0.00     0.054 A 
BRANCH  67  68
ATOM     68  S   UNL A   1      44.898  37.430  33.242  1.00  0.00     0.124 S 
ATOM     69  O   UNL A   1      46.355  37.498  33.328  1.00  0.00    -0.237 OA
ATOM     70  O   UNL A   1      44.292  38.258  32.202  1.00  0.00    -0.237 OA
ATOM     71  O   UNL A   1      44.199  37.434  34.524  1.00  0.00    -0.744 OA
ENDBRANCH  67  68
ENDBRANCH  48  62
BRANCH  49  72
ATOM     72  C   UNL A   1      42.666  24.000  27.971  1.00  0.00    -0.014 A 
ATOM     73  C   UNL A   1      42.831  23.779  26.592  1.00  0.00     0.010 A 
ATOM     74  C   UNL A   1      42.296  22.922  28.796  1.00  0.00     0.010 A 
ATOM     75  C   UNL A   1      42.613  22.510  26.047  1.00  0.00     0.020 A 
ATOM     76  C   UNL A   1      42.107  21.645  28.258  1.00  0.00     0.020 A 
ATOM     77  C   UNL A   1      42.255  21.450  26.884  1.00  0.00     0.054 A 
BRANCH  77  78
ATOM     78  S   UNL A   1      42.028  19.802  26.162  1.00  0.00     0.124 S 
ATOM     79  O   UNL A   1      42.456  18.931  27.253  1.00  0.00    -0.237 OA
ATOM     80  O   UNL A   1      40.598  19.785  25.863  1.00  0.00    -0.237 OA
ATOM     81  O   UNL A   1      42.902  19.816  24.992  1.00  0.00    -0.744 OA
ENDBRANCH  77  78
ENDBRANCH  49  72
BRANCH  61  82
ATOM     82  C   UNL A   1      48.250  27.236  30.630  1.00  0.00    -0.014 A 
ATOM     83  C   UNL A   1      49.260  27.475  29.680  1.00  0.00     0.010 A 
ATOM     84  C   UNL A   1      48.590  26.620  31.848  1.00  0.00     0.010 A 
ATOM     85  C   UNL A   1      50.576  27.076  29.932  1.00  0.00     0.020 A 
ATOM     86  C   UNL A   1      49.909  26.248  32.117  1.00  0.00     0.020 A 
ATOM     87  C   UNL A   1      50.893  26.465  31.150  1.00  0.00     0.054 A 
BRANCH  87  88
ATOM     88  S   UNL A   1      52.616  25.997  31.469  1.00  0.00     0.124 S 
ATOM     89  O   UNL A   1      53.163  25.910  30.119  1.00  0.00    -0.237 OA
ATOM     90  O   UNL A   1      53.106  27.112  32.276  1.00  0.00    -0.237 OA
ATOM     91  O   UNL A   1      52.504  24.725  32.179  1.00  0.00    -0.744 OA
ENDBRANCH  87  88
ENDBRANCH  61  82
ENDBRANCH  35  36
ENDBRANCH  27  30
ENDBRANCH  25  26
ENDBRANCH  24  25
ENDBRANCH   1  24
TORSDOF 19
ENDMDL
MODEL 3
REMARK VINA RESULT:     -11.1      5.911     10.570
REMARK SMILES CCC[C@@]1(C(=O)NCCCNC(=O)c2ccc(-c3c4nc(c(-c5ccc(S(=O)(=O)[O-])cc5)c5ccc([nH]5)c(-c5ccc(S(=O)(=O)[O-])cc5)c5nc(c(-c6ccc(S(=O)(=O)[O-])cc6)c6ccc3[nH]6)C=C5)C=C4)cc2)CCCN(C(=O)CCn2cncn2)C1
REMARK SMILES IDX 8 1 7 2 5 3 6 4 4 6 74 7 87 8 75 9 77 10 76 11 3 12 2 13
REMARK SMILES IDX 1 14 78 15 79 16 80 17 81 18 82 19 83 20 86 21 84 22 85 23
REMARK SMILES IDX 9 24 10 25 11 26 12 27 13 29 14 30 15 31 73 32 16 33 72 34
REMARK SMILES IDX 17 35 18 36 19 37 66 38 20 39 71 40 65 41 67 42 21 43 70 44
REMARK SMILES IDX 64 45 63 46 22 48 52 49 33 50 51 51 34 52 37 53 50 54 68 55
REMARK SMILES IDX 35 56 36 57 49 59 69 60 38 61 23 62 24 63 32 64 25 65 31 66
REMARK SMILES IDX 26 67 27 68 28 69 29 70 30 71 53 72 54 73 62 74 55 75 61 76
REMARK SMILES IDX 56 77 57 78 58 79 59 80 60 81 39 82 40 83 48 84 41 85 47 86
REMARK SMILES IDX 42 87 43 88 44 89 45 90 46 91
REMARK H PARENT 7 5 11 28 67 47 37 58
REMARK Flexibility Score: inf
ROOT
ATOM      1  C   UNL A   1      32.969  26.623  25.563  1.00  0.00     0.117 C 
ENDROOT
BRANCH   1   2
ATOM      2  N   UNL A   1      32.782  25.327  26.187  1.00  0.00    -0.355 N 
ATOM      3  C   UNL A   1      33.198  24.065  25.912  1.00  0.00     0.228 C 
ATOM      4  O   UNL A   1      32.634  23.186  26.572  1.00  0.00    -0.274 OA
ATOM      5  H   UNL A   1      32.225  25.373  26.998  1.00  0.00     0.163 HD
BRANCH   3   6
ATOM      6  C   UNL A   1      34.356  23.728  24.944  1.00  0.00     0.067 C 
ATOM      7  C   UNL A   1      34.224  24.408  23.553  1.00  0.00     0.020 C 
ATOM      8  C   UNL A   1      34.369  22.195  24.654  1.00  0.00     0.136 C 
ATOM      9  C   UNL A   1      32.985  23.930  22.797  1.00  0.00     0.023 C 
ATOM     10  N   UNL A   1      33.210  21.734  23.886  1.00  0.00    -0.342 N 
ATOM     11  C   UNL A   1      33.003  22.418  22.614  1.00  0.00     0.119 C 
BRANCH   6  12
ATOM     12  C   UNL A   1      35.716  24.117  25.598  1.00  0.00     0.018 C 
BRANCH  12  13
ATOM     13  C   UNL A   1      37.026  23.582  24.983  1.00  0.00    -0.002 C 
ATOM     14  C   UNL A   1      38.064  22.987  25.921  1.00  0.00     0.004 C 
ENDBRANCH  12  13
ENDBRANCH   6  12
BRANCH  10  15
ATOM     15  C   UNL A   1      32.499  20.651  24.375  1.00  0.00     0.224 C 
ATOM     16  O   UNL A   1      31.647  20.766  25.261  1.00  0.00    -0.275 OA
BRANCH  15  17
ATOM     17  C   UNL A   1      32.759  19.271  23.819  1.00  0.00     0.124 C 
BRANCH  17  18
ATOM     18  C   UNL A   1      33.918  18.589  24.539  1.00  0.00     0.156 C 
BRANCH  18  19
ATOM     19  N   UNL A   1      33.666  17.210  24.901  1.00  0.00    -0.252 N 
ATOM     20  C   UNL A   1      34.552  16.176  24.907  1.00  0.00     0.219 A 
ATOM     21  N   UNL A   1      32.461  16.809  25.344  1.00  0.00    -0.160 NA
ATOM     22  N   UNL A   1      33.939  15.074  25.271  1.00  0.00    -0.224 NA
ATOM     23  C   UNL A   1      32.678  15.509  25.560  1.00  0.00     0.246 A 
ENDBRANCH  18  19
ENDBRANCH  17  18
ENDBRANCH  15  17
ENDBRANCH  10  15
ENDBRANCH   3   6
ENDBRANCH   1   2
BRANCH   1  24
ATOM     24  C   UNL A   1      33.756  27.559  26.485  1.00  0.00     0.042 C 
BRANCH  24  25
ATOM     25  C   UNL A   1      34.336  28.792  25.781  1.00  0.00     0.118 C 
BRANCH  25  26
ATOM     26  N   UNL A   1      33.730  30.035  26.236  1.00  0.00    -0.352 N 
ATOM     27  C   UNL A   1      34.086  30.875  27.264  1.00  0.00     0.251 C 
ATOM     28  H   UNL A   1      32.938  30.320  25.725  1.00  0.00     0.163 HD
ATOM     29  O   UNL A   1      33.332  31.797  27.564  1.00  0.00    -0.269 OA
BRANCH  27  30
ATOM     30  C   UNL A   1      35.341  30.674  28.028  1.00  0.00     0.039 A 
ATOM     31  C   UNL A   1      35.372  29.672  29.004  1.00  0.00     0.014 A 
ATOM     32  C   UNL A   1      36.464  31.483  27.834  1.00  0.00     0.014 A 
ATOM     33  C   UNL A   1      36.540  29.441  29.738  1.00  0.00     0.010 A 
ATOM     34  C   UNL A   1      37.649  31.213  28.526  1.00  0.00     0.010 A 
ATOM     35  C   UNL A   1      37.703  30.186  29.482  1.00  0.00    -0.014 A 
BRANCH  35  36
ATOM     36  C   UNL A   1      38.982  29.880  30.180  1.00  0.00     0.031 A 
ATOM     37  C   UNL A   1      39.885  28.779  29.689  1.00  0.00     0.074 A 
ATOM     38  C   UNL A   1      39.308  30.561  31.297  1.00  0.00     0.049 A 
ATOM     39  N   UNL A   1      41.007  28.342  30.204  1.00  0.00    -0.248 NA
ATOM     40  C   UNL A   1      39.466  28.064  28.473  1.00  0.00     0.031 C 
ATOM     41  C   UNL A   1      38.510  31.633  31.897  1.00  0.00     0.029 A 
ATOM     42  N   UNL A   1      40.391  30.450  32.134  1.00  0.00    -0.354 N 
ATOM     43  C   UNL A   1      41.421  27.296  29.386  1.00  0.00     0.074 A 
ATOM     44  C   UNL A   1      40.407  27.136  28.365  1.00  0.00     0.031 C 
ATOM     45  C   UNL A   1      39.141  32.095  32.988  1.00  0.00     0.029 A 
ATOM     46  C   UNL A   1      40.362  31.323  33.198  1.00  0.00     0.049 A 
ATOM     47  H   UNL A   1      41.121  29.805  31.987  1.00  0.00     0.167 HD
ATOM     48  C   UNL A   1      42.547  26.546  29.467  1.00  0.00     0.031 A 
ATOM     49  C   UNL A   1      41.210  31.480  34.233  1.00  0.00     0.031 A 
ATOM     50  C   UNL A   1      43.555  26.704  30.484  1.00  0.00     0.049 A 
ATOM     51  C   UNL A   1      42.437  30.613  34.319  1.00  0.00     0.074 A 
ATOM     52  C   UNL A   1      44.754  26.023  30.619  1.00  0.00     0.029 A 
ATOM     53  N   UNL A   1      43.484  27.596  31.544  1.00  0.00    -0.354 N 
ATOM     54  N   UNL A   1      42.841  29.673  33.499  1.00  0.00    -0.248 NA
ATOM     55  C   UNL A   1      43.330  30.837  35.465  1.00  0.00     0.031 C 
ATOM     56  C   UNL A   1      45.377  26.459  31.793  1.00  0.00     0.029 A 
ATOM     57  C   UNL A   1      44.602  27.462  32.352  1.00  0.00     0.049 A 
ATOM     58  H   UNL A   1      42.747  28.231  31.698  1.00  0.00     0.167 HD
ATOM     59  C   UNL A   1      44.049  29.214  34.014  1.00  0.00     0.074 A 
ATOM     60  C   UNL A   1      44.317  29.991  35.206  1.00  0.00     0.031 C 
ATOM     61  C   UNL A   1      44.862  28.239  33.539  1.00  0.00     0.031 A 
BRANCH  48  62
ATOM     62  C   UNL A   1      42.748  25.469  28.430  1.00  0.00    -0.014 A 
ATOM     63  C   UNL A   1      43.400  25.740  27.214  1.00  0.00     0.010 A 
ATOM     64  C   UNL A   1      42.325  24.153  28.698  1.00  0.00     0.010 A 
ATOM     65  C   UNL A   1      43.589  24.727  26.269  1.00  0.00     0.020 A 
ATOM     66  C   UNL A   1      42.540  23.131  27.768  1.00  0.00     0.020 A 
ATOM     67  C   UNL A   1      43.156  23.429  26.552  1.00  0.00     0.054 A 
BRANCH  67  68
ATOM     68  S   UNL A   1      43.435  22.131  25.316  1.00  0.00     0.124 S 
ATOM     69  O   UNL A   1      43.396  22.890  24.068  1.00  0.00    -0.237 OA
ATOM     70  O   UNL A   1      44.747  21.609  25.691  1.00  0.00    -0.237 OA
ATOM     71  O   UNL A   1      42.320  21.210  25.519  1.00  0.00    -0.744 OA
ENDBRANCH  67  68
ENDBRANCH  48  62
BRANCH  49  72
ATOM     72  C   UNL A   1      40.928  32.508  35.275  1.00  0.00    -0.014 A 
ATOM     73  C   UNL A   1      40.223  32.168  36.443  1.00  0.00     0.010 A 
ATOM     74  C   UNL A   1      41.372  33.832  35.106  1.00  0.00     0.010 A 
ATOM     75  C   UNL A   1      39.950  33.137  37.413  1.00  0.00     0.020 A 
ATOM     76  C   UNL A   1      41.128  34.796  36.088  1.00  0.00     0.020 A 
ATOM     77  C   UNL A   1      40.407  34.445  37.231  1.00  0.00     0.054 A 
BRANCH  77  78
ATOM     78  S   UNL A   1      40.086  35.674  38.526  1.00  0.00     0.124 S 
ATOM     79  O   UNL A   1      39.768  36.864  37.744  1.00  0.00    -0.237 OA
ATOM     80  O   UNL A   1      38.969  35.077  39.255  1.00  0.00    -0.237 OA
ATOM     81  O   UNL A   1      41.345  35.728  39.266  1.00  0.00    -0.744 OA
ENDBRANCH  77  78
ENDBRANCH  49  72
BRANCH  61  82
ATOM     82  C   UNL A   1      46.146  27.977  34.284  1.00  0.00    -0.014 A 
ATOM     83  C   UNL A   1      47.323  28.691  33.991  1.00  0.00     0.010 A 
ATOM     84  C   UNL A   1      46.160  27.039  35.333  1.00  0.00     0.010 A 
ATOM     85  C   UNL A   1      48.496  28.445  34.711  1.00  0.00     0.020 A 
ATOM     86  C   UNL A   1      47.321  26.813  36.075  1.00  0.00     0.020 A 
ATOM     87  C   UNL A   1      48.488  27.508  35.750  1.00  0.00     0.054 A 
BRANCH  87  88
ATOM     88  S   UNL A   1      50.012  27.241  36.697  1.00  0.00     0.124 S 
ATOM     89  O   UNL A   1      50.594  28.579  36.720  1.00  0.00    -0.237 OA
ATOM     90  O   UNL A   1      49.510  26.750  37.978  1.00  0.00    -0.237 OA
ATOM     91  O   UNL A   1      50.744  26.257  35.903  1.00  0.00    -0.744 OA
ENDBRANCH  87  88
ENDBRANCH  61  82
ENDBRANCH  35  36
ENDBRANCH  27  30
ENDBRANCH  25  26
ENDBRANCH  24  25
ENDBRANCH   1  24
TORSDOF 19
ENDMDL
