MODEL 1
REMARK VINA RESULT:     -11.8      0.000      0.000
REMARK SMILES O=C(NCCCNC(=O)c1c(C(=O)N2CCc3ccccc32)cccc1[N+](=O)[O-])c1ccc(-c2c3nc(c(-c4ccc(S(=O)(=O)[O-])cc4)c4ccc([nH]4)c(-c4ccc(S(=O)(=O)[O-])cc4)c4nc(c(-c5ccc(S(=O)(=O)[O-])cc5)c5ccc2[nH]5)C=C4)C=C3)cc1
REMARK SMILES IDX 4 1 3 2 1 3 2 4 30 6 31 7 89 8 32 9 88 10 33 11 34 12 35 13
REMARK SMILES IDX 82 14 36 15 87 16 81 17 83 18 37 19 86 20 80 21 79 22 38 24
REMARK SMILES IDX 68 25 49 26 67 27 50 28 53 29 66 30 84 31 51 32 52 33 65 35
REMARK SMILES IDX 85 36 54 37 39 38 40 39 48 40 41 41 47 42 42 43 43 44 44 45
REMARK SMILES IDX 45 46 46 47 69 48 70 49 78 50 71 51 77 52 72 53 73 54 74 55
REMARK SMILES IDX 75 56 76 57 55 58 56 59 64 60 57 61 63 62 58 63 59 64 60 65
REMARK SMILES IDX 61 66 62 67 5 68 6 69 7 70 8 71 9 73 10 74 11 75 26 76 23 77
REMARK SMILES IDX 25 78 24 79 12 80 13 81 14 82 15 83 22 84 16 85 17 86 21 87
REMARK SMILES IDX 18 88 20 89 19 90 27 91 28 92 29 93
REMARK H PARENT 3 5 83 23 53 34 7 72
REMARK Flexibility Score: inf
ROOT
ATOM      1  C   UNL A   1      39.154  20.853  25.771  1.00  0.00     0.118 C 
ENDROOT
BRANCH   1   2
ATOM      2  N   UNL A   1      40.079  19.733  25.887  1.00  0.00    -0.352 N 
ATOM      3  O   UNL A   1      42.059  18.668  26.017  1.00  0.00    -0.269 OA
ATOM      4  C   UNL A   1      41.439  19.718  26.099  1.00  0.00     0.251 C 
ATOM      5  H   UNL A   1      39.663  18.845  25.801  1.00  0.00     0.163 HD
BRANCH   4   6
ATOM      6  C   UNL A   1      42.153  20.982  26.389  1.00  0.00     0.039 A 
ATOM      7  C   UNL A   1      42.438  21.352  27.702  1.00  0.00     0.014 A 
ATOM      8  C   UNL A   1      42.530  21.813  25.331  1.00  0.00     0.014 A 
ATOM      9  C   UNL A   1      42.904  22.632  27.969  1.00  0.00     0.010 A 
ATOM     10  C   UNL A   1      43.113  23.055  25.598  1.00  0.00     0.010 A 
ATOM     11  C   UNL A   1      43.260  23.496  26.921  1.00  0.00    -0.014 A 
BRANCH  11  12
ATOM     12  C   UNL A   1      43.818  24.834  27.247  1.00  0.00     0.031 A 
ATOM     13  C   UNL A   1      45.269  25.156  27.006  1.00  0.00     0.074 A 
ATOM     14  C   UNL A   1      42.987  25.783  27.722  1.00  0.00     0.049 A 
ATOM     15  N   UNL A   1      45.902  26.286  27.195  1.00  0.00    -0.248 NA
ATOM     16  C   UNL A   1      46.123  24.072  26.496  1.00  0.00     0.031 C 
ATOM     17  C   UNL A   1      41.559  25.591  27.994  1.00  0.00     0.029 A 
ATOM     18  N   UNL A   1      43.206  27.101  28.025  1.00  0.00    -0.354 N 
ATOM     19  C   UNL A   1      47.230  26.044  26.862  1.00  0.00     0.074 A 
ATOM     20  C   UNL A   1      47.316  24.652  26.475  1.00  0.00     0.031 C 
ATOM     21  C   UNL A   1      41.017  26.764  28.350  1.00  0.00     0.029 A 
ATOM     22  C   UNL A   1      42.069  27.772  28.409  1.00  0.00     0.049 A 
ATOM     23  H   UNL A   1      44.092  27.526  27.974  1.00  0.00     0.167 HD
ATOM     24  C   UNL A   1      48.280  26.901  26.879  1.00  0.00     0.031 A 
ATOM     25  C   UNL A   1      41.887  29.052  28.778  1.00  0.00     0.031 A 
ATOM     26  C   UNL A   1      48.187  28.286  27.260  1.00  0.00     0.049 A 
ATOM     27  C   UNL A   1      43.066  29.976  28.804  1.00  0.00     0.074 A 
ATOM     28  C   UNL A   1      49.186  29.244  27.282  1.00  0.00     0.029 A 
ATOM     29  N   UNL A   1      47.026  28.913  27.689  1.00  0.00    -0.354 N 
ATOM     30  N   UNL A   1      44.310  29.728  28.470  1.00  0.00    -0.248 NA
ATOM     31  C   UNL A   1      42.819  31.349  29.259  1.00  0.00     0.031 C 
ATOM     32  C   UNL A   1      48.640  30.437  27.771  1.00  0.00     0.029 A 
ATOM     33  C   UNL A   1      47.287  30.238  28.001  1.00  0.00     0.049 A 
ATOM     34  H   UNL A   1      46.144  28.481  27.763  1.00  0.00     0.167 HD
ATOM     35  C   UNL A   1      44.995  30.921  28.661  1.00  0.00     0.074 A 
ATOM     36  C   UNL A   1      44.022  31.892  29.123  1.00  0.00     0.031 C 
ATOM     37  C   UNL A   1      46.310  31.188  28.470  1.00  0.00     0.031 A 
BRANCH  24  38
ATOM     38  C   UNL A   1      49.633  26.346  26.512  1.00  0.00    -0.014 A 
ATOM     39  C   UNL A   1      50.483  25.780  27.480  1.00  0.00     0.010 A 
ATOM     40  C   UNL A   1      50.056  26.382  25.170  1.00  0.00     0.010 A 
ATOM     41  C   UNL A   1      51.753  25.314  27.122  1.00  0.00     0.020 A 
ATOM     42  C   UNL A   1      51.314  25.893  24.804  1.00  0.00     0.020 A 
ATOM     43  C   UNL A   1      52.165  25.385  25.788  1.00  0.00     0.054 A 
BRANCH  43  44
ATOM     44  S   UNL A   1      53.823  24.791  25.353  1.00  0.00     0.124 S 
ATOM     45  O   UNL A   1      54.572  25.077  26.575  1.00  0.00    -0.237 OA
ATOM     46  O   UNL A   1      53.596  23.376  25.073  1.00  0.00    -0.237 OA
ATOM     47  O   UNL A   1      54.189  25.602  24.194  1.00  0.00    -0.744 OA
ENDBRANCH  43  44
ENDBRANCH  24  38
BRANCH  25  48
ATOM     48  C   UNL A   1      40.523  29.518  29.145  1.00  0.00    -0.014 A 
ATOM     49  C   UNL A   1      39.577  29.806  28.148  1.00  0.00     0.010 A 
ATOM     50  C   UNL A   1      40.144  29.608  30.498  1.00  0.00     0.010 A 
ATOM     51  C   UNL A   1      38.275  30.174  28.495  1.00  0.00     0.020 A 
ATOM     52  C   UNL A   1      38.836  29.948  30.849  1.00  0.00     0.020 A 
ATOM     53  C   UNL A   1      37.910  30.235  29.844  1.00  0.00     0.054 A 
BRANCH  53  54
ATOM     54  S   UNL A   1      36.192  30.627  30.270  1.00  0.00     0.124 S 
ATOM     55  O   UNL A   1      35.463  30.060  29.140  1.00  0.00    -0.237 OA
ATOM     56  O   UNL A   1      36.017  29.938  31.546  1.00  0.00    -0.237 OA
ATOM     57  O   UNL A   1      36.184  32.085  30.353  1.00  0.00    -0.744 OA
ENDBRANCH  53  54
ENDBRANCH  25  48
BRANCH  37  58
ATOM     58  C   UNL A   1      46.766  32.597  28.733  1.00  0.00    -0.014 A 
ATOM     59  C   UNL A   1      46.761  33.567  27.715  1.00  0.00     0.010 A 
ATOM     60  C   UNL A   1      47.178  32.961  30.027  1.00  0.00     0.010 A 
ATOM     61  C   UNL A   1      47.192  34.869  27.980  1.00  0.00     0.020 A 
ATOM     62  C   UNL A   1      47.585  34.267  30.302  1.00  0.00     0.020 A 
ATOM     63  C   UNL A   1      47.605  35.210  29.271  1.00  0.00     0.054 A 
BRANCH  63  64
ATOM     64  S   UNL A   1      48.129  36.915  29.602  1.00  0.00     0.124 S 
ATOM     65  O   UNL A   1      49.003  36.744  30.759  1.00  0.00    -0.237 OA
ATOM     66  O   UNL A   1      48.798  37.292  28.359  1.00  0.00    -0.237 OA
ATOM     67  O   UNL A   1      46.875  37.616  29.865  1.00  0.00    -0.744 OA
ENDBRANCH  63  64
ENDBRANCH  37  58
ENDBRANCH  11  12
ENDBRANCH   4   6
ENDBRANCH   1   2
BRANCH   1  68
ATOM     68  C   UNL A   1      37.853  20.494  25.065  1.00  0.00     0.042 C 
BRANCH  68  69
ATOM     69  C   UNL A   1      36.779  21.563  25.158  1.00  0.00     0.118 C 
BRANCH  69  70
ATOM     70  N   UNL A   1      35.875  21.347  26.276  1.00  0.00    -0.352 N 
ATOM     71  C   UNL A   1      34.511  21.397  26.357  1.00  0.00     0.259 C 
ATOM     72  H   UNL A   1      36.323  21.124  27.123  1.00  0.00     0.163 HD
ATOM     73  O   UNL A   1      33.969  21.247  27.441  1.00  0.00    -0.269 OA
BRANCH  71  74
ATOM     74  C   UNL A   1      33.706  21.632  25.145  1.00  0.00     0.130 A 
ATOM     75  C   UNL A   1      33.381  22.938  24.768  1.00  0.00     0.060 A 
ATOM     76  C   UNL A   1      33.167  20.582  24.392  1.00  0.00     0.282 A 
ATOM     77  C   UNL A   1      32.550  23.167  23.656  1.00  0.00     0.015 A 
ATOM     78  C   UNL A   1      32.413  20.808  23.229  1.00  0.00     0.086 A 
ATOM     79  C   UNL A   1      32.111  22.113  22.859  1.00  0.00     0.008 A 
BRANCH  75  80
ATOM     80  C   UNL A   1      33.698  24.088  25.632  1.00  0.00     0.259 C 
ATOM     81  O   UNL A   1      34.852  24.511  25.619  1.00  0.00    -0.269 OA
BRANCH  80  82
ATOM     82  N   UNL A   1      32.691  24.573  26.479  1.00  0.00    -0.308 N 
ATOM     83  C   UNL A   1      31.654  23.584  26.876  1.00  0.00     0.131 C 
ATOM     84  C   UNL A   1      31.976  25.685  25.952  1.00  0.00     0.047 A 
ATOM     85  C   UNL A   1      30.276  24.110  26.441  1.00  0.00     0.059 C 
ATOM     86  C   UNL A   1      30.646  25.356  25.716  1.00  0.00    -0.022 A 
ATOM     87  C   UNL A   1      32.518  26.863  25.471  1.00  0.00     0.026 A 
ATOM     88  C   UNL A   1      29.884  26.104  24.834  1.00  0.00     0.006 A 
ATOM     89  C   UNL A   1      31.760  27.629  24.586  1.00  0.00     0.002 A 
ATOM     90  C   UNL A   1      30.467  27.223  24.233  1.00  0.00     0.000 A 
ENDBRANCH  80  82
ENDBRANCH  75  80
BRANCH  76  91
ATOM     91  N   UNL A   1      33.290  19.207  24.837  1.00  0.00     0.063 N 
ATOM     92  O   UNL A   1      32.373  18.768  25.544  1.00  0.00    -0.258 OA
ATOM     93  O   UNL A   1      34.312  18.590  24.519  1.00  0.00    -0.258 OA
ENDBRANCH  76  91
ENDBRANCH  71  74
ENDBRANCH  69  70
ENDBRANCH  68  69
ENDBRANCH   1  68
TORSDOF 16
ENDMDL
MODEL 2
REMARK VINA RESULT:     -11.7      6.124     11.589
REMARK SMILES O=C(NCCCNC(=O)c1c(C(=O)N2CCc3ccccc32)cccc1[N+](=O)[O-])c1ccc(-c2c3nc(c(-c4ccc(S(=O)(=O)[O-])cc4)c4ccc([nH]4)c(-c4ccc(S(=O)(=O)[O-])cc4)c4nc(c(-c5ccc(S(=O)(=O)[O-])cc5)c5ccc2[nH]5)C=C4)C=C3)cc1
REMARK SMILES IDX 4 1 3 2 1 3 2 4 30 6 31 7 89 8 32 9 88 10 33 11 34 12 35 13
REMARK SMILES IDX 82 14 36 15 87 16 81 17 83 18 37 19 86 20 80 21 79 22 38 24
REMARK SMILES IDX 68 25 49 26 67 27 50 28 53 29 66 30 84 31 51 32 52 33 65 35
REMARK SMILES IDX 85 36 54 37 39 38 40 39 48 40 41 41 47 42 42 43 43 44 44 45
REMARK SMILES IDX 45 46 46 47 69 48 70 49 78 50 71 51 77 52 72 53 73 54 74 55
REMARK SMILES IDX 75 56 76 57 55 58 56 59 64 60 57 61 63 62 58 63 59 64 60 65
REMARK SMILES IDX 61 66 62 67 5 68 6 69 7 70 8 71 9 73 10 74 11 75 26 76 23 77
REMARK SMILES IDX 25 78 24 79 12 80 13 81 14 82 15 83 22 84 16 85 17 86 21 87
REMARK SMILES IDX 18 88 20 89 19 90 27 91 28 92 29 93
REMARK H PARENT 3 5 83 23 53 34 7 72
REMARK Flexibility Score: inf
ROOT
ATOM      1  C   UNL A   1      33.184  31.866  27.381  1.00  0.00     0.118 C 
ENDROOT
BRANCH   1   2
ATOM      2  N   UNL A   1      32.867  33.267  27.628  1.00  0.00    -0.352 N 
ATOM      3  O   UNL A   1      32.891  35.255  28.686  1.00  0.00    -0.269 OA
ATOM      4  C   UNL A   1      33.402  34.155  28.536  1.00  0.00     0.251 C 
ATOM      5  H   UNL A   1      32.159  33.637  27.054  1.00  0.00     0.163 HD
BRANCH   4   6
ATOM      6  C   UNL A   1      34.570  33.758  29.353  1.00  0.00     0.039 A 
ATOM      7  C   UNL A   1      35.843  34.239  29.052  1.00  0.00     0.014 A 
ATOM      8  C   UNL A   1      34.388  32.883  30.427  1.00  0.00     0.014 A 
ATOM      9  C   UNL A   1      36.951  33.690  29.683  1.00  0.00     0.010 A 
ATOM     10  C   UNL A   1      35.498  32.423  31.142  1.00  0.00     0.010 A 
ATOM     11  C   UNL A   1      36.794  32.784  30.744  1.00  0.00    -0.014 A 
BRANCH  11  12
ATOM     12  C   UNL A   1      38.002  32.269  31.439  1.00  0.00     0.031 A 
ATOM     13  C   UNL A   1      38.387  32.762  32.808  1.00  0.00     0.074 A 
ATOM     14  C   UNL A   1      38.730  31.306  30.839  1.00  0.00     0.049 A 
ATOM     15  N   UNL A   1      39.385  32.383  33.567  1.00  0.00    -0.248 NA
ATOM     16  C   UNL A   1      37.555  33.821  33.401  1.00  0.00     0.031 C 
ATOM     17  C   UNL A   1      38.454  30.745  29.513  1.00  0.00     0.029 A 
ATOM     18  N   UNL A   1      39.824  30.604  31.273  1.00  0.00    -0.354 N 
ATOM     19  C   UNL A   1      39.323  33.176  34.708  1.00  0.00     0.074 A 
ATOM     20  C   UNL A   1      38.198  34.070  34.534  1.00  0.00     0.031 C 
ATOM     21  C   UNL A   1      39.305  29.738  29.275  1.00  0.00     0.029 A 
ATOM     22  C   UNL A   1      40.236  29.632  30.392  1.00  0.00     0.049 A 
ATOM     23  H   UNL A   1      40.272  30.779  32.131  1.00  0.00     0.167 HD
ATOM     24  C   UNL A   1      40.129  33.160  35.797  1.00  0.00     0.031 A 
ATOM     25  C   UNL A   1      41.254  28.755  30.465  1.00  0.00     0.031 A 
ATOM     26  C   UNL A   1      41.243  32.264  35.966  1.00  0.00     0.049 A 
ATOM     27  C   UNL A   1      42.140  28.769  31.672  1.00  0.00     0.074 A 
ATOM     28  C   UNL A   1      42.102  32.150  37.046  1.00  0.00     0.029 A 
ATOM     29  N   UNL A   1      41.655  31.328  35.029  1.00  0.00    -0.354 N 
ATOM     30  N   UNL A   1      42.054  29.518  32.746  1.00  0.00    -0.248 NA
ATOM     31  C   UNL A   1      43.263  27.824  31.677  1.00  0.00     0.031 C 
ATOM     32  C   UNL A   1      43.063  31.179  36.741  1.00  0.00     0.029 A 
ATOM     33  C   UNL A   1      42.770  30.648  35.494  1.00  0.00     0.049 A 
ATOM     34  H   UNL A   1      41.221  31.169  34.159  1.00  0.00     0.167 HD
ATOM     35  C   UNL A   1      43.104  29.124  33.564  1.00  0.00     0.074 A 
ATOM     36  C   UNL A   1      43.800  28.059  32.867  1.00  0.00     0.031 C 
ATOM     37  C   UNL A   1      43.458  29.600  34.783  1.00  0.00     0.031 A 
BRANCH  24  38
ATOM     38  C   UNL A   1      39.856  34.178  36.875  1.00  0.00    -0.014 A 
ATOM     39  C   UNL A   1      40.291  35.511  36.756  1.00  0.00     0.010 A 
ATOM     40  C   UNL A   1      39.139  33.795  38.024  1.00  0.00     0.010 A 
ATOM     41  C   UNL A   1      40.066  36.425  37.790  1.00  0.00     0.020 A 
ATOM     42  C   UNL A   1      38.888  34.713  39.049  1.00  0.00     0.020 A 
ATOM     43  C   UNL A   1      39.376  36.017  38.936  1.00  0.00     0.054 A 
BRANCH  43  44
ATOM     44  S   UNL A   1      39.113  37.216  40.272  1.00  0.00     0.124 S 
ATOM     45  O   UNL A   1      38.286  36.451  41.202  1.00  0.00    -0.237 OA
ATOM     46  O   UNL A   1      40.472  37.497  40.725  1.00  0.00    -0.237 OA
ATOM     47  O   UNL A   1      38.437  38.330  39.609  1.00  0.00    -0.744 OA
ENDBRANCH  43  44
ENDBRANCH  24  38
BRANCH  25  48
ATOM     48  C   UNL A   1      41.470  27.795  29.349  1.00  0.00    -0.014 A 
ATOM     49  C   UNL A   1      42.503  28.005  28.421  1.00  0.00     0.010 A 
ATOM     50  C   UNL A   1      40.685  26.631  29.253  1.00  0.00     0.010 A 
ATOM     51  C   UNL A   1      42.751  27.065  27.417  1.00  0.00     0.020 A 
ATOM     52  C   UNL A   1      40.947  25.676  28.268  1.00  0.00     0.020 A 
ATOM     53  C   UNL A   1      41.975  25.903  27.351  1.00  0.00     0.054 A 
BRANCH  53  54
ATOM     54  S   UNL A   1      42.372  24.656  26.096  1.00  0.00     0.124 S 
ATOM     55  O   UNL A   1      43.670  24.169  26.551  1.00  0.00    -0.237 OA
ATOM     56  O   UNL A   1      41.263  23.714  26.224  1.00  0.00    -0.237 OA
ATOM     57  O   UNL A   1      42.389  25.419  24.850  1.00  0.00    -0.744 OA
ENDBRANCH  53  54
ENDBRANCH  25  48
BRANCH  37  58
ATOM     58  C   UNL A   1      44.638  28.950  35.453  1.00  0.00    -0.014 A 
ATOM     59  C   UNL A   1      45.942  29.442  35.268  1.00  0.00     0.010 A 
ATOM     60  C   UNL A   1      44.431  27.850  36.305  1.00  0.00     0.010 A 
ATOM     61  C   UNL A   1      47.024  28.822  35.898  1.00  0.00     0.020 A 
ATOM     62  C   UNL A   1      45.507  27.244  36.955  1.00  0.00     0.020 A 
ATOM     63  C   UNL A   1      46.800  27.724  36.734  1.00  0.00     0.054 A 
BRANCH  63  64
ATOM     64  S   UNL A   1      48.216  26.955  37.568  1.00  0.00     0.124 S 
ATOM     65  O   UNL A   1      47.919  27.216  38.973  1.00  0.00    -0.237 OA
ATOM     66  O   UNL A   1      48.113  25.558  37.152  1.00  0.00    -0.237 OA
ATOM     67  O   UNL A   1      49.367  27.675  37.028  1.00  0.00    -0.744 OA
ENDBRANCH  63  64
ENDBRANCH  37  58
ENDBRANCH  11  12
ENDBRANCH   4   6
ENDBRANCH   1   2
BRANCH   1  68
ATOM     68  C   UNL A   1      32.058  31.104  26.694  1.00  0.00     0.042 C 
BRANCH  68  69
ATOM     69  C   UNL A   1      32.454  29.724  26.198  1.00  0.00     0.118 C 
BRANCH  69  70
ATOM     70  N   UNL A   1      32.937  29.744  24.826  1.00  0.00    -0.352 N 
ATOM     71  C   UNL A   1      32.619  28.968  23.746  1.00  0.00     0.259 C 
ATOM     72  H   UNL A   1      33.611  30.437  24.644  1.00  0.00     0.163 HD
ATOM     73  O   UNL A   1      33.221  29.128  22.696  1.00  0.00    -0.269 OA
BRANCH  71  74
ATOM     74  C   UNL A   1      31.560  27.948  23.853  1.00  0.00     0.130 A 
ATOM     75  C   UNL A   1      31.885  26.649  24.253  1.00  0.00     0.060 A 
ATOM     76  C   UNL A   1      30.236  28.205  23.479  1.00  0.00     0.282 A 
ATOM     77  C   UNL A   1      30.893  25.651  24.284  1.00  0.00     0.015 A 
ATOM     78  C   UNL A   1      29.226  27.236  23.596  1.00  0.00     0.086 A 
ATOM     79  C   UNL A   1      29.562  25.953  24.009  1.00  0.00     0.008 A 
BRANCH  75  80
ATOM     80  C   UNL A   1      33.285  26.226  24.430  1.00  0.00     0.259 C 
ATOM     81  O   UNL A   1      33.850  26.551  25.472  1.00  0.00    -0.269 OA
BRANCH  80  82
ATOM     82  N   UNL A   1      33.911  25.559  23.368  1.00  0.00    -0.308 N 
ATOM     83  C   UNL A   1      33.333  25.811  22.021  1.00  0.00     0.131 C 
ATOM     84  C   UNL A   1      33.944  24.143  23.511  1.00  0.00     0.047 A 
ATOM     85  C   UNL A   1      32.900  24.468  21.409  1.00  0.00     0.059 C 
ATOM     86  C   UNL A   1      33.181  23.526  22.527  1.00  0.00    -0.022 A 
ATOM     87  C   UNL A   1      34.420  23.433  24.598  1.00  0.00     0.026 A 
ATOM     88  C   UNL A   1      32.718  22.232  22.705  1.00  0.00     0.006 A 
ATOM     89  C   UNL A   1      33.967  22.129  24.788  1.00  0.00     0.002 A 
ATOM     90  C   UNL A   1      33.081  21.550  23.870  1.00  0.00     0.000 A 
ENDBRANCH  80  82
ENDBRANCH  75  80
BRANCH  76  91
ATOM     91  N   UNL A   1      29.868  29.465  22.864  1.00  0.00     0.063 N 
ATOM     92  O   UNL A   1      29.932  29.521  21.629  1.00  0.00    -0.258 OA
ATOM     93  O   UNL A   1      29.560  30.401  23.611  1.00  0.00    -0.258 OA
ENDBRANCH  76  91
ENDBRANCH  71  74
ENDBRANCH  69  70
ENDBRANCH  68  69
ENDBRANCH   1  68
TORSDOF 16
ENDMDL
MODEL 3
REMARK VINA RESULT:     -11.7      5.305     10.385
REMARK SMILES O=C(NCCCNC(=O)c1c(C(=O)N2CCc3ccccc32)cccc1[N+](=O)[O-])c1ccc(-c2c3nc(c(-c4ccc(S(=O)(=O)[O-])cc4)c4ccc([nH]4)c(-c4ccc(S(=O)(=O)[O-])cc4)c4nc(c(-c5ccc(S(=O)(=O)[O-])cc5)c5ccc2[nH]5)C=C4)C=C3)cc1
REMARK SMILES IDX 4 1 3 2 1 3 2 4 30 6 31 7 89 8 32 9 88 10 33 11 34 12 35 13
REMARK SMILES IDX 82 14 36 15 87 16 81 17 83 18 37 19 86 20 80 21 79 22 38 24
REMARK SMILES IDX 68 25 49 26 67 27 50 28 53 29 66 30 84 31 51 32 52 33 65 35
REMARK SMILES IDX 85 36 54 37 39 38 40 39 48 40 41 41 47 42 42 43 43 44 44 45
REMARK SMILES IDX 45 46 46 47 69 48 70 49 78 50 71 51 77 52 72 53 73 54 74 55
REMARK SMILES IDX 75 56 76 57 55 58 56 59 64 60 57 61 63 62 58 63 59 64 60 65
REMARK SMILES IDX 61 66 62 67 5 68 6 69 7 70 8 71 9 73 10 74 11 75 26 76 23 77
REMARK SMILES IDX 25 78 24 79 12 80 13 81 14 82 15 83 22 84 16 85 17 86 21 87
REMARK SMILES IDX 18 88 20 89 19 90 27 91 28 92 29 93
REMARK H PARENT 3 5 83 23 53 34 7 72
REMARK Flexibility Score: inf
ROOT
ATOM      1  C   UNL A   1      33.814  29.170  26.123  1.00  0.00     0.118 C 
ENDROOT
BRANCH   1   2
ATOM      2  N   UNL A   1      33.500  30.494  26.644  1.00  0.00    -0.352 N 
ATOM      3  O   UNL A   1      33.634  32.288  28.000  1.00  0.00    -0.269 OA
ATOM      4  C   UNL A   1      34.146  31.255  27.594  1.00  0.00     0.251 C 
ATOM      5  H   UNL A   1      32.699  30.912  26.253  1.00  0.00     0.163 HD
BRANCH   4   6
ATOM      6  C   UNL A   1      35.441  30.799  28.147  1.00  0.00     0.039 A 
ATOM      7  C   UNL A   1      35.513  29.647  28.929  1.00  0.00     0.014 A 
ATOM      8  C   UNL A   1      36.595  31.542  27.888  1.00  0.00     0.014 A 
ATOM      9  C   UNL A   1      36.683  29.357  29.617  1.00  0.00     0.010 A 
ATOM     10  C   UNL A   1      37.804  31.177  28.487  1.00  0.00     0.010 A 
ATOM     11  C   UNL A   1      37.847  30.110  29.397  1.00  0.00    -0.014 A 
BRANCH  11  12
ATOM     12  C   UNL A   1      39.098  29.729  30.103  1.00  0.00     0.031 A 
ATOM     13  C   UNL A   1      39.490  30.376  31.404  1.00  0.00     0.074 A 
ATOM     14  C   UNL A   1      39.862  28.750  29.579  1.00  0.00     0.049 A 
ATOM     15  N   UNL A   1      40.525  30.125  32.167  1.00  0.00    -0.248 NA
ATOM     16  C   UNL A   1      38.617  31.444  31.915  1.00  0.00     0.031 C 
ATOM     17  C   UNL A   1      39.583  28.045  28.323  1.00  0.00     0.029 A 
ATOM     18  N   UNL A   1      41.002  28.151  30.047  1.00  0.00    -0.354 N 
ATOM     19  C   UNL A   1      40.449  31.024  33.225  1.00  0.00     0.074 A 
ATOM     20  C   UNL A   1      39.274  31.838  32.998  1.00  0.00     0.031 C 
ATOM     21  C   UNL A   1      40.481  27.064  28.160  1.00  0.00     0.029 A 
ATOM     22  C   UNL A   1      41.443  27.117  29.255  1.00  0.00     0.049 A 
ATOM     23  H   UNL A   1      41.461  28.433  30.870  1.00  0.00     0.167 HD
ATOM     24  C   UNL A   1      41.281  31.158  34.287  1.00  0.00     0.031 A 
ATOM     25  C   UNL A   1      42.508  26.306  29.382  1.00  0.00     0.031 A 
ATOM     26  C   UNL A   1      42.445  30.340  34.510  1.00  0.00     0.049 A 
ATOM     27  C   UNL A   1      43.422  26.484  30.555  1.00  0.00     0.074 A 
ATOM     28  C   UNL A   1      43.335  30.379  35.569  1.00  0.00     0.029 A 
ATOM     29  N   UNL A   1      42.884  29.338  33.657  1.00  0.00    -0.354 N 
ATOM     30  N   UNL A   1      43.322  27.331  31.552  1.00  0.00    -0.248 NA
ATOM     31  C   UNL A   1      44.594  25.603  30.620  1.00  0.00     0.031 C 
ATOM     32  C   UNL A   1      44.340  29.432  35.333  1.00  0.00     0.029 A 
ATOM     33  C   UNL A   1      44.045  28.765  34.153  1.00  0.00     0.049 A 
ATOM     34  H   UNL A   1      42.438  29.072  32.821  1.00  0.00     0.167 HD
ATOM     35  C   UNL A   1      44.412  27.075  32.374  1.00  0.00     0.074 A 
ATOM     36  C   UNL A   1      45.147  25.983  31.764  1.00  0.00     0.031 C 
ATOM     37  C   UNL A   1      44.770  27.688  33.529  1.00  0.00     0.031 A 
BRANCH  24  38
ATOM     38  C   UNL A   1      40.981  32.263  35.267  1.00  0.00    -0.014 A 
ATOM     39  C   UNL A   1      41.502  33.559  35.098  1.00  0.00     0.010 A 
ATOM     40  C   UNL A   1      40.151  32.002  36.373  1.00  0.00     0.010 A 
ATOM     41  C   UNL A   1      41.246  34.555  36.045  1.00  0.00     0.020 A 
ATOM     42  C   UNL A   1      39.871  33.002  37.310  1.00  0.00     0.020 A 
ATOM     43  C   UNL A   1      40.442  34.267  37.152  1.00  0.00     0.054 A 
BRANCH  43  44
ATOM     44  S   UNL A   1      40.141  35.571  38.377  1.00  0.00     0.124 S 
ATOM     45  O   UNL A   1      38.933  35.085  39.039  1.00  0.00    -0.237 OA
ATOM     46  O   UNL A   1      41.356  35.540  39.186  1.00  0.00    -0.237 OA
ATOM     47  O   UNL A   1      39.966  36.774  37.567  1.00  0.00    -0.744 OA
ENDBRANCH  43  44
ENDBRANCH  24  38
BRANCH  25  48
ATOM     48  C   UNL A   1      42.748  25.251  28.360  1.00  0.00    -0.014 A 
ATOM     49  C   UNL A   1      43.508  25.532  27.214  1.00  0.00     0.010 A 
ATOM     50  C   UNL A   1      42.273  23.943  28.567  1.00  0.00     0.010 A 
ATOM     51  C   UNL A   1      43.793  24.522  26.291  1.00  0.00     0.020 A 
ATOM     52  C   UNL A   1      42.579  22.924  27.661  1.00  0.00     0.020 A 
ATOM     53  C   UNL A   1      43.333  23.222  26.525  1.00  0.00     0.054 A 
BRANCH  53  54
ATOM     54  S   UNL A   1      43.790  21.909  25.360  1.00  0.00     0.124 S 
ATOM     55  O   UNL A   1      43.633  22.578  24.073  1.00  0.00    -0.237 OA
ATOM     56  O   UNL A   1      45.163  21.603  25.752  1.00  0.00    -0.237 OA
ATOM     57  O   UNL A   1      42.821  20.852  25.641  1.00  0.00    -0.744 OA
ENDBRANCH  53  54
ENDBRANCH  25  48
BRANCH  37  58
ATOM     58  C   UNL A   1      45.999  27.169  34.224  1.00  0.00    -0.014 A 
ATOM     59  C   UNL A   1      47.269  27.715  33.963  1.00  0.00     0.010 A 
ATOM     60  C   UNL A   1      45.874  26.141  35.175  1.00  0.00     0.010 A 
ATOM     61  C   UNL A   1      48.397  27.216  34.618  1.00  0.00     0.020 A 
ATOM     62  C   UNL A   1      46.997  25.657  35.850  1.00  0.00     0.020 A 
ATOM     63  C   UNL A   1      48.255  26.188  35.554  1.00  0.00     0.054 A 
BRANCH  63  64
ATOM     64  S   UNL A   1      49.730  25.578  36.417  1.00  0.00     0.124 S 
ATOM     65  O   UNL A   1      49.644  26.278  37.695  1.00  0.00    -0.237 OA
ATOM     66  O   UNL A   1      49.497  24.137  36.472  1.00  0.00    -0.237 OA
ATOM     67  O   UNL A   1      50.831  25.992  35.551  1.00  0.00    -0.744 OA
ENDBRANCH  63  64
ENDBRANCH  37  58
ENDBRANCH  11  12
ENDBRANCH   4   6
ENDBRANCH   1   2
BRANCH   1  68
ATOM     68  C   UNL A   1      33.042  28.051  26.810  1.00  0.00     0.042 C 
BRANCH  68  69
ATOM     69  C   UNL A   1      31.561  28.022  26.476  1.00  0.00     0.118 C 
BRANCH  69  70
ATOM     70  N   UNL A   1      30.997  26.685  26.568  1.00  0.00    -0.352 N 
ATOM     71  C   UNL A   1      30.855  25.698  25.631  1.00  0.00     0.259 C 
ATOM     72  H   UNL A   1      30.659  26.448  27.461  1.00  0.00     0.163 HD
ATOM     73  O   UNL A   1      30.273  24.668  25.931  1.00  0.00    -0.269 OA
BRANCH  71  74
ATOM     74  C   UNL A   1      31.397  25.883  24.274  1.00  0.00     0.130 A 
ATOM     75  C   UNL A   1      32.656  25.368  23.952  1.00  0.00     0.060 A 
ATOM     76  C   UNL A   1      30.734  26.642  23.302  1.00  0.00     0.282 A 
ATOM     77  C   UNL A   1      33.213  25.606  22.682  1.00  0.00     0.015 A 
ATOM     78  C   UNL A   1      31.245  26.804  22.004  1.00  0.00     0.086 A 
ATOM     79  C   UNL A   1      32.491  26.274  21.695  1.00  0.00     0.008 A 
BRANCH  75  80
ATOM     80  C   UNL A   1      33.527  24.770  24.978  1.00  0.00     0.259 C 
ATOM     81  O   UNL A   1      34.278  25.521  25.597  1.00  0.00    -0.269 OA
BRANCH  80  82
ATOM     82  N   UNL A   1      33.511  23.375  25.124  1.00  0.00    -0.308 N 
ATOM     83  C   UNL A   1      33.235  22.877  26.497  1.00  0.00     0.131 C 
ATOM     84  C   UNL A   1      34.718  22.736  24.721  1.00  0.00     0.047 A 
ATOM     85  C   UNL A   1      34.412  21.997  26.951  1.00  0.00     0.059 C 
ATOM     86  C   UNL A   1      35.352  22.141  25.805  1.00  0.00    -0.022 A 
ATOM     87  C   UNL A   1      35.360  22.876  23.504  1.00  0.00     0.026 A 
ATOM     88  C   UNL A   1      36.704  21.845  25.752  1.00  0.00     0.006 A 
ATOM     89  C   UNL A   1      36.720  22.577  23.435  1.00  0.00     0.002 A 
ATOM     90  C   UNL A   1      37.398  22.110  24.568  1.00  0.00     0.000 A 
ENDBRANCH  80  82
ENDBRANCH  75  80
BRANCH  76  91
ATOM     91  N   UNL A   1      29.525  27.374  23.627  1.00  0.00     0.063 N 
ATOM     92  O   UNL A   1      28.501  26.703  23.809  1.00  0.00    -0.258 OA
ATOM     93  O   UNL A   1      29.591  28.608  23.656  1.00  0.00    -0.258 OA
ENDBRANCH  76  91
ENDBRANCH  71  74
ENDBRANCH  69  70
ENDBRANCH  68  69
ENDBRANCH   1  68
TORSDOF 16
ENDMDL
