MODEL 1
REMARK VINA RESULT:     -10.8      0.000      0.000
REMARK SMILES CN(C)c1cc(C(=O)NCCCNC(=O)c2ccc(-c3c4nc(c(-c5ccc(S(=O)(=O)[O-])cc5)c5ccc([nH]5)c(-c5ccc(S(=O)(=O)[O-])cc5)c5nc(c(-c6ccc(S(=O)(=O)[O-])cc6)c6ccc3[nH]6)C=C5)C=C4)cc2)c(F)cc1F
REMARK SMILES IDX 12 1 11 2 10 3 9 4 7 5 8 6 6 8 4 9 5 10 79 11 78 12 80 13
REMARK SMILES IDX 76 14 77 15 2 16 1 17 3 18 13 19 14 20 15 22 16 23 17 24
REMARK SMILES IDX 75 25 18 26 74 27 19 28 20 29 21 30 68 31 22 32 73 33 67 34
REMARK SMILES IDX 69 35 23 36 72 37 66 38 65 39 24 41 54 42 35 43 53 44 36 45
REMARK SMILES IDX 39 46 52 47 70 48 37 49 38 50 51 52 71 53 40 54 25 55 26 56
REMARK SMILES IDX 34 57 27 58 33 59 28 60 29 61 30 62 31 63 32 64 55 65 56 66
REMARK SMILES IDX 64 67 57 68 63 69 58 70 59 71 60 72 61 73 62 74 41 75 42 76
REMARK SMILES IDX 50 77 43 78 49 79 44 80 45 81 46 82 47 83 48 84
REMARK H PARENT 9 7 13 21 69 40 39 51
REMARK Flexibility Score: inf
ROOT
ATOM      1  C   UNL A   1      33.345  28.355  27.232  1.00  0.00     0.118 C 
ENDROOT
BRANCH   1   2
ATOM      2  C   UNL A   1      32.559  27.887  26.006  1.00  0.00     0.042 C 
BRANCH   2   3
ATOM      3  C   UNL A   1      32.790  28.749  24.765  1.00  0.00     0.118 C 
BRANCH   3   4
ATOM      4  N   UNL A   1      32.774  27.942  23.559  1.00  0.00    -0.352 N 
ATOM      5  C   UNL A   1      31.773  27.366  22.827  1.00  0.00     0.254 C 
ATOM      6  O   UNL A   1      32.124  26.727  21.830  1.00  0.00    -0.269 OA
ATOM      7  H   UNL A   1      33.672  27.774  23.192  1.00  0.00     0.163 HD
BRANCH   5   8
ATOM      8  C   UNL A   1      30.316  27.509  23.091  1.00  0.00     0.077 A 
ATOM      9  C   UNL A   1      28.383  29.048  22.894  1.00  0.00     0.073 A 
ATOM     10  C   UNL A   1      29.746  28.745  22.715  1.00  0.00     0.046 A 
ATOM     11  C   UNL A   1      27.599  28.061  23.512  1.00  0.00     0.149 A 
ATOM     12  C   UNL A   1      28.124  26.818  23.852  1.00  0.00     0.081 A 
ATOM     13  F   UNL A   1      26.292  28.262  23.739  1.00  0.00    -0.205 F 
ATOM     14  C   UNL A   1      29.466  26.539  23.611  1.00  0.00     0.139 A 
ATOM     15  F   UNL A   1      29.871  25.290  23.859  1.00  0.00    -0.206 F 
BRANCH   9  16
ATOM     16  N   UNL A   1      27.887  30.274  22.447  1.00  0.00    -0.375 N 
ATOM     17  C   UNL A   1      27.689  31.310  23.457  1.00  0.00     0.143 C 
ATOM     18  C   UNL A   1      28.106  30.696  21.073  1.00  0.00     0.143 C 
ENDBRANCH   9  16
ENDBRANCH   5   8
ENDBRANCH   3   4
ENDBRANCH   2   3
ENDBRANCH   1   2
BRANCH   1  19
ATOM     19  N   UNL A   1      33.345  29.806  27.359  1.00  0.00    -0.352 N 
ATOM     20  C   UNL A   1      34.271  30.647  27.929  1.00  0.00     0.251 C 
ATOM     21  H   UNL A   1      32.557  30.255  26.978  1.00  0.00     0.163 HD
ATOM     22  O   UNL A   1      33.964  31.814  28.152  1.00  0.00    -0.269 OA
BRANCH  20  23
ATOM     23  C   UNL A   1      35.624  30.160  28.280  1.00  0.00     0.039 A 
ATOM     24  C   UNL A   1      36.614  30.152  27.291  1.00  0.00     0.014 A 
ATOM     25  C   UNL A   1      35.911  29.671  29.557  1.00  0.00     0.014 A 
ATOM     26  C   UNL A   1      37.906  29.718  27.601  1.00  0.00     0.010 A 
ATOM     27  C   UNL A   1      37.214  29.295  29.881  1.00  0.00     0.010 A 
ATOM     28  C   UNL A   1      38.226  29.323  28.910  1.00  0.00    -0.014 A 
BRANCH  28  29
ATOM     29  C   UNL A   1      39.620  28.979  29.296  1.00  0.00     0.031 A 
ATOM     30  C   UNL A   1      40.507  29.999  29.955  1.00  0.00     0.074 A 
ATOM     31  C   UNL A   1      40.111  27.766  28.970  1.00  0.00     0.049 A 
ATOM     32  N   UNL A   1      41.773  29.909  30.271  1.00  0.00    -0.248 NA
ATOM     33  C   UNL A   1      39.896  31.297  30.285  1.00  0.00     0.031 C 
ATOM     34  C   UNL A   1      39.361  26.701  28.299  1.00  0.00     0.029 A 
ATOM     35  N   UNL A   1      41.362  27.229  29.145  1.00  0.00    -0.354 N 
ATOM     36  C   UNL A   1      42.117  31.140  30.819  1.00  0.00     0.074 A 
ATOM     37  C   UNL A   1      40.934  31.972  30.758  1.00  0.00     0.031 C 
ATOM     38  C   UNL A   1      40.160  25.636  28.133  1.00  0.00     0.029 A 
ATOM     39  C   UNL A   1      41.490  25.956  28.641  1.00  0.00     0.049 A 
ATOM     40  H   UNL A   1      42.097  27.709  29.589  1.00  0.00     0.167 HD
ATOM     41  C   UNL A   1      43.305  31.536  31.335  1.00  0.00     0.031 A 
ATOM     42  C   UNL A   1      42.560  25.142  28.573  1.00  0.00     0.031 A 
ATOM     43  C   UNL A   1      44.478  30.701  31.394  1.00  0.00     0.049 A 
ATOM     44  C   UNL A   1      43.876  25.614  29.126  1.00  0.00     0.074 A 
ATOM     45  C   UNL A   1      45.712  30.990  31.952  1.00  0.00     0.029 A 
ATOM     46  N   UNL A   1      44.566  29.419  30.872  1.00  0.00    -0.354 N 
ATOM     47  N   UNL A   1      44.164  26.759  29.699  1.00  0.00    -0.248 NA
ATOM     48  C   UNL A   1      45.010  24.686  29.026  1.00  0.00     0.031 C 
ATOM     49  C   UNL A   1      46.563  29.905  31.716  1.00  0.00     0.029 A 
ATOM     50  C   UNL A   1      45.843  28.917  31.064  1.00  0.00     0.049 A 
ATOM     51  H   UNL A   1      43.830  28.937  30.431  1.00  0.00     0.167 HD
ATOM     52  C   UNL A   1      45.509  26.683  30.040  1.00  0.00     0.074 A 
ATOM     53  C   UNL A   1      45.971  25.371  29.630  1.00  0.00     0.031 C 
ATOM     54  C   UNL A   1      46.292  27.615  30.637  1.00  0.00     0.031 A 
BRANCH  41  55
ATOM     55  C   UNL A   1      43.403  32.942  31.868  1.00  0.00    -0.014 A 
ATOM     56  C   UNL A   1      43.241  33.212  33.240  1.00  0.00     0.010 A 
ATOM     57  C   UNL A   1      43.705  34.002  30.995  1.00  0.00     0.010 A 
ATOM     58  C   UNL A   1      43.338  34.521  33.720  1.00  0.00     0.020 A 
ATOM     59  C   UNL A   1      43.830  35.309  31.475  1.00  0.00     0.020 A 
ATOM     60  C   UNL A   1      43.627  35.563  32.833  1.00  0.00     0.054 A 
BRANCH  60  61
ATOM     61  S   UNL A   1      43.767  37.248  33.489  1.00  0.00     0.124 S 
ATOM     62  O   UNL A   1      43.750  38.048  32.267  1.00  0.00    -0.237 OA
ATOM     63  O   UNL A   1      42.580  37.365  34.332  1.00  0.00    -0.237 OA
ATOM     64  O   UNL A   1      45.039  37.237  34.208  1.00  0.00    -0.744 OA
ENDBRANCH  60  61
ENDBRANCH  41  55
BRANCH  42  65
ATOM     65  C   UNL A   1      42.431  23.796  27.952  1.00  0.00    -0.014 A 
ATOM     66  C   UNL A   1      42.660  23.620  26.576  1.00  0.00     0.010 A 
ATOM     67  C   UNL A   1      42.098  22.677  28.738  1.00  0.00     0.010 A 
ATOM     68  C   UNL A   1      42.546  22.353  25.995  1.00  0.00     0.020 A 
ATOM     69  C   UNL A   1      42.011  21.404  28.166  1.00  0.00     0.020 A 
ATOM     70  C   UNL A   1      42.226  21.253  26.795  1.00  0.00     0.054 A 
BRANCH  70  71
ATOM     71  S   UNL A   1      42.142  19.609  26.031  1.00  0.00     0.124 S 
ATOM     72  O   UNL A   1      40.730  19.514  25.671  1.00  0.00    -0.237 OA
ATOM     73  O   UNL A   1      43.073  19.733  24.912  1.00  0.00    -0.237 OA
ATOM     74  O   UNL A   1      42.579  18.713  27.098  1.00  0.00    -0.744 OA
ENDBRANCH  70  71
ENDBRANCH  42  65
BRANCH  54  75
ATOM     75  C   UNL A   1      47.729  27.247  30.891  1.00  0.00    -0.014 A 
ATOM     76  C   UNL A   1      48.132  26.717  32.130  1.00  0.00     0.010 A 
ATOM     77  C   UNL A   1      48.678  27.386  29.862  1.00  0.00     0.010 A 
ATOM     78  C   UNL A   1      49.466  26.358  32.343  1.00  0.00     0.020 A 
ATOM     79  C   UNL A   1      50.007  27.003  30.062  1.00  0.00     0.020 A 
ATOM     80  C   UNL A   1      50.395  26.503  31.307  1.00  0.00     0.054 A 
BRANCH  80  81
ATOM     81  S   UNL A   1      52.109  25.986  31.595  1.00  0.00     0.124 S 
ATOM     82  O   UNL A   1      52.748  26.331  30.328  1.00  0.00    -0.237 OA
ATOM     83  O   UNL A   1      52.504  26.804  32.740  1.00  0.00    -0.237 OA
ATOM     84  O   UNL A   1      51.999  24.555  31.869  1.00  0.00    -0.744 OA
ENDBRANCH  80  81
ENDBRANCH  54  75
ENDBRANCH  28  29
ENDBRANCH  20  23
ENDBRANCH   1  19
TORSDOF 14
ENDMDL
MODEL 2
REMARK VINA RESULT:     -10.8      2.007      3.694
REMARK SMILES CN(C)c1cc(C(=O)NCCCNC(=O)c2ccc(-c3c4nc(c(-c5ccc(S(=O)(=O)[O-])cc5)c5ccc([nH]5)c(-c5ccc(S(=O)(=O)[O-])cc5)c5nc(c(-c6ccc(S(=O)(=O)[O-])cc6)c6ccc3[nH]6)C=C5)C=C4)cc2)c(F)cc1F
REMARK SMILES IDX 12 1 11 2 10 3 9 4 7 5 8 6 6 8 4 9 5 10 79 11 78 12 80 13
REMARK SMILES IDX 76 14 77 15 2 16 1 17 3 18 13 19 14 20 15 22 16 23 17 24
REMARK SMILES IDX 75 25 18 26 74 27 19 28 20 29 21 30 68 31 22 32 73 33 67 34
REMARK SMILES IDX 69 35 23 36 72 37 66 38 65 39 24 41 54 42 35 43 53 44 36 45
REMARK SMILES IDX 39 46 52 47 70 48 37 49 38 50 51 52 71 53 40 54 25 55 26 56
REMARK SMILES IDX 34 57 27 58 33 59 28 60 29 61 30 62 31 63 32 64 55 65 56 66
REMARK SMILES IDX 64 67 57 68 63 69 58 70 59 71 60 72 61 73 62 74 41 75 42 76
REMARK SMILES IDX 50 77 43 78 49 79 44 80 45 81 46 82 47 83 48 84
REMARK H PARENT 9 7 13 21 69 40 39 51
REMARK Flexibility Score: inf
ROOT
ATOM      1  C   UNL A   1      33.583  28.352  27.150  1.00  0.00     0.118 C 
ENDROOT
BRANCH   1   2
ATOM      2  C   UNL A   1      33.877  28.059  25.679  1.00  0.00     0.042 C 
BRANCH   2   3
ATOM      3  C   UNL A   1      32.687  27.468  24.922  1.00  0.00     0.118 C 
BRANCH   3   4
ATOM      4  N   UNL A   1      33.121  26.792  23.714  1.00  0.00    -0.352 N 
ATOM      5  C   UNL A   1      33.658  25.558  23.467  1.00  0.00     0.254 C 
ATOM      6  O   UNL A   1      33.919  25.302  22.288  1.00  0.00    -0.269 OA
ATOM      7  H   UNL A   1      33.005  27.335  22.901  1.00  0.00     0.163 HD
BRANCH   5   8
ATOM      8  C   UNL A   1      33.878  24.493  24.482  1.00  0.00     0.077 A 
ATOM      9  C   UNL A   1      35.598  23.062  25.550  1.00  0.00     0.073 A 
ATOM     10  C   UNL A   1      35.213  24.061  24.635  1.00  0.00     0.046 A 
ATOM     11  C   UNL A   1      34.567  22.469  26.296  1.00  0.00     0.149 A 
ATOM     12  C   UNL A   1      33.249  22.904  26.199  1.00  0.00     0.081 A 
ATOM     13  F   UNL A   1      34.831  21.497  27.183  1.00  0.00    -0.205 F 
ATOM     14  C   UNL A   1      32.919  23.931  25.319  1.00  0.00     0.139 A 
ATOM     15  F   UNL A   1      31.658  24.371  25.361  1.00  0.00    -0.206 F 
BRANCH   9  16
ATOM     16  N   UNL A   1      36.946  22.729  25.678  1.00  0.00    -0.375 N 
ATOM     17  C   UNL A   1      37.413  21.572  24.918  1.00  0.00     0.143 C 
ATOM     18  C   UNL A   1      37.921  23.747  26.035  1.00  0.00     0.143 C 
ENDBRANCH   9  16
ENDBRANCH   5   8
ENDBRANCH   3   4
ENDBRANCH   2   3
ENDBRANCH   1   2
BRANCH   1  19
ATOM     19  N   UNL A   1      33.541  29.782  27.425  1.00  0.00    -0.352 N 
ATOM     20  C   UNL A   1      34.447  30.589  28.070  1.00  0.00     0.251 C 
ATOM     21  H   UNL A   1      32.735  30.243  27.098  1.00  0.00     0.163 HD
ATOM     22  O   UNL A   1      34.107  31.717  28.412  1.00  0.00    -0.269 OA
BRANCH  20  23
ATOM     23  C   UNL A   1      35.818  30.112  28.358  1.00  0.00     0.039 A 
ATOM     24  C   UNL A   1      36.774  30.152  27.337  1.00  0.00     0.014 A 
ATOM     25  C   UNL A   1      36.156  29.584  29.607  1.00  0.00     0.014 A 
ATOM     26  C   UNL A   1      38.082  29.729  27.589  1.00  0.00     0.010 A 
ATOM     27  C   UNL A   1      37.474  29.218  29.875  1.00  0.00     0.010 A 
ATOM     28  C   UNL A   1      38.452  29.295  28.871  1.00  0.00    -0.014 A 
BRANCH  28  29
ATOM     29  C   UNL A   1      39.863  28.959  29.198  1.00  0.00     0.031 A 
ATOM     30  C   UNL A   1      40.778  29.993  29.793  1.00  0.00     0.074 A 
ATOM     31  C   UNL A   1      40.340  27.740  28.875  1.00  0.00     0.049 A 
ATOM     32  N   UNL A   1      42.058  29.911  30.051  1.00  0.00    -0.248 NA
ATOM     33  C   UNL A   1      40.182  31.298  30.124  1.00  0.00     0.031 C 
ATOM     34  C   UNL A   1      39.560  26.661  28.264  1.00  0.00     0.029 A 
ATOM     35  N   UNL A   1      41.598  27.207  29.003  1.00  0.00    -0.354 N 
ATOM     36  C   UNL A   1      42.426  31.153  30.556  1.00  0.00     0.074 A 
ATOM     37  C   UNL A   1      41.240  31.983  30.533  1.00  0.00     0.031 C 
ATOM     38  C   UNL A   1      40.352  25.592  28.083  1.00  0.00     0.029 A 
ATOM     39  C   UNL A   1      41.704  25.924  28.520  1.00  0.00     0.049 A 
ATOM     40  H   UNL A   1      42.353  27.697  29.401  1.00  0.00     0.167 HD
ATOM     41  C   UNL A   1      43.637  31.560  31.007  1.00  0.00     0.031 A 
ATOM     42  C   UNL A   1      42.771  25.109  28.419  1.00  0.00     0.031 A 
ATOM     43  C   UNL A   1      44.812  30.728  31.028  1.00  0.00     0.049 A 
ATOM     44  C   UNL A   1      44.111  25.593  28.899  1.00  0.00     0.074 A 
ATOM     45  C   UNL A   1      46.071  31.029  31.520  1.00  0.00     0.029 A 
ATOM     46  N   UNL A   1      44.878  29.435  30.530  1.00  0.00    -0.354 N 
ATOM     47  N   UNL A   1      44.424  26.750  29.434  1.00  0.00    -0.248 NA
ATOM     48  C   UNL A   1      45.240  24.664  28.765  1.00  0.00     0.031 C 
ATOM     49  C   UNL A   1      46.912  29.939  31.268  1.00  0.00     0.029 A 
ATOM     50  C   UNL A   1      46.163  28.937  30.671  1.00  0.00     0.049 A 
ATOM     51  H   UNL A   1      44.122  28.943  30.134  1.00  0.00     0.167 HD
ATOM     52  C   UNL A   1      45.783  26.682  29.713  1.00  0.00     0.074 A 
ATOM     53  C   UNL A   1      46.228  25.362  29.309  1.00  0.00     0.031 C 
ATOM     54  C   UNL A   1      46.593  27.626  30.252  1.00  0.00     0.031 A 
BRANCH  41  55
ATOM     55  C   UNL A   1      43.757  32.977  31.505  1.00  0.00    -0.014 A 
ATOM     56  C   UNL A   1      44.028  34.038  30.621  1.00  0.00     0.010 A 
ATOM     57  C   UNL A   1      43.551  33.260  32.867  1.00  0.00     0.010 A 
ATOM     58  C   UNL A   1      44.132  35.348  31.098  1.00  0.00     0.020 A 
ATOM     59  C   UNL A   1      43.628  34.572  33.344  1.00  0.00     0.020 A 
ATOM     60  C   UNL A   1      43.936  35.606  32.458  1.00  0.00     0.054 A 
BRANCH  60  61
ATOM     61  S   UNL A   1      44.058  37.319  33.043  1.00  0.00     0.124 S 
ATOM     62  O   UNL A   1      43.970  38.070  31.794  1.00  0.00    -0.237 OA
ATOM     63  O   UNL A   1      42.903  37.438  33.930  1.00  0.00    -0.237 OA
ATOM     64  O   UNL A   1      45.358  37.366  33.708  1.00  0.00    -0.744 OA
ENDBRANCH  60  61
ENDBRANCH  41  55
BRANCH  42  65
ATOM     65  C   UNL A   1      42.615  23.750  27.833  1.00  0.00    -0.014 A 
ATOM     66  C   UNL A   1      43.011  23.493  26.509  1.00  0.00     0.010 A 
ATOM     67  C   UNL A   1      42.087  22.697  28.605  1.00  0.00     0.010 A 
ATOM     68  C   UNL A   1      42.870  22.214  25.962  1.00  0.00     0.020 A 
ATOM     69  C   UNL A   1      41.972  21.411  28.072  1.00  0.00     0.020 A 
ATOM     70  C   UNL A   1      42.355  21.180  26.749  1.00  0.00     0.054 A 
BRANCH  70  71
ATOM     71  S   UNL A   1      42.238  19.515  26.038  1.00  0.00     0.124 S 
ATOM     72  O   UNL A   1      43.055  19.640  24.835  1.00  0.00    -0.237 OA
ATOM     73  O   UNL A   1      42.795  18.678  27.098  1.00  0.00    -0.237 OA
ATOM     74  O   UNL A   1      40.806  19.341  25.808  1.00  0.00    -0.744 OA
ENDBRANCH  70  71
ENDBRANCH  42  65
BRANCH  54  75
ATOM     75  C   UNL A   1      48.041  27.265  30.445  1.00  0.00    -0.014 A 
ATOM     76  C   UNL A   1      49.023  27.701  29.538  1.00  0.00     0.010 A 
ATOM     77  C   UNL A   1      48.430  26.523  31.575  1.00  0.00     0.010 A 
ATOM     78  C   UNL A   1      50.367  27.376  29.744  1.00  0.00     0.020 A 
ATOM     79  C   UNL A   1      49.776  26.221  31.799  1.00  0.00     0.020 A 
ATOM     80  C   UNL A   1      50.734  26.638  30.874  1.00  0.00     0.054 A 
BRANCH  80  81
ATOM     81  S   UNL A   1      52.490  26.272  31.141  1.00  0.00     0.124 S 
ATOM     82  O   UNL A   1      52.429  25.010  31.875  1.00  0.00    -0.237 OA
ATOM     83  O   UNL A   1      53.012  26.181  29.780  1.00  0.00    -0.237 OA
ATOM     84  O   UNL A   1      52.971  27.418  31.910  1.00  0.00    -0.744 OA
ENDBRANCH  80  81
ENDBRANCH  54  75
ENDBRANCH  28  29
ENDBRANCH  20  23
ENDBRANCH   1  19
TORSDOF 14
ENDMDL
MODEL 3
REMARK VINA RESULT:     -10.6      2.644      3.833
REMARK SMILES CN(C)c1cc(C(=O)NCCCNC(=O)c2ccc(-c3c4nc(c(-c5ccc(S(=O)(=O)[O-])cc5)c5ccc([nH]5)c(-c5ccc(S(=O)(=O)[O-])cc5)c5nc(c(-c6ccc(S(=O)(=O)[O-])cc6)c6ccc3[nH]6)C=C5)C=C4)cc2)c(F)cc1F
REMARK SMILES IDX 12 1 11 2 10 3 9 4 7 5 8 6 6 8 4 9 5 10 79 11 78 12 80 13
REMARK SMILES IDX 76 14 77 15 2 16 1 17 3 18 13 19 14 20 15 22 16 23 17 24
REMARK SMILES IDX 75 25 18 26 74 27 19 28 20 29 21 30 68 31 22 32 73 33 67 34
REMARK SMILES IDX 69 35 23 36 72 37 66 38 65 39 24 41 54 42 35 43 53 44 36 45
REMARK SMILES IDX 39 46 52 47 70 48 37 49 38 50 51 52 71 53 40 54 25 55 26 56
REMARK SMILES IDX 34 57 27 58 33 59 28 60 29 61 30 62 31 63 32 64 55 65 56 66
REMARK SMILES IDX 64 67 57 68 63 69 58 70 59 71 60 72 61 73 62 74 41 75 42 76
REMARK SMILES IDX 50 77 43 78 49 79 44 80 45 81 46 82 47 83 48 84
REMARK H PARENT 9 7 13 21 69 40 39 51
REMARK Flexibility Score: inf
ROOT
ATOM      1  C   UNL A   1      33.532  28.216  27.243  1.00  0.00     0.118 C 
ENDROOT
BRANCH   1   2
ATOM      2  C   UNL A   1      33.387  27.769  25.788  1.00  0.00     0.042 C 
BRANCH   2   3
ATOM      3  C   UNL A   1      33.532  26.259  25.593  1.00  0.00     0.118 C 
BRANCH   3   4
ATOM      4  N   UNL A   1      32.527  25.537  26.349  1.00  0.00    -0.352 N 
ATOM      5  C   UNL A   1      32.298  24.208  26.581  1.00  0.00     0.254 C 
ATOM      6  O   UNL A   1      31.324  23.937  27.289  1.00  0.00    -0.269 OA
ATOM      7  H   UNL A   1      31.871  26.126  26.787  1.00  0.00     0.163 HD
BRANCH   5   8
ATOM      8  C   UNL A   1      33.161  23.089  26.117  1.00  0.00     0.077 A 
ATOM      9  C   UNL A   1      33.294  21.175  24.547  1.00  0.00     0.073 A 
ATOM     10  C   UNL A   1      32.613  22.276  25.101  1.00  0.00     0.046 A 
ATOM     11  C   UNL A   1      34.558  20.887  25.086  1.00  0.00     0.149 A 
ATOM     12  C   UNL A   1      35.142  21.696  26.056  1.00  0.00     0.081 A 
ATOM     13  F   UNL A   1      35.278  19.849  24.634  1.00  0.00    -0.205 F 
ATOM     14  C   UNL A   1      34.456  22.806  26.540  1.00  0.00     0.139 A 
ATOM     15  F   UNL A   1      35.122  23.598  27.384  1.00  0.00    -0.206 F 
BRANCH   9  16
ATOM     16  N   UNL A   1      32.704  20.453  23.509  1.00  0.00    -0.375 N 
ATOM     17  C   UNL A   1      32.291  19.085  23.812  1.00  0.00     0.143 C 
ATOM     18  C   UNL A   1      32.019  21.148  22.430  1.00  0.00     0.143 C 
ENDBRANCH   9  16
ENDBRANCH   5   8
ENDBRANCH   3   4
ENDBRANCH   2   3
ENDBRANCH   1   2
BRANCH   1  19
ATOM     19  N   UNL A   1      33.513  29.667  27.374  1.00  0.00    -0.352 N 
ATOM     20  C   UNL A   1      34.433  30.519  27.935  1.00  0.00     0.251 C 
ATOM     21  H   UNL A   1      32.715  30.106  27.002  1.00  0.00     0.163 HD
ATOM     22  O   UNL A   1      34.113  31.682  28.163  1.00  0.00    -0.269 OA
BRANCH  20  23
ATOM     23  C   UNL A   1      35.797  30.051  28.270  1.00  0.00     0.039 A 
ATOM     24  C   UNL A   1      36.778  30.063  27.273  1.00  0.00     0.014 A 
ATOM     25  C   UNL A   1      36.103  29.557  29.541  1.00  0.00     0.014 A 
ATOM     26  C   UNL A   1      38.079  29.647  27.567  1.00  0.00     0.010 A 
ATOM     27  C   UNL A   1      37.415  29.199  29.851  1.00  0.00     0.010 A 
ATOM     28  C   UNL A   1      38.417  29.248  28.870  1.00  0.00    -0.014 A 
BRANCH  28  29
ATOM     29  C   UNL A   1      39.819  28.922  29.241  1.00  0.00     0.031 A 
ATOM     30  C   UNL A   1      40.704  29.959  29.877  1.00  0.00     0.074 A 
ATOM     31  C   UNL A   1      40.318  27.711  28.922  1.00  0.00     0.049 A 
ATOM     32  N   UNL A   1      41.976  29.885  30.176  1.00  0.00    -0.248 NA
ATOM     33  C   UNL A   1      40.085  31.254  30.200  1.00  0.00     0.031 C 
ATOM     34  C   UNL A   1      39.570  26.631  28.274  1.00  0.00     0.029 A 
ATOM     35  N   UNL A   1      41.576  27.188  29.086  1.00  0.00    -0.354 N 
ATOM     36  C   UNL A   1      42.314  31.125  30.706  1.00  0.00     0.074 A 
ATOM     37  C   UNL A   1      41.123  31.944  30.652  1.00  0.00     0.031 C 
ATOM     38  C   UNL A   1      40.377  25.572  28.108  1.00  0.00     0.029 A 
ATOM     39  C   UNL A   1      41.710  25.911  28.594  1.00  0.00     0.049 A 
ATOM     40  H   UNL A   1      42.313  27.680  29.514  1.00  0.00     0.167 HD
ATOM     41  C   UNL A   1      43.506  31.538  31.201  1.00  0.00     0.031 A 
ATOM     42  C   UNL A   1      42.788  25.106  28.521  1.00  0.00     0.031 A 
ATOM     43  C   UNL A   1      44.688  30.717  31.254  1.00  0.00     0.049 A 
ATOM     44  C   UNL A   1      44.106  25.598  29.051  1.00  0.00     0.074 A 
ATOM     45  C   UNL A   1      45.926  31.024  31.791  1.00  0.00     0.029 A 
ATOM     46  N   UNL A   1      44.782  29.429  30.745  1.00  0.00    -0.354 N 
ATOM     47  N   UNL A   1      44.390  26.753  29.607  1.00  0.00    -0.248 NA
ATOM     48  C   UNL A   1      45.248  24.680  28.945  1.00  0.00     0.031 C 
ATOM     49  C   UNL A   1      46.785  29.944  31.556  1.00  0.00     0.029 A 
ATOM     50  C   UNL A   1      46.066  28.942  30.924  1.00  0.00     0.049 A 
ATOM     51  H   UNL A   1      44.045  28.935  30.319  1.00  0.00     0.167 HD
ATOM     52  C   UNL A   1      45.740  26.693  29.930  1.00  0.00     0.074 A 
ATOM     53  C   UNL A   1      46.210  25.382  29.529  1.00  0.00     0.031 C 
ATOM     54  C   UNL A   1      46.522  27.640  30.506  1.00  0.00     0.031 A 
BRANCH  41  55
ATOM     55  C   UNL A   1      43.596  32.951  31.717  1.00  0.00    -0.014 A 
ATOM     56  C   UNL A   1      43.931  34.018  30.862  1.00  0.00     0.010 A 
ATOM     57  C   UNL A   1      43.298  33.224  33.065  1.00  0.00     0.010 A 
ATOM     58  C   UNL A   1      44.006  35.324  31.355  1.00  0.00     0.020 A 
ATOM     59  C   UNL A   1      43.346  34.533  33.555  1.00  0.00     0.020 A 
ATOM     60  C   UNL A   1      43.718  35.572  32.700  1.00  0.00     0.054 A 
BRANCH  60  61
ATOM     61  S   UNL A   1      43.804  37.280  33.306  1.00  0.00     0.124 S 
ATOM     62  O   UNL A   1      45.081  37.282  34.016  1.00  0.00    -0.237 OA
ATOM     63  O   UNL A   1      43.771  38.061  32.072  1.00  0.00    -0.237 OA
ATOM     64  O   UNL A   1      42.621  37.408  34.154  1.00  0.00    -0.744 OA
ENDBRANCH  60  61
ENDBRANCH  41  55
BRANCH  42  65
ATOM     65  C   UNL A   1      42.664  23.752  27.916  1.00  0.00    -0.014 A 
ATOM     66  C   UNL A   1      42.272  22.654  28.701  1.00  0.00     0.010 A 
ATOM     67  C   UNL A   1      42.916  23.558  26.545  1.00  0.00     0.010 A 
ATOM     68  C   UNL A   1      42.148  21.384  28.130  1.00  0.00     0.020 A 
ATOM     69  C   UNL A   1      42.765  22.296  25.964  1.00  0.00     0.020 A 
ATOM     70  C   UNL A   1      42.392  21.214  26.764  1.00  0.00     0.054 A 
BRANCH  70  71
ATOM     71  S   UNL A   1      42.166  19.569  26.032  1.00  0.00     0.124 S 
ATOM     72  O   UNL A   1      40.732  19.553  25.760  1.00  0.00    -0.237 OA
ATOM     73  O   UNL A   1      43.034  19.623  24.858  1.00  0.00    -0.237 OA
ATOM     74  O   UNL A   1      42.615  18.662  27.086  1.00  0.00    -0.744 OA
ENDBRANCH  70  71
ENDBRANCH  42  65
BRANCH  54  75
ATOM     75  C   UNL A   1      47.966  27.289  30.744  1.00  0.00    -0.014 A 
ATOM     76  C   UNL A   1      48.367  26.631  31.921  1.00  0.00     0.010 A 
ATOM     77  C   UNL A   1      48.926  27.575  29.757  1.00  0.00     0.010 A 
ATOM     78  C   UNL A   1      49.708  26.292  32.119  1.00  0.00     0.020 A 
ATOM     79  C   UNL A   1      50.264  27.212  29.939  1.00  0.00     0.020 A 
ATOM     80  C   UNL A   1      50.648  26.584  31.125  1.00  0.00     0.054 A 
BRANCH  80  81
ATOM     81  S   UNL A   1      52.373  26.090  31.386  1.00  0.00     0.124 S 
ATOM     82  O   UNL A   1      52.851  27.123  32.302  1.00  0.00    -0.237 OA
ATOM     83  O   UNL A   1      52.242  24.753  31.960  1.00  0.00    -0.237 OA
ATOM     84  O   UNL A   1      52.953  26.131  30.044  1.00  0.00    -0.744 OA
ENDBRANCH  80  81
ENDBRANCH  54  75
ENDBRANCH  28  29
ENDBRANCH  20  23
ENDBRANCH   1  19
TORSDOF 14
ENDMDL
