MODEL 1
REMARK VINA RESULT:     -11.8      0.000      0.000
REMARK SMILES Cc1cc2c(c(C)c1Cl)C=C(C(=O)NCCCNC(=O)c1ccc(-c3c4nc(c(-c5ccc(S(=O)(=O)[O-])cc5)c5ccc([nH]5)c(-c5ccc(S(=O)(=O)[O-])cc5)c5nc(c(-c6ccc(S(=O)(=O)[O-])cc6)c6ccc3[nH]6)C=C5)C=C4)cc1)[C@@H](C(F)(F)F)O2
REMARK SMILES IDX 17 1 16 2 15 3 14 4 12 5 13 6 11 8 1 9 2 10 3 11 8 12 4 13
REMARK SMILES IDX 6 14 9 15 5 16 86 17 7 18 10 19 81 20 82 21 83 22 84 23
REMARK SMILES IDX 85 24 18 25 19 26 20 28 21 29 22 30 80 31 23 32 79 33 24 34
REMARK SMILES IDX 25 35 26 36 73 37 27 38 78 39 72 40 74 41 28 42 77 43 71 44
REMARK SMILES IDX 70 45 29 47 59 48 40 49 58 50 41 51 44 52 57 53 75 54 42 55
REMARK SMILES IDX 43 56 56 58 76 59 45 60 30 61 31 62 39 63 32 64 38 65 33 66
REMARK SMILES IDX 34 67 35 68 36 69 37 70 60 71 61 72 69 73 62 74 68 75 63 76
REMARK SMILES IDX 64 77 65 78 66 79 67 80 46 81 47 82 55 83 48 84 54 85 49 86
REMARK SMILES IDX 50 87 51 88 52 89 53 90
REMARK H PARENT 14 7 18 27 74 46 44 57
REMARK Flexibility Score: inf
ROOT
ATOM      1  C   UNL A   1      34.150  28.456  26.077  1.00  0.00     0.118 C 
ENDROOT
BRANCH   1   2
ATOM      2  C   UNL A   1      33.921  28.401  24.573  1.00  0.00     0.042 C 
BRANCH   2   3
ATOM      3  C   UNL A   1      33.161  27.152  24.154  1.00  0.00     0.118 C 
BRANCH   3   4
ATOM      4  N   UNL A   1      32.279  26.674  25.209  1.00  0.00    -0.352 N 
ATOM      5  C   UNL A   1      32.044  25.510  25.856  1.00  0.00     0.251 C 
ATOM      6  O   UNL A   1      31.170  25.559  26.728  1.00  0.00    -0.270 OA
ATOM      7  H   UNL A   1      31.695  27.393  25.542  1.00  0.00     0.163 HD
BRANCH   5   8
ATOM      8  C   UNL A   1      32.756  24.225  25.596  1.00  0.00     0.067 C 
ATOM      9  C   UNL A   1      36.866  19.245  24.841  1.00  0.00     0.046 C 
ATOM     10  C   UNL A   1      36.200  20.560  25.138  1.00  0.00    -0.028 A 
ATOM     11  C   UNL A   1      34.807  20.628  25.074  1.00  0.00     0.052 A 
ATOM     12  C   UNL A   1      36.925  21.724  25.470  1.00  0.00     0.047 A 
ATOM     13  C   UNL A   1      34.150  21.829  25.315  1.00  0.00     0.128 A 
ATOM     14  C   UNL A   1      36.265  22.949  25.739  1.00  0.00    -0.021 A 
ATOM     15  Cl  UNL A   1      38.659  21.617  25.544  1.00  0.00    -0.084 Cl
ATOM     16  C   UNL A   1      34.852  22.991  25.650  1.00  0.00     0.022 A 
ATOM     17  O   UNL A   1      32.788  21.770  25.238  1.00  0.00    -0.475 OA
ATOM     18  C   UNL A   1      37.023  24.203  26.107  1.00  0.00     0.047 C 
ATOM     19  C   UNL A   1      34.063  24.198  25.918  1.00  0.00     0.026 C 
ATOM     20  C   UNL A   1      32.108  23.022  24.981  1.00  0.00     0.314 C 
BRANCH  20  21
ATOM     21  C   UNL A   1      31.879  23.178  23.465  1.00  0.00     0.429 C 
ATOM     22  F   UNL A   1      32.010  21.983  22.838  1.00  0.00    -0.167 F 
ATOM     23  F   UNL A   1      30.638  23.632  23.168  1.00  0.00    -0.167 F 
ATOM     24  F   UNL A   1      32.752  24.036  22.891  1.00  0.00    -0.167 F 
ENDBRANCH  20  21
ENDBRANCH   5   8
ENDBRANCH   3   4
ENDBRANCH   2   3
ENDBRANCH   1   2
BRANCH   1  25
ATOM     25  N   UNL A   1      33.836  29.774  26.623  1.00  0.00    -0.352 N 
ATOM     26  C   UNL A   1      34.450  30.484  27.623  1.00  0.00     0.251 C 
ATOM     27  H   UNL A   1      33.063  30.222  26.210  1.00  0.00     0.163 HD
ATOM     28  O   UNL A   1      33.868  31.436  28.141  1.00  0.00    -0.269 OA
BRANCH  26  29
ATOM     29  C   UNL A   1      35.803  30.105  28.071  1.00  0.00     0.039 A 
ATOM     30  C   UNL A   1      35.980  29.556  29.343  1.00  0.00     0.014 A 
ATOM     31  C   UNL A   1      36.901  30.314  27.235  1.00  0.00     0.014 A 
ATOM     32  C   UNL A   1      37.256  29.159  29.747  1.00  0.00     0.010 A 
ATOM     33  C   UNL A   1      38.148  29.825  27.595  1.00  0.00     0.010 A 
ATOM     34  C   UNL A   1      38.343  29.261  28.863  1.00  0.00    -0.014 A 
BRANCH  34  35
ATOM     35  C   UNL A   1      39.703  28.820  29.249  1.00  0.00     0.031 A 
ATOM     36  C   UNL A   1      40.594  29.749  30.027  1.00  0.00     0.074 A 
ATOM     37  C   UNL A   1      40.151  27.615  28.851  1.00  0.00     0.049 A 
ATOM     38  N   UNL A   1      41.832  29.575  30.410  1.00  0.00    -0.248 NA
ATOM     39  C   UNL A   1      40.031  31.059  30.399  1.00  0.00     0.031 C 
ATOM     40  C   UNL A   1      39.388  26.644  28.063  1.00  0.00     0.029 A 
ATOM     41  N   UNL A   1      41.359  26.998  29.056  1.00  0.00    -0.354 N 
ATOM     42  C   UNL A   1      42.196  30.751  31.053  1.00  0.00     0.074 A 
ATOM     43  C   UNL A   1      41.076  31.658  30.949  1.00  0.00     0.031 C 
ATOM     44  C   UNL A   1      40.129  25.537  27.891  1.00  0.00     0.029 A 
ATOM     45  C   UNL A   1      41.433  25.736  28.516  1.00  0.00     0.049 A 
ATOM     46  H   UNL A   1      42.103  27.419  29.545  1.00  0.00     0.167 HD
ATOM     47  C   UNL A   1      43.349  31.042  31.700  1.00  0.00     0.031 A 
ATOM     48  C   UNL A   1      42.437  24.839  28.525  1.00  0.00     0.031 A 
ATOM     49  C   UNL A   1      44.454  30.129  31.808  1.00  0.00     0.049 A 
ATOM     50  C   UNL A   1      43.720  25.191  29.226  1.00  0.00     0.074 A 
ATOM     51  C   UNL A   1      45.651  30.304  32.478  1.00  0.00     0.029 A 
ATOM     52  N   UNL A   1      44.496  28.867  31.232  1.00  0.00    -0.354 N 
ATOM     53  N   UNL A   1      44.028  26.290  29.872  1.00  0.00    -0.248 NA
ATOM     54  C   UNL A   1      44.787  24.182  29.204  1.00  0.00     0.031 C 
ATOM     55  C   UNL A   1      46.440  29.169  32.260  1.00  0.00     0.029 A 
ATOM     56  C   UNL A   1      45.709  28.262  31.508  1.00  0.00     0.049 A 
ATOM     57  H   UNL A   1      43.769  28.462  30.707  1.00  0.00     0.167 HD
ATOM     58  C   UNL A   1      45.319  26.098  30.352  1.00  0.00     0.074 A 
ATOM     59  C   UNL A   1      45.725  24.771  29.934  1.00  0.00     0.031 C 
ATOM     60  C   UNL A   1      46.098  26.943  31.073  1.00  0.00     0.031 A 
BRANCH  47  61
ATOM     61  C   UNL A   1      43.463  32.400  32.340  1.00  0.00    -0.014 A 
ATOM     62  C   UNL A   1      43.052  32.611  33.669  1.00  0.00     0.010 A 
ATOM     63  C   UNL A   1      44.008  33.475  31.615  1.00  0.00     0.010 A 
ATOM     64  C   UNL A   1      43.138  33.880  34.245  1.00  0.00     0.020 A 
ATOM     65  C   UNL A   1      44.126  34.740  32.199  1.00  0.00     0.020 A 
ATOM     66  C   UNL A   1      43.673  34.938  33.505  1.00  0.00     0.054 A 
BRANCH  66  67
ATOM     67  S   UNL A   1      43.784  36.572  34.285  1.00  0.00     0.124 S 
ATOM     68  O   UNL A   1      44.652  36.301  35.428  1.00  0.00    -0.237 OA
ATOM     69  O   UNL A   1      44.373  37.389  33.228  1.00  0.00    -0.237 OA
ATOM     70  O   UNL A   1      42.398  36.893  34.619  1.00  0.00    -0.744 OA
ENDBRANCH  66  67
ENDBRANCH  47  61
BRANCH  48  71
ATOM     71  C   UNL A   1      42.244  23.512  27.881  1.00  0.00    -0.014 A 
ATOM     72  C   UNL A   1      42.739  23.274  26.587  1.00  0.00     0.010 A 
ATOM     73  C   UNL A   1      41.619  22.461  28.578  1.00  0.00     0.010 A 
ATOM     74  C   UNL A   1      42.617  22.011  26.003  1.00  0.00     0.020 A 
ATOM     75  C   UNL A   1      41.518  21.189  28.006  1.00  0.00     0.020 A 
ATOM     76  C   UNL A   1      42.016  20.973  26.720  1.00  0.00     0.054 A 
BRANCH  76  77
ATOM     77  S   UNL A   1      41.947  19.321  25.971  1.00  0.00     0.124 S 
ATOM     78  O   UNL A   1      40.518  19.155  25.727  1.00  0.00    -0.237 OA
ATOM     79  O   UNL A   1      42.778  19.485  24.780  1.00  0.00    -0.237 OA
ATOM     80  O   UNL A   1      42.513  18.453  27.000  1.00  0.00    -0.744 OA
ENDBRANCH  76  77
ENDBRANCH  48  71
BRANCH  60  81
ATOM     81  C   UNL A   1      47.467  26.461  31.466  1.00  0.00    -0.014 A 
ATOM     82  C   UNL A   1      47.690  25.846  32.709  1.00  0.00     0.010 A 
ATOM     83  C   UNL A   1      48.526  26.547  30.541  1.00  0.00     0.010 A 
ATOM     84  C   UNL A   1      48.951  25.342  33.031  1.00  0.00     0.020 A 
ATOM     85  C   UNL A   1      49.781  26.017  30.848  1.00  0.00     0.020 A 
ATOM     86  C   UNL A   1      49.988  25.427  32.096  1.00  0.00     0.054 A 
BRANCH  86  87
ATOM     87  S   UNL A   1      51.599  24.708  32.519  1.00  0.00     0.124 S 
ATOM     88  O   UNL A   1      51.402  23.301  32.179  1.00  0.00    -0.237 OA
ATOM     89  O   UNL A   1      52.514  25.443  31.650  1.00  0.00    -0.237 OA
ATOM     90  O   UNL A   1      51.740  24.990  33.946  1.00  0.00    -0.744 OA
ENDBRANCH  86  87
ENDBRANCH  60  81
ENDBRANCH  34  35
ENDBRANCH  26  29
ENDBRANCH   1  25
TORSDOF 14
ENDMDL
MODEL 2
REMARK VINA RESULT:     -11.8      2.968      9.414
REMARK SMILES Cc1cc2c(c(C)c1Cl)C=C(C(=O)NCCCNC(=O)c1ccc(-c3c4nc(c(-c5ccc(S(=O)(=O)[O-])cc5)c5ccc([nH]5)c(-c5ccc(S(=O)(=O)[O-])cc5)c5nc(c(-c6ccc(S(=O)(=O)[O-])cc6)c6ccc3[nH]6)C=C5)C=C4)cc1)[C@@H](C(F)(F)F)O2
REMARK SMILES IDX 17 1 16 2 15 3 14 4 12 5 13 6 11 8 1 9 2 10 3 11 8 12 4 13
REMARK SMILES IDX 6 14 9 15 5 16 86 17 7 18 10 19 81 20 82 21 83 22 84 23
REMARK SMILES IDX 85 24 18 25 19 26 20 28 21 29 22 30 80 31 23 32 79 33 24 34
REMARK SMILES IDX 25 35 26 36 73 37 27 38 78 39 72 40 74 41 28 42 77 43 71 44
REMARK SMILES IDX 70 45 29 47 59 48 40 49 58 50 41 51 44 52 57 53 75 54 42 55
REMARK SMILES IDX 43 56 56 58 76 59 45 60 30 61 31 62 39 63 32 64 38 65 33 66
REMARK SMILES IDX 34 67 35 68 36 69 37 70 60 71 61 72 69 73 62 74 68 75 63 76
REMARK SMILES IDX 64 77 65 78 66 79 67 80 46 81 47 82 55 83 48 84 54 85 49 86
REMARK SMILES IDX 50 87 51 88 52 89 53 90
REMARK H PARENT 14 7 18 27 74 46 44 57
REMARK Flexibility Score: inf
ROOT
ATOM      1  C   UNL A   1      36.430  24.062  25.265  1.00  0.00     0.118 C 
ENDROOT
BRANCH   1   2
ATOM      2  C   UNL A   1      35.156  24.055  26.098  1.00  0.00     0.042 C 
BRANCH   2   3
ATOM      3  C   UNL A   1      33.980  23.457  25.341  1.00  0.00     0.118 C 
BRANCH   3   4
ATOM      4  N   UNL A   1      34.035  23.767  23.920  1.00  0.00    -0.352 N 
ATOM      5  C   UNL A   1      33.649  24.778  23.109  1.00  0.00     0.251 C 
ATOM      6  O   UNL A   1      33.913  24.623  21.912  1.00  0.00    -0.270 OA
ATOM      7  H   UNL A   1      34.471  23.046  23.411  1.00  0.00     0.163 HD
BRANCH   5   8
ATOM      8  C   UNL A   1      32.961  26.024  23.558  1.00  0.00     0.067 C 
ATOM      9  C   UNL A   1      30.991  31.635  26.184  1.00  0.00     0.046 C 
ATOM     10  C   UNL A   1      31.741  30.404  25.754  1.00  0.00    -0.028 A 
ATOM     11  C   UNL A   1      31.200  29.619  24.734  1.00  0.00     0.052 A 
ATOM     12  C   UNL A   1      32.960  30.010  26.344  1.00  0.00     0.047 A 
ATOM     13  C   UNL A   1      31.844  28.459  24.322  1.00  0.00     0.128 A 
ATOM     14  C   UNL A   1      33.638  28.840  25.918  1.00  0.00    -0.021 A 
ATOM     15  Cl  UNL A   1      33.616  31.001  27.613  1.00  0.00    -0.084 Cl
ATOM     16  C   UNL A   1      33.056  28.056  24.892  1.00  0.00     0.022 A 
ATOM     17  O   UNL A   1      31.229  27.783  23.308  1.00  0.00    -0.475 OA
ATOM     18  C   UNL A   1      34.950  28.407  26.529  1.00  0.00     0.047 C 
ATOM     19  C   UNL A   1      33.672  26.834  24.364  1.00  0.00     0.026 C 
ATOM     20  C   UNL A   1      31.551  26.376  23.191  1.00  0.00     0.314 C 
BRANCH  20  21
ATOM     21  C   UNL A   1      30.509  25.545  23.964  1.00  0.00     0.429 C 
ATOM     22  F   UNL A   1      30.172  24.434  23.264  1.00  0.00    -0.167 F 
ATOM     23  F   UNL A   1      30.967  25.117  25.164  1.00  0.00    -0.167 F 
ATOM     24  F   UNL A   1      29.370  26.232  24.206  1.00  0.00    -0.167 F 
ENDBRANCH  20  21
ENDBRANCH   5   8
ENDBRANCH   3   4
ENDBRANCH   2   3
ENDBRANCH   1   2
BRANCH   1  25
ATOM     25  N   UNL A   1      37.305  22.944  25.608  1.00  0.00    -0.352 N 
ATOM     26  C   UNL A   1      38.569  22.944  26.140  1.00  0.00     0.251 C 
ATOM     27  H   UNL A   1      36.930  22.051  25.429  1.00  0.00     0.163 HD
ATOM     28  O   UNL A   1      39.255  21.924  26.082  1.00  0.00    -0.269 OA
BRANCH  26  29
ATOM     29  C   UNL A   1      39.099  24.162  26.779  1.00  0.00     0.039 A 
ATOM     30  C   UNL A   1      39.884  25.046  26.036  1.00  0.00     0.014 A 
ATOM     31  C   UNL A   1      38.834  24.418  28.126  1.00  0.00     0.014 A 
ATOM     32  C   UNL A   1      40.349  26.219  26.632  1.00  0.00     0.010 A 
ATOM     33  C   UNL A   1      39.206  25.631  28.686  1.00  0.00     0.010 A 
ATOM     34  C   UNL A   1      39.985  26.535  27.952  1.00  0.00    -0.014 A 
BRANCH  34  35
ATOM     35  C   UNL A   1      40.434  27.787  28.604  1.00  0.00     0.031 A 
ATOM     36  C   UNL A   1      41.839  27.888  29.133  1.00  0.00     0.074 A 
ATOM     37  C   UNL A   1      39.565  28.801  28.770  1.00  0.00     0.049 A 
ATOM     38  N   UNL A   1      42.406  28.871  29.783  1.00  0.00    -0.248 NA
ATOM     39  C   UNL A   1      42.715  26.720  28.931  1.00  0.00     0.031 C 
ATOM     40  C   UNL A   1      38.168  28.802  28.329  1.00  0.00     0.029 A 
ATOM     41  N   UNL A   1      39.729  30.031  29.354  1.00  0.00    -0.354 N 
ATOM     42  C   UNL A   1      43.692  28.435  30.076  1.00  0.00     0.074 A 
ATOM     43  C   UNL A   1      43.802  27.077  29.596  1.00  0.00     0.031 C 
ATOM     44  C   UNL A   1      37.617  29.992  28.617  1.00  0.00     0.029 A 
ATOM     45  C   UNL A   1      38.605  30.820  29.302  1.00  0.00     0.049 A 
ATOM     46  H   UNL A   1      40.573  30.323  29.770  1.00  0.00     0.167 HD
ATOM     47  C   UNL A   1      44.703  29.116  30.664  1.00  0.00     0.031 A 
ATOM     48  C   UNL A   1      38.394  32.071  29.753  1.00  0.00     0.031 A 
ATOM     49  C   UNL A   1      44.588  30.471  31.129  1.00  0.00     0.049 A 
ATOM     50  C   UNL A   1      39.521  32.801  30.428  1.00  0.00     0.074 A 
ATOM     51  C   UNL A   1      45.561  31.270  31.700  1.00  0.00     0.029 A 
ATOM     52  N   UNL A   1      43.427  31.229  31.074  1.00  0.00    -0.354 N 
ATOM     53  N   UNL A   1      40.748  32.391  30.652  1.00  0.00    -0.248 NA
ATOM     54  C   UNL A   1      39.241  34.161  30.907  1.00  0.00     0.031 C 
ATOM     55  C   UNL A   1      44.975  32.493  32.041  1.00  0.00     0.029 A 
ATOM     56  C   UNL A   1      43.652  32.478  31.625  1.00  0.00     0.049 A 
ATOM     57  H   UNL A   1      42.571  30.924  30.697  1.00  0.00     0.167 HD
ATOM     58  C   UNL A   1      41.392  33.451  31.281  1.00  0.00     0.074 A 
ATOM     59  C   UNL A   1      40.423  34.523  31.386  1.00  0.00     0.031 C 
ATOM     60  C   UNL A   1      42.670  33.528  31.730  1.00  0.00     0.031 A 
BRANCH  47  61
ATOM     61  C   UNL A   1      46.017  28.399  30.832  1.00  0.00    -0.014 A 
ATOM     62  C   UNL A   1      47.011  28.468  29.838  1.00  0.00     0.010 A 
ATOM     63  C   UNL A   1      46.274  27.666  32.005  1.00  0.00     0.010 A 
ATOM     64  C   UNL A   1      48.216  27.780  29.992  1.00  0.00     0.020 A 
ATOM     65  C   UNL A   1      47.492  27.002  32.176  1.00  0.00     0.020 A 
ATOM     66  C   UNL A   1      48.449  27.048  31.160  1.00  0.00     0.054 A 
BRANCH  66  67
ATOM     67  S   UNL A   1      50.029  26.176  31.335  1.00  0.00     0.124 S 
ATOM     68  O   UNL A   1      50.152  25.514  30.039  1.00  0.00    -0.237 OA
ATOM     69  O   UNL A   1      50.969  27.267  31.575  1.00  0.00    -0.237 OA
ATOM     70  O   UNL A   1      49.810  25.283  32.470  1.00  0.00    -0.744 OA
ENDBRANCH  66  67
ENDBRANCH  47  61
BRANCH  48  71
ATOM     71  C   UNL A   1      37.070  32.717  29.539  1.00  0.00    -0.014 A 
ATOM     72  C   UNL A   1      36.101  32.700  30.557  1.00  0.00     0.010 A 
ATOM     73  C   UNL A   1      36.792  33.403  28.342  1.00  0.00     0.010 A 
ATOM     74  C   UNL A   1      34.881  33.360  30.386  1.00  0.00     0.020 A 
ATOM     75  C   UNL A   1      35.583  34.086  28.177  1.00  0.00     0.020 A 
ATOM     76  C   UNL A   1      34.634  34.058  29.200  1.00  0.00     0.054 A 
BRANCH  76  77
ATOM     77  S   UNL A   1      33.077  34.976  29.038  1.00  0.00     0.124 S 
ATOM     78  O   UNL A   1      33.540  36.286  28.592  1.00  0.00    -0.237 OA
ATOM     79  O   UNL A   1      32.353  34.188  28.043  1.00  0.00    -0.237 OA
ATOM     80  O   UNL A   1      32.513  34.936  30.385  1.00  0.00    -0.744 OA
ENDBRANCH  76  77
ENDBRANCH  48  71
BRANCH  60  81
ATOM     81  C   UNL A   1      43.103  34.818  32.372  1.00  0.00    -0.014 A 
ATOM     82  C   UNL A   1      43.675  35.850  31.609  1.00  0.00     0.010 A 
ATOM     83  C   UNL A   1      42.853  35.031  33.741  1.00  0.00     0.010 A 
ATOM     84  C   UNL A   1      44.008  37.067  32.207  1.00  0.00     0.020 A 
ATOM     85  C   UNL A   1      43.158  36.258  34.336  1.00  0.00     0.020 A 
ATOM     86  C   UNL A   1      43.742  37.265  33.566  1.00  0.00     0.054 A 
BRANCH  86  87
ATOM     87  S   UNL A   1      44.130  38.878  34.300  1.00  0.00     0.124 S 
ATOM     88  O   UNL A   1      45.420  39.187  33.690  1.00  0.00    -0.237 OA
ATOM     89  O   UNL A   1      43.010  39.705  33.858  1.00  0.00    -0.237 OA
ATOM     90  O   UNL A   1      44.168  38.605  35.736  1.00  0.00    -0.744 OA
ENDBRANCH  86  87
ENDBRANCH  60  81
ENDBRANCH  34  35
ENDBRANCH  26  29
ENDBRANCH   1  25
TORSDOF 14
ENDMDL
MODEL 3
REMARK VINA RESULT:     -11.3      4.296     10.169
REMARK SMILES Cc1cc2c(c(C)c1Cl)C=C(C(=O)NCCCNC(=O)c1ccc(-c3c4nc(c(-c5ccc(S(=O)(=O)[O-])cc5)c5ccc([nH]5)c(-c5ccc(S(=O)(=O)[O-])cc5)c5nc(c(-c6ccc(S(=O)(=O)[O-])cc6)c6ccc3[nH]6)C=C5)C=C4)cc1)[C@@H](C(F)(F)F)O2
REMARK SMILES IDX 17 1 16 2 15 3 14 4 12 5 13 6 11 8 1 9 2 10 3 11 8 12 4 13
REMARK SMILES IDX 6 14 9 15 5 16 86 17 7 18 10 19 81 20 82 21 83 22 84 23
REMARK SMILES IDX 85 24 18 25 19 26 20 28 21 29 22 30 80 31 23 32 79 33 24 34
REMARK SMILES IDX 25 35 26 36 73 37 27 38 78 39 72 40 74 41 28 42 77 43 71 44
REMARK SMILES IDX 70 45 29 47 59 48 40 49 58 50 41 51 44 52 57 53 75 54 42 55
REMARK SMILES IDX 43 56 56 58 76 59 45 60 30 61 31 62 39 63 32 64 38 65 33 66
REMARK SMILES IDX 34 67 35 68 36 69 37 70 60 71 61 72 69 73 62 74 68 75 63 76
REMARK SMILES IDX 64 77 65 78 66 79 67 80 46 81 47 82 55 83 48 84 54 85 49 86
REMARK SMILES IDX 50 87 51 88 52 89 53 90
REMARK H PARENT 14 7 18 27 74 46 44 57
REMARK Flexibility Score: inf
ROOT
ATOM      1  C   UNL A   1      38.149  24.189  26.447  1.00  0.00     0.118 C 
ENDROOT
BRANCH   1   2
ATOM      2  C   UNL A   1      37.310  23.703  25.272  1.00  0.00     0.042 C 
BRANCH   2   3
ATOM      3  C   UNL A   1      36.741  22.314  25.511  1.00  0.00     0.118 C 
BRANCH   3   4
ATOM      4  N   UNL A   1      35.698  22.322  26.527  1.00  0.00    -0.352 N 
ATOM      5  C   UNL A   1      34.482  22.889  26.697  1.00  0.00     0.251 C 
ATOM      6  O   UNL A   1      33.913  22.606  27.756  1.00  0.00    -0.270 OA
ATOM      7  H   UNL A   1      35.944  21.763  27.299  1.00  0.00     0.163 HD
BRANCH   5   8
ATOM      8  C   UNL A   1      33.811  23.792  25.717  1.00  0.00     0.067 C 
ATOM      9  C   UNL A   1      30.970  28.573  22.350  1.00  0.00     0.046 C 
ATOM     10  C   UNL A   1      31.663  27.716  23.373  1.00  0.00    -0.028 A 
ATOM     11  C   UNL A   1      32.104  26.448  22.988  1.00  0.00     0.052 A 
ATOM     12  C   UNL A   1      31.878  28.138  24.702  1.00  0.00     0.047 A 
ATOM     13  C   UNL A   1      32.726  25.610  23.906  1.00  0.00     0.128 A 
ATOM     14  C   UNL A   1      32.530  27.301  25.642  1.00  0.00    -0.021 A 
ATOM     15  Cl  UNL A   1      31.321  29.720  25.160  1.00  0.00    -0.084 Cl
ATOM     16  C   UNL A   1      32.950  26.014  25.227  1.00  0.00     0.022 A 
ATOM     17  O   UNL A   1      33.126  24.403  23.412  1.00  0.00    -0.475 OA
ATOM     18  C   UNL A   1      32.779  27.739  27.066  1.00  0.00     0.047 C 
ATOM     19  C   UNL A   1      33.645  25.069  26.108  1.00  0.00     0.026 C 
ATOM     20  C   UNL A   1      33.302  23.342  24.382  1.00  0.00     0.314 C 
BRANCH  20  21
ATOM     21  C   UNL A   1      32.002  22.521  24.485  1.00  0.00     0.429 C 
ATOM     22  F   UNL A   1      31.123  23.125  25.323  1.00  0.00    -0.167 F 
ATOM     23  F   UNL A   1      31.368  22.392  23.295  1.00  0.00    -0.167 F 
ATOM     24  F   UNL A   1      32.210  21.269  24.952  1.00  0.00    -0.167 F 
ENDBRANCH  20  21
ENDBRANCH   5   8
ENDBRANCH   3   4
ENDBRANCH   2   3
ENDBRANCH   1   2
BRANCH   1  25
ATOM     25  N   UNL A   1      39.577  23.993  26.208  1.00  0.00    -0.352 N 
ATOM     26  C   UNL A   1      40.648  24.764  26.581  1.00  0.00     0.251 C 
ATOM     27  H   UNL A   1      39.806  23.181  25.700  1.00  0.00     0.163 HD
ATOM     28  O   UNL A   1      41.739  24.595  26.038  1.00  0.00    -0.269 OA
BRANCH  26  29
ATOM     29  C   UNL A   1      40.488  25.789  27.629  1.00  0.00     0.039 A 
ATOM     30  C   UNL A   1      39.530  25.610  28.629  1.00  0.00     0.014 A 
ATOM     31  C   UNL A   1      41.276  26.941  27.606  1.00  0.00     0.014 A 
ATOM     32  C   UNL A   1      39.411  26.562  29.643  1.00  0.00     0.010 A 
ATOM     33  C   UNL A   1      41.230  27.832  28.668  1.00  0.00     0.010 A 
ATOM     34  C   UNL A   1      40.283  27.663  29.687  1.00  0.00    -0.014 A 
BRANCH  34  35
ATOM     35  C   UNL A   1      40.204  28.674  30.766  1.00  0.00     0.031 A 
ATOM     36  C   UNL A   1      41.123  28.570  31.952  1.00  0.00     0.074 A 
ATOM     37  C   UNL A   1      39.271  29.643  30.705  1.00  0.00     0.049 A 
ATOM     38  N   UNL A   1      41.174  29.319  33.023  1.00  0.00    -0.248 NA
ATOM     39  C   UNL A   1      42.096  27.464  31.949  1.00  0.00     0.031 C 
ATOM     40  C   UNL A   1      38.302  29.821  29.621  1.00  0.00     0.029 A 
ATOM     41  N   UNL A   1      38.986  30.664  31.575  1.00  0.00    -0.354 N 
ATOM     42  C   UNL A   1      42.168  28.767  33.821  1.00  0.00     0.074 A 
ATOM     43  C   UNL A   1      42.648  27.583  33.146  1.00  0.00     0.031 C 
ATOM     44  C   UNL A   1      37.561  30.912  29.868  1.00  0.00     0.029 A 
ATOM     45  C   UNL A   1      37.969  31.485  31.147  1.00  0.00     0.049 A 
ATOM     46  H   UNL A   1      39.463  30.797  32.426  1.00  0.00     0.167 HD
ATOM     47  C   UNL A   1      42.661  29.222  34.997  1.00  0.00     0.031 A 
ATOM     48  C   UNL A   1      37.429  32.577  31.719  1.00  0.00     0.031 A 
ATOM     49  C   UNL A   1      42.185  30.407  35.656  1.00  0.00     0.049 A 
ATOM     50  C   UNL A   1      37.972  33.051  33.039  1.00  0.00     0.074 A 
ATOM     51  C   UNL A   1      42.642  30.982  36.827  1.00  0.00     0.029 A 
ATOM     52  N   UNL A   1      41.142  31.201  35.198  1.00  0.00    -0.354 N 
ATOM     53  N   UNL A   1      38.948  32.545  33.755  1.00  0.00    -0.248 NA
ATOM     54  C   UNL A   1      37.347  34.244  33.625  1.00  0.00     0.031 C 
ATOM     55  C   UNL A   1      41.839  32.093  37.108  1.00  0.00     0.029 A 
ATOM     56  C   UNL A   1      40.923  32.245  36.078  1.00  0.00     0.049 A 
ATOM     57  H   UNL A   1      40.635  31.044  34.370  1.00  0.00     0.167 HD
ATOM     58  C   UNL A   1      39.067  33.370  34.868  1.00  0.00     0.074 A 
ATOM     59  C   UNL A   1      38.075  34.415  34.720  1.00  0.00     0.031 C 
ATOM     60  C   UNL A   1      39.922  33.270  35.917  1.00  0.00     0.031 A 
BRANCH  47  61
ATOM     61  C   UNL A   1      43.772  28.432  35.635  1.00  0.00    -0.014 A 
ATOM     62  C   UNL A   1      45.120  28.699  35.329  1.00  0.00     0.010 A 
ATOM     63  C   UNL A   1      43.472  27.426  36.572  1.00  0.00     0.010 A 
ATOM     64  C   UNL A   1      46.142  27.944  35.907  1.00  0.00     0.020 A 
ATOM     65  C   UNL A   1      44.495  26.689  37.177  1.00  0.00     0.020 A 
ATOM     66  C   UNL A   1      45.823  26.941  36.827  1.00  0.00     0.054 A 
BRANCH  66  67
ATOM     67  S   UNL A   1      47.174  25.987  37.571  1.00  0.00     0.124 S 
ATOM     68  O   UNL A   1      46.446  24.947  38.293  1.00  0.00    -0.237 OA
ATOM     69  O   UNL A   1      47.923  25.534  36.402  1.00  0.00    -0.237 OA
ATOM     70  O   UNL A   1      47.865  26.960  38.413  1.00  0.00    -0.744 OA
ENDBRANCH  66  67
ENDBRANCH  47  61
BRANCH  48  71
ATOM     71  C   UNL A   1      36.340  33.312  31.019  1.00  0.00    -0.014 A 
ATOM     72  C   UNL A   1      35.089  33.481  31.638  1.00  0.00     0.010 A 
ATOM     73  C   UNL A   1      36.565  33.898  29.760  1.00  0.00     0.010 A 
ATOM     74  C   UNL A   1      34.085  34.225  31.013  1.00  0.00     0.020 A 
ATOM     75  C   UNL A   1      35.571  34.665  29.143  1.00  0.00     0.020 A 
ATOM     76  C   UNL A   1      34.336  34.821  29.774  1.00  0.00     0.054 A 
BRANCH  76  77
ATOM     77  S   UNL A   1      33.044  35.852  29.025  1.00  0.00     0.124 S 
ATOM     78  O   UNL A   1      32.286  36.289  30.193  1.00  0.00    -0.237 OA
ATOM     79  O   UNL A   1      33.823  36.889  28.353  1.00  0.00    -0.237 OA
ATOM     80  O   UNL A   1      32.345  34.932  28.132  1.00  0.00    -0.744 OA
ENDBRANCH  76  77
ENDBRANCH  48  71
BRANCH  60  81
ATOM     81  C   UNL A   1      39.830  34.322  36.989  1.00  0.00    -0.014 A 
ATOM     82  C   UNL A   1      40.476  35.561  36.845  1.00  0.00     0.010 A 
ATOM     83  C   UNL A   1      39.015  34.097  38.115  1.00  0.00     0.010 A 
ATOM     84  C   UNL A   1      40.325  36.552  37.816  1.00  0.00     0.020 A 
ATOM     85  C   UNL A   1      38.838  35.097  39.074  1.00  0.00     0.020 A 
ATOM     86  C   UNL A   1      39.502  36.315  38.923  1.00  0.00     0.054 A 
BRANCH  86  87
ATOM     87  S   UNL A   1      39.277  37.644  40.137  1.00  0.00     0.124 S 
ATOM     88  O   UNL A   1      40.583  38.297  40.118  1.00  0.00    -0.237 OA
ATOM     89  O   UNL A   1      38.178  38.417  39.562  1.00  0.00    -0.237 OA
ATOM     90  O   UNL A   1      38.953  36.934  41.372  1.00  0.00    -0.744 OA
ENDBRANCH  86  87
ENDBRANCH  60  81
ENDBRANCH  34  35
ENDBRANCH  26  29
ENDBRANCH   1  25
TORSDOF 14
ENDMDL
