MODEL 1
REMARK VINA RESULT:     -10.6      0.000      0.000
REMARK SMILES Cc1ccc(-c2nn(CCC(=O)NCCCNC(=O)c3ccc(-c4c5nc(c(-c6ccc(S(=O)(=O)[O-])cc6)c6ccc([nH]6)c(-c6ccc(S(=O)(=O)[O-])cc6)c6nc(c(-c7ccc(S(=O)(=O)[O-])cc7)c7ccc4[nH]7)C=C6)C=C5)cc3)c(=O)c3noc(C)c23)cc1C
REMARK SMILES IDX 15 1 14 2 13 3 11 4 12 5 10 7 9 8 8 9 6 10 7 11 87 12 82 13
REMARK SMILES IDX 85 14 80 15 83 16 84 17 86 18 81 19 5 20 1 21 2 22 3 23
REMARK SMILES IDX 89 24 4 25 88 26 90 27 16 28 17 29 18 30 19 32 20 33 21 34
REMARK SMILES IDX 79 35 22 36 78 37 23 38 24 39 25 40 72 41 26 42 77 43 71 44
REMARK SMILES IDX 73 45 27 46 76 47 70 48 69 49 28 51 58 52 39 53 57 54 40 55
REMARK SMILES IDX 43 56 56 57 74 58 41 59 42 60 55 62 75 63 44 64 29 65 30 66
REMARK SMILES IDX 38 67 31 68 37 69 32 70 33 71 34 72 35 73 36 74 59 75 60 76
REMARK SMILES IDX 68 77 61 78 67 79 62 80 63 81 64 82 65 83 66 84 45 85 46 86
REMARK SMILES IDX 54 87 47 88 53 89 48 90 49 91 50 92 51 93 52 94
REMARK H PARENT 13 6 17 31 73 50 43 61
REMARK Flexibility Score: inf
ROOT
ATOM      1  C   UNL A   1      34.135  36.635  32.956  1.00  0.00     0.042 C 
ENDROOT
BRANCH   1   2
ATOM      2  C   UNL A   1      33.041  36.350  31.925  1.00  0.00     0.117 C 
BRANCH   2   3
ATOM      3  N   UNL A   1      33.237  37.147  30.722  1.00  0.00    -0.356 N 
ATOM      4  C   UNL A   1      33.345  36.785  29.414  1.00  0.00     0.221 C 
ATOM      5  O   UNL A   1      33.658  37.654  28.596  1.00  0.00    -0.275 OA
ATOM      6  H   UNL A   1      33.304  38.115  30.883  1.00  0.00     0.163 HD
BRANCH   4   7
ATOM      7  C   UNL A   1      33.034  35.379  28.948  1.00  0.00     0.124 C 
BRANCH   7   8
ATOM      8  C   UNL A   1      34.057  34.834  27.954  1.00  0.00     0.158 C 
BRANCH   8   9
ATOM      9  N   UNL A   1      34.030  33.375  27.849  1.00  0.00    -0.227 N 
ATOM     10  C   UNL A   1      35.324  31.414  27.955  1.00  0.00     0.104 A 
ATOM     11  N   UNL A   1      35.242  32.704  28.142  1.00  0.00    -0.169 NA
ATOM     12  C   UNL A   1      34.231  30.716  27.346  1.00  0.00     0.078 A 
ATOM     13  C   UNL A   1      32.968  31.314  27.295  1.00  0.00     0.183 A 
ATOM     14  C   UNL A   1      34.085  29.526  26.677  1.00  0.00     0.143 A 
ATOM     15  C   UNL A   1      32.792  32.721  27.615  1.00  0.00     0.296 A 
ATOM     16  N   UNL A   1      32.054  30.499  26.758  1.00  0.00    -0.074 NA
ATOM     17  O   UNL A   1      32.765  29.375  26.356  1.00  0.00    -0.360 OA
ATOM     18  C   UNL A   1      34.986  28.462  26.191  1.00  0.00     0.091 C 
ATOM     19  O   UNL A   1      31.713  33.299  27.580  1.00  0.00    -0.265 OA
BRANCH  10  20
ATOM     20  C   UNL A   1      36.378  30.606  28.587  1.00  0.00     0.003 A 
ATOM     21  C   UNL A   1      38.812  27.510  30.315  1.00  0.00     0.044 C 
ATOM     22  C   UNL A   1      38.015  28.632  29.706  1.00  0.00    -0.048 A 
ATOM     23  C   UNL A   1      36.851  29.051  30.367  1.00  0.00     0.004 A 
ATOM     24  C   UNL A   1      38.382  29.246  28.487  1.00  0.00    -0.048 A 
ATOM     25  C   UNL A   1      36.034  30.028  29.812  1.00  0.00     0.011 A 
ATOM     26  C   UNL A   1      37.558  30.251  27.938  1.00  0.00     0.014 A 
ATOM     27  C   UNL A   1      39.580  28.804  27.688  1.00  0.00     0.044 C 
ENDBRANCH  10  20
ENDBRANCH   8   9
ENDBRANCH   7   8
ENDBRANCH   4   7
ENDBRANCH   2   3
ENDBRANCH   1   2
BRANCH   1  28
ATOM     28  C   UNL A   1      35.191  35.554  33.198  1.00  0.00     0.118 C 
BRANCH  28  29
ATOM     29  N   UNL A   1      34.717  34.260  32.738  1.00  0.00    -0.352 N 
ATOM     30  C   UNL A   1      35.165  33.363  31.803  1.00  0.00     0.251 C 
ATOM     31  H   UNL A   1      33.899  33.963  33.197  1.00  0.00     0.163 HD
ATOM     32  O   UNL A   1      34.314  32.566  31.392  1.00  0.00    -0.269 OA
BRANCH  30  33
ATOM     33  C   UNL A   1      36.564  33.248  31.284  1.00  0.00     0.039 A 
ATOM     34  C   UNL A   1      37.455  32.497  32.073  1.00  0.00     0.014 A 
ATOM     35  C   UNL A   1      37.083  33.908  30.167  1.00  0.00     0.014 A 
ATOM     36  C   UNL A   1      38.811  32.384  31.749  1.00  0.00     0.010 A 
ATOM     37  C   UNL A   1      38.444  33.772  29.822  1.00  0.00     0.010 A 
ATOM     38  C   UNL A   1      39.317  33.004  30.605  1.00  0.00    -0.014 A 
BRANCH  38  39
ATOM     39  C   UNL A   1      40.717  32.699  30.219  1.00  0.00     0.031 A 
ATOM     40  C   UNL A   1      41.703  33.793  30.492  1.00  0.00     0.074 A 
ATOM     41  C   UNL A   1      41.190  31.435  30.130  1.00  0.00     0.049 A 
ATOM     42  N   UNL A   1      42.204  33.998  31.675  1.00  0.00    -0.248 NA
ATOM     43  C   UNL A   1      41.987  34.867  29.541  1.00  0.00     0.031 C 
ATOM     44  C   UNL A   1      40.751  30.346  31.014  1.00  0.00     0.029 A 
ATOM     45  N   UNL A   1      42.278  30.907  29.467  1.00  0.00    -0.354 N 
ATOM     46  C   UNL A   1      42.836  35.230  31.654  1.00  0.00     0.074 A 
ATOM     47  C   UNL A   1      42.678  35.731  30.307  1.00  0.00     0.031 C 
ATOM     48  C   UNL A   1      41.663  29.353  30.967  1.00  0.00     0.029 A 
ATOM     49  C   UNL A   1      42.659  29.650  29.939  1.00  0.00     0.049 A 
ATOM     50  H   UNL A   1      42.741  31.372  28.733  1.00  0.00     0.167 HD
ATOM     51  C   UNL A   1      43.451  35.752  32.750  1.00  0.00     0.031 A 
ATOM     52  C   UNL A   1      43.935  29.163  29.939  1.00  0.00     0.031 A 
ATOM     53  C   UNL A   1      43.438  34.901  33.904  1.00  0.00     0.049 A 
ATOM     54  C   UNL A   1      44.565  30.012  31.011  1.00  0.00     0.074 A 
ATOM     55  C   UNL A   1      42.689  34.742  35.049  1.00  0.00     0.029 A 
ATOM     56  N   UNL A   1      44.357  33.880  33.947  1.00  0.00    -0.354 N 
ATOM     57  N   UNL A   1      44.423  29.842  32.298  1.00  0.00    -0.248 NA
ATOM     58  C   UNL A   1      45.063  31.333  30.621  1.00  0.00     0.031 C 
ATOM     59  C   UNL A   1      42.903  33.388  35.459  1.00  0.00     0.029 A 
ATOM     60  C   UNL A   1      43.741  32.796  34.515  1.00  0.00     0.049 A 
ATOM     61  H   UNL A   1      45.288  33.920  33.628  1.00  0.00     0.167 HD
ATOM     62  C   UNL A   1      44.486  31.123  32.848  1.00  0.00     0.074 A 
ATOM     63  C   UNL A   1      44.904  31.991  31.762  1.00  0.00     0.031 C 
ATOM     64  C   UNL A   1      44.011  31.439  34.089  1.00  0.00     0.031 A 
BRANCH  51  65
ATOM     65  C   UNL A   1      44.255  36.999  32.787  1.00  0.00    -0.014 A 
ATOM     66  C   UNL A   1      43.583  38.187  33.129  1.00  0.00     0.010 A 
ATOM     67  C   UNL A   1      45.555  37.075  32.265  1.00  0.00     0.010 A 
ATOM     68  C   UNL A   1      44.166  39.432  32.896  1.00  0.00     0.020 A 
ATOM     69  C   UNL A   1      46.152  38.327  32.043  1.00  0.00     0.020 A 
ATOM     70  C   UNL A   1      45.441  39.496  32.337  1.00  0.00     0.054 A 
BRANCH  70  71
ATOM     71  S   UNL A   1      46.112  41.137  31.951  1.00  0.00     0.124 S 
ATOM     72  O   UNL A   1      45.333  41.525  30.779  1.00  0.00    -0.237 OA
ATOM     73  O   UNL A   1      45.823  41.884  33.173  1.00  0.00    -0.237 OA
ATOM     74  O   UNL A   1      47.529  40.884  31.700  1.00  0.00    -0.744 OA
ENDBRANCH  70  71
ENDBRANCH  51  65
BRANCH  52  75
ATOM     75  C   UNL A   1      44.553  28.943  28.590  1.00  0.00    -0.014 A 
ATOM     76  C   UNL A   1      45.946  29.144  28.478  1.00  0.00     0.010 A 
ATOM     77  C   UNL A   1      43.864  28.542  27.432  1.00  0.00     0.010 A 
ATOM     78  C   UNL A   1      46.645  28.796  27.319  1.00  0.00     0.020 A 
ATOM     79  C   UNL A   1      44.559  28.165  26.271  1.00  0.00     0.020 A 
ATOM     80  C   UNL A   1      45.951  28.254  26.240  1.00  0.00     0.054 A 
BRANCH  80  81
ATOM     81  S   UNL A   1      46.905  27.591  24.849  1.00  0.00     0.124 S 
ATOM     82  O   UNL A   1      46.209  26.340  24.557  1.00  0.00    -0.237 OA
ATOM     83  O   UNL A   1      46.755  28.644  23.847  1.00  0.00    -0.237 OA
ATOM     84  O   UNL A   1      48.253  27.444  25.392  1.00  0.00    -0.744 OA
ENDBRANCH  80  81
ENDBRANCH  52  75
BRANCH  64  85
ATOM     85  C   UNL A   1      43.553  30.296  34.943  1.00  0.00    -0.014 A 
ATOM     86  C   UNL A   1      42.195  29.945  34.975  1.00  0.00     0.010 A 
ATOM     87  C   UNL A   1      44.479  29.512  35.656  1.00  0.00     0.010 A 
ATOM     88  C   UNL A   1      41.776  28.803  35.661  1.00  0.00     0.020 A 
ATOM     89  C   UNL A   1      44.069  28.357  36.329  1.00  0.00     0.020 A 
ATOM     90  C   UNL A   1      42.718  28.003  36.315  1.00  0.00     0.054 A 
BRANCH  90  91
ATOM     91  S   UNL A   1      42.155  26.466  37.092  1.00  0.00     0.124 S 
ATOM     92  O   UNL A   1      42.353  25.483  36.030  1.00  0.00    -0.237 OA
ATOM     93  O   UNL A   1      43.055  26.343  38.237  1.00  0.00    -0.237 OA
ATOM     94  O   UNL A   1      40.760  26.736  37.434  1.00  0.00    -0.744 OA
ENDBRANCH  90  91
ENDBRANCH  64  85
ENDBRANCH  38  39
ENDBRANCH  30  33
ENDBRANCH  28  29
ENDBRANCH   1  28
TORSDOF 16
ENDMDL
MODEL 2
REMARK VINA RESULT:     -10.5      7.229     12.347
REMARK SMILES Cc1ccc(-c2nn(CCC(=O)NCCCNC(=O)c3ccc(-c4c5nc(c(-c6ccc(S(=O)(=O)[O-])cc6)c6ccc([nH]6)c(-c6ccc(S(=O)(=O)[O-])cc6)c6nc(c(-c7ccc(S(=O)(=O)[O-])cc7)c7ccc4[nH]7)C=C6)C=C5)cc3)c(=O)c3noc(C)c23)cc1C
REMARK SMILES IDX 15 1 14 2 13 3 11 4 12 5 10 7 9 8 8 9 6 10 7 11 87 12 82 13
REMARK SMILES IDX 85 14 80 15 83 16 84 17 86 18 81 19 5 20 1 21 2 22 3 23
REMARK SMILES IDX 89 24 4 25 88 26 90 27 16 28 17 29 18 30 19 32 20 33 21 34
REMARK SMILES IDX 79 35 22 36 78 37 23 38 24 39 25 40 72 41 26 42 77 43 71 44
REMARK SMILES IDX 73 45 27 46 76 47 70 48 69 49 28 51 58 52 39 53 57 54 40 55
REMARK SMILES IDX 43 56 56 57 74 58 41 59 42 60 55 62 75 63 44 64 29 65 30 66
REMARK SMILES IDX 38 67 31 68 37 69 32 70 33 71 34 72 35 73 36 74 59 75 60 76
REMARK SMILES IDX 68 77 61 78 67 79 62 80 63 81 64 82 65 83 66 84 45 85 46 86
REMARK SMILES IDX 54 87 47 88 53 89 48 90 49 91 50 92 51 93 52 94
REMARK H PARENT 13 6 17 31 73 50 43 61
REMARK Flexibility Score: inf
ROOT
ATOM      1  C   UNL A   1      42.102  39.132  27.059  1.00  0.00     0.042 C 
ENDROOT
BRANCH   1   2
ATOM      2  C   UNL A   1      42.063  40.626  26.730  1.00  0.00     0.117 C 
BRANCH   2   3
ATOM      3  N   UNL A   1      41.824  40.841  25.310  1.00  0.00    -0.356 N 
ATOM      4  C   UNL A   1      42.454  41.640  24.405  1.00  0.00     0.221 C 
ATOM      5  O   UNL A   1      41.955  41.750  23.282  1.00  0.00    -0.275 OA
ATOM      6  H   UNL A   1      41.077  40.319  24.940  1.00  0.00     0.163 HD
BRANCH   4   7
ATOM      7  C   UNL A   1      43.763  42.331  24.726  1.00  0.00     0.124 C 
BRANCH   7   8
ATOM      8  C   UNL A   1      43.721  43.838  24.486  1.00  0.00     0.158 C 
BRANCH   8   9
ATOM      9  N   UNL A   1      44.622  44.270  23.417  1.00  0.00    -0.227 N 
ATOM     10  C   UNL A   1      44.905  44.434  21.088  1.00  0.00     0.104 A 
ATOM     11  N   UNL A   1      44.116  44.179  22.097  1.00  0.00    -0.169 NA
ATOM     12  C   UNL A   1      46.296  44.686  21.322  1.00  0.00     0.078 A 
ATOM     13  C   UNL A   1      46.733  45.023  22.606  1.00  0.00     0.183 A 
ATOM     14  C   UNL A   1      47.439  44.620  20.565  1.00  0.00     0.143 A 
ATOM     15  C   UNL A   1      45.858  44.880  23.758  1.00  0.00     0.296 A 
ATOM     16  N   UNL A   1      48.043  45.293  22.630  1.00  0.00    -0.074 NA
ATOM     17  O   UNL A   1      48.489  45.023  21.342  1.00  0.00    -0.360 OA
ATOM     18  C   UNL A   1      47.788  44.173  19.202  1.00  0.00     0.091 C 
ATOM     19  O   UNL A   1      46.189  45.153  24.904  1.00  0.00    -0.265 OA
BRANCH  10  20
ATOM     20  C   UNL A   1      44.375  44.739  19.750  1.00  0.00     0.003 A 
ATOM     21  C   UNL A   1      41.954  45.468  16.271  1.00  0.00     0.044 C 
ATOM     22  C   UNL A   1      42.853  45.242  17.457  1.00  0.00    -0.048 A 
ATOM     23  C   UNL A   1      42.938  43.946  17.985  1.00  0.00     0.004 A 
ATOM     24  C   UNL A   1      43.579  46.291  18.068  1.00  0.00    -0.048 A 
ATOM     25  C   UNL A   1      43.690  43.694  19.126  1.00  0.00     0.011 A 
ATOM     26  C   UNL A   1      44.355  46.025  19.214  1.00  0.00     0.014 A 
ATOM     27  C   UNL A   1      43.483  47.719  17.598  1.00  0.00     0.044 C 
ENDBRANCH  10  20
ENDBRANCH   8   9
ENDBRANCH   7   8
ENDBRANCH   4   7
ENDBRANCH   2   3
ENDBRANCH   1   2
BRANCH   1  28
ATOM     28  C   UNL A   1      43.451  38.517  27.439  1.00  0.00     0.118 C 
BRANCH  28  29
ATOM     29  N   UNL A   1      43.781  37.413  26.555  1.00  0.00    -0.352 N 
ATOM     30  C   UNL A   1      44.138  36.105  26.761  1.00  0.00     0.251 C 
ATOM     31  H   UNL A   1      43.740  37.656  25.602  1.00  0.00     0.163 HD
ATOM     32  O   UNL A   1      44.727  35.568  25.817  1.00  0.00    -0.269 OA
BRANCH  30  33
ATOM     33  C   UNL A   1      43.846  35.290  27.982  1.00  0.00     0.039 A 
ATOM     34  C   UNL A   1      42.485  35.087  28.278  1.00  0.00     0.014 A 
ATOM     35  C   UNL A   1      44.788  34.821  28.901  1.00  0.00     0.014 A 
ATOM     36  C   UNL A   1      42.074  34.419  29.436  1.00  0.00     0.010 A 
ATOM     37  C   UNL A   1      44.378  34.122  30.055  1.00  0.00     0.010 A 
ATOM     38  C   UNL A   1      43.019  33.909  30.328  1.00  0.00    -0.014 A 
BRANCH  38  39
ATOM     39  C   UNL A   1      42.527  33.057  31.439  1.00  0.00     0.031 A 
ATOM     40  C   UNL A   1      41.116  33.322  31.865  1.00  0.00     0.074 A 
ATOM     41  C   UNL A   1      43.045  31.836  31.706  1.00  0.00     0.049 A 
ATOM     42  N   UNL A   1      40.093  32.850  31.214  1.00  0.00    -0.248 NA
ATOM     43  C   UNL A   1      40.760  34.324  32.869  1.00  0.00     0.031 C 
ATOM     44  C   UNL A   1      43.539  30.925  30.665  1.00  0.00     0.029 A 
ATOM     45  N   UNL A   1      43.019  31.058  32.845  1.00  0.00    -0.354 N 
ATOM     46  C   UNL A   1      38.964  33.503  31.679  1.00  0.00     0.074 A 
ATOM     47  C   UNL A   1      39.427  34.407  32.709  1.00  0.00     0.031 C 
ATOM     48  C   UNL A   1      43.599  29.675  31.173  1.00  0.00     0.029 A 
ATOM     49  C   UNL A   1      43.310  29.714  32.606  1.00  0.00     0.049 A 
ATOM     50  H   UNL A   1      42.814  31.416  33.739  1.00  0.00     0.167 HD
ATOM     51  C   UNL A   1      37.720  33.250  31.186  1.00  0.00     0.031 A 
ATOM     52  C   UNL A   1      42.814  28.662  33.321  1.00  0.00     0.031 A 
ATOM     53  C   UNL A   1      37.672  32.219  30.191  1.00  0.00     0.049 A 
ATOM     54  C   UNL A   1      41.375  28.668  32.876  1.00  0.00     0.074 A 
ATOM     55  C   UNL A   1      37.665  32.124  28.817  1.00  0.00     0.029 A 
ATOM     56  N   UNL A   1      37.700  30.916  30.628  1.00  0.00    -0.354 N 
ATOM     57  N   UNL A   1      40.927  28.202  31.741  1.00  0.00    -0.248 NA
ATOM     58  C   UNL A   1      40.459  29.577  33.567  1.00  0.00     0.031 C 
ATOM     59  C   UNL A   1      38.150  30.810  28.524  1.00  0.00     0.029 A 
ATOM     60  C   UNL A   1      38.458  30.201  29.739  1.00  0.00     0.049 A 
ATOM     61  H   UNL A   1      37.256  30.562  31.433  1.00  0.00     0.167 HD
ATOM     62  C   UNL A   1      39.838  29.011  31.416  1.00  0.00     0.074 A 
ATOM     63  C   UNL A   1      39.591  29.822  32.593  1.00  0.00     0.031 C 
ATOM     64  C   UNL A   1      39.325  29.119  30.154  1.00  0.00     0.031 A 
BRANCH  51  65
ATOM     65  C   UNL A   1      36.447  33.807  31.706  1.00  0.00    -0.014 A 
ATOM     66  C   UNL A   1      35.313  33.697  30.880  1.00  0.00     0.010 A 
ATOM     67  C   UNL A   1      36.391  34.632  32.839  1.00  0.00     0.010 A 
ATOM     68  C   UNL A   1      34.165  34.445  31.139  1.00  0.00     0.020 A 
ATOM     69  C   UNL A   1      35.230  35.376  33.111  1.00  0.00     0.020 A 
ATOM     70  C   UNL A   1      34.135  35.295  32.243  1.00  0.00     0.054 A 
BRANCH  70  71
ATOM     71  S   UNL A   1      32.663  36.329  32.474  1.00  0.00     0.124 S 
ATOM     72  O   UNL A   1      33.024  37.131  33.640  1.00  0.00    -0.237 OA
ATOM     73  O   UNL A   1      32.595  37.057  31.209  1.00  0.00    -0.237 OA
ATOM     74  O   UNL A   1      31.590  35.363  32.692  1.00  0.00    -0.744 OA
ENDBRANCH  70  71
ENDBRANCH  51  65
BRANCH  52  75
ATOM     75  C   UNL A   1      43.234  28.589  34.758  1.00  0.00    -0.014 A 
ATOM     76  C   UNL A   1      42.795  27.473  35.504  1.00  0.00     0.010 A 
ATOM     77  C   UNL A   1      44.037  29.533  35.423  1.00  0.00     0.010 A 
ATOM     78  C   UNL A   1      43.273  27.218  36.792  1.00  0.00     0.020 A 
ATOM     79  C   UNL A   1      44.544  29.274  36.707  1.00  0.00     0.020 A 
ATOM     80  C   UNL A   1      44.191  28.096  37.364  1.00  0.00     0.054 A 
BRANCH  80  81
ATOM     81  S   UNL A   1      44.975  27.620  38.927  1.00  0.00     0.124 S 
ATOM     82  O   UNL A   1      44.105  26.549  39.405  1.00  0.00    -0.237 OA
ATOM     83  O   UNL A   1      46.304  27.202  38.487  1.00  0.00    -0.237 OA
ATOM     84  O   UNL A   1      44.946  28.847  39.718  1.00  0.00    -0.744 OA
ENDBRANCH  80  81
ENDBRANCH  52  75
BRANCH  64  85
ATOM     85  C   UNL A   1      39.878  28.183  29.123  1.00  0.00    -0.014 A 
ATOM     86  C   UNL A   1      40.954  28.585  28.317  1.00  0.00     0.010 A 
ATOM     87  C   UNL A   1      39.387  26.870  29.002  1.00  0.00     0.010 A 
ATOM     88  C   UNL A   1      41.563  27.680  27.446  1.00  0.00     0.020 A 
ATOM     89  C   UNL A   1      40.004  25.953  28.146  1.00  0.00     0.020 A 
ATOM     90  C   UNL A   1      41.099  26.362  27.382  1.00  0.00     0.054 A 
BRANCH  90  91
ATOM     91  S   UNL A   1      41.989  25.183  26.332  1.00  0.00     0.124 S 
ATOM     92  O   UNL A   1      41.987  25.851  25.034  1.00  0.00    -0.237 OA
ATOM     93  O   UNL A   1      43.291  25.095  26.990  1.00  0.00    -0.237 OA
ATOM     94  O   UNL A   1      41.180  23.968  26.405  1.00  0.00    -0.744 OA
ENDBRANCH  90  91
ENDBRANCH  64  85
ENDBRANCH  38  39
ENDBRANCH  30  33
ENDBRANCH  28  29
ENDBRANCH   1  28
TORSDOF 16
ENDMDL
MODEL 3
REMARK VINA RESULT:     -10.3      6.663     14.778
REMARK SMILES Cc1ccc(-c2nn(CCC(=O)NCCCNC(=O)c3ccc(-c4c5nc(c(-c6ccc(S(=O)(=O)[O-])cc6)c6ccc([nH]6)c(-c6ccc(S(=O)(=O)[O-])cc6)c6nc(c(-c7ccc(S(=O)(=O)[O-])cc7)c7ccc4[nH]7)C=C6)C=C5)cc3)c(=O)c3noc(C)c23)cc1C
REMARK SMILES IDX 15 1 14 2 13 3 11 4 12 5 10 7 9 8 8 9 6 10 7 11 87 12 82 13
REMARK SMILES IDX 85 14 80 15 83 16 84 17 86 18 81 19 5 20 1 21 2 22 3 23
REMARK SMILES IDX 89 24 4 25 88 26 90 27 16 28 17 29 18 30 19 32 20 33 21 34
REMARK SMILES IDX 79 35 22 36 78 37 23 38 24 39 25 40 72 41 26 42 77 43 71 44
REMARK SMILES IDX 73 45 27 46 76 47 70 48 69 49 28 51 58 52 39 53 57 54 40 55
REMARK SMILES IDX 43 56 56 57 74 58 41 59 42 60 55 62 75 63 44 64 29 65 30 66
REMARK SMILES IDX 38 67 31 68 37 69 32 70 33 71 34 72 35 73 36 74 59 75 60 76
REMARK SMILES IDX 68 77 61 78 67 79 62 80 63 81 64 82 65 83 66 84 45 85 46 86
REMARK SMILES IDX 54 87 47 88 53 89 48 90 49 91 50 92 51 93 52 94
REMARK H PARENT 13 6 17 31 73 50 43 61
REMARK Flexibility Score: inf
ROOT
ATOM      1  C   UNL A   1      45.957  22.186  35.064  1.00  0.00     0.042 C 
ENDROOT
BRANCH   1   2
ATOM      2  C   UNL A   1      46.555  20.789  34.891  1.00  0.00     0.117 C 
BRANCH   2   3
ATOM      3  N   UNL A   1      46.066  19.881  35.918  1.00  0.00    -0.356 N 
ATOM      4  C   UNL A   1      46.549  19.582  37.156  1.00  0.00     0.221 C 
ATOM      5  O   UNL A   1      46.020  18.657  37.777  1.00  0.00    -0.275 OA
ATOM      6  H   UNL A   1      45.243  19.398  35.676  1.00  0.00     0.163 HD
BRANCH   4   7
ATOM      7  C   UNL A   1      47.659  20.389  37.795  1.00  0.00     0.124 C 
BRANCH   7   8
ATOM      8  C   UNL A   1      48.950  19.595  37.980  1.00  0.00     0.158 C 
BRANCH   8   9
ATOM      9  N   UNL A   1      49.993  19.971  37.025  1.00  0.00    -0.227 N 
ATOM     10  C   UNL A   1      50.625  21.531  35.383  1.00  0.00     0.104 A 
ATOM     11  N   UNL A   1      49.797  21.192  36.334  1.00  0.00    -0.169 NA
ATOM     12  C   UNL A   1      51.646  20.615  34.971  1.00  0.00     0.078 A 
ATOM     13  C   UNL A   1      51.994  19.546  35.802  1.00  0.00     0.183 A 
ATOM     14  C   UNL A   1      52.409  20.447  33.842  1.00  0.00     0.143 A 
ATOM     15  C   UNL A   1      51.179  19.195  36.954  1.00  0.00     0.296 A 
ATOM     16  N   UNL A   1      53.008  18.834  35.298  1.00  0.00    -0.074 NA
ATOM     17  O   UNL A   1      53.259  19.397  34.053  1.00  0.00    -0.360 OA
ATOM     18  C   UNL A   1      52.472  21.061  32.501  1.00  0.00     0.091 C 
ATOM     19  O   UNL A   1      51.432  18.267  37.711  1.00  0.00    -0.265 OA
BRANCH  10  20
ATOM     20  C   UNL A   1      50.724  22.918  34.903  1.00  0.00     0.003 A 
ATOM     21  C   UNL A   1      51.842  26.647  33.075  1.00  0.00     0.044 C 
ATOM     22  C   UNL A   1      51.389  25.367  33.724  1.00  0.00    -0.048 A 
ATOM     23  C   UNL A   1      52.165  24.847  34.771  1.00  0.00     0.004 A 
ATOM     24  C   UNL A   1      50.239  24.666  33.295  1.00  0.00    -0.048 A 
ATOM     25  C   UNL A   1      51.838  23.629  35.355  1.00  0.00     0.011 A 
ATOM     26  C   UNL A   1      49.904  23.439  33.905  1.00  0.00     0.014 A 
ATOM     27  C   UNL A   1      49.398  25.128  32.134  1.00  0.00     0.044 C 
ENDBRANCH  10  20
ENDBRANCH   8   9
ENDBRANCH   7   8
ENDBRANCH   4   7
ENDBRANCH   2   3
ENDBRANCH   1   2
BRANCH   1  28
ATOM     28  C   UNL A   1      44.438  22.302  35.210  1.00  0.00     0.118 C 
BRANCH  28  29
ATOM     29  N   UNL A   1      44.080  23.515  35.925  1.00  0.00    -0.352 N 
ATOM     30  C   UNL A   1      44.376  24.843  35.751  1.00  0.00     0.251 C 
ATOM     31  H   UNL A   1      43.500  23.348  36.703  1.00  0.00     0.163 HD
ATOM     32  O   UNL A   1      44.238  25.546  36.757  1.00  0.00    -0.269 OA
BRANCH  30  33
ATOM     33  C   UNL A   1      44.801  25.494  34.472  1.00  0.00     0.039 A 
ATOM     34  C   UNL A   1      43.993  25.235  33.349  1.00  0.00     0.014 A 
ATOM     35  C   UNL A   1      45.974  26.227  34.273  1.00  0.00     0.014 A 
ATOM     36  C   UNL A   1      44.326  25.709  32.076  1.00  0.00     0.010 A 
ATOM     37  C   UNL A   1      46.297  26.731  32.997  1.00  0.00     0.010 A 
ATOM     38  C   UNL A   1      45.473  26.484  31.890  1.00  0.00    -0.014 A 
BRANCH  38  39
ATOM     39  C   UNL A   1      45.674  27.106  30.558  1.00  0.00     0.031 A 
ATOM     40  C   UNL A   1      45.608  26.160  29.398  1.00  0.00     0.074 A 
ATOM     41  C   UNL A   1      45.420  28.413  30.318  1.00  0.00     0.049 A 
ATOM     42  N   UNL A   1      44.478  25.751  28.899  1.00  0.00    -0.248 NA
ATOM     43  C   UNL A   1      46.770  25.423  28.902  1.00  0.00     0.031 C 
ATOM     44  C   UNL A   1      44.330  29.154  30.968  1.00  0.00     0.029 A 
ATOM     45  N   UNL A   1      45.857  29.265  29.325  1.00  0.00    -0.354 N 
ATOM     46  C   UNL A   1      44.754  24.687  28.057  1.00  0.00     0.074 A 
ATOM     47  C   UNL A   1      46.191  24.523  28.087  1.00  0.00     0.031 C 
ATOM     48  C   UNL A   1      44.070  30.266  30.248  1.00  0.00     0.029 A 
ATOM     49  C   UNL A   1      45.067  30.408  29.188  1.00  0.00     0.049 A 
ATOM     50  H   UNL A   1      46.648  29.085  28.768  1.00  0.00     0.167 HD
ATOM     51  C   UNL A   1      43.779  24.017  27.385  1.00  0.00     0.031 A 
ATOM     52  C   UNL A   1      44.860  31.086  28.021  1.00  0.00     0.031 A 
ATOM     53  C   UNL A   1      42.456  24.535  27.581  1.00  0.00     0.049 A 
ATOM     54  C   UNL A   1      43.986  30.112  27.276  1.00  0.00     0.074 A 
ATOM     55  C   UNL A   1      41.362  24.272  28.376  1.00  0.00     0.029 A 
ATOM     56  N   UNL A   1      42.102  25.651  26.862  1.00  0.00    -0.354 N 
ATOM     57  N   UNL A   1      42.709  29.926  27.480  1.00  0.00    -0.248 NA
ATOM     58  C   UNL A   1      44.650  29.035  26.540  1.00  0.00     0.031 C 
ATOM     59  C   UNL A   1      40.621  25.496  28.419  1.00  0.00     0.029 A 
ATOM     60  C   UNL A   1      41.331  26.438  27.677  1.00  0.00     0.049 A 
ATOM     61  H   UNL A   1      42.355  25.850  25.931  1.00  0.00     0.167 HD
ATOM     62  C   UNL A   1      42.485  28.577  27.202  1.00  0.00     0.074 A 
ATOM     63  C   UNL A   1      43.717  28.093  26.607  1.00  0.00     0.031 C 
ATOM     64  C   UNL A   1      41.394  27.884  27.644  1.00  0.00     0.031 A 
BRANCH  51  65
ATOM     65  C   UNL A   1      43.991  22.954  26.372  1.00  0.00    -0.014 A 
ATOM     66  C   UNL A   1      43.097  21.866  26.384  1.00  0.00     0.010 A 
ATOM     67  C   UNL A   1      45.157  22.871  25.598  1.00  0.00     0.010 A 
ATOM     68  C   UNL A   1      43.388  20.693  25.690  1.00  0.00     0.020 A 
ATOM     69  C   UNL A   1      45.447  21.696  24.885  1.00  0.00     0.020 A 
ATOM     70  C   UNL A   1      44.572  20.606  24.959  1.00  0.00     0.054 A 
BRANCH  70  71
ATOM     71  S   UNL A   1      44.960  19.021  24.165  1.00  0.00     0.124 S 
ATOM     72  O   UNL A   1      44.143  18.081  24.929  1.00  0.00    -0.237 OA
ATOM     73  O   UNL A   1      44.528  19.252  22.789  1.00  0.00    -0.237 OA
ATOM     74  O   UNL A   1      46.402  18.884  24.348  1.00  0.00    -0.744 OA
ENDBRANCH  70  71
ENDBRANCH  51  65
BRANCH  52  75
ATOM     75  C   UNL A   1      46.068  31.739  27.418  1.00  0.00    -0.014 A 
ATOM     76  C   UNL A   1      45.850  32.863  26.592  1.00  0.00     0.010 A 
ATOM     77  C   UNL A   1      47.400  31.334  27.617  1.00  0.00     0.010 A 
ATOM     78  C   UNL A   1      46.909  33.648  26.128  1.00  0.00     0.020 A 
ATOM     79  C   UNL A   1      48.470  32.130  27.178  1.00  0.00     0.020 A 
ATOM     80  C   UNL A   1      48.214  33.305  26.473  1.00  0.00     0.054 A 
BRANCH  80  81
ATOM     81  S   UNL A   1      49.544  34.467  26.064  1.00  0.00     0.124 S 
ATOM     82  O   UNL A   1      50.694  33.583  25.895  1.00  0.00    -0.237 OA
ATOM     83  O   UNL A   1      49.042  35.088  24.842  1.00  0.00    -0.237 OA
ATOM     84  O   UNL A   1      49.602  35.350  27.226  1.00  0.00    -0.744 OA
ENDBRANCH  80  81
ENDBRANCH  52  75
BRANCH  64  85
ATOM     85  C   UNL A   1      40.322  28.682  28.321  1.00  0.00    -0.014 A 
ATOM     86  C   UNL A   1      39.195  29.098  27.597  1.00  0.00     0.010 A 
ATOM     87  C   UNL A   1      40.386  28.954  29.701  1.00  0.00     0.010 A 
ATOM     88  C   UNL A   1      38.129  29.726  28.245  1.00  0.00     0.020 A 
ATOM     89  C   UNL A   1      39.315  29.565  30.359  1.00  0.00     0.020 A 
ATOM     90  C   UNL A   1      38.186  29.936  29.626  1.00  0.00     0.054 A 
BRANCH  90  91
ATOM     91  S   UNL A   1      36.736  30.643  30.452  1.00  0.00     0.124 S 
ATOM     92  O   UNL A   1      37.294  31.811  31.127  1.00  0.00    -0.237 OA
ATOM     93  O   UNL A   1      35.844  30.932  29.330  1.00  0.00    -0.237 OA
ATOM     94  O   UNL A   1      36.280  29.573  31.338  1.00  0.00    -0.744 OA
ENDBRANCH  90  91
ENDBRANCH  64  85
ENDBRANCH  38  39
ENDBRANCH  30  33
ENDBRANCH  28  29
ENDBRANCH   1  28
TORSDOF 16
ENDMDL
