MODEL 1
REMARK VINA RESULT:     -10.6      0.000      0.000
REMARK SMILES [NH3+][C@@H](Cc1ccc(F)cc1C(F)(F)F)C(=O)NCCCNC(=O)c1ccc(-c2c3nc(c(-c4ccc(S(=O)(=O)[O-])cc4)c4ccc([nH]4)c(-c4ccc(S(=O)(=O)[O-])cc4)c4nc(c(-c5ccc(S(=O)(=O)[O-])cc5)c5ccc2[nH]5)C=C4)C=C3)cc1
REMARK SMILES IDX 19 1 18 2 17 3 15 4 16 5 2 7 1 8 3 12 4 13 5 14 10 15 6 16
REMARK SMILES IDX 9 17 7 18 8 19 11 20 12 21 13 22 14 23 20 24 21 25 22 26
REMARK SMILES IDX 23 28 24 29 25 30 83 31 26 32 82 33 27 34 28 35 29 36 76 37
REMARK SMILES IDX 30 38 81 39 75 40 77 41 31 42 80 43 74 44 73 45 32 47 62 48
REMARK SMILES IDX 43 49 61 50 44 51 47 52 60 53 78 54 45 55 46 56 59 58 79 59
REMARK SMILES IDX 48 60 33 61 34 62 42 63 35 64 41 65 36 66 37 67 38 68 39 69
REMARK SMILES IDX 40 70 63 71 64 72 72 73 65 74 71 75 66 76 67 77 68 78 69 79
REMARK SMILES IDX 70 80 49 81 50 82 58 83 51 84 57 85 52 86 53 87 54 88 55 89
REMARK SMILES IDX 56 90
REMARK H PARENT 17 6 1 9 1 10 1 11 21 27 77 46 47 57
REMARK Flexibility Score: inf
ROOT
ATOM      1  C   UNL A   1      33.864  27.586  25.852  1.00  0.00     0.042 C 
ENDROOT
BRANCH   1   2
ATOM      2  C   UNL A   1      32.813  27.742  24.753  1.00  0.00     0.118 C 
BRANCH   2   3
ATOM      3  N   UNL A   1      33.312  27.324  23.459  1.00  0.00    -0.351 N 
ATOM      4  C   UNL A   1      33.341  26.168  22.758  1.00  0.00     0.278 C 
ATOM      5  O   UNL A   1      33.838  26.295  21.626  1.00  0.00    -0.268 OA
ATOM      6  H   UNL A   1      33.736  28.064  22.968  1.00  0.00     0.163 HD
BRANCH   4   7
ATOM      7  C   UNL A   1      32.860  24.753  23.209  1.00  0.00     0.275 C 
BRANCH   7   8
ATOM      8  N   UNL A   1      32.634  23.888  22.031  1.00  0.00    -0.347 N 
ATOM      9  H   UNL A   1      31.811  24.214  21.522  1.00  0.00     0.345 HD
ATOM     10  H   UNL A   1      32.483  22.927  22.339  1.00  0.00     0.345 HD
ATOM     11  H   UNL A   1      33.449  23.926  21.420  1.00  0.00     0.345 HD
ENDBRANCH   7   8
BRANCH   7  12
ATOM     12  C   UNL A   1      33.334  23.998  24.464  1.00  0.00     0.111 C 
BRANCH  12  13
ATOM     13  C   UNL A   1      34.626  23.227  24.693  1.00  0.00    -0.029 A 
ATOM     14  C   UNL A   1      35.745  24.066  24.967  1.00  0.00     0.007 A 
ATOM     15  C   UNL A   1      34.837  21.830  24.696  1.00  0.00     0.062 A 
ATOM     16  C   UNL A   1      37.033  23.564  25.124  1.00  0.00     0.039 A 
ATOM     17  C   UNL A   1      36.160  21.343  24.844  1.00  0.00     0.052 A 
ATOM     18  C   UNL A   1      37.233  22.203  25.036  1.00  0.00     0.123 A 
ATOM     19  F   UNL A   1      38.470  21.707  25.148  1.00  0.00    -0.207 F 
BRANCH  15  20
ATOM     20  C   UNL A   1      33.748  20.788  24.577  1.00  0.00     0.416 C 
ATOM     21  F   UNL A   1      33.047  20.879  23.416  1.00  0.00    -0.166 F 
ATOM     22  F   UNL A   1      34.209  19.507  24.609  1.00  0.00    -0.166 F 
ATOM     23  F   UNL A   1      32.836  20.877  25.583  1.00  0.00    -0.166 F 
ENDBRANCH  15  20
ENDBRANCH  12  13
ENDBRANCH   7  12
ENDBRANCH   4   7
ENDBRANCH   2   3
ENDBRANCH   1   2
BRANCH   1  24
ATOM     24  C   UNL A   1      33.397  28.057  27.227  1.00  0.00     0.118 C 
BRANCH  24  25
ATOM     25  N   UNL A   1      33.328  29.510  27.308  1.00  0.00    -0.352 N 
ATOM     26  C   UNL A   1      34.214  30.436  27.806  1.00  0.00     0.251 C 
ATOM     27  H   UNL A   1      32.501  29.897  26.942  1.00  0.00     0.163 HD
ATOM     28  O   UNL A   1      33.816  31.590  27.964  1.00  0.00    -0.269 OA
BRANCH  26  29
ATOM     29  C   UNL A   1      35.617  30.093  28.160  1.00  0.00     0.039 A 
ATOM     30  C   UNL A   1      36.598  30.166  27.162  1.00  0.00     0.014 A 
ATOM     31  C   UNL A   1      35.974  29.616  29.423  1.00  0.00     0.014 A 
ATOM     32  C   UNL A   1      37.922  29.800  27.438  1.00  0.00     0.010 A 
ATOM     33  C   UNL A   1      37.310  29.339  29.722  1.00  0.00     0.010 A 
ATOM     34  C   UNL A   1      38.298  29.404  28.730  1.00  0.00    -0.014 A 
BRANCH  34  35
ATOM     35  C   UNL A   1      39.698  29.008  29.055  1.00  0.00     0.031 A 
ATOM     36  C   UNL A   1      40.637  30.003  29.695  1.00  0.00     0.074 A 
ATOM     37  C   UNL A   1      40.156  27.783  28.723  1.00  0.00     0.049 A 
ATOM     38  N   UNL A   1      41.919  29.894  29.943  1.00  0.00    -0.248 NA
ATOM     39  C   UNL A   1      40.064  31.305  30.076  1.00  0.00     0.031 C 
ATOM     40  C   UNL A   1      39.374  26.731  28.071  1.00  0.00     0.029 A 
ATOM     41  N   UNL A   1      41.401  27.220  28.880  1.00  0.00    -0.354 N 
ATOM     42  C   UNL A   1      42.311  31.123  30.464  1.00  0.00     0.074 A 
ATOM     43  C   UNL A   1      41.140  31.974  30.462  1.00  0.00     0.031 C 
ATOM     44  C   UNL A   1      40.147  25.644  27.908  1.00  0.00     0.029 A 
ATOM     45  C   UNL A   1      41.489  25.933  28.404  1.00  0.00     0.049 A 
ATOM     46  H   UNL A   1      42.156  27.694  29.295  1.00  0.00     0.167 HD
ATOM     47  C   UNL A   1      43.528  31.508  30.920  1.00  0.00     0.031 A 
ATOM     48  C   UNL A   1      42.532  25.080  28.362  1.00  0.00     0.031 A 
ATOM     49  C   UNL A   1      44.681  30.650  30.969  1.00  0.00     0.049 A 
ATOM     50  C   UNL A   1      43.864  25.515  28.909  1.00  0.00     0.074 A 
ATOM     51  C   UNL A   1      45.940  30.928  31.473  1.00  0.00     0.029 A 
ATOM     52  N   UNL A   1      44.713  29.341  30.514  1.00  0.00    -0.354 N 
ATOM     53  N   UNL A   1      44.203  26.669  29.430  1.00  0.00    -0.248 NA
ATOM     54  C   UNL A   1      44.952  24.526  28.873  1.00  0.00     0.031 C 
ATOM     55  C   UNL A   1      46.743  29.796  31.293  1.00  0.00     0.029 A 
ATOM     56  C   UNL A   1      45.971  28.800  30.717  1.00  0.00     0.049 A 
ATOM     57  H   UNL A   1      43.954  28.867  30.106  1.00  0.00     0.167 HD
ATOM     58  C   UNL A   1      45.536  26.539  29.804  1.00  0.00     0.074 A 
ATOM     59  C   UNL A   1      45.938  25.188  29.463  1.00  0.00     0.031 C 
ATOM     60  C   UNL A   1      46.354  27.454  30.379  1.00  0.00     0.031 A 
BRANCH  47  61
ATOM     61  C   UNL A   1      43.672  32.928  31.404  1.00  0.00    -0.014 A 
ATOM     62  C   UNL A   1      43.467  33.261  32.756  1.00  0.00     0.010 A 
ATOM     63  C   UNL A   1      44.040  33.941  30.500  1.00  0.00     0.010 A 
ATOM     64  C   UNL A   1      43.575  34.587  33.183  1.00  0.00     0.020 A 
ATOM     65  C   UNL A   1      44.178  35.265  30.929  1.00  0.00     0.020 A 
ATOM     66  C   UNL A   1      43.922  35.582  32.264  1.00  0.00     0.054 A 
BRANCH  66  67
ATOM     67  S   UNL A   1      44.059  37.296  32.846  1.00  0.00     0.124 S 
ATOM     68  O   UNL A   1      43.926  38.046  31.599  1.00  0.00    -0.237 OA
ATOM     69  O   UNL A   1      42.935  37.414  33.771  1.00  0.00    -0.237 OA
ATOM     70  O   UNL A   1      45.380  37.345  33.466  1.00  0.00    -0.744 OA
ENDBRANCH  66  67
ENDBRANCH  47  61
BRANCH  48  71
ATOM     71  C   UNL A   1      42.351  23.715  27.798  1.00  0.00    -0.014 A 
ATOM     72  C   UNL A   1      42.587  23.475  26.432  1.00  0.00     0.010 A 
ATOM     73  C   UNL A   1      41.963  22.644  28.624  1.00  0.00     0.010 A 
ATOM     74  C   UNL A   1      42.424  22.193  25.899  1.00  0.00     0.020 A 
ATOM     75  C   UNL A   1      41.823  21.355  28.099  1.00  0.00     0.020 A 
ATOM     76  C   UNL A   1      42.045  21.141  26.737  1.00  0.00     0.054 A 
BRANCH  76  77
ATOM     77  S   UNL A   1      41.902  19.472  26.037  1.00  0.00     0.124 S 
ATOM     78  O   UNL A   1      40.470  19.372  25.783  1.00  0.00    -0.237 OA
ATOM     79  O   UNL A   1      42.753  19.551  24.853  1.00  0.00    -0.237 OA
ATOM     80  O   UNL A   1      42.412  18.611  27.103  1.00  0.00    -0.744 OA
ENDBRANCH  76  77
ENDBRANCH  48  71
BRANCH  60  81
ATOM     81  C   UNL A   1      47.756  27.021  30.709  1.00  0.00    -0.014 A 
ATOM     82  C   UNL A   1      48.819  27.263  29.822  1.00  0.00     0.010 A 
ATOM     83  C   UNL A   1      48.020  26.414  31.950  1.00  0.00     0.010 A 
ATOM     84  C   UNL A   1      50.120  26.881  30.161  1.00  0.00     0.020 A 
ATOM     85  C   UNL A   1      49.323  26.052  32.302  1.00  0.00     0.020 A 
ATOM     86  C   UNL A   1      50.363  26.276  31.399  1.00  0.00     0.054 A 
BRANCH  86  87
ATOM     87  S   UNL A   1      52.067  25.833  31.837  1.00  0.00     0.124 S 
ATOM     88  O   UNL A   1      51.923  24.438  32.244  1.00  0.00    -0.237 OA
ATOM     89  O   UNL A   1      52.790  26.052  30.587  1.00  0.00    -0.237 OA
ATOM     90  O   UNL A   1      52.400  26.766  32.912  1.00  0.00    -0.744 OA
ENDBRANCH  86  87
ENDBRANCH  60  81
ENDBRANCH  34  35
ENDBRANCH  26  29
ENDBRANCH  24  25
ENDBRANCH   1  24
TORSDOF 17
ENDMDL
MODEL 2
REMARK VINA RESULT:     -10.4      0.672      1.631
REMARK SMILES [NH3+][C@@H](Cc1ccc(F)cc1C(F)(F)F)C(=O)NCCCNC(=O)c1ccc(-c2c3nc(c(-c4ccc(S(=O)(=O)[O-])cc4)c4ccc([nH]4)c(-c4ccc(S(=O)(=O)[O-])cc4)c4nc(c(-c5ccc(S(=O)(=O)[O-])cc5)c5ccc2[nH]5)C=C4)C=C3)cc1
REMARK SMILES IDX 19 1 18 2 17 3 15 4 16 5 2 7 1 8 3 12 4 13 5 14 10 15 6 16
REMARK SMILES IDX 9 17 7 18 8 19 11 20 12 21 13 22 14 23 20 24 21 25 22 26
REMARK SMILES IDX 23 28 24 29 25 30 83 31 26 32 82 33 27 34 28 35 29 36 76 37
REMARK SMILES IDX 30 38 81 39 75 40 77 41 31 42 80 43 74 44 73 45 32 47 62 48
REMARK SMILES IDX 43 49 61 50 44 51 47 52 60 53 78 54 45 55 46 56 59 58 79 59
REMARK SMILES IDX 48 60 33 61 34 62 42 63 35 64 41 65 36 66 37 67 38 68 39 69
REMARK SMILES IDX 40 70 63 71 64 72 72 73 65 74 71 75 66 76 67 77 68 78 69 79
REMARK SMILES IDX 70 80 49 81 50 82 58 83 51 84 57 85 52 86 53 87 54 88 55 89
REMARK SMILES IDX 56 90
REMARK H PARENT 17 6 1 9 1 10 1 11 21 27 77 46 47 57
REMARK Flexibility Score: inf
ROOT
ATOM      1  C   UNL A   1      33.978  27.977  25.526  1.00  0.00     0.042 C 
ENDROOT
BRANCH   1   2
ATOM      2  C   UNL A   1      32.835  27.919  24.513  1.00  0.00     0.118 C 
BRANCH   2   3
ATOM      3  N   UNL A   1      33.283  27.465  23.212  1.00  0.00    -0.351 N 
ATOM      4  C   UNL A   1      33.312  26.285  22.553  1.00  0.00     0.278 C 
ATOM      5  O   UNL A   1      33.749  26.381  21.394  1.00  0.00    -0.268 OA
ATOM      6  H   UNL A   1      33.659  28.198  22.673  1.00  0.00     0.163 HD
BRANCH   4   7
ATOM      7  C   UNL A   1      32.897  24.875  23.080  1.00  0.00     0.275 C 
BRANCH   7   8
ATOM      8  N   UNL A   1      32.497  24.003  21.955  1.00  0.00    -0.347 N 
ATOM      9  H   UNL A   1      33.052  23.147  21.973  1.00  0.00     0.345 HD
ATOM     10  H   UNL A   1      32.656  24.492  21.073  1.00  0.00     0.345 HD
ATOM     11  H   UNL A   1      31.508  23.770  22.040  1.00  0.00     0.345 HD
ENDBRANCH   7   8
BRANCH   7  12
ATOM     12  C   UNL A   1      33.548  24.126  24.257  1.00  0.00     0.111 C 
BRANCH  12  13
ATOM     13  C   UNL A   1      33.733  22.629  24.463  1.00  0.00    -0.029 A 
ATOM     14  C   UNL A   1      32.510  21.933  24.685  1.00  0.00     0.007 A 
ATOM     15  C   UNL A   1      34.925  21.870  24.434  1.00  0.00     0.062 A 
ATOM     16  C   UNL A   1      32.468  20.573  24.977  1.00  0.00     0.039 A 
ATOM     17  C   UNL A   1      34.858  20.490  24.749  1.00  0.00     0.052 A 
ATOM     18  C   UNL A   1      33.650  19.867  25.031  1.00  0.00     0.123 A 
ATOM     19  F   UNL A   1      33.630  18.567  25.346  1.00  0.00    -0.207 F 
BRANCH  15  20
ATOM     20  C   UNL A   1      36.288  22.409  24.065  1.00  0.00     0.416 C 
ATOM     21  F   UNL A   1      36.701  23.417  24.878  1.00  0.00    -0.166 F 
ATOM     22  F   UNL A   1      37.280  21.479  24.127  1.00  0.00    -0.166 F 
ATOM     23  F   UNL A   1      36.322  22.902  22.797  1.00  0.00    -0.166 F 
ENDBRANCH  15  20
ENDBRANCH  12  13
ENDBRANCH   7  12
ENDBRANCH   4   7
ENDBRANCH   2   3
ENDBRANCH   1   2
BRANCH   1  24
ATOM     24  C   UNL A   1      33.519  28.187  26.966  1.00  0.00     0.118 C 
BRANCH  24  25
ATOM     25  N   UNL A   1      33.461  29.600  27.315  1.00  0.00    -0.352 N 
ATOM     26  C   UNL A   1      34.362  30.416  27.958  1.00  0.00     0.251 C 
ATOM     27  H   UNL A   1      32.630  30.050  27.043  1.00  0.00     0.163 HD
ATOM     28  O   UNL A   1      33.973  31.523  28.334  1.00  0.00    -0.269 OA
BRANCH  26  29
ATOM     29  C   UNL A   1      35.769  30.011  28.216  1.00  0.00     0.039 A 
ATOM     30  C   UNL A   1      36.109  29.547  29.494  1.00  0.00     0.014 A 
ATOM     31  C   UNL A   1      36.777  30.160  27.262  1.00  0.00     0.014 A 
ATOM     32  C   UNL A   1      37.434  29.205  29.797  1.00  0.00     0.010 A 
ATOM     33  C   UNL A   1      38.078  29.733  27.536  1.00  0.00     0.010 A 
ATOM     34  C   UNL A   1      38.431  29.273  28.813  1.00  0.00    -0.014 A 
BRANCH  34  35
ATOM     35  C   UNL A   1      39.849  28.917  29.104  1.00  0.00     0.031 A 
ATOM     36  C   UNL A   1      40.773  29.938  29.724  1.00  0.00     0.074 A 
ATOM     37  C   UNL A   1      40.335  27.707  28.758  1.00  0.00     0.049 A 
ATOM     38  N   UNL A   1      42.063  29.866  29.941  1.00  0.00    -0.248 NA
ATOM     39  C   UNL A   1      40.173  31.222  30.121  1.00  0.00     0.031 C 
ATOM     40  C   UNL A   1      39.568  26.633  28.123  1.00  0.00     0.029 A 
ATOM     41  N   UNL A   1      41.598  27.180  28.884  1.00  0.00    -0.354 N 
ATOM     42  C   UNL A   1      42.433  31.105  30.455  1.00  0.00     0.074 A 
ATOM     43  C   UNL A   1      41.238  31.921  30.483  1.00  0.00     0.031 C 
ATOM     44  C   UNL A   1      40.368  25.569  27.939  1.00  0.00     0.029 A 
ATOM     45  C   UNL A   1      41.712  25.897  28.403  1.00  0.00     0.049 A 
ATOM     46  H   UNL A   1      42.350  27.674  29.282  1.00  0.00     0.167 HD
ATOM     47  C   UNL A   1      43.648  31.524  30.883  1.00  0.00     0.031 A 
ATOM     48  C   UNL A   1      42.779  25.074  28.334  1.00  0.00     0.031 A 
ATOM     49  C   UNL A   1      44.827  30.700  30.903  1.00  0.00     0.049 A 
ATOM     50  C   UNL A   1      44.110  25.547  28.851  1.00  0.00     0.074 A 
ATOM     51  C   UNL A   1      46.089  31.014  31.377  1.00  0.00     0.029 A 
ATOM     52  N   UNL A   1      44.886  29.394  30.444  1.00  0.00    -0.354 N 
ATOM     53  N   UNL A   1      44.428  26.710  29.366  1.00  0.00    -0.248 NA
ATOM     54  C   UNL A   1      45.225  24.590  28.787  1.00  0.00     0.031 C 
ATOM     55  C   UNL A   1      46.920  29.906  31.175  1.00  0.00     0.029 A 
ATOM     56  C   UNL A   1      46.163  28.889  30.616  1.00  0.00     0.049 A 
ATOM     57  H   UNL A   1      44.131  28.898  30.053  1.00  0.00     0.167 HD
ATOM     58  C   UNL A   1      45.772  26.617  29.708  1.00  0.00     0.074 A 
ATOM     59  C   UNL A   1      46.205  25.280  29.355  1.00  0.00     0.031 C 
ATOM     60  C   UNL A   1      46.577  27.555  30.265  1.00  0.00     0.031 A 
BRANCH  47  61
ATOM     61  C   UNL A   1      43.762  32.947  31.366  1.00  0.00    -0.014 A 
ATOM     62  C   UNL A   1      43.440  33.294  32.692  1.00  0.00     0.010 A 
ATOM     63  C   UNL A   1      44.221  33.949  30.491  1.00  0.00     0.010 A 
ATOM     64  C   UNL A   1      43.522  34.622  33.117  1.00  0.00     0.020 A 
ATOM     65  C   UNL A   1      44.332  35.275  30.921  1.00  0.00     0.020 A 
ATOM     66  C   UNL A   1      43.960  35.606  32.225  1.00  0.00     0.054 A 
BRANCH  66  67
ATOM     67  S   UNL A   1      44.062  37.324  32.802  1.00  0.00     0.124 S 
ATOM     68  O   UNL A   1      43.838  38.069  31.566  1.00  0.00    -0.237 OA
ATOM     69  O   UNL A   1      42.983  37.398  33.784  1.00  0.00    -0.237 OA
ATOM     70  O   UNL A   1      45.410  37.423  33.356  1.00  0.00    -0.744 OA
ENDBRANCH  66  67
ENDBRANCH  47  61
BRANCH  48  71
ATOM     71  C   UNL A   1      42.624  23.706  27.772  1.00  0.00    -0.014 A 
ATOM     72  C   UNL A   1      42.264  22.632  28.607  1.00  0.00     0.010 A 
ATOM     73  C   UNL A   1      42.816  23.469  26.398  1.00  0.00     0.010 A 
ATOM     74  C   UNL A   1      42.111  21.346  28.082  1.00  0.00     0.020 A 
ATOM     75  C   UNL A   1      42.640  22.188  25.866  1.00  0.00     0.020 A 
ATOM     76  C   UNL A   1      42.298  21.133  26.714  1.00  0.00     0.054 A 
BRANCH  76  77
ATOM     77  S   UNL A   1      42.032  19.467  26.043  1.00  0.00     0.124 S 
ATOM     78  O   UNL A   1      40.597  19.470  25.785  1.00  0.00    -0.237 OA
ATOM     79  O   UNL A   1      42.890  19.460  24.861  1.00  0.00    -0.237 OA
ATOM     80  O   UNL A   1      42.473  18.590  27.127  1.00  0.00    -0.744 OA
ENDBRANCH  76  77
ENDBRANCH  48  71
BRANCH  60  81
ATOM     81  C   UNL A   1      47.999  27.162  30.561  1.00  0.00    -0.014 A 
ATOM     82  C   UNL A   1      49.021  27.372  29.620  1.00  0.00     0.010 A 
ATOM     83  C   UNL A   1      48.322  26.628  31.821  1.00  0.00     0.010 A 
ATOM     84  C   UNL A   1      50.341  27.030  29.925  1.00  0.00     0.020 A 
ATOM     85  C   UNL A   1      49.644  26.306  32.138  1.00  0.00     0.020 A 
ATOM     86  C   UNL A   1      50.644  26.497  31.183  1.00  0.00     0.054 A 
BRANCH  86  87
ATOM     87  S   UNL A   1      52.372  26.105  31.575  1.00  0.00     0.124 S 
ATOM     88  O   UNL A   1      52.256  24.769  32.155  1.00  0.00    -0.237 OA
ATOM     89  O   UNL A   1      53.022  26.170  30.269  1.00  0.00    -0.237 OA
ATOM     90  O   UNL A   1      52.761  27.159  32.510  1.00  0.00    -0.744 OA
ENDBRANCH  86  87
ENDBRANCH  60  81
ENDBRANCH  34  35
ENDBRANCH  26  29
ENDBRANCH  24  25
ENDBRANCH   1  24
TORSDOF 17
ENDMDL
MODEL 3
REMARK VINA RESULT:     -10.3      4.062     10.543
REMARK SMILES [NH3+][C@@H](Cc1ccc(F)cc1C(F)(F)F)C(=O)NCCCNC(=O)c1ccc(-c2c3nc(c(-c4ccc(S(=O)(=O)[O-])cc4)c4ccc([nH]4)c(-c4ccc(S(=O)(=O)[O-])cc4)c4nc(c(-c5ccc(S(=O)(=O)[O-])cc5)c5ccc2[nH]5)C=C4)C=C3)cc1
REMARK SMILES IDX 19 1 18 2 17 3 15 4 16 5 2 7 1 8 3 12 4 13 5 14 10 15 6 16
REMARK SMILES IDX 9 17 7 18 8 19 11 20 12 21 13 22 14 23 20 24 21 25 22 26
REMARK SMILES IDX 23 28 24 29 25 30 83 31 26 32 82 33 27 34 28 35 29 36 76 37
REMARK SMILES IDX 30 38 81 39 75 40 77 41 31 42 80 43 74 44 73 45 32 47 62 48
REMARK SMILES IDX 43 49 61 50 44 51 47 52 60 53 78 54 45 55 46 56 59 58 79 59
REMARK SMILES IDX 48 60 33 61 34 62 42 63 35 64 41 65 36 66 37 67 38 68 39 69
REMARK SMILES IDX 40 70 63 71 64 72 72 73 65 74 71 75 66 76 67 77 68 78 69 79
REMARK SMILES IDX 70 80 49 81 50 82 58 83 51 84 57 85 52 86 53 87 54 88 55 89
REMARK SMILES IDX 56 90
REMARK H PARENT 17 6 1 9 1 10 1 11 21 27 77 46 47 57
REMARK Flexibility Score: inf
ROOT
ATOM      1  C   UNL A   1      41.998  22.033  27.135  1.00  0.00     0.042 C 
ENDROOT
BRANCH   1   2
ATOM      2  C   UNL A   1      42.327  21.952  25.644  1.00  0.00     0.118 C 
BRANCH   2   3
ATOM      3  N   UNL A   1      43.285  20.904  25.355  1.00  0.00    -0.351 N 
ATOM      4  C   UNL A   1      44.629  20.825  25.233  1.00  0.00     0.278 C 
ATOM      5  O   UNL A   1      45.035  19.669  25.026  1.00  0.00    -0.268 OA
ATOM      6  H   UNL A   1      42.849  20.034  25.210  1.00  0.00     0.163 HD
BRANCH   4   7
ATOM      7  C   UNL A   1      45.674  21.983  25.299  1.00  0.00     0.275 C 
BRANCH   7   8
ATOM      8  N   UNL A   1      45.896  22.552  23.953  1.00  0.00    -0.347 N 
ATOM      9  H   UNL A   1      45.723  23.558  23.975  1.00  0.00     0.345 HD
ATOM     10  H   UNL A   1      45.256  22.113  23.289  1.00  0.00     0.345 HD
ATOM     11  H   UNL A   1      46.858  22.378  23.664  1.00  0.00     0.345 HD
ENDBRANCH   7   8
BRANCH   7  12
ATOM     12  C   UNL A   1      45.820  23.000  26.446  1.00  0.00     0.111 C 
BRANCH  12  13
ATOM     13  C   UNL A   1      46.220  24.467  26.387  1.00  0.00    -0.029 A 
ATOM     14  C   UNL A   1      47.600  24.689  26.662  1.00  0.00     0.007 A 
ATOM     15  C   UNL A   1      45.423  25.592  26.077  1.00  0.00     0.062 A 
ATOM     16  C   UNL A   1      48.149  25.965  26.740  1.00  0.00     0.039 A 
ATOM     17  C   UNL A   1      46.002  26.883  26.178  1.00  0.00     0.052 A 
ATOM     18  C   UNL A   1      47.336  27.055  26.521  1.00  0.00     0.123 A 
ATOM     19  F   UNL A   1      47.840  28.290  26.628  1.00  0.00    -0.207 F 
BRANCH  15  20
ATOM     20  C   UNL A   1      43.985  25.536  25.615  1.00  0.00     0.416 C 
ATOM     21  F   UNL A   1      43.468  26.760  25.329  1.00  0.00    -0.166 F 
ATOM     22  F   UNL A   1      43.800  24.804  24.483  1.00  0.00    -0.166 F 
ATOM     23  F   UNL A   1      43.164  24.984  26.550  1.00  0.00    -0.166 F 
ENDBRANCH  15  20
ENDBRANCH  12  13
ENDBRANCH   7  12
ENDBRANCH   4   7
ENDBRANCH   2   3
ENDBRANCH   1   2
BRANCH   1  24
ATOM     24  C   UNL A   1      40.660  21.400  27.509  1.00  0.00     0.118 C 
BRANCH  24  25
ATOM     25  N   UNL A   1      39.620  21.721  26.541  1.00  0.00    -0.352 N 
ATOM     26  C   UNL A   1      38.916  22.880  26.312  1.00  0.00     0.251 C 
ATOM     27  H   UNL A   1      39.377  20.976  25.946  1.00  0.00     0.163 HD
ATOM     28  O   UNL A   1      37.926  22.821  25.583  1.00  0.00    -0.269 OA
BRANCH  26  29
ATOM     29  C   UNL A   1      39.304  24.184  26.912  1.00  0.00     0.039 A 
ATOM     30  C   UNL A   1      39.979  25.116  26.112  1.00  0.00     0.014 A 
ATOM     31  C   UNL A   1      39.100  24.476  28.262  1.00  0.00     0.014 A 
ATOM     32  C   UNL A   1      40.410  26.336  26.652  1.00  0.00     0.010 A 
ATOM     33  C   UNL A   1      39.449  25.727  28.776  1.00  0.00     0.010 A 
ATOM     34  C   UNL A   1      40.129  26.665  27.986  1.00  0.00    -0.014 A 
BRANCH  34  35
ATOM     35  C   UNL A   1      40.575  27.954  28.589  1.00  0.00     0.031 A 
ATOM     36  C   UNL A   1      41.984  28.096  29.114  1.00  0.00     0.074 A 
ATOM     37  C   UNL A   1      39.709  28.978  28.729  1.00  0.00     0.049 A 
ATOM     38  N   UNL A   1      42.526  29.085  29.780  1.00  0.00    -0.248 NA
ATOM     39  C   UNL A   1      42.894  26.960  28.888  1.00  0.00     0.031 C 
ATOM     40  C   UNL A   1      38.309  28.973  28.299  1.00  0.00     0.029 A 
ATOM     41  N   UNL A   1      39.878  30.224  29.286  1.00  0.00    -0.354 N 
ATOM     42  C   UNL A   1      43.818  28.673  30.090  1.00  0.00     0.074 A 
ATOM     43  C   UNL A   1      43.966  27.330  29.572  1.00  0.00     0.031 C 
ATOM     44  C   UNL A   1      37.756  30.164  28.583  1.00  0.00     0.029 A 
ATOM     45  C   UNL A   1      38.745  31.002  29.253  1.00  0.00     0.049 A 
ATOM     46  H   UNL A   1      40.730  30.529  29.671  1.00  0.00     0.167 HD
ATOM     47  C   UNL A   1      44.800  29.352  30.731  1.00  0.00     0.031 A 
ATOM     48  C   UNL A   1      38.521  32.250  29.713  1.00  0.00     0.031 A 
ATOM     49  C   UNL A   1      44.672  30.704  31.204  1.00  0.00     0.049 A 
ATOM     50  C   UNL A   1      39.637  33.000  30.388  1.00  0.00     0.074 A 
ATOM     51  C   UNL A   1      45.631  31.500  31.808  1.00  0.00     0.029 A 
ATOM     52  N   UNL A   1      43.519  31.468  31.112  1.00  0.00    -0.354 N 
ATOM     53  N   UNL A   1      40.862  32.604  30.638  1.00  0.00    -0.248 NA
ATOM     54  C   UNL A   1      39.343  34.370  30.831  1.00  0.00     0.031 C 
ATOM     55  C   UNL A   1      45.047  32.735  32.109  1.00  0.00     0.029 A 
ATOM     56  C   UNL A   1      43.739  32.723  31.654  1.00  0.00     0.049 A 
ATOM     57  H   UNL A   1      42.670  31.164  30.719  1.00  0.00     0.167 HD
ATOM     58  C   UNL A   1      41.492  33.683  31.247  1.00  0.00     0.074 A 
ATOM     59  C   UNL A   1      40.517  34.754  31.315  1.00  0.00     0.031 C 
ATOM     60  C   UNL A   1      42.762  33.780  31.709  1.00  0.00     0.031 A 
BRANCH  47  61
ATOM     61  C   UNL A   1      46.106  28.635  30.959  1.00  0.00    -0.014 A 
ATOM     62  C   UNL A   1      46.345  27.917  32.145  1.00  0.00     0.010 A 
ATOM     63  C   UNL A   1      47.101  28.660  29.964  1.00  0.00     0.010 A 
ATOM     64  C   UNL A   1      47.572  27.283  32.355  1.00  0.00     0.020 A 
ATOM     65  C   UNL A   1      48.320  28.003  30.158  1.00  0.00     0.020 A 
ATOM     66  C   UNL A   1      48.556  27.337  31.362  1.00  0.00     0.054 A 
BRANCH  66  67
ATOM     67  S   UNL A   1      50.140  26.503  31.658  1.00  0.00     0.124 S 
ATOM     68  O   UNL A   1      50.283  26.636  33.105  1.00  0.00    -0.237 OA
ATOM     69  O   UNL A   1      49.885  25.147  31.175  1.00  0.00    -0.237 OA
ATOM     70  O   UNL A   1      51.091  27.275  30.862  1.00  0.00    -0.744 OA
ENDBRANCH  66  67
ENDBRANCH  47  61
BRANCH  48  71
ATOM     71  C   UNL A   1      37.185  32.878  29.532  1.00  0.00    -0.014 A 
ATOM     72  C   UNL A   1      36.259  32.895  30.591  1.00  0.00     0.010 A 
ATOM     73  C   UNL A   1      36.836  33.481  28.309  1.00  0.00     0.010 A 
ATOM     74  C   UNL A   1      35.005  33.489  30.427  1.00  0.00     0.020 A 
ATOM     75  C   UNL A   1      35.592  34.098  28.149  1.00  0.00     0.020 A 
ATOM     76  C   UNL A   1      34.680  34.089  29.207  1.00  0.00     0.054 A 
BRANCH  76  77
ATOM     77  S   UNL A   1      33.071  34.911  29.037  1.00  0.00     0.124 S 
ATOM     78  O   UNL A   1      33.454  36.230  28.546  1.00  0.00    -0.237 OA
ATOM     79  O   UNL A   1      32.376  34.055  28.079  1.00  0.00    -0.237 OA
ATOM     80  O   UNL A   1      32.529  34.881  30.394  1.00  0.00    -0.744 OA
ENDBRANCH  76  77
ENDBRANCH  48  71
BRANCH  60  81
ATOM     81  C   UNL A   1      43.188  35.097  32.299  1.00  0.00    -0.014 A 
ATOM     82  C   UNL A   1      43.797  36.085  31.508  1.00  0.00     0.010 A 
ATOM     83  C   UNL A   1      42.920  35.367  33.654  1.00  0.00     0.010 A 
ATOM     84  C   UNL A   1      44.156  37.314  32.068  1.00  0.00     0.020 A 
ATOM     85  C   UNL A   1      43.257  36.603  34.211  1.00  0.00     0.020 A 
ATOM     86  C   UNL A   1      43.884  37.564  33.417  1.00  0.00     0.054 A 
BRANCH  86  87
ATOM     87  S   UNL A   1      44.316  39.185  34.111  1.00  0.00     0.124 S 
ATOM     88  O   UNL A   1      45.386  39.622  33.218  1.00  0.00    -0.237 OA
ATOM     89  O   UNL A   1      43.063  39.928  34.001  1.00  0.00    -0.237 OA
ATOM     90  O   UNL A   1      44.730  38.876  35.477  1.00  0.00    -0.744 OA
ENDBRANCH  86  87
ENDBRANCH  60  81
ENDBRANCH  34  35
ENDBRANCH  26  29
ENDBRANCH  24  25
ENDBRANCH   1  24
TORSDOF 17
ENDMDL
