MODEL 1
REMARK VINA RESULT:     -11.4      0.000      0.000
REMARK SMILES O=C(NCCCNC(=O)[C@H]1CCC[N@@H+]1CCn1ccnc1)c1ccc(-c2c3nc(c(-c4ccc(S(=O)(=O)[O-])cc4)c4ccc([nH]4)c(-c4ccc(S(=O)(=O)[O-])cc4)c4nc(c(-c5ccc(S(=O)(=O)[O-])cc5)c5ccc2[nH]5)C=C4)C=C3)cc1
REMARK SMILES IDX 5 1 4 2 3 3 1 4 2 5 22 7 23 8 81 9 24 10 80 11 25 12 26 13
REMARK SMILES IDX 27 14 74 15 28 16 79 17 73 18 75 19 29 20 78 21 72 22 71 23
REMARK SMILES IDX 30 25 60 26 41 27 59 28 42 29 45 30 58 31 76 32 43 33 44 34
REMARK SMILES IDX 57 36 77 37 46 38 31 39 32 40 40 41 33 42 39 43 34 44 35 45
REMARK SMILES IDX 36 46 37 47 38 48 61 49 62 50 70 51 63 52 69 53 64 54 65 55
REMARK SMILES IDX 66 56 67 57 68 58 47 59 48 60 56 61 49 62 55 63 50 64 51 65
REMARK SMILES IDX 52 66 53 67 54 68 6 69 7 70 8 71 9 73 10 74 11 75 14 76
REMARK SMILES IDX 12 77 13 78 15 80 16 81 17 82 18 83 21 84 19 85 20 86
REMARK H PARENT 3 6 75 24 45 35 7 72 14 79
REMARK Flexibility Score: inf
ROOT
ATOM      1  C   UNL A   1      31.900  27.881  27.257  1.00  0.00     0.042 C 
ENDROOT
BRANCH   1   2
ATOM      2  C   UNL A   1      33.329  28.407  27.174  1.00  0.00     0.118 C 
BRANCH   2   3
ATOM      3  N   UNL A   1      33.436  29.835  27.398  1.00  0.00    -0.352 N 
ATOM      4  O   UNL A   1      34.122  31.888  27.787  1.00  0.00    -0.269 OA
ATOM      5  C   UNL A   1      34.455  30.706  27.661  1.00  0.00     0.251 C 
ATOM      6  H   UNL A   1      32.564  30.288  27.348  1.00  0.00     0.163 HD
BRANCH   5   7
ATOM      7  C   UNL A   1      35.882  30.338  27.860  1.00  0.00     0.039 A 
ATOM      8  C   UNL A   1      36.455  29.085  27.626  1.00  0.00     0.014 A 
ATOM      9  C   UNL A   1      36.703  31.375  28.341  1.00  0.00     0.014 A 
ATOM     10  C   UNL A   1      37.789  28.842  27.954  1.00  0.00     0.010 A 
ATOM     11  C   UNL A   1      38.034  31.147  28.647  1.00  0.00     0.010 A 
ATOM     12  C   UNL A   1      38.563  29.866  28.497  1.00  0.00    -0.014 A 
BRANCH  12  13
ATOM     13  C   UNL A   1      39.975  29.632  28.795  1.00  0.00     0.031 A 
ATOM     14  C   UNL A   1      40.330  29.613  30.252  1.00  0.00     0.074 A 
ATOM     15  C   UNL A   1      40.809  29.199  27.824  1.00  0.00     0.049 A 
ATOM     16  N   UNL A   1      41.297  30.217  30.868  1.00  0.00    -0.248 NA
ATOM     17  C   UNL A   1      39.427  28.876  31.158  1.00  0.00     0.031 C 
ATOM     18  C   UNL A   1      40.465  28.885  26.431  1.00  0.00     0.029 A 
ATOM     19  N   UNL A   1      42.099  28.774  27.915  1.00  0.00    -0.354 N 
ATOM     20  C   UNL A   1      41.232  29.798  32.200  1.00  0.00     0.074 A 
ATOM     21  C   UNL A   1      39.989  29.089  32.346  1.00  0.00     0.031 C 
ATOM     22  C   UNL A   1      41.411  28.075  25.910  1.00  0.00     0.029 A 
ATOM     23  C   UNL A   1      42.483  27.924  26.879  1.00  0.00     0.049 A 
ATOM     24  H   UNL A   1      42.705  29.043  28.643  1.00  0.00     0.167 HD
ATOM     25  C   UNL A   1      42.290  29.872  33.056  1.00  0.00     0.031 A 
ATOM     26  C   UNL A   1      43.540  27.069  26.870  1.00  0.00     0.031 A 
ATOM     27  C   UNL A   1      43.304  30.777  32.598  1.00  0.00     0.049 A 
ATOM     28  C   UNL A   1      44.462  27.504  27.949  1.00  0.00     0.074 A 
ATOM     29  C   UNL A   1      43.354  32.133  32.348  1.00  0.00     0.029 A 
ATOM     30  N   UNL A   1      44.398  30.239  31.965  1.00  0.00    -0.354 N 
ATOM     31  N   UNL A   1      45.081  28.651  27.944  1.00  0.00    -0.248 NA
ATOM     32  C   UNL A   1      44.320  26.877  29.255  1.00  0.00     0.031 C 
ATOM     33  C   UNL A   1      44.155  32.255  31.175  1.00  0.00     0.029 A 
ATOM     34  C   UNL A   1      44.595  30.976  30.825  1.00  0.00     0.049 A 
ATOM     35  H   UNL A   1      44.937  29.472  32.270  1.00  0.00     0.167 HD
ATOM     36  C   UNL A   1      45.030  29.090  29.260  1.00  0.00     0.074 A 
ATOM     37  C   UNL A   1      44.623  27.918  30.035  1.00  0.00     0.031 C 
ATOM     38  C   UNL A   1      45.048  30.421  29.569  1.00  0.00     0.031 A 
BRANCH  25  39
ATOM     39  C   UNL A   1      42.561  28.840  34.125  1.00  0.00    -0.014 A 
ATOM     40  C   UNL A   1      43.142  27.605  33.770  1.00  0.00     0.010 A 
ATOM     41  C   UNL A   1      41.997  28.933  35.416  1.00  0.00     0.010 A 
ATOM     42  C   UNL A   1      43.099  26.505  34.641  1.00  0.00     0.020 A 
ATOM     43  C   UNL A   1      41.987  27.858  36.305  1.00  0.00     0.020 A 
ATOM     44  C   UNL A   1      42.506  26.637  35.896  1.00  0.00     0.054 A 
BRANCH  44  45
ATOM     45  S   UNL A   1      42.333  25.183  36.962  1.00  0.00     0.124 S 
ATOM     46  O   UNL A   1      42.123  24.117  35.982  1.00  0.00    -0.237 OA
ATOM     47  O   UNL A   1      43.621  25.155  37.656  1.00  0.00    -0.237 OA
ATOM     48  O   UNL A   1      41.186  25.502  37.798  1.00  0.00    -0.744 OA
ENDBRANCH  44  45
ENDBRANCH  25  39
BRANCH  26  49
ATOM     49  C   UNL A   1      43.573  25.704  26.275  1.00  0.00    -0.014 A 
ATOM     50  C   UNL A   1      44.450  25.367  25.227  1.00  0.00     0.010 A 
ATOM     51  C   UNL A   1      42.904  24.643  26.926  1.00  0.00     0.010 A 
ATOM     52  C   UNL A   1      44.675  24.022  24.871  1.00  0.00     0.020 A 
ATOM     53  C   UNL A   1      43.117  23.305  26.574  1.00  0.00     0.020 A 
ATOM     54  C   UNL A   1      44.017  22.998  25.559  1.00  0.00     0.054 A 
BRANCH  54  55
ATOM     55  S   UNL A   1      44.422  21.261  25.203  1.00  0.00     0.124 S 
ATOM     56  O   UNL A   1      45.766  21.134  25.761  1.00  0.00    -0.237 OA
ATOM     57  O   UNL A   1      43.372  20.537  25.915  1.00  0.00    -0.237 OA
ATOM     58  O   UNL A   1      44.347  21.180  23.745  1.00  0.00    -0.744 OA
ENDBRANCH  54  55
ENDBRANCH  26  49
BRANCH  38  59
ATOM     59  C   UNL A   1      45.309  31.414  28.458  1.00  0.00    -0.014 A 
ATOM     60  C   UNL A   1      44.283  32.012  27.697  1.00  0.00     0.010 A 
ATOM     61  C   UNL A   1      46.619  31.898  28.309  1.00  0.00     0.010 A 
ATOM     62  C   UNL A   1      44.567  33.051  26.796  1.00  0.00     0.020 A 
ATOM     63  C   UNL A   1      46.907  32.940  27.424  1.00  0.00     0.020 A 
ATOM     64  C   UNL A   1      45.882  33.508  26.667  1.00  0.00     0.054 A 
BRANCH  64  65
ATOM     65  S   UNL A   1      46.241  34.884  25.539  1.00  0.00     0.124 S 
ATOM     66  O   UNL A   1      45.882  36.053  26.338  1.00  0.00    -0.237 OA
ATOM     67  O   UNL A   1      47.666  34.716  25.269  1.00  0.00    -0.237 OA
ATOM     68  O   UNL A   1      45.369  34.630  24.391  1.00  0.00    -0.744 OA
ENDBRANCH  64  65
ENDBRANCH  38  59
ENDBRANCH  12  13
ENDBRANCH   5   7
ENDBRANCH   2   3
ENDBRANCH   1   2
BRANCH   1  69
ATOM     69  C   UNL A   1      31.556  26.874  26.159  1.00  0.00     0.118 C 
BRANCH  69  70
ATOM     70  N   UNL A   1      31.059  25.594  26.626  1.00  0.00    -0.351 N 
ATOM     71  C   UNL A   1      31.584  24.335  26.646  1.00  0.00     0.278 C 
ATOM     72  H   UNL A   1      30.153  25.644  27.008  1.00  0.00     0.163 HD
ATOM     73  O   UNL A   1      31.022  23.554  27.432  1.00  0.00    -0.268 OA
BRANCH  71  74
ATOM     74  C   UNL A   1      32.719  23.783  25.730  1.00  0.00     0.274 C 
ATOM     75  C   UNL A   1      34.101  24.267  26.107  1.00  0.00     0.081 C 
ATOM     76  N   UNL A   1      32.794  22.305  25.652  1.00  0.00    -0.323 N 
ATOM     77  C   UNL A   1      34.748  23.094  26.820  1.00  0.00     0.068 C 
ATOM     78  C   UNL A   1      33.859  21.886  26.564  1.00  0.00     0.263 C 
ATOM     79  H   UNL A   1      31.888  21.921  25.921  1.00  0.00     0.348 HD
BRANCH  76  80
ATOM     80  C   UNL A   1      33.012  21.766  24.283  1.00  0.00     0.285 C 
BRANCH  80  81
ATOM     81  C   UNL A   1      32.196  20.582  23.683  1.00  0.00     0.184 C 
BRANCH  81  82
ATOM     82  N   UNL A   1      32.791  19.262  23.689  1.00  0.00    -0.332 N 
ATOM     83  C   UNL A   1      33.802  18.793  24.485  1.00  0.00     0.107 A 
ATOM     84  C   UNL A   1      32.449  18.249  22.838  1.00  0.00     0.199 A 
ATOM     85  C   UNL A   1      34.172  17.594  23.913  1.00  0.00     0.130 A 
ATOM     86  N   UNL A   1      33.306  17.260  22.908  1.00  0.00    -0.245 NA
ENDBRANCH  81  82
ENDBRANCH  80  81
ENDBRANCH  76  80
ENDBRANCH  71  74
ENDBRANCH  69  70
ENDBRANCH   1  69
TORSDOF 16
ENDMDL
MODEL 2
REMARK VINA RESULT:     -11.2      1.344      2.616
REMARK SMILES O=C(NCCCNC(=O)[C@H]1CCC[N@@H+]1CCn1ccnc1)c1ccc(-c2c3nc(c(-c4ccc(S(=O)(=O)[O-])cc4)c4ccc([nH]4)c(-c4ccc(S(=O)(=O)[O-])cc4)c4nc(c(-c5ccc(S(=O)(=O)[O-])cc5)c5ccc2[nH]5)C=C4)C=C3)cc1
REMARK SMILES IDX 5 1 4 2 3 3 1 4 2 5 22 7 23 8 81 9 24 10 80 11 25 12 26 13
REMARK SMILES IDX 27 14 74 15 28 16 79 17 73 18 75 19 29 20 78 21 72 22 71 23
REMARK SMILES IDX 30 25 60 26 41 27 59 28 42 29 45 30 58 31 76 32 43 33 44 34
REMARK SMILES IDX 57 36 77 37 46 38 31 39 32 40 40 41 33 42 39 43 34 44 35 45
REMARK SMILES IDX 36 46 37 47 38 48 61 49 62 50 70 51 63 52 69 53 64 54 65 55
REMARK SMILES IDX 66 56 67 57 68 58 47 59 48 60 56 61 49 62 55 63 50 64 51 65
REMARK SMILES IDX 52 66 53 67 54 68 6 69 7 70 8 71 9 73 10 74 11 75 14 76
REMARK SMILES IDX 12 77 13 78 15 80 16 81 17 82 18 83 21 84 19 85 20 86
REMARK H PARENT 3 6 75 24 45 35 7 72 14 79
REMARK Flexibility Score: inf
ROOT
ATOM      1  C   UNL A   1      32.931  27.932  26.781  1.00  0.00     0.042 C 
ENDROOT
BRANCH   1   2
ATOM      2  C   UNL A   1      33.431  29.199  26.096  1.00  0.00     0.118 C 
BRANCH   2   3
ATOM      3  N   UNL A   1      33.420  30.368  26.955  1.00  0.00    -0.352 N 
ATOM      4  O   UNL A   1      33.923  32.017  28.320  1.00  0.00    -0.269 OA
ATOM      5  C   UNL A   1      34.343  31.024  27.719  1.00  0.00     0.251 C 
ATOM      6  H   UNL A   1      32.532  30.791  26.998  1.00  0.00     0.163 HD
BRANCH   5   7
ATOM      7  C   UNL A   1      35.757  30.609  27.920  1.00  0.00     0.039 A 
ATOM      8  C   UNL A   1      36.289  29.339  27.682  1.00  0.00     0.014 A 
ATOM      9  C   UNL A   1      36.610  31.617  28.408  1.00  0.00     0.014 A 
ATOM     10  C   UNL A   1      37.614  29.052  28.013  1.00  0.00     0.010 A 
ATOM     11  C   UNL A   1      37.931  31.344  28.717  1.00  0.00     0.010 A 
ATOM     12  C   UNL A   1      38.419  30.048  28.562  1.00  0.00    -0.014 A 
BRANCH  12  13
ATOM     13  C   UNL A   1      39.822  29.767  28.862  1.00  0.00     0.031 A 
ATOM     14  C   UNL A   1      40.177  29.754  30.320  1.00  0.00     0.074 A 
ATOM     15  C   UNL A   1      40.640  29.292  27.897  1.00  0.00     0.049 A 
ATOM     16  N   UNL A   1      41.165  30.330  30.928  1.00  0.00    -0.248 NA
ATOM     17  C   UNL A   1      39.249  29.061  31.235  1.00  0.00     0.031 C 
ATOM     18  C   UNL A   1      40.283  28.973  26.509  1.00  0.00     0.029 A 
ATOM     19  N   UNL A   1      41.914  28.822  27.993  1.00  0.00    -0.354 N 
ATOM     20  C   UNL A   1      41.087  29.930  32.265  1.00  0.00     0.074 A 
ATOM     21  C   UNL A   1      39.819  29.268  32.420  1.00  0.00     0.031 C 
ATOM     22  C   UNL A   1      41.200  28.123  25.997  1.00  0.00     0.029 A 
ATOM     23  C   UNL A   1      42.265  27.946  26.968  1.00  0.00     0.049 A 
ATOM     24  H   UNL A   1      42.529  29.078  28.717  1.00  0.00     0.167 HD
ATOM     25  C   UNL A   1      42.146  29.977  33.120  1.00  0.00     0.031 A 
ATOM     26  C   UNL A   1      43.291  27.054  26.969  1.00  0.00     0.031 A 
ATOM     27  C   UNL A   1      43.192  30.839  32.650  1.00  0.00     0.049 A 
ATOM     28  C   UNL A   1      44.229  27.468  28.042  1.00  0.00     0.074 A 
ATOM     29  C   UNL A   1      43.291  32.189  32.383  1.00  0.00     0.029 A 
ATOM     30  N   UNL A   1      44.266  30.254  32.024  1.00  0.00    -0.354 N 
ATOM     31  N   UNL A   1      44.889  28.592  28.024  1.00  0.00    -0.248 NA
ATOM     32  C   UNL A   1      44.066  26.864  29.356  1.00  0.00     0.031 C 
ATOM     33  C   UNL A   1      44.095  32.267  31.209  1.00  0.00     0.029 A 
ATOM     34  C   UNL A   1      44.488  30.969  30.875  1.00  0.00     0.049 A 
ATOM     35  H   UNL A   1      44.777  29.472  32.338  1.00  0.00     0.167 HD
ATOM     36  C   UNL A   1      44.855  29.050  29.334  1.00  0.00     0.074 A 
ATOM     37  C   UNL A   1      44.406  27.903  30.123  1.00  0.00     0.031 C 
ATOM     38  C   UNL A   1      44.920  30.382  29.625  1.00  0.00     0.031 A 
BRANCH  25  39
ATOM     39  C   UNL A   1      42.381  28.949  34.202  1.00  0.00    -0.014 A 
ATOM     40  C   UNL A   1      42.900  27.683  33.860  1.00  0.00     0.010 A 
ATOM     41  C   UNL A   1      41.836  29.088  35.497  1.00  0.00     0.010 A 
ATOM     42  C   UNL A   1      42.815  26.600  34.748  1.00  0.00     0.020 A 
ATOM     43  C   UNL A   1      41.786  28.027  36.402  1.00  0.00     0.020 A 
ATOM     44  C   UNL A   1      42.243  26.778  36.007  1.00  0.00     0.054 A 
BRANCH  44  45
ATOM     45  S   UNL A   1      42.014  25.349  37.097  1.00  0.00     0.124 S 
ATOM     46  O   UNL A   1      43.272  25.338  37.843  1.00  0.00    -0.237 OA
ATOM     47  O   UNL A   1      40.830  25.734  37.864  1.00  0.00    -0.237 OA
ATOM     48  O   UNL A   1      41.822  24.239  36.176  1.00  0.00    -0.744 OA
ENDBRANCH  44  45
ENDBRANCH  25  39
BRANCH  26  49
ATOM     49  C   UNL A   1      43.274  25.681  26.392  1.00  0.00    -0.014 A 
ATOM     50  C   UNL A   1      43.772  25.407  25.104  1.00  0.00     0.010 A 
ATOM     51  C   UNL A   1      42.996  24.576  27.226  1.00  0.00     0.010 A 
ATOM     52  C   UNL A   1      44.014  24.083  24.684  1.00  0.00     0.020 A 
ATOM     53  C   UNL A   1      43.227  23.258  26.815  1.00  0.00     0.020 A 
ATOM     54  C   UNL A   1      43.753  23.017  25.550  1.00  0.00     0.054 A 
BRANCH  54  55
ATOM     55  S   UNL A   1      44.209  21.323  25.067  1.00  0.00     0.124 S 
ATOM     56  O   UNL A   1      44.370  21.445  23.621  1.00  0.00    -0.237 OA
ATOM     57  O   UNL A   1      45.437  21.097  25.823  1.00  0.00    -0.237 OA
ATOM     58  O   UNL A   1      43.064  20.522  25.496  1.00  0.00    -0.744 OA
ENDBRANCH  54  55
ENDBRANCH  26  49
BRANCH  38  59
ATOM     59  C   UNL A   1      45.216  31.352  28.503  1.00  0.00    -0.014 A 
ATOM     60  C   UNL A   1      44.243  31.789  27.581  1.00  0.00     0.010 A 
ATOM     61  C   UNL A   1      46.471  31.982  28.497  1.00  0.00     0.010 A 
ATOM     62  C   UNL A   1      44.528  32.815  26.665  1.00  0.00     0.020 A 
ATOM     63  C   UNL A   1      46.757  33.013  27.599  1.00  0.00     0.020 A 
ATOM     64  C   UNL A   1      45.787  33.421  26.682  1.00  0.00     0.054 A 
BRANCH  64  65
ATOM     65  S   UNL A   1      46.139  34.781  25.533  1.00  0.00     0.124 S 
ATOM     66  O   UNL A   1      45.819  35.962  26.330  1.00  0.00    -0.237 OA
ATOM     67  O   UNL A   1      47.554  34.588  25.229  1.00  0.00    -0.237 OA
ATOM     68  O   UNL A   1      45.235  34.530  24.410  1.00  0.00    -0.744 OA
ENDBRANCH  64  65
ENDBRANCH  38  59
ENDBRANCH  12  13
ENDBRANCH   5   7
ENDBRANCH   2   3
ENDBRANCH   1   2
BRANCH   1  69
ATOM     69  C   UNL A   1      31.541  27.497  26.318  1.00  0.00     0.118 C 
BRANCH  69  70
ATOM     70  N   UNL A   1      31.163  26.143  26.678  1.00  0.00    -0.351 N 
ATOM     71  C   UNL A   1      31.787  24.935  26.565  1.00  0.00     0.278 C 
ATOM     72  H   UNL A   1      30.271  26.084  27.089  1.00  0.00     0.163 HD
ATOM     73  O   UNL A   1      31.316  24.043  27.292  1.00  0.00    -0.268 OA
BRANCH  71  74
ATOM     74  C   UNL A   1      32.927  24.563  25.570  1.00  0.00     0.274 C 
ATOM     75  C   UNL A   1      34.079  23.819  26.208  1.00  0.00     0.081 C 
ATOM     76  N   UNL A   1      32.498  23.758  24.401  1.00  0.00    -0.323 N 
ATOM     77  C   UNL A   1      33.887  22.370  25.797  1.00  0.00     0.068 C 
ATOM     78  C   UNL A   1      32.833  22.365  24.700  1.00  0.00     0.263 C 
ATOM     79  H   UNL A   1      31.494  23.890  24.271  1.00  0.00     0.348 HD
BRANCH  76  80
ATOM     80  C   UNL A   1      33.081  24.188  23.103  1.00  0.00     0.285 C 
BRANCH  80  81
ATOM     81  C   UNL A   1      32.315  25.054  22.059  1.00  0.00     0.184 C 
BRANCH  81  82
ATOM     82  N   UNL A   1      32.348  26.494  22.202  1.00  0.00    -0.332 N 
ATOM     83  C   UNL A   1      33.444  27.314  22.260  1.00  0.00     0.107 A 
ATOM     84  C   UNL A   1      31.246  27.288  22.349  1.00  0.00     0.199 A 
ATOM     85  C   UNL A   1      32.949  28.534  22.671  1.00  0.00     0.130 A 
ATOM     86  N   UNL A   1      31.581  28.507  22.697  1.00  0.00    -0.245 NA
ENDBRANCH  81  82
ENDBRANCH  80  81
ENDBRANCH  76  80
ENDBRANCH  71  74
ENDBRANCH  69  70
ENDBRANCH   1  69
TORSDOF 16
ENDMDL
MODEL 3
REMARK VINA RESULT:     -11.1      2.781      8.990
REMARK SMILES O=C(NCCCNC(=O)[C@H]1CCC[N@@H+]1CCn1ccnc1)c1ccc(-c2c3nc(c(-c4ccc(S(=O)(=O)[O-])cc4)c4ccc([nH]4)c(-c4ccc(S(=O)(=O)[O-])cc4)c4nc(c(-c5ccc(S(=O)(=O)[O-])cc5)c5ccc2[nH]5)C=C4)C=C3)cc1
REMARK SMILES IDX 5 1 4 2 3 3 1 4 2 5 22 7 23 8 81 9 24 10 80 11 25 12 26 13
REMARK SMILES IDX 27 14 74 15 28 16 79 17 73 18 75 19 29 20 78 21 72 22 71 23
REMARK SMILES IDX 30 25 60 26 41 27 59 28 42 29 45 30 58 31 76 32 43 33 44 34
REMARK SMILES IDX 57 36 77 37 46 38 31 39 32 40 40 41 33 42 39 43 34 44 35 45
REMARK SMILES IDX 36 46 37 47 38 48 61 49 62 50 70 51 63 52 69 53 64 54 65 55
REMARK SMILES IDX 66 56 67 57 68 58 47 59 48 60 56 61 49 62 55 63 50 64 51 65
REMARK SMILES IDX 52 66 53 67 54 68 6 69 7 70 8 71 9 73 10 74 11 75 14 76
REMARK SMILES IDX 12 77 13 78 15 80 16 81 17 82 18 83 21 84 19 85 20 86
REMARK H PARENT 3 6 75 24 45 35 7 72 14 79
REMARK Flexibility Score: inf
ROOT
ATOM      1  C   UNL A   1      35.538  23.637  26.048  1.00  0.00     0.042 C 
ENDROOT
BRANCH   1   2
ATOM      2  C   UNL A   1      36.691  23.631  25.051  1.00  0.00     0.118 C 
BRANCH   2   3
ATOM      3  N   UNL A   1      37.641  22.557  25.266  1.00  0.00    -0.352 N 
ATOM      4  O   UNL A   1      39.331  21.297  25.891  1.00  0.00    -0.269 OA
ATOM      5  C   UNL A   1      38.809  22.413  25.959  1.00  0.00     0.251 C 
ATOM      6  H   UNL A   1      37.380  21.730  24.800  1.00  0.00     0.163 HD
BRANCH   5   7
ATOM      7  C   UNL A   1      39.506  23.486  26.717  1.00  0.00     0.039 A 
ATOM      8  C   UNL A   1      40.664  23.338  27.487  1.00  0.00     0.014 A 
ATOM      9  C   UNL A   1      38.908  24.757  26.638  1.00  0.00     0.014 A 
ATOM     10  C   UNL A   1      41.159  24.406  28.236  1.00  0.00     0.010 A 
ATOM     11  C   UNL A   1      39.407  25.826  27.361  1.00  0.00     0.010 A 
ATOM     12  C   UNL A   1      40.507  25.637  28.197  1.00  0.00    -0.014 A 
BRANCH  12  13
ATOM     13  C   UNL A   1      41.050  26.773  28.939  1.00  0.00     0.031 A 
ATOM     14  C   UNL A   1      42.283  27.394  28.353  1.00  0.00     0.074 A 
ATOM     15  C   UNL A   1      40.318  27.358  29.913  1.00  0.00     0.049 A 
ATOM     16  N   UNL A   1      43.393  27.721  28.936  1.00  0.00    -0.248 NA
ATOM     17  C   UNL A   1      42.303  27.606  26.892  1.00  0.00     0.031 C 
ATOM     18  C   UNL A   1      38.957  27.004  30.335  1.00  0.00     0.029 A 
ATOM     19  N   UNL A   1      40.558  28.502  30.610  1.00  0.00    -0.354 N 
ATOM     20  C   UNL A   1      44.179  28.339  27.959  1.00  0.00     0.074 A 
ATOM     21  C   UNL A   1      43.518  28.117  26.701  1.00  0.00     0.031 C 
ATOM     22  C   UNL A   1      38.403  28.053  30.980  1.00  0.00     0.029 A 
ATOM     23  C   UNL A   1      39.407  29.092  31.129  1.00  0.00     0.049 A 
ATOM     24  H   UNL A   1      41.459  28.878  30.735  1.00  0.00     0.167 HD
ATOM     25  C   UNL A   1      45.214  29.175  28.255  1.00  0.00     0.031 A 
ATOM     26  C   UNL A   1      39.261  30.379  31.542  1.00  0.00     0.031 A 
ATOM     27  C   UNL A   1      45.668  29.027  29.607  1.00  0.00     0.049 A 
ATOM     28  C   UNL A   1      40.624  30.924  31.761  1.00  0.00     0.074 A 
ATOM     29  C   UNL A   1      46.230  28.000  30.336  1.00  0.00     0.029 A 
ATOM     30  N   UNL A   1      45.222  29.941  30.532  1.00  0.00    -0.354 N 
ATOM     31  N   UNL A   1      41.441  30.471  32.670  1.00  0.00    -0.248 NA
ATOM     32  C   UNL A   1      41.253  31.639  30.660  1.00  0.00     0.031 C 
ATOM     33  C   UNL A   1      45.635  28.103  31.627  1.00  0.00     0.029 A 
ATOM     34  C   UNL A   1      44.800  29.224  31.622  1.00  0.00     0.049 A 
ATOM     35  H   UNL A   1      45.207  30.921  30.430  1.00  0.00     0.167 HD
ATOM     36  C   UNL A   1      42.688  30.465  32.061  1.00  0.00     0.074 A 
ATOM     37  C   UNL A   1      42.523  31.272  30.852  1.00  0.00     0.031 C 
ATOM     38  C   UNL A   1      43.661  29.583  32.437  1.00  0.00     0.031 A 
BRANCH  25  39
ATOM     39  C   UNL A   1      45.564  30.383  27.419  1.00  0.00    -0.014 A 
ATOM     40  C   UNL A   1      46.912  30.779  27.298  1.00  0.00     0.010 A 
ATOM     41  C   UNL A   1      44.586  31.306  26.989  1.00  0.00     0.010 A 
ATOM     42  C   UNL A   1      47.254  32.058  26.833  1.00  0.00     0.020 A 
ATOM     43  C   UNL A   1      44.918  32.564  26.486  1.00  0.00     0.020 A 
ATOM     44  C   UNL A   1      46.252  32.947  26.446  1.00  0.00     0.054 A 
BRANCH  44  45
ATOM     45  S   UNL A   1      46.689  34.640  25.974  1.00  0.00     0.124 S 
ATOM     46  O   UNL A   1      46.843  35.283  27.279  1.00  0.00    -0.237 OA
ATOM     47  O   UNL A   1      47.926  34.439  25.220  1.00  0.00    -0.237 OA
ATOM     48  O   UNL A   1      45.549  35.084  25.186  1.00  0.00    -0.744 OA
ENDBRANCH  44  45
ENDBRANCH  25  39
BRANCH  26  49
ATOM     49  C   UNL A   1      38.063  31.243  31.352  1.00  0.00    -0.014 A 
ATOM     50  C   UNL A   1      36.756  30.721  31.377  1.00  0.00     0.010 A 
ATOM     51  C   UNL A   1      38.200  32.647  31.399  1.00  0.00     0.010 A 
ATOM     52  C   UNL A   1      35.636  31.571  31.483  1.00  0.00     0.020 A 
ATOM     53  C   UNL A   1      37.093  33.498  31.497  1.00  0.00     0.020 A 
ATOM     54  C   UNL A   1      35.815  32.955  31.557  1.00  0.00     0.054 A 
BRANCH  54  55
ATOM     55  S   UNL A   1      34.383  34.040  31.848  1.00  0.00     0.124 S 
ATOM     56  O   UNL A   1      33.623  33.292  32.846  1.00  0.00    -0.237 OA
ATOM     57  O   UNL A   1      35.008  35.271  32.322  1.00  0.00    -0.237 OA
ATOM     58  O   UNL A   1      33.751  34.136  30.533  1.00  0.00    -0.744 OA
ENDBRANCH  54  55
ENDBRANCH  26  49
BRANCH  38  59
ATOM     59  C   UNL A   1      43.423  28.726  33.661  1.00  0.00    -0.014 A 
ATOM     60  C   UNL A   1      43.578  29.200  34.980  1.00  0.00     0.010 A 
ATOM     61  C   UNL A   1      42.843  27.461  33.470  1.00  0.00     0.010 A 
ATOM     62  C   UNL A   1      43.183  28.417  36.077  1.00  0.00     0.020 A 
ATOM     63  C   UNL A   1      42.434  26.683  34.556  1.00  0.00     0.020 A 
ATOM     64  C   UNL A   1      42.612  27.161  35.855  1.00  0.00     0.054 A 
BRANCH  64  65
ATOM     65  S   UNL A   1      42.054  26.172  37.271  1.00  0.00     0.124 S 
ATOM     66  O   UNL A   1      43.104  26.409  38.258  1.00  0.00    -0.237 OA
ATOM     67  O   UNL A   1      40.752  26.756  37.580  1.00  0.00    -0.237 OA
ATOM     68  O   UNL A   1      42.000  24.808  36.743  1.00  0.00    -0.744 OA
ENDBRANCH  64  65
ENDBRANCH  38  59
ENDBRANCH  12  13
ENDBRANCH   5   7
ENDBRANCH   2   3
ENDBRANCH   1   2
BRANCH   1  69
ATOM     69  C   UNL A   1      34.354  24.499  25.606  1.00  0.00     0.118 C 
BRANCH  69  70
ATOM     70  N   UNL A   1      33.126  24.293  26.350  1.00  0.00    -0.351 N 
ATOM     71  C   UNL A   1      32.167  23.323  26.326  1.00  0.00     0.278 C 
ATOM     72  H   UNL A   1      32.947  25.002  27.010  1.00  0.00     0.163 HD
ATOM     73  O   UNL A   1      31.445  23.289  27.337  1.00  0.00    -0.268 OA
BRANCH  71  74
ATOM     74  C   UNL A   1      31.845  22.359  25.145  1.00  0.00     0.274 C 
ATOM     75  C   UNL A   1      31.004  22.985  24.055  1.00  0.00     0.081 C 
ATOM     76  N   UNL A   1      33.031  21.770  24.479  1.00  0.00    -0.323 N 
ATOM     77  C   UNL A   1      31.977  23.284  22.929  1.00  0.00     0.068 C 
ATOM     78  C   UNL A   1      33.269  22.552  23.265  1.00  0.00     0.263 C 
ATOM     79  H   UNL A   1      33.820  21.818  25.125  1.00  0.00     0.348 HD
BRANCH  76  80
ATOM     80  C   UNL A   1      32.915  20.319  24.173  1.00  0.00     0.285 C 
BRANCH  80  81
ATOM     81  C   UNL A   1      33.951  19.254  24.640  1.00  0.00     0.184 C 
BRANCH  81  82
ATOM     82  N   UNL A   1      33.530  17.871  24.719  1.00  0.00    -0.332 N 
ATOM     83  C   UNL A   1      32.563  17.326  25.520  1.00  0.00     0.107 A 
ATOM     84  C   UNL A   1      34.083  16.846  24.004  1.00  0.00     0.199 A 
ATOM     85  C   UNL A   1      32.744  15.963  25.413  1.00  0.00     0.130 A 
ATOM     86  N   UNL A   1      33.675  15.682  24.450  1.00  0.00    -0.245 NA
ENDBRANCH  81  82
ENDBRANCH  80  81
ENDBRANCH  76  80
ENDBRANCH  71  74
ENDBRANCH  69  70
ENDBRANCH   1  69
TORSDOF 16
ENDMDL
