MODEL 1
REMARK VINA RESULT:     -10.6      0.000      0.000
REMARK SMILES Cc1c(NC(=S)NC(=O)CSc2ccc(Cl)cc2)cccc1C(=O)NCCCNC(=O)c1ccc(-c2c3nc(c(-c4ccc(S(=O)(=O)[O-])cc4)c4ccc([nH]4)c(-c4ccc(S(=O)(=O)[O-])cc4)c4nc(c(-c5ccc(S(=O)(=O)[O-])cc5)c5ccc2[nH]5)C=C4)C=C3)cc1
REMARK SMILES IDX 23 1 24 2 25 3 22 5 1 6 2 7 3 8 19 9 21 10 20 11 4 12 5 14
REMARK SMILES IDX 6 15 7 16 8 17 9 19 10 20 11 21 12 22 13 23 18 24 14 25
REMARK SMILES IDX 17 26 15 27 16 28 26 29 27 30 28 31 29 32 30 33 31 35 32 36
REMARK SMILES IDX 33 37 91 38 34 39 90 40 35 41 36 42 37 43 84 44 38 45 89 46
REMARK SMILES IDX 83 47 85 48 39 49 88 50 82 51 81 52 40 54 70 55 51 56 69 57
REMARK SMILES IDX 52 58 55 59 68 60 86 61 53 62 54 63 67 65 87 66 56 67 41 68
REMARK SMILES IDX 42 69 50 70 43 71 49 72 44 73 45 74 46 75 47 76 48 77 71 78
REMARK SMILES IDX 72 79 80 80 73 81 79 82 74 83 75 84 76 85 77 86 78 87 57 88
REMARK SMILES IDX 58 89 66 90 59 91 65 92 60 93 61 94 62 95 63 96 64 97
REMARK H PARENT 25 4 4 13 7 18 29 34 85 53 55 64
REMARK Flexibility Score: inf
ROOT
ATOM      1  C   UNL A   1      39.332  19.902  25.705  1.00  0.00     0.251 C 
ATOM      2  O   UNL A   1      38.488  19.123  25.243  1.00  0.00    -0.269 OA
ATOM      3  N   UNL A   1      40.604  19.422  25.946  1.00  0.00    -0.352 N 
ATOM      4  H   UNL A   1      40.600  18.438  25.911  1.00  0.00     0.163 HD
ENDROOT
BRANCH   1   5
ATOM      5  C   UNL A   1      38.878  21.312  25.885  1.00  0.00     0.044 A 
ATOM      6  C   UNL A   1      37.160  21.351  24.028  1.00  0.00     0.047 C 
ATOM      7  C   UNL A   1      37.754  21.882  25.294  1.00  0.00    -0.015 A 
ATOM      8  C   UNL A   1      37.236  23.075  25.827  1.00  0.00     0.044 A 
ATOM      9  C   UNL A   1      38.083  23.944  26.497  1.00  0.00     0.026 A 
ATOM     10  C   UNL A   1      39.696  22.165  26.658  1.00  0.00     0.014 A 
ATOM     11  C   UNL A   1      39.344  23.499  26.882  1.00  0.00     0.003 A 
BRANCH   8  12
ATOM     12  N   UNL A   1      35.855  23.270  25.677  1.00  0.00    -0.332 N 
ATOM     13  H   UNL A   1      35.644  24.092  25.178  1.00  0.00     0.169 HD
BRANCH  12  14
ATOM     14  C   UNL A   1      34.758  22.605  26.049  1.00  0.00     0.177 C 
ATOM     15  S   UNL A   1      34.146  22.944  27.577  1.00  0.00    -0.040 S 
BRANCH  14  16
ATOM     16  N   UNL A   1      34.066  21.703  25.302  1.00  0.00    -0.302 N 
ATOM     17  C   UNL A   1      33.159  21.600  24.263  1.00  0.00     0.236 C 
ATOM     18  H   UNL A   1      34.292  20.796  25.613  1.00  0.00     0.172 HD
ATOM     19  O   UNL A   1      33.057  20.474  23.751  1.00  0.00    -0.274 OA
BRANCH  17  20
ATOM     20  C   UNL A   1      32.305  22.728  23.726  1.00  0.00     0.175 C 
BRANCH  20  21
ATOM     21  S   UNL A   1      33.201  24.196  23.151  1.00  0.00    -0.116 SA
BRANCH  21  22
ATOM     22  C   UNL A   1      32.801  25.274  24.496  1.00  0.00     0.008 A 
ATOM     23  C   UNL A   1      33.636  26.338  24.850  1.00  0.00     0.016 A 
ATOM     24  C   UNL A   1      31.576  25.093  25.140  1.00  0.00     0.016 A 
ATOM     25  C   UNL A   1      33.224  27.240  25.832  1.00  0.00     0.021 A 
ATOM     26  C   UNL A   1      31.163  25.995  26.116  1.00  0.00     0.021 A 
ATOM     27  C   UNL A   1      31.985  27.069  26.452  1.00  0.00     0.041 A 
ATOM     28  Cl  UNL A   1      31.451  28.202  27.630  1.00  0.00    -0.084 Cl
ENDBRANCH  21  22
ENDBRANCH  20  21
ENDBRANCH  17  20
ENDBRANCH  14  16
ENDBRANCH  12  14
ENDBRANCH   8  12
ENDBRANCH   1   5
BRANCH   3  29
ATOM     29  C   UNL A   1      41.975  19.905  26.240  1.00  0.00     0.118 C 
BRANCH  29  30
ATOM     30  C   UNL A   1      43.281  19.058  25.738  1.00  0.00     0.042 C 
BRANCH  30  31
ATOM     31  C   UNL A   1      44.341  19.811  24.835  1.00  0.00     0.118 C 
BRANCH  31  32
ATOM     32  N   UNL A   1      44.213  21.249  24.180  1.00  0.00    -0.352 N 
ATOM     33  C   UNL A   1      44.188  22.673  24.543  1.00  0.00     0.251 C 
ATOM     34  H   UNL A   1      44.119  21.156  23.205  1.00  0.00     0.163 HD
ATOM     35  O   UNL A   1      45.049  23.326  23.920  1.00  0.00    -0.269 OA
BRANCH  33  36
ATOM     36  C   UNL A   1      43.300  23.607  25.488  1.00  0.00     0.039 A 
ATOM     37  C   UNL A   1      42.683  24.810  25.003  1.00  0.00     0.014 A 
ATOM     38  C   UNL A   1      43.030  23.408  26.837  1.00  0.00     0.014 A 
ATOM     39  C   UNL A   1      42.422  25.942  25.890  1.00  0.00     0.010 A 
ATOM     40  C   UNL A   1      42.790  24.519  27.716  1.00  0.00     0.010 A 
ATOM     41  C   UNL A   1      42.763  25.842  27.252  1.00  0.00    -0.014 A 
BRANCH  41  42
ATOM     42  C   UNL A   1      43.422  26.965  28.085  1.00  0.00     0.031 A 
ATOM     43  C   UNL A   1      44.821  26.850  28.471  1.00  0.00     0.074 A 
ATOM     44  C   UNL A   1      42.953  28.204  28.460  1.00  0.00     0.049 A 
ATOM     45  N   UNL A   1      45.273  26.933  29.681  1.00  0.00    -0.248 NA
ATOM     46  C   UNL A   1      45.830  26.736  27.435  1.00  0.00     0.031 C 
ATOM     47  C   UNL A   1      43.558  29.369  29.141  1.00  0.00     0.029 A 
ATOM     48  N   UNL A   1      41.707  28.747  28.243  1.00  0.00    -0.354 N 
ATOM     49  C   UNL A   1      46.615  27.205  29.532  1.00  0.00     0.074 A 
ATOM     50  C   UNL A   1      46.940  26.827  28.167  1.00  0.00     0.031 C 
ATOM     51  C   UNL A   1      42.581  30.205  29.580  1.00  0.00     0.029 A 
ATOM     52  C   UNL A   1      41.301  29.602  29.256  1.00  0.00     0.049 A 
ATOM     53  H   UNL A   1      41.159  28.548  27.449  1.00  0.00     0.167 HD
ATOM     54  C   UNL A   1      47.288  28.028  30.393  1.00  0.00     0.031 A 
ATOM     55  C   UNL A   1      40.247  29.248  30.067  1.00  0.00     0.031 A 
ATOM     56  C   UNL A   1      46.388  28.761  31.304  1.00  0.00     0.049 A 
ATOM     57  C   UNL A   1      40.748  28.942  31.445  1.00  0.00     0.074 A 
ATOM     58  C   UNL A   1      46.056  30.106  31.410  1.00  0.00     0.029 A 
ATOM     59  N   UNL A   1      45.442  28.085  32.071  1.00  0.00    -0.354 N 
ATOM     60  N   UNL A   1      41.999  29.023  31.776  1.00  0.00    -0.248 NA
ATOM     61  C   UNL A   1      39.917  28.453  32.533  1.00  0.00     0.031 C 
ATOM     62  C   UNL A   1      44.891  30.225  32.219  1.00  0.00     0.029 A 
ATOM     63  C   UNL A   1      44.531  28.961  32.646  1.00  0.00     0.049 A 
ATOM     64  H   UNL A   1      45.422  27.108  32.191  1.00  0.00     0.167 HD
ATOM     65  C   UNL A   1      42.192  28.550  33.033  1.00  0.00     0.074 A 
ATOM     66  C   UNL A   1      40.843  28.245  33.487  1.00  0.00     0.031 C 
ATOM     67  C   UNL A   1      43.464  28.449  33.522  1.00  0.00     0.031 A 
BRANCH  54  68
ATOM     68  C   UNL A   1      48.744  28.409  30.160  1.00  0.00    -0.014 A 
ATOM     69  C   UNL A   1      49.092  29.572  29.447  1.00  0.00     0.010 A 
ATOM     70  C   UNL A   1      49.826  27.666  30.681  1.00  0.00     0.010 A 
ATOM     71  C   UNL A   1      50.434  29.921  29.202  1.00  0.00     0.020 A 
ATOM     72  C   UNL A   1      51.164  27.957  30.385  1.00  0.00     0.020 A 
ATOM     73  C   UNL A   1      51.462  29.097  29.656  1.00  0.00     0.054 A 
BRANCH  73  74
ATOM     74  S   UNL A   1      53.189  29.566  29.365  1.00  0.00     0.124 S 
ATOM     75  O   UNL A   1      53.063  30.865  28.711  1.00  0.00    -0.237 OA
ATOM     76  O   UNL A   1      53.735  29.591  30.718  1.00  0.00    -0.237 OA
ATOM     77  O   UNL A   1      53.702  28.495  28.512  1.00  0.00    -0.744 OA
ENDBRANCH  73  74
ENDBRANCH  54  68
BRANCH  55  78
ATOM     78  C   UNL A   1      39.073  28.460  29.434  1.00  0.00    -0.014 A 
ATOM     79  C   UNL A   1      37.893  28.426  30.198  1.00  0.00     0.010 A 
ATOM     80  C   UNL A   1      38.886  28.784  28.103  1.00  0.00     0.010 A 
ATOM     81  C   UNL A   1      36.895  29.384  29.966  1.00  0.00     0.020 A 
ATOM     82  C   UNL A   1      37.937  29.800  27.921  1.00  0.00     0.020 A 
ATOM     83  C   UNL A   1      37.060  30.234  28.882  1.00  0.00     0.054 A 
BRANCH  83  84
ATOM     84  S   UNL A   1      36.529  32.209  28.984  1.00  0.00     0.124 S 
ATOM     85  O   UNL A   1      35.655  32.137  30.124  1.00  0.00    -0.237 OA
ATOM     86  O   UNL A   1      37.751  32.965  29.267  1.00  0.00    -0.237 OA
ATOM     87  O   UNL A   1      35.898  32.571  27.729  1.00  0.00    -0.744 OA
ENDBRANCH  83  84
ENDBRANCH  55  78
BRANCH  67  88
ATOM     88  C   UNL A   1      43.862  27.900  34.867  1.00  0.00    -0.014 A 
ATOM     89  C   UNL A   1      44.188  28.670  35.989  1.00  0.00     0.010 A 
ATOM     90  C   UNL A   1      43.914  26.494  35.029  1.00  0.00     0.010 A 
ATOM     91  C   UNL A   1      44.536  28.078  37.205  1.00  0.00     0.020 A 
ATOM     92  C   UNL A   1      44.230  25.888  36.243  1.00  0.00     0.020 A 
ATOM     93  C   UNL A   1      44.547  26.691  37.326  1.00  0.00     0.054 A 
BRANCH  93  94
ATOM     94  S   UNL A   1      44.974  25.968  38.919  1.00  0.00     0.124 S 
ATOM     95  O   UNL A   1      44.603  24.568  38.725  1.00  0.00    -0.237 OA
ATOM     96  O   UNL A   1      46.409  26.228  39.003  1.00  0.00    -0.237 OA
ATOM     97  O   UNL A   1      44.152  26.706  39.872  1.00  0.00    -0.744 OA
ENDBRANCH  93  94
ENDBRANCH  67  88
ENDBRANCH  41  42
ENDBRANCH  33  36
ENDBRANCH  31  32
ENDBRANCH  30  31
ENDBRANCH  29  30
ENDBRANCH   3  29
TORSDOF 19
ENDMDL
MODEL 2
REMARK VINA RESULT:     -10.6      4.641     12.986
REMARK SMILES Cc1c(NC(=S)NC(=O)CSc2ccc(Cl)cc2)cccc1C(=O)NCCCNC(=O)c1ccc(-c2c3nc(c(-c4ccc(S(=O)(=O)[O-])cc4)c4ccc([nH]4)c(-c4ccc(S(=O)(=O)[O-])cc4)c4nc(c(-c5ccc(S(=O)(=O)[O-])cc5)c5ccc2[nH]5)C=C4)C=C3)cc1
REMARK SMILES IDX 23 1 24 2 25 3 22 5 1 6 2 7 3 8 19 9 21 10 20 11 4 12 5 14
REMARK SMILES IDX 6 15 7 16 8 17 9 19 10 20 11 21 12 22 13 23 18 24 14 25
REMARK SMILES IDX 17 26 15 27 16 28 26 29 27 30 28 31 29 32 30 33 31 35 32 36
REMARK SMILES IDX 33 37 91 38 34 39 90 40 35 41 36 42 37 43 84 44 38 45 89 46
REMARK SMILES IDX 83 47 85 48 39 49 88 50 82 51 81 52 40 54 70 55 51 56 69 57
REMARK SMILES IDX 52 58 55 59 68 60 86 61 53 62 54 63 67 65 87 66 56 67 41 68
REMARK SMILES IDX 42 69 50 70 43 71 49 72 44 73 45 74 46 75 47 76 48 77 71 78
REMARK SMILES IDX 72 79 80 80 73 81 79 82 74 83 75 84 76 85 77 86 78 87 57 88
REMARK SMILES IDX 58 89 66 90 59 91 65 92 60 93 61 94 62 95 63 96 64 97
REMARK H PARENT 25 4 4 13 7 18 29 34 85 53 55 64
REMARK Flexibility Score: inf
ROOT
ATOM      1  C   UNL A   1      53.176  20.765  35.219  1.00  0.00     0.251 C 
ATOM      2  O   UNL A   1      53.893  19.790  35.479  1.00  0.00    -0.269 OA
ATOM      3  N   UNL A   1      53.356  21.409  34.011  1.00  0.00    -0.352 N 
ATOM      4  H   UNL A   1      54.203  21.117  33.602  1.00  0.00     0.163 HD
ENDROOT
BRANCH   1   5
ATOM      5  C   UNL A   1      52.137  21.093  36.240  1.00  0.00     0.044 A 
ATOM      6  C   UNL A   1      50.300  19.607  35.333  1.00  0.00     0.047 C 
ATOM      7  C   UNL A   1      50.940  20.404  36.424  1.00  0.00    -0.015 A 
ATOM      8  C   UNL A   1      50.240  20.571  37.631  1.00  0.00     0.044 A 
ATOM      9  C   UNL A   1      50.385  21.750  38.345  1.00  0.00     0.026 A 
ATOM     10  C   UNL A   1      52.345  22.240  37.036  1.00  0.00     0.014 A 
ATOM     11  C   UNL A   1      51.425  22.616  38.018  1.00  0.00     0.003 A 
BRANCH   8  12
ATOM     12  N   UNL A   1      49.469  19.477  38.053  1.00  0.00    -0.332 N 
ATOM     13  H   UNL A   1      50.002  18.654  38.141  1.00  0.00     0.169 HD
BRANCH  12  14
ATOM     14  C   UNL A   1      48.185  19.287  38.365  1.00  0.00     0.177 C 
ATOM     15  S   UNL A   1      47.791  19.289  39.999  1.00  0.00    -0.040 S 
BRANCH  14  16
ATOM     16  N   UNL A   1      47.154  19.125  37.491  1.00  0.00    -0.302 N 
ATOM     17  C   UNL A   1      46.207  19.824  36.766  1.00  0.00     0.236 C 
ATOM     18  H   UNL A   1      47.044  18.164  37.308  1.00  0.00     0.172 HD
ATOM     19  O   UNL A   1      45.654  19.188  35.854  1.00  0.00    -0.274 OA
BRANCH  17  20
ATOM     20  C   UNL A   1      45.805  21.264  37.001  1.00  0.00     0.175 C 
BRANCH  20  21
ATOM     21  S   UNL A   1      46.640  22.499  35.969  1.00  0.00    -0.116 SA
BRANCH  21  22
ATOM     22  C   UNL A   1      45.237  23.516  35.612  1.00  0.00     0.008 A 
ATOM     23  C   UNL A   1      44.082  22.986  35.030  1.00  0.00     0.016 A 
ATOM     24  C   UNL A   1      45.276  24.852  36.014  1.00  0.00     0.016 A 
ATOM     25  C   UNL A   1      42.952  23.793  34.881  1.00  0.00     0.021 A 
ATOM     26  C   UNL A   1      44.150  25.655  35.869  1.00  0.00     0.021 A 
ATOM     27  C   UNL A   1      42.990  25.120  35.311  1.00  0.00     0.041 A 
ATOM     28  Cl  UNL A   1      41.589  26.107  35.173  1.00  0.00    -0.084 Cl
ENDBRANCH  21  22
ENDBRANCH  20  21
ENDBRANCH  17  20
ENDBRANCH  14  16
ENDBRANCH  12  14
ENDBRANCH   8  12
ENDBRANCH   1   5
BRANCH   3  29
ATOM     29  C   UNL A   1      52.690  22.396  33.127  1.00  0.00     0.118 C 
BRANCH  29  30
ATOM     30  C   UNL A   1      51.060  22.425  32.992  1.00  0.00     0.042 C 
BRANCH  30  31
ATOM     31  C   UNL A   1      50.303  23.710  33.521  1.00  0.00     0.118 C 
BRANCH  31  32
ATOM     32  N   UNL A   1      49.780  24.946  32.678  1.00  0.00    -0.352 N 
ATOM     33  C   UNL A   1      48.805  26.045  32.743  1.00  0.00     0.251 C 
ATOM     34  H   UNL A   1      50.273  24.994  31.828  1.00  0.00     0.163 HD
ATOM     35  O   UNL A   1      49.346  27.155  32.571  1.00  0.00    -0.269 OA
BRANCH  33  36
ATOM     36  C   UNL A   1      47.222  26.172  32.919  1.00  0.00     0.039 A 
ATOM     37  C   UNL A   1      46.330  25.105  32.560  1.00  0.00     0.014 A 
ATOM     38  C   UNL A   1      46.525  27.275  33.397  1.00  0.00     0.014 A 
ATOM     39  C   UNL A   1      44.961  25.372  32.126  1.00  0.00     0.010 A 
ATOM     40  C   UNL A   1      45.185  27.550  32.961  1.00  0.00     0.010 A 
ATOM     41  C   UNL A   1      44.500  26.701  32.080  1.00  0.00    -0.014 A 
BRANCH  41  42
ATOM     42  C   UNL A   1      43.633  27.300  30.948  1.00  0.00     0.031 A 
ATOM     43  C   UNL A   1      42.265  27.710  31.229  1.00  0.00     0.074 A 
ATOM     44  C   UNL A   1      43.958  27.667  29.662  1.00  0.00     0.049 A 
ATOM     45  N   UNL A   1      41.217  27.310  30.584  1.00  0.00    -0.248 NA
ATOM     46  C   UNL A   1      42.026  28.724  32.238  1.00  0.00     0.031 C 
ATOM     47  C   UNL A   1      43.226  28.352  28.574  1.00  0.00     0.029 A 
ATOM     48  N   UNL A   1      45.160  27.520  29.008  1.00  0.00    -0.354 N 
ATOM     49  C   UNL A   1      40.250  28.246  30.878  1.00  0.00     0.074 A 
ATOM     50  C   UNL A   1      40.720  28.929  32.071  1.00  0.00     0.031 C 
ATOM     51  C   UNL A   1      43.873  28.163  27.394  1.00  0.00     0.029 A 
ATOM     52  C   UNL A   1      45.018  27.307  27.646  1.00  0.00     0.049 A 
ATOM     53  H   UNL A   1      46.033  27.561  29.463  1.00  0.00     0.167 HD
ATOM     54  C   UNL A   1      39.318  28.639  29.957  1.00  0.00     0.031 A 
ATOM     55  C   UNL A   1      45.362  26.089  27.105  1.00  0.00     0.031 A 
ATOM     56  C   UNL A   1      39.619  28.155  28.597  1.00  0.00     0.049 A 
ATOM     57  C   UNL A   1      44.128  25.364  26.664  1.00  0.00     0.074 A 
ATOM     58  C   UNL A   1      39.999  28.812  27.433  1.00  0.00     0.029 A 
ATOM     59  N   UNL A   1      39.859  26.805  28.354  1.00  0.00    -0.354 N 
ATOM     60  N   UNL A   1      42.935  25.858  26.787  1.00  0.00    -0.248 NA
ATOM     61  C   UNL A   1      44.114  24.013  26.127  1.00  0.00     0.031 C 
ATOM     62  C   UNL A   1      40.494  27.850  26.507  1.00  0.00     0.029 A 
ATOM     63  C   UNL A   1      40.379  26.599  27.084  1.00  0.00     0.049 A 
ATOM     64  H   UNL A   1      39.681  26.086  29.003  1.00  0.00     0.167 HD
ATOM     65  C   UNL A   1      41.999  24.937  26.449  1.00  0.00     0.074 A 
ATOM     66  C   UNL A   1      42.792  23.805  25.994  1.00  0.00     0.031 C 
ATOM     67  C   UNL A   1      40.676  25.234  26.618  1.00  0.00     0.031 A 
BRANCH  54  68
ATOM     68  C   UNL A   1      38.321  29.752  30.256  1.00  0.00    -0.014 A 
ATOM     69  C   UNL A   1      37.195  29.529  31.070  1.00  0.00     0.010 A 
ATOM     70  C   UNL A   1      38.486  31.075  29.791  1.00  0.00     0.010 A 
ATOM     71  C   UNL A   1      36.252  30.542  31.331  1.00  0.00     0.020 A 
ATOM     72  C   UNL A   1      37.523  32.075  29.979  1.00  0.00     0.020 A 
ATOM     73  C   UNL A   1      36.413  31.805  30.764  1.00  0.00     0.054 A 
BRANCH  73  74
ATOM     74  S   UNL A   1      35.215  33.116  31.128  1.00  0.00     0.124 S 
ATOM     75  O   UNL A   1      36.042  34.141  31.759  1.00  0.00    -0.237 OA
ATOM     76  O   UNL A   1      34.704  33.445  29.801  1.00  0.00    -0.237 OA
ATOM     77  O   UNL A   1      34.251  32.469  32.017  1.00  0.00    -0.744 OA
ENDBRANCH  73  74
ENDBRANCH  54  68
BRANCH  55  78
ATOM     78  C   UNL A   1      46.573  25.338  27.712  1.00  0.00    -0.014 A 
ATOM     79  C   UNL A   1      47.507  24.854  26.778  1.00  0.00     0.010 A 
ATOM     80  C   UNL A   1      47.130  26.023  28.777  1.00  0.00     0.010 A 
ATOM     81  C   UNL A   1      48.622  25.638  26.449  1.00  0.00     0.020 A 
ATOM     82  C   UNL A   1      48.190  26.854  28.392  1.00  0.00     0.020 A 
ATOM     83  C   UNL A   1      48.829  26.799  27.179  1.00  0.00     0.054 A 
BRANCH  83  84
ATOM     84  S   UNL A   1      49.512  28.512  26.289  1.00  0.00     0.124 S 
ATOM     85  O   UNL A   1      48.259  29.208  26.174  1.00  0.00    -0.237 OA
ATOM     86  O   UNL A   1      50.420  29.154  27.242  1.00  0.00    -0.237 OA
ATOM     87  O   UNL A   1      50.147  28.146  25.037  1.00  0.00    -0.744 OA
ENDBRANCH  83  84
ENDBRANCH  55  78
BRANCH  67  88
ATOM     88  C   UNL A   1      39.513  24.316  26.346  1.00  0.00    -0.014 A 
ATOM     89  C   UNL A   1      38.184  24.723  26.185  1.00  0.00     0.010 A 
ATOM     90  C   UNL A   1      39.766  22.927  26.237  1.00  0.00     0.010 A 
ATOM     91  C   UNL A   1      37.165  23.804  25.923  1.00  0.00     0.020 A 
ATOM     92  C   UNL A   1      38.767  22.001  25.946  1.00  0.00     0.020 A 
ATOM     93  C   UNL A   1      37.465  22.450  25.797  1.00  0.00     0.054 A 
BRANCH  93  94
ATOM     94  S   UNL A   1      36.128  21.302  25.430  1.00  0.00     0.124 S 
ATOM     95  O   UNL A   1      35.287  21.426  26.619  1.00  0.00    -0.237 OA
ATOM     96  O   UNL A   1      35.564  21.863  24.205  1.00  0.00    -0.237 OA
ATOM     97  O   UNL A   1      36.801  20.016  25.273  1.00  0.00    -0.744 OA
ENDBRANCH  93  94
ENDBRANCH  67  88
ENDBRANCH  41  42
ENDBRANCH  33  36
ENDBRANCH  31  32
ENDBRANCH  30  31
ENDBRANCH  29  30
ENDBRANCH   3  29
TORSDOF 19
ENDMDL
MODEL 3
REMARK VINA RESULT:     -10.3      4.694      8.910
REMARK SMILES Cc1c(NC(=S)NC(=O)CSc2ccc(Cl)cc2)cccc1C(=O)NCCCNC(=O)c1ccc(-c2c3nc(c(-c4ccc(S(=O)(=O)[O-])cc4)c4ccc([nH]4)c(-c4ccc(S(=O)(=O)[O-])cc4)c4nc(c(-c5ccc(S(=O)(=O)[O-])cc5)c5ccc2[nH]5)C=C4)C=C3)cc1
REMARK SMILES IDX 23 1 24 2 25 3 22 5 1 6 2 7 3 8 19 9 21 10 20 11 4 12 5 14
REMARK SMILES IDX 6 15 7 16 8 17 9 19 10 20 11 21 12 22 13 23 18 24 14 25
REMARK SMILES IDX 17 26 15 27 16 28 26 29 27 30 28 31 29 32 30 33 31 35 32 36
REMARK SMILES IDX 33 37 91 38 34 39 90 40 35 41 36 42 37 43 84 44 38 45 89 46
REMARK SMILES IDX 83 47 85 48 39 49 88 50 82 51 81 52 40 54 70 55 51 56 69 57
REMARK SMILES IDX 52 58 55 59 68 60 86 61 53 62 54 63 67 65 87 66 56 67 41 68
REMARK SMILES IDX 42 69 50 70 43 71 49 72 44 73 45 74 46 75 47 76 48 77 71 78
REMARK SMILES IDX 72 79 80 80 73 81 79 82 74 83 75 84 76 85 77 86 78 87 57 88
REMARK SMILES IDX 58 89 66 90 59 91 65 92 60 93 61 94 62 95 63 96 64 97
REMARK H PARENT 25 4 4 13 7 18 29 34 85 53 55 64
REMARK Flexibility Score: inf
ROOT
ATOM      1  C   UNL A   1      41.713  28.583  29.096  1.00  0.00     0.251 C 
ATOM      2  O   UNL A   1      42.683  29.245  29.487  1.00  0.00    -0.269 OA
ATOM      3  N   UNL A   1      40.510  28.727  29.759  1.00  0.00    -0.352 N 
ATOM      4  H   UNL A   1      40.655  29.197  30.612  1.00  0.00     0.163 HD
ENDROOT
BRANCH   1   5
ATOM      5  C   UNL A   1      41.951  27.741  27.887  1.00  0.00     0.044 A 
ATOM      6  C   UNL A   1      43.043  25.779  29.055  1.00  0.00     0.047 C 
ATOM      7  C   UNL A   1      42.330  26.401  27.897  1.00  0.00    -0.015 A 
ATOM      8  C   UNL A   1      42.159  25.637  26.729  1.00  0.00     0.044 A 
ATOM      9  C   UNL A   1      42.173  26.269  25.496  1.00  0.00     0.026 A 
ATOM     10  C   UNL A   1      41.860  28.371  26.627  1.00  0.00     0.014 A 
ATOM     11  C   UNL A   1      42.064  27.656  25.443  1.00  0.00     0.003 A 
BRANCH   8  12
ATOM     12  N   UNL A   1      41.930  24.266  26.916  1.00  0.00    -0.332 N 
ATOM     13  H   UNL A   1      41.811  24.031  27.865  1.00  0.00     0.169 HD
BRANCH  12  14
ATOM     14  C   UNL A   1      41.833  23.203  26.114  1.00  0.00     0.177 C 
ATOM     15  S   UNL A   1      40.626  22.090  26.470  1.00  0.00    -0.040 S 
BRANCH  14  16
ATOM     16  N   UNL A   1      42.593  22.947  25.014  1.00  0.00    -0.302 N 
ATOM     17  C   UNL A   1      43.882  23.041  24.522  1.00  0.00     0.236 C 
ATOM     18  H   UNL A   1      42.019  22.552  24.319  1.00  0.00     0.172 HD
ATOM     19  O   UNL A   1      44.115  22.372  23.503  1.00  0.00    -0.274 OA
BRANCH  17  20
ATOM     20  C   UNL A   1      44.992  23.879  25.117  1.00  0.00     0.175 C 
BRANCH  20  21
ATOM     21  S   UNL A   1      45.637  23.321  26.717  1.00  0.00    -0.116 SA
BRANCH  21  22
ATOM     22  C   UNL A   1      46.029  24.907  27.395  1.00  0.00     0.008 A 
ATOM     23  C   UNL A   1      46.664  25.033  28.634  1.00  0.00     0.016 A 
ATOM     24  C   UNL A   1      45.772  26.036  26.616  1.00  0.00     0.016 A 
ATOM     25  C   UNL A   1      47.070  26.293  29.076  1.00  0.00     0.021 A 
ATOM     26  C   UNL A   1      46.180  27.291  27.054  1.00  0.00     0.021 A 
ATOM     27  C   UNL A   1      46.835  27.413  28.279  1.00  0.00     0.041 A 
ATOM     28  Cl  UNL A   1      47.373  28.963  28.795  1.00  0.00    -0.084 Cl
ENDBRANCH  21  22
ENDBRANCH  20  21
ENDBRANCH  17  20
ENDBRANCH  14  16
ENDBRANCH  12  14
ENDBRANCH   8  12
ENDBRANCH   1   5
BRANCH   3  29
ATOM     29  C   UNL A   1      39.070  28.405  29.606  1.00  0.00     0.118 C 
BRANCH  29  30
ATOM     30  C   UNL A   1      38.078  29.406  28.776  1.00  0.00     0.042 C 
BRANCH  30  31
ATOM     31  C   UNL A   1      36.552  29.438  29.194  1.00  0.00     0.118 C 
BRANCH  31  32
ATOM     32  N   UNL A   1      35.732  30.659  29.784  1.00  0.00    -0.352 N 
ATOM     33  C   UNL A   1      35.706  32.129  29.778  1.00  0.00     0.251 C 
ATOM     34  H   UNL A   1      34.994  30.319  30.339  1.00  0.00     0.163 HD
ATOM     35  O   UNL A   1      34.597  32.572  29.416  1.00  0.00    -0.269 OA
BRANCH  33  36
ATOM     36  C   UNL A   1      36.716  33.302  30.176  1.00  0.00     0.039 A 
ATOM     37  C   UNL A   1      37.547  33.951  29.201  1.00  0.00     0.014 A 
ATOM     38  C   UNL A   1      36.934  33.815  31.449  1.00  0.00     0.014 A 
ATOM     39  C   UNL A   1      38.840  34.526  29.566  1.00  0.00     0.010 A 
ATOM     40  C   UNL A   1      38.208  34.367  31.817  1.00  0.00     0.010 A 
ATOM     41  C   UNL A   1      39.269  34.462  30.905  1.00  0.00    -0.014 A 
BRANCH  41  42
ATOM     42  C   UNL A   1      40.709  34.133  31.359  1.00  0.00     0.031 A 
ATOM     43  C   UNL A   1      41.692  33.696  30.379  1.00  0.00     0.074 A 
ATOM     44  C   UNL A   1      41.332  34.301  32.576  1.00  0.00     0.049 A 
ATOM     45  N   UNL A   1      42.392  32.609  30.453  1.00  0.00    -0.248 NA
ATOM     46  C   UNL A   1      42.016  34.570  29.268  1.00  0.00     0.031 C 
ATOM     47  C   UNL A   1      42.722  34.130  33.051  1.00  0.00     0.029 A 
ATOM     48  N   UNL A   1      40.790  34.752  33.759  1.00  0.00    -0.354 N 
ATOM     49  C   UNL A   1      43.450  32.818  29.597  1.00  0.00     0.074 A 
ATOM     50  C   UNL A   1      43.037  33.906  28.727  1.00  0.00     0.031 C 
ATOM     51  C   UNL A   1      42.743  34.091  34.409  1.00  0.00     0.029 A 
ATOM     52  C   UNL A   1      41.373  34.179  34.878  1.00  0.00     0.049 A 
ATOM     53  H   UNL A   1      40.061  35.413  33.804  1.00  0.00     0.167 HD
ATOM     54  C   UNL A   1      44.704  32.343  29.865  1.00  0.00     0.031 A 
ATOM     55  C   UNL A   1      40.639  33.324  35.668  1.00  0.00     0.031 A 
ATOM     56  C   UNL A   1      44.839  31.828  31.241  1.00  0.00     0.049 A 
ATOM     57  C   UNL A   1      41.155  31.926  35.516  1.00  0.00     0.074 A 
ATOM     58  C   UNL A   1      45.553  32.281  32.344  1.00  0.00     0.029 A 
ATOM     59  N   UNL A   1      43.949  30.881  31.740  1.00  0.00    -0.354 N 
ATOM     60  N   UNL A   1      42.155  31.621  34.749  1.00  0.00    -0.248 NA
ATOM     61  C   UNL A   1      40.559  30.756  36.140  1.00  0.00     0.031 C 
ATOM     62  C   UNL A   1      45.064  31.620  33.506  1.00  0.00     0.029 A 
ATOM     63  C   UNL A   1      44.080  30.731  33.114  1.00  0.00     0.049 A 
ATOM     64  H   UNL A   1      43.308  30.378  31.188  1.00  0.00     0.167 HD
ATOM     65  C   UNL A   1      42.314  30.276  34.683  1.00  0.00     0.074 A 
ATOM     66  C   UNL A   1      41.314  29.775  35.615  1.00  0.00     0.031 C 
ATOM     67  C   UNL A   1      43.249  29.753  33.835  1.00  0.00     0.031 A 
BRANCH  54  68
ATOM     68  C   UNL A   1      45.891  32.670  28.967  1.00  0.00    -0.014 A 
ATOM     69  C   UNL A   1      46.924  33.523  29.399  1.00  0.00     0.010 A 
ATOM     70  C   UNL A   1      46.062  32.106  27.684  1.00  0.00     0.010 A 
ATOM     71  C   UNL A   1      48.012  33.854  28.569  1.00  0.00     0.020 A 
ATOM     72  C   UNL A   1      47.097  32.481  26.818  1.00  0.00     0.020 A 
ATOM     73  C   UNL A   1      48.079  33.346  27.273  1.00  0.00     0.054 A 
BRANCH  73  74
ATOM     74  S   UNL A   1      49.497  33.750  26.219  1.00  0.00     0.124 S 
ATOM     75  O   UNL A   1      48.867  34.360  25.051  1.00  0.00    -0.237 OA
ATOM     76  O   UNL A   1      50.266  34.655  27.067  1.00  0.00    -0.237 OA
ATOM     77  O   UNL A   1      50.127  32.453  25.971  1.00  0.00    -0.744 OA
ENDBRANCH  73  74
ENDBRANCH  54  68
BRANCH  55  78
ATOM     78  C   UNL A   1      39.129  33.618  35.855  1.00  0.00    -0.014 A 
ATOM     79  C   UNL A   1      38.348  32.515  36.242  1.00  0.00     0.010 A 
ATOM     80  C   UNL A   1      38.910  34.765  36.596  1.00  0.00     0.010 A 
ATOM     81  C   UNL A   1      38.100  32.291  37.605  1.00  0.00     0.020 A 
ATOM     82  C   UNL A   1      38.746  34.503  37.963  1.00  0.00     0.020 A 
ATOM     83  C   UNL A   1      38.518  33.263  38.502  1.00  0.00     0.054 A 
BRANCH  83  84
ATOM     84  S   UNL A   1      39.308  32.764  40.324  1.00  0.00     0.124 S 
ATOM     85  O   UNL A   1      39.023  33.987  41.023  1.00  0.00    -0.237 OA
ATOM     86  O   UNL A   1      38.524  31.636  40.833  1.00  0.00    -0.237 OA
ATOM     87  O   UNL A   1      40.714  32.458  40.137  1.00  0.00    -0.744 OA
ENDBRANCH  83  84
ENDBRANCH  55  78
BRANCH  67  88
ATOM     88  C   UNL A   1      43.522  28.290  33.599  1.00  0.00    -0.014 A 
ATOM     89  C   UNL A   1      43.950  27.733  32.389  1.00  0.00     0.010 A 
ATOM     90  C   UNL A   1      43.338  27.391  34.678  1.00  0.00     0.010 A 
ATOM     91  C   UNL A   1      44.192  26.364  32.260  1.00  0.00     0.020 A 
ATOM     92  C   UNL A   1      43.603  26.028  34.574  1.00  0.00     0.020 A 
ATOM     93  C   UNL A   1      44.024  25.521  33.356  1.00  0.00     0.054 A 
BRANCH  93  94
ATOM     94  S   UNL A   1      44.372  23.766  33.154  1.00  0.00     0.124 S 
ATOM     95  O   UNL A   1      43.297  23.153  33.931  1.00  0.00    -0.237 OA
ATOM     96  O   UNL A   1      44.274  23.594  31.707  1.00  0.00    -0.237 OA
ATOM     97  O   UNL A   1      45.713  23.608  33.709  1.00  0.00    -0.744 OA
ENDBRANCH  93  94
ENDBRANCH  67  88
ENDBRANCH  41  42
ENDBRANCH  33  36
ENDBRANCH  31  32
ENDBRANCH  30  31
ENDBRANCH  29  30
ENDBRANCH   3  29
TORSDOF 19
ENDMDL
