MODEL 1
REMARK VINA RESULT:     -13.1      0.000      0.000
REMARK SMILES NS(=O)(=O)c1ccc(-n2nc(C(=O)NCCCNC(=O)c3ccc(-c4c5nc(c(-c6ccc(S(=O)(=O)[O-])cc6)c6ccc([nH]6)c(-c6ccc(S(=O)(=O)[O-])cc6)c6nc(c(-c7ccc(S(=O)(=O)[O-])cc7)c7ccc4[nH]7)C=C6)C=C5)cc3)cc2-c2ccc(Cl)s2)cc1
REMARK SMILES IDX 16 1 15 2 14 3 12 4 13 5 11 7 9 8 10 9 82 10 81 11 8 12 5 13
REMARK SMILES IDX 6 14 90 15 7 16 89 17 2 18 3 19 4 20 1 21 83 24 84 25 88 26
REMARK SMILES IDX 85 27 86 28 87 29 17 30 18 31 19 32 20 34 21 35 22 36 80 37
REMARK SMILES IDX 23 38 79 39 24 40 25 41 26 42 73 43 27 44 78 45 72 46 74 47
REMARK SMILES IDX 28 48 77 49 71 50 70 51 29 53 59 54 40 55 58 56 41 57 44 58
REMARK SMILES IDX 57 59 75 60 42 61 43 62 56 64 76 65 45 66 30 67 31 68 39 69
REMARK SMILES IDX 32 70 38 71 33 72 34 73 35 74 36 75 37 76 60 77 61 78 69 79
REMARK SMILES IDX 62 80 68 81 63 82 64 83 65 84 66 85 67 86 46 87 47 88 55 89
REMARK SMILES IDX 48 90 54 91 49 92 50 93 51 94 52 95 53 96
REMARK H PARENT 14 6 1 22 1 23 18 33 74 52 44 63
REMARK Flexibility Score: inf
ROOT
ATOM      1  C   UNL A   1      35.847  22.504  25.193  1.00  0.00     0.042 C 
ENDROOT
BRANCH   1   2
ATOM      2  C   UNL A   1      35.402  23.105  23.852  1.00  0.00     0.118 C 
BRANCH   2   3
ATOM      3  N   UNL A   1      34.209  22.462  23.324  1.00  0.00    -0.351 N 
ATOM      4  C   UNL A   1      32.906  22.896  23.186  1.00  0.00     0.271 C 
ATOM      5  O   UNL A   1      32.147  22.144  22.572  1.00  0.00    -0.267 OA
ATOM      6  H   UNL A   1      34.360  21.544  23.004  1.00  0.00     0.163 HD
BRANCH   4   7
ATOM      7  C   UNL A   1      32.470  24.209  23.711  1.00  0.00     0.151 A 
ATOM      8  N   UNL A   1      31.478  26.123  23.714  1.00  0.00    -0.231 N 
ATOM      9  N   UNL A   1      31.518  24.931  23.078  1.00  0.00    -0.162 NA
ATOM     10  C   UNL A   1      32.293  26.138  24.827  1.00  0.00     0.085 A 
ATOM     11  C   UNL A   1      32.883  24.899  24.875  1.00  0.00     0.066 A 
BRANCH   8  12
ATOM     12  C   UNL A   1      30.663  27.177  23.239  1.00  0.00     0.065 A 
ATOM     13  C   UNL A   1      29.122  29.398  22.613  1.00  0.00     0.082 A 
ATOM     14  C   UNL A   1      30.471  29.373  22.247  1.00  0.00     0.024 A 
ATOM     15  C   UNL A   1      28.527  28.300  23.245  1.00  0.00     0.024 A 
ATOM     16  C   UNL A   1      31.248  28.265  22.576  1.00  0.00     0.030 A 
ATOM     17  C   UNL A   1      29.294  27.167  23.532  1.00  0.00     0.030 A 
BRANCH  13  18
ATOM     18  S   UNL A   1      28.186  30.866  22.312  1.00  0.00     0.238 S 
ATOM     19  O   UNL A   1      29.082  32.000  22.204  1.00  0.00    -0.207 OA
ATOM     20  O   UNL A   1      27.023  30.863  23.159  1.00  0.00    -0.207 OA
BRANCH  18  21
ATOM     21  N   UNL A   1      27.619  30.621  20.743  1.00  0.00    -0.225 NA
ATOM     22  H   UNL A   1      27.739  31.477  20.201  1.00  0.00     0.137 HD
ATOM     23  H   UNL A   1      26.630  30.373  20.775  1.00  0.00     0.137 HD
ENDBRANCH  18  21
ENDBRANCH  13  18
ENDBRANCH   8  12
BRANCH  10  24
ATOM     24  C   UNL A   1      32.421  27.189  25.786  1.00  0.00     0.054 A 
ATOM     25  C   UNL A   1      31.625  27.382  26.899  1.00  0.00     0.024 A 
ATOM     26  S   UNL A   1      33.586  28.431  25.611  1.00  0.00    -0.122 S 
ATOM     27  C   UNL A   1      31.994  28.554  27.623  1.00  0.00     0.033 A 
ATOM     28  C   UNL A   1      33.039  29.201  27.014  1.00  0.00     0.094 A 
ATOM     29  Cl  UNL A   1      33.787  30.655  27.535  1.00  0.00    -0.072 Cl
ENDBRANCH  10  24
ENDBRANCH   4   7
ENDBRANCH   2   3
ENDBRANCH   1   2
BRANCH   1  30
ATOM     30  C   UNL A   1      37.114  23.166  25.712  1.00  0.00     0.118 C 
BRANCH  30  31
ATOM     31  N   UNL A   1      38.126  22.178  26.102  1.00  0.00    -0.352 N 
ATOM     32  C   UNL A   1      39.437  22.380  26.493  1.00  0.00     0.251 C 
ATOM     33  H   UNL A   1      37.832  21.238  26.084  1.00  0.00     0.163 HD
ATOM     34  O   UNL A   1      40.244  21.459  26.445  1.00  0.00    -0.269 OA
BRANCH  32  35
ATOM     35  C   UNL A   1      39.843  23.712  26.971  1.00  0.00     0.039 A 
ATOM     36  C   UNL A   1      39.067  24.850  26.729  1.00  0.00     0.014 A 
ATOM     37  C   UNL A   1      41.028  23.803  27.694  1.00  0.00     0.014 A 
ATOM     38  C   UNL A   1      39.460  26.064  27.293  1.00  0.00     0.010 A 
ATOM     39  C   UNL A   1      41.314  24.944  28.391  1.00  0.00     0.010 A 
ATOM     40  C   UNL A   1      40.579  26.095  28.139  1.00  0.00    -0.014 A 
BRANCH  40  41
ATOM     41  C   UNL A   1      40.920  27.281  28.918  1.00  0.00     0.031 A 
ATOM     42  C   UNL A   1      42.045  28.055  28.320  1.00  0.00     0.074 A 
ATOM     43  C   UNL A   1      40.099  27.761  29.881  1.00  0.00     0.049 A 
ATOM     44  N   UNL A   1      43.244  28.209  28.777  1.00  0.00    -0.248 NA
ATOM     45  C   UNL A   1      41.878  28.543  26.934  1.00  0.00     0.031 C 
ATOM     46  C   UNL A   1      38.776  27.244  30.268  1.00  0.00     0.029 A 
ATOM     47  N   UNL A   1      40.186  28.895  30.626  1.00  0.00    -0.354 N 
ATOM     48  C   UNL A   1      43.877  29.058  27.870  1.00  0.00     0.074 A 
ATOM     49  C   UNL A   1      43.104  28.990  26.660  1.00  0.00     0.031 C 
ATOM     50  C   UNL A   1      38.097  28.191  30.953  1.00  0.00     0.029 A 
ATOM     51  C   UNL A   1      38.982  29.312  31.203  1.00  0.00     0.049 A 
ATOM     52  H   UNL A   1      41.031  29.385  30.751  1.00  0.00     0.167 HD
ATOM     53  C   UNL A   1      44.756  30.011  28.296  1.00  0.00     0.031 A 
ATOM     54  C   UNL A   1      38.721  30.509  31.795  1.00  0.00     0.031 A 
ATOM     55  C   UNL A   1      45.186  29.746  29.649  1.00  0.00     0.049 A 
ATOM     56  C   UNL A   1      40.033  31.132  32.093  1.00  0.00     0.074 A 
ATOM     57  C   UNL A   1      45.800  28.690  30.292  1.00  0.00     0.029 A 
ATOM     58  N   UNL A   1      44.592  30.501  30.633  1.00  0.00    -0.354 N 
ATOM     59  N   UNL A   1      40.893  30.636  32.939  1.00  0.00    -0.248 NA
ATOM     60  C   UNL A   1      40.586  32.030  31.094  1.00  0.00     0.031 C 
ATOM     61  C   UNL A   1      45.157  28.611  31.563  1.00  0.00     0.029 A 
ATOM     62  C   UNL A   1      44.262  29.676  31.673  1.00  0.00     0.049 A 
ATOM     63  H   UNL A   1      44.433  31.471  30.598  1.00  0.00     0.167 HD
ATOM     64  C   UNL A   1      42.124  30.789  32.319  1.00  0.00     0.074 A 
ATOM     65  C   UNL A   1      41.879  31.727  31.222  1.00  0.00     0.031 C 
ATOM     66  C   UNL A   1      43.149  29.920  32.569  1.00  0.00     0.031 A 
BRANCH  53  67
ATOM     67  C   UNL A   1      44.820  31.411  27.703  1.00  0.00    -0.014 A 
ATOM     68  C   UNL A   1      46.026  31.827  27.100  1.00  0.00     0.010 A 
ATOM     69  C   UNL A   1      43.868  32.420  27.961  1.00  0.00     0.010 A 
ATOM     70  C   UNL A   1      46.303  33.182  26.875  1.00  0.00     0.020 A 
ATOM     71  C   UNL A   1      44.114  33.769  27.700  1.00  0.00     0.020 A 
ATOM     72  C   UNL A   1      45.347  34.146  27.192  1.00  0.00     0.054 A 
BRANCH  72  73
ATOM     73  S   UNL A   1      45.744  35.897  26.980  1.00  0.00     0.124 S 
ATOM     74  O   UNL A   1      44.419  36.489  26.838  1.00  0.00    -0.237 OA
ATOM     75  O   UNL A   1      46.448  36.202  28.223  1.00  0.00    -0.237 OA
ATOM     76  O   UNL A   1      46.576  35.915  25.779  1.00  0.00    -0.744 OA
ENDBRANCH  72  73
ENDBRANCH  53  67
BRANCH  54  77
ATOM     77  C   UNL A   1      37.457  31.303  31.792  1.00  0.00    -0.014 A 
ATOM     78  C   UNL A   1      36.727  31.517  32.981  1.00  0.00     0.010 A 
ATOM     79  C   UNL A   1      37.127  32.103  30.680  1.00  0.00     0.010 A 
ATOM     80  C   UNL A   1      35.758  32.536  33.072  1.00  0.00     0.020 A 
ATOM     81  C   UNL A   1      36.159  33.116  30.761  1.00  0.00     0.020 A 
ATOM     82  C   UNL A   1      35.497  33.346  31.965  1.00  0.00     0.054 A 
BRANCH  82  83
ATOM     83  S   UNL A   1      34.387  34.780  32.137  1.00  0.00     0.124 S 
ATOM     84  O   UNL A   1      34.139  35.152  30.747  1.00  0.00    -0.237 OA
ATOM     85  O   UNL A   1      33.246  34.218  32.853  1.00  0.00    -0.237 OA
ATOM     86  O   UNL A   1      35.182  35.740  32.902  1.00  0.00    -0.744 OA
ENDBRANCH  82  83
ENDBRANCH  54  77
BRANCH  66  87
ATOM     87  C   UNL A   1      43.060  29.018  33.778  1.00  0.00    -0.014 A 
ATOM     88  C   UNL A   1      43.420  29.384  35.091  1.00  0.00     0.010 A 
ATOM     89  C   UNL A   1      42.444  27.771  33.577  1.00  0.00     0.010 A 
ATOM     90  C   UNL A   1      43.191  28.505  36.165  1.00  0.00     0.020 A 
ATOM     91  C   UNL A   1      42.196  26.904  34.640  1.00  0.00     0.020 A 
ATOM     92  C   UNL A   1      42.583  27.267  35.928  1.00  0.00     0.054 A 
BRANCH  92  93
ATOM     93  S   UNL A   1      42.272  26.131  37.310  1.00  0.00     0.124 S 
ATOM     94  O   UNL A   1      43.233  26.581  38.312  1.00  0.00    -0.237 OA
ATOM     95  O   UNL A   1      40.867  26.381  37.625  1.00  0.00    -0.237 OA
ATOM     96  O   UNL A   1      42.545  24.811  36.743  1.00  0.00    -0.744 OA
ENDBRANCH  92  93
ENDBRANCH  66  87
ENDBRANCH  40  41
ENDBRANCH  32  35
ENDBRANCH  30  31
ENDBRANCH   1  30
TORSDOF 17
ENDMDL
MODEL 2
REMARK VINA RESULT:     -12.3      3.337      5.628
REMARK SMILES NS(=O)(=O)c1ccc(-n2nc(C(=O)NCCCNC(=O)c3ccc(-c4c5nc(c(-c6ccc(S(=O)(=O)[O-])cc6)c6ccc([nH]6)c(-c6ccc(S(=O)(=O)[O-])cc6)c6nc(c(-c7ccc(S(=O)(=O)[O-])cc7)c7ccc4[nH]7)C=C6)C=C5)cc3)cc2-c2ccc(Cl)s2)cc1
REMARK SMILES IDX 16 1 15 2 14 3 12 4 13 5 11 7 9 8 10 9 82 10 81 11 8 12 5 13
REMARK SMILES IDX 6 14 90 15 7 16 89 17 2 18 3 19 4 20 1 21 83 24 84 25 88 26
REMARK SMILES IDX 85 27 86 28 87 29 17 30 18 31 19 32 20 34 21 35 22 36 80 37
REMARK SMILES IDX 23 38 79 39 24 40 25 41 26 42 73 43 27 44 78 45 72 46 74 47
REMARK SMILES IDX 28 48 77 49 71 50 70 51 29 53 59 54 40 55 58 56 41 57 44 58
REMARK SMILES IDX 57 59 75 60 42 61 43 62 56 64 76 65 45 66 30 67 31 68 39 69
REMARK SMILES IDX 32 70 38 71 33 72 34 73 35 74 36 75 37 76 60 77 61 78 69 79
REMARK SMILES IDX 62 80 68 81 63 82 64 83 65 84 66 85 67 86 46 87 47 88 55 89
REMARK SMILES IDX 48 90 54 91 49 92 50 93 51 94 52 95 53 96
REMARK H PARENT 14 6 1 22 1 23 18 33 74 52 44 63
REMARK Flexibility Score: inf
ROOT
ATOM      1  C   UNL A   1      42.066  19.343  25.765  1.00  0.00     0.042 C 
ENDROOT
BRANCH   1   2
ATOM      2  C   UNL A   1      40.714  20.041  25.971  1.00  0.00     0.118 C 
BRANCH   2   3
ATOM      3  N   UNL A   1      40.840  21.291  26.701  1.00  0.00    -0.351 N 
ATOM      4  C   UNL A   1      39.946  22.311  26.955  1.00  0.00     0.271 C 
ATOM      5  O   UNL A   1      40.331  23.190  27.728  1.00  0.00    -0.267 OA
ATOM      6  H   UNL A   1      41.734  21.438  27.088  1.00  0.00     0.163 HD
BRANCH   4   7
ATOM      7  C   UNL A   1      38.590  22.314  26.363  1.00  0.00     0.151 A 
ATOM      8  N   UNL A   1      36.786  21.496  25.513  1.00  0.00    -0.231 N 
ATOM      9  N   UNL A   1      37.888  21.168  26.224  1.00  0.00    -0.162 NA
ATOM     10  C   UNL A   1      36.697  22.857  25.303  1.00  0.00     0.085 A 
ATOM     11  C   UNL A   1      37.810  23.400  25.898  1.00  0.00     0.066 A 
BRANCH   8  12
ATOM     12  C   UNL A   1      35.872  20.506  25.082  1.00  0.00     0.065 A 
ATOM     13  C   UNL A   1      34.093  18.443  24.557  1.00  0.00     0.082 A 
ATOM     14  C   UNL A   1      33.599  19.698  24.928  1.00  0.00     0.024 A 
ATOM     15  C   UNL A   1      35.466  18.227  24.398  1.00  0.00     0.024 A 
ATOM     16  C   UNL A   1      34.493  20.728  25.206  1.00  0.00     0.030 A 
ATOM     17  C   UNL A   1      36.362  19.274  24.630  1.00  0.00     0.030 A 
BRANCH  13  18
ATOM     18  S   UNL A   1      32.952  17.111  24.342  1.00  0.00     0.238 S 
ATOM     19  O   UNL A   1      31.696  17.437  24.988  1.00  0.00    -0.207 OA
ATOM     20  O   UNL A   1      33.641  15.865  24.552  1.00  0.00    -0.207 OA
BRANCH  18  21
ATOM     21  N   UNL A   1      32.614  17.183  22.693  1.00  0.00    -0.225 NA
ATOM     22  H   UNL A   1      32.976  18.056  22.309  1.00  0.00     0.137 HD
ATOM     23  H   UNL A   1      31.605  17.142  22.551  1.00  0.00     0.137 HD
ENDBRANCH  18  21
ENDBRANCH  13  18
ENDBRANCH   8  12
BRANCH  10  24
ATOM     24  C   UNL A   1      35.622  23.564  24.682  1.00  0.00     0.054 A 
ATOM     25  C   UNL A   1      35.327  23.582  23.332  1.00  0.00     0.024 A 
ATOM     26  S   UNL A   1      34.574  24.578  25.578  1.00  0.00    -0.122 S 
ATOM     27  C   UNL A   1      34.214  24.424  23.040  1.00  0.00     0.033 A 
ATOM     28  C   UNL A   1      33.732  25.017  24.180  1.00  0.00     0.094 A 
ATOM     29  Cl  UNL A   1      32.416  26.113  24.285  1.00  0.00    -0.072 Cl
ENDBRANCH  10  24
ENDBRANCH   4   7
ENDBRANCH   2   3
ENDBRANCH   1   2
BRANCH   1  30
ATOM     30  C   UNL A   1      43.225  20.214  26.228  1.00  0.00     0.118 C 
BRANCH  30  31
ATOM     31  N   UNL A   1      43.898  20.871  25.102  1.00  0.00    -0.352 N 
ATOM     32  C   UNL A   1      43.905  22.208  24.750  1.00  0.00     0.251 C 
ATOM     33  H   UNL A   1      44.419  20.278  24.514  1.00  0.00     0.163 HD
ATOM     34  O   UNL A   1      44.211  22.545  23.612  1.00  0.00    -0.269 OA
BRANCH  32  35
ATOM     35  C   UNL A   1      43.547  23.216  25.763  1.00  0.00     0.039 A 
ATOM     36  C   UNL A   1      44.051  23.162  27.067  1.00  0.00     0.014 A 
ATOM     37  C   UNL A   1      42.696  24.245  25.374  1.00  0.00     0.014 A 
ATOM     38  C   UNL A   1      43.750  24.200  27.947  1.00  0.00     0.010 A 
ATOM     39  C   UNL A   1      42.550  25.345  26.173  1.00  0.00     0.010 A 
ATOM     40  C   UNL A   1      43.010  25.299  27.482  1.00  0.00    -0.014 A 
BRANCH  40  41
ATOM     41  C   UNL A   1      42.837  26.504  28.287  1.00  0.00     0.031 A 
ATOM     42  C   UNL A   1      43.942  27.486  28.092  1.00  0.00     0.074 A 
ATOM     43  C   UNL A   1      41.657  26.800  28.882  1.00  0.00     0.049 A 
ATOM     44  N   UNL A   1      44.855  27.841  28.934  1.00  0.00    -0.248 NA
ATOM     45  C   UNL A   1      44.188  27.974  26.718  1.00  0.00     0.031 C 
ATOM     46  C   UNL A   1      40.399  26.041  28.799  1.00  0.00     0.029 A 
ATOM     47  N   UNL A   1      41.272  27.910  29.567  1.00  0.00    -0.354 N 
ATOM     48  C   UNL A   1      45.603  28.816  28.276  1.00  0.00     0.074 A 
ATOM     49  C   UNL A   1      45.330  28.643  26.875  1.00  0.00     0.031 C 
ATOM     50  C   UNL A   1      39.364  26.830  29.166  1.00  0.00     0.029 A 
ATOM     51  C   UNL A   1      39.889  28.085  29.668  1.00  0.00     0.049 A 
ATOM     52  H   UNL A   1      41.917  28.541  29.961  1.00  0.00     0.167 HD
ATOM     53  C   UNL A   1      46.090  29.900  28.947  1.00  0.00     0.031 A 
ATOM     54  C   UNL A   1      39.225  29.198  30.086  1.00  0.00     0.031 A 
ATOM     55  C   UNL A   1      46.057  29.679  30.373  1.00  0.00     0.049 A 
ATOM     56  C   UNL A   1      40.215  30.040  30.802  1.00  0.00     0.074 A 
ATOM     57  C   UNL A   1      46.584  28.734  31.230  1.00  0.00     0.029 A 
ATOM     58  N   UNL A   1      45.031  30.286  31.058  1.00  0.00    -0.354 N 
ATOM     59  N   UNL A   1      40.797  29.684  31.913  1.00  0.00    -0.248 NA
ATOM     60  C   UNL A   1      40.913  31.051  30.026  1.00  0.00     0.031 C 
ATOM     61  C   UNL A   1      45.562  28.503  32.197  1.00  0.00     0.029 A 
ATOM     62  C   UNL A   1      44.510  29.385  31.946  1.00  0.00     0.049 A 
ATOM     63  H   UNL A   1      44.723  31.212  30.932  1.00  0.00     0.167 HD
ATOM     64  C   UNL A   1      42.119  30.074  31.759  1.00  0.00     0.074 A 
ATOM     65  C   UNL A   1      42.111  30.983  30.611  1.00  0.00     0.031 C 
ATOM     66  C   UNL A   1      43.128  29.399  32.385  1.00  0.00     0.031 A 
BRANCH  53  67
ATOM     67  C   UNL A   1      46.107  31.304  28.361  1.00  0.00    -0.014 A 
ATOM     68  C   UNL A   1      44.945  32.095  28.485  1.00  0.00     0.010 A 
ATOM     69  C   UNL A   1      47.087  31.769  27.459  1.00  0.00     0.010 A 
ATOM     70  C   UNL A   1      44.731  33.218  27.674  1.00  0.00     0.020 A 
ATOM     71  C   UNL A   1      46.905  32.911  26.676  1.00  0.00     0.020 A 
ATOM     72  C   UNL A   1      45.711  33.608  26.763  1.00  0.00     0.054 A 
BRANCH  72  73
ATOM     73  S   UNL A   1      45.393  35.004  25.658  1.00  0.00     0.124 S 
ATOM     74  O   UNL A   1      44.137  35.523  26.185  1.00  0.00    -0.237 OA
ATOM     75  O   UNL A   1      46.571  35.840  25.878  1.00  0.00    -0.237 OA
ATOM     76  O   UNL A   1      45.316  34.382  24.337  1.00  0.00    -0.744 OA
ENDBRANCH  72  73
ENDBRANCH  53  67
BRANCH  54  77
ATOM     77  C   UNL A   1      37.923  29.750  29.610  1.00  0.00    -0.014 A 
ATOM     78  C   UNL A   1      36.913  30.125  30.521  1.00  0.00     0.010 A 
ATOM     79  C   UNL A   1      37.786  30.191  28.279  1.00  0.00     0.010 A 
ATOM     80  C   UNL A   1      35.850  30.963  30.132  1.00  0.00     0.020 A 
ATOM     81  C   UNL A   1      36.726  31.021  27.881  1.00  0.00     0.020 A 
ATOM     82  C   UNL A   1      35.777  31.425  28.816  1.00  0.00     0.054 A 
BRANCH  82  83
ATOM     83  S   UNL A   1      34.514  32.657  28.361  1.00  0.00     0.124 S 
ATOM     84  O   UNL A   1      34.089  33.165  29.662  1.00  0.00    -0.237 OA
ATOM     85  O   UNL A   1      35.266  33.596  27.532  1.00  0.00    -0.237 OA
ATOM     86  O   UNL A   1      33.510  31.871  27.644  1.00  0.00    -0.744 OA
ENDBRANCH  82  83
ENDBRANCH  54  77
BRANCH  66  87
ATOM     87  C   UNL A   1      42.783  28.462  33.519  1.00  0.00    -0.014 A 
ATOM     88  C   UNL A   1      42.626  27.066  33.399  1.00  0.00     0.010 A 
ATOM     89  C   UNL A   1      42.752  29.029  34.805  1.00  0.00     0.010 A 
ATOM     90  C   UNL A   1      42.416  26.270  34.539  1.00  0.00     0.020 A 
ATOM     91  C   UNL A   1      42.564  28.243  35.941  1.00  0.00     0.020 A 
ATOM     92  C   UNL A   1      42.383  26.869  35.804  1.00  0.00     0.054 A 
BRANCH  92  93
ATOM     93  S   UNL A   1      42.125  25.848  37.283  1.00  0.00     0.124 S 
ATOM     94  O   UNL A   1      42.447  24.508  36.803  1.00  0.00    -0.237 OA
ATOM     95  O   UNL A   1      43.069  26.420  38.240  1.00  0.00    -0.237 OA
ATOM     96  O   UNL A   1      40.716  26.063  37.613  1.00  0.00    -0.744 OA
ENDBRANCH  92  93
ENDBRANCH  66  87
ENDBRANCH  40  41
ENDBRANCH  32  35
ENDBRANCH  30  31
ENDBRANCH   1  30
TORSDOF 17
ENDMDL
MODEL 3
REMARK VINA RESULT:     -12.1      3.201      4.827
REMARK SMILES NS(=O)(=O)c1ccc(-n2nc(C(=O)NCCCNC(=O)c3ccc(-c4c5nc(c(-c6ccc(S(=O)(=O)[O-])cc6)c6ccc([nH]6)c(-c6ccc(S(=O)(=O)[O-])cc6)c6nc(c(-c7ccc(S(=O)(=O)[O-])cc7)c7ccc4[nH]7)C=C6)C=C5)cc3)cc2-c2ccc(Cl)s2)cc1
REMARK SMILES IDX 16 1 15 2 14 3 12 4 13 5 11 7 9 8 10 9 82 10 81 11 8 12 5 13
REMARK SMILES IDX 6 14 90 15 7 16 89 17 2 18 3 19 4 20 1 21 83 24 84 25 88 26
REMARK SMILES IDX 85 27 86 28 87 29 17 30 18 31 19 32 20 34 21 35 22 36 80 37
REMARK SMILES IDX 23 38 79 39 24 40 25 41 26 42 73 43 27 44 78 45 72 46 74 47
REMARK SMILES IDX 28 48 77 49 71 50 70 51 29 53 59 54 40 55 58 56 41 57 44 58
REMARK SMILES IDX 57 59 75 60 42 61 43 62 56 64 76 65 45 66 30 67 31 68 39 69
REMARK SMILES IDX 32 70 38 71 33 72 34 73 35 74 36 75 37 76 60 77 61 78 69 79
REMARK SMILES IDX 62 80 68 81 63 82 64 83 65 84 66 85 67 86 46 87 47 88 55 89
REMARK SMILES IDX 48 90 54 91 49 92 50 93 51 94 52 95 53 96
REMARK H PARENT 14 6 1 22 1 23 18 33 74 52 44 63
REMARK Flexibility Score: inf
ROOT
ATOM      1  C   UNL A   1      41.028  19.201  26.183  1.00  0.00     0.042 C 
ENDROOT
BRANCH   1   2
ATOM      2  C   UNL A   1      39.774  20.061  25.974  1.00  0.00     0.118 C 
BRANCH   2   3
ATOM      3  N   UNL A   1      40.031  21.477  26.177  1.00  0.00    -0.351 N 
ATOM      4  C   UNL A   1      39.206  22.584  26.147  1.00  0.00     0.271 C 
ATOM      5  O   UNL A   1      39.716  23.650  26.493  1.00  0.00    -0.267 OA
ATOM      6  H   UNL A   1      40.972  21.687  26.373  1.00  0.00     0.163 HD
BRANCH   4   7
ATOM      7  C   UNL A   1      37.781  22.474  25.761  1.00  0.00     0.151 A 
ATOM      8  N   UNL A   1      35.703  23.032  25.635  1.00  0.00    -0.231 N 
ATOM      9  N   UNL A   1      36.932  23.512  25.927  1.00  0.00    -0.162 NA
ATOM     10  C   UNL A   1      35.758  21.738  25.157  1.00  0.00     0.085 A 
ATOM     11  C   UNL A   1      37.087  21.392  25.170  1.00  0.00     0.066 A 
BRANCH   8  12
ATOM     12  C   UNL A   1      34.546  23.826  25.814  1.00  0.00     0.065 A 
ATOM     13  C   UNL A   1      32.121  25.167  25.948  1.00  0.00     0.082 A 
ATOM     14  C   UNL A   1      32.414  24.181  26.894  1.00  0.00     0.024 A 
ATOM     15  C   UNL A   1      33.054  25.523  24.966  1.00  0.00     0.024 A 
ATOM     16  C   UNL A   1      33.624  23.497  26.817  1.00  0.00     0.030 A 
ATOM     17  C   UNL A   1      34.289  24.870  24.918  1.00  0.00     0.030 A 
BRANCH  13  18
ATOM     18  S   UNL A   1      30.527  25.928  25.976  1.00  0.00     0.238 S 
ATOM     19  O   UNL A   1      30.066  26.140  24.619  1.00  0.00    -0.207 OA
ATOM     20  O   UNL A   1      30.518  26.961  26.977  1.00  0.00    -0.207 OA
BRANCH  18  21
ATOM     21  N   UNL A   1      29.545  24.695  26.571  1.00  0.00    -0.225 NA
ATOM     22  H   UNL A   1      30.126  23.914  26.877  1.00  0.00     0.137 HD
ATOM     23  H   UNL A   1      28.911  24.381  25.836  1.00  0.00     0.137 HD
ENDBRANCH  18  21
ENDBRANCH  13  18
ENDBRANCH   8  12
BRANCH  10  24
ATOM     24  C   UNL A   1      34.670  20.958  24.660  1.00  0.00     0.054 A 
ATOM     25  C   UNL A   1      33.557  21.437  23.996  1.00  0.00     0.024 A 
ATOM     26  S   UNL A   1      34.585  19.267  24.910  1.00  0.00    -0.122 S 
ATOM     27  C   UNL A   1      32.637  20.396  23.675  1.00  0.00     0.033 A 
ATOM     28  C   UNL A   1      33.090  19.182  24.126  1.00  0.00     0.094 A 
ATOM     29  Cl  UNL A   1      32.294  17.670  23.970  1.00  0.00    -0.072 Cl
ENDBRANCH  10  24
ENDBRANCH   4   7
ENDBRANCH   2   3
ENDBRANCH   1   2
BRANCH   1  30
ATOM     30  C   UNL A   1      42.224  20.044  26.603  1.00  0.00     0.118 C 
BRANCH  30  31
ATOM     31  N   UNL A   1      43.328  19.943  25.642  1.00  0.00    -0.352 N 
ATOM     32  C   UNL A   1      44.012  20.952  24.991  1.00  0.00     0.251 C 
ATOM     33  H   UNL A   1      43.625  19.028  25.431  1.00  0.00     0.163 HD
ATOM     34  O   UNL A   1      44.653  20.708  23.976  1.00  0.00    -0.269 OA
BRANCH  32  35
ATOM     35  C   UNL A   1      43.962  22.319  25.539  1.00  0.00     0.039 A 
ATOM     36  C   UNL A   1      43.090  23.286  25.028  1.00  0.00     0.014 A 
ATOM     37  C   UNL A   1      44.806  22.617  26.603  1.00  0.00     0.014 A 
ATOM     38  C   UNL A   1      43.025  24.530  25.655  1.00  0.00     0.010 A 
ATOM     39  C   UNL A   1      44.614  23.763  27.323  1.00  0.00     0.010 A 
ATOM     40  C   UNL A   1      43.781  24.752  26.816  1.00  0.00    -0.014 A 
BRANCH  40  41
ATOM     41  C   UNL A   1      43.604  25.950  27.631  1.00  0.00     0.031 A 
ATOM     42  C   UNL A   1      44.642  26.984  27.362  1.00  0.00     0.074 A 
ATOM     43  C   UNL A   1      42.454  26.188  28.306  1.00  0.00     0.049 A 
ATOM     44  N   UNL A   1      45.593  27.387  28.140  1.00  0.00    -0.248 NA
ATOM     45  C   UNL A   1      44.770  27.480  25.974  1.00  0.00     0.031 C 
ATOM     46  C   UNL A   1      41.232  25.368  28.309  1.00  0.00     0.029 A 
ATOM     47  N   UNL A   1      42.062  27.280  29.016  1.00  0.00    -0.354 N 
ATOM     48  C   UNL A   1      46.245  28.396  27.432  1.00  0.00     0.074 A 
ATOM     49  C   UNL A   1      45.886  28.206  26.053  1.00  0.00     0.031 C 
ATOM     50  C   UNL A   1      40.187  26.105  28.747  1.00  0.00     0.029 A 
ATOM     51  C   UNL A   1      40.683  27.386  29.213  1.00  0.00     0.049 A 
ATOM     52  H   UNL A   1      42.700  27.943  29.366  1.00  0.00     0.167 HD
ATOM     53  C   UNL A   1      46.722  29.504  28.069  1.00  0.00     0.031 A 
ATOM     54  C   UNL A   1      39.995  28.466  29.676  1.00  0.00     0.031 A 
ATOM     55  C   UNL A   1      46.798  29.286  29.494  1.00  0.00     0.049 A 
ATOM     56  C   UNL A   1      40.988  29.358  30.322  1.00  0.00     0.074 A 
ATOM     57  C   UNL A   1      47.429  28.370  30.312  1.00  0.00     0.029 A 
ATOM     58  N   UNL A   1      45.792  29.843  30.248  1.00  0.00    -0.354 N 
ATOM     59  N   UNL A   1      41.661  29.034  31.391  1.00  0.00    -0.248 NA
ATOM     60  C   UNL A   1      41.581  30.400  29.501  1.00  0.00     0.031 C 
ATOM     61  C   UNL A   1      46.488  28.092  31.346  1.00  0.00     0.029 A 
ATOM     62  C   UNL A   1      45.378  28.920  31.169  1.00  0.00     0.049 A 
ATOM     63  H   UNL A   1      45.431  30.752  30.144  1.00  0.00     0.167 HD
ATOM     64  C   UNL A   1      42.949  29.489  31.147  1.00  0.00     0.074 A 
ATOM     65  C   UNL A   1      42.818  30.394  30.003  1.00  0.00     0.031 C 
ATOM     66  C   UNL A   1      44.031  28.866  31.702  1.00  0.00     0.031 A 
BRANCH  53  67
ATOM     67  C   UNL A   1      46.629  30.906  27.484  1.00  0.00    -0.014 A 
ATOM     68  C   UNL A   1      47.720  31.781  27.668  1.00  0.00     0.010 A 
ATOM     69  C   UNL A   1      45.429  31.489  27.025  1.00  0.00     0.010 A 
ATOM     70  C   UNL A   1      47.584  33.167  27.508  1.00  0.00     0.020 A 
ATOM     71  C   UNL A   1      45.292  32.864  26.820  1.00  0.00     0.020 A 
ATOM     72  C   UNL A   1      46.363  33.699  27.099  1.00  0.00     0.054 A 
BRANCH  72  73
ATOM     73  S   UNL A   1      46.168  35.492  26.980  1.00  0.00     0.124 S 
ATOM     74  O   UNL A   1      47.281  35.969  27.792  1.00  0.00    -0.237 OA
ATOM     75  O   UNL A   1      46.286  35.717  25.542  1.00  0.00    -0.237 OA
ATOM     76  O   UNL A   1      44.836  35.728  27.534  1.00  0.00    -0.744 OA
ENDBRANCH  72  73
ENDBRANCH  53  67
BRANCH  54  77
ATOM     77  C   UNL A   1      38.637  28.951  29.290  1.00  0.00    -0.014 A 
ATOM     78  C   UNL A   1      37.670  29.266  30.269  1.00  0.00     0.010 A 
ATOM     79  C   UNL A   1      38.391  29.393  27.975  1.00  0.00     0.010 A 
ATOM     80  C   UNL A   1      36.542  30.050  29.957  1.00  0.00     0.020 A 
ATOM     81  C   UNL A   1      37.265  30.169  27.656  1.00  0.00     0.020 A 
ATOM     82  C   UNL A   1      36.359  30.516  28.654  1.00  0.00     0.054 A 
BRANCH  82  83
ATOM     83  S   UNL A   1      35.007  31.683  28.294  1.00  0.00     0.124 S 
ATOM     84  O   UNL A   1      35.694  32.739  27.556  1.00  0.00    -0.237 OA
ATOM     85  O   UNL A   1      34.080  30.868  27.513  1.00  0.00    -0.237 OA
ATOM     86  O   UNL A   1      34.522  32.067  29.619  1.00  0.00    -0.744 OA
ENDBRANCH  82  83
ENDBRANCH  54  77
BRANCH  66  87
ATOM     87  C   UNL A   1      43.811  27.916  32.856  1.00  0.00    -0.014 A 
ATOM     88  C   UNL A   1      43.861  26.510  32.770  1.00  0.00     0.010 A 
ATOM     89  C   UNL A   1      43.683  28.503  34.126  1.00  0.00     0.010 A 
ATOM     90  C   UNL A   1      43.753  25.720  33.928  1.00  0.00     0.020 A 
ATOM     91  C   UNL A   1      43.596  27.726  35.280  1.00  0.00     0.020 A 
ATOM     92  C   UNL A   1      43.618  26.337  35.177  1.00  0.00     0.054 A 
BRANCH  92  93
ATOM     93  S   UNL A   1      43.492  25.326  36.679  1.00  0.00     0.124 S 
ATOM     94  O   UNL A   1      43.032  24.042  36.159  1.00  0.00    -0.237 OA
ATOM     95  O   UNL A   1      44.858  25.343  37.198  1.00  0.00    -0.237 OA
ATOM     96  O   UNL A   1      42.518  26.043  37.501  1.00  0.00    -0.744 OA
ENDBRANCH  92  93
ENDBRANCH  66  87
ENDBRANCH  40  41
ENDBRANCH  32  35
ENDBRANCH  30  31
ENDBRANCH   1  30
TORSDOF 17
ENDMDL
