MODEL 1
REMARK VINA RESULT:     -12.9      0.000      0.000
REMARK SMILES O=C(NCCCNC(=O)[C@]12C[NH2+]C[C@H]1CN(C(=O)c1ccccc1-n1cncn1)C2)c1ccc(-c2c3nc(c(-c4ccc(S(=O)(=O)[O-])cc4)c4ccc([nH]4)c(-c4ccc(S(=O)(=O)[O-])cc4)c4nc(c(-c5ccc(S(=O)(=O)[O-])cc5)c5ccc2[nH]5)C=C4)C=C3)cc1
REMARK SMILES IDX 5 1 4 2 3 3 1 4 2 5 31 7 32 8 90 9 33 10 89 11 34 12 35 13
REMARK SMILES IDX 36 14 83 15 37 16 88 17 82 18 84 19 38 20 87 21 81 22 80 23
REMARK SMILES IDX 39 25 69 26 50 27 68 28 51 29 54 30 67 31 85 32 52 33 53 34
REMARK SMILES IDX 66 36 86 37 55 38 40 39 41 40 49 41 42 42 48 43 43 44 44 45
REMARK SMILES IDX 45 46 46 47 47 48 70 49 71 50 79 51 72 52 78 53 73 54 74 55
REMARK SMILES IDX 75 56 76 57 77 58 56 59 57 60 65 61 58 62 64 63 59 64 60 65
REMARK SMILES IDX 61 66 62 67 63 68 6 69 7 70 8 71 9 73 10 74 11 75 14 76
REMARK SMILES IDX 30 77 12 78 13 79 15 80 16 81 17 84 18 85 19 86 20 87 24 88
REMARK SMILES IDX 21 89 23 90 22 91 25 92 26 93 29 94 27 95 28 96
REMARK H PARENT 3 6 84 24 54 35 7 72 12 82 12 83
REMARK Flexibility Score: inf
ROOT
ATOM      1  C   UNL A   1      36.414  23.321  23.700  1.00  0.00     0.042 C 
ENDROOT
BRANCH   1   2
ATOM      2  C   UNL A   1      36.907  23.274  25.145  1.00  0.00     0.118 C 
BRANCH   2   3
ATOM      3  N   UNL A   1      37.899  22.249  25.399  1.00  0.00    -0.352 N 
ATOM      4  O   UNL A   1      39.634  21.121  26.170  1.00  0.00    -0.269 OA
ATOM      5  C   UNL A   1      39.064  22.213  26.111  1.00  0.00     0.251 C 
ATOM      6  H   UNL A   1      37.686  21.391  24.966  1.00  0.00     0.163 HD
BRANCH   5   7
ATOM      7  C   UNL A   1      39.711  23.405  26.714  1.00  0.00     0.039 A 
ATOM      8  C   UNL A   1      40.960  23.422  27.341  1.00  0.00     0.014 A 
ATOM      9  C   UNL A   1      38.946  24.582  26.694  1.00  0.00     0.014 A 
ATOM     10  C   UNL A   1      41.367  24.527  28.073  1.00  0.00     0.010 A 
ATOM     11  C   UNL A   1      39.366  25.705  27.383  1.00  0.00     0.010 A 
ATOM     12  C   UNL A   1      40.546  25.647  28.123  1.00  0.00    -0.014 A 
BRANCH  12  13
ATOM     13  C   UNL A   1      41.006  26.813  28.861  1.00  0.00     0.031 A 
ATOM     14  C   UNL A   1      42.209  27.484  28.279  1.00  0.00     0.074 A 
ATOM     15  C   UNL A   1      40.257  27.332  29.855  1.00  0.00     0.049 A 
ATOM     16  N   UNL A   1      43.322  27.807  28.857  1.00  0.00    -0.248 NA
ATOM     17  C   UNL A   1      42.205  27.726  26.824  1.00  0.00     0.031 C 
ATOM     18  C   UNL A   1      38.924  26.898  30.291  1.00  0.00     0.029 A 
ATOM     19  N   UNL A   1      40.455  28.465  30.576  1.00  0.00    -0.354 N 
ATOM     20  C   UNL A   1      44.080  28.464  27.887  1.00  0.00     0.074 A 
ATOM     21  C   UNL A   1      43.413  28.251  26.629  1.00  0.00     0.031 C 
ATOM     22  C   UNL A   1      38.332  27.904  30.971  1.00  0.00     0.029 A 
ATOM     23  C   UNL A   1      39.288  28.987  31.128  1.00  0.00     0.049 A 
ATOM     24  H   UNL A   1      41.340  28.880  30.698  1.00  0.00     0.167 HD
ATOM     25  C   UNL A   1      45.086  29.329  28.197  1.00  0.00     0.031 A 
ATOM     26  C   UNL A   1      39.097  30.257  31.571  1.00  0.00     0.031 A 
ATOM     27  C   UNL A   1      45.544  29.171  29.547  1.00  0.00     0.049 A 
ATOM     28  C   UNL A   1      40.441  30.851  31.785  1.00  0.00     0.074 A 
ATOM     29  C   UNL A   1      46.144  28.149  30.254  1.00  0.00     0.029 A 
ATOM     30  N   UNL A   1      45.059  30.047  30.489  1.00  0.00    -0.354 N 
ATOM     31  N   UNL A   1      41.284  30.409  32.678  1.00  0.00    -0.248 NA
ATOM     32  C   UNL A   1      41.034  31.606  30.691  1.00  0.00     0.031 C 
ATOM     33  C   UNL A   1      45.547  28.204  31.547  1.00  0.00     0.029 A 
ATOM     34  C   UNL A   1      44.673  29.293  31.569  1.00  0.00     0.049 A 
ATOM     35  H   UNL A   1      45.001  31.026  30.405  1.00  0.00     0.167 HD
ATOM     36  C   UNL A   1      42.524  30.455  32.055  1.00  0.00     0.074 A 
ATOM     37  C   UNL A   1      42.317  31.277  30.862  1.00  0.00     0.031 C 
ATOM     38  C   UNL A   1      43.529  29.597  32.402  1.00  0.00     0.031 A 
BRANCH  25  39
ATOM     39  C   UNL A   1      45.376  30.569  27.387  1.00  0.00    -0.014 A 
ATOM     40  C   UNL A   1      46.710  30.908  27.091  1.00  0.00     0.010 A 
ATOM     41  C   UNL A   1      44.395  31.558  27.154  1.00  0.00     0.010 A 
ATOM     42  C   UNL A   1      47.050  32.195  26.646  1.00  0.00     0.020 A 
ATOM     43  C   UNL A   1      44.716  32.826  26.670  1.00  0.00     0.020 A 
ATOM     44  C   UNL A   1      46.048  33.149  26.453  1.00  0.00     0.054 A 
BRANCH  44  45
ATOM     45  S   UNL A   1      46.506  34.840  25.999  1.00  0.00     0.124 S 
ATOM     46  O   UNL A   1      45.240  35.371  25.502  1.00  0.00    -0.237 OA
ATOM     47  O   UNL A   1      46.968  35.388  27.272  1.00  0.00    -0.237 OA
ATOM     48  O   UNL A   1      47.548  34.654  24.992  1.00  0.00    -0.744 OA
ENDBRANCH  44  45
ENDBRANCH  25  39
BRANCH  26  49
ATOM     49  C   UNL A   1      37.864  31.075  31.403  1.00  0.00    -0.014 A 
ATOM     50  C   UNL A   1      36.642  30.703  31.993  1.00  0.00     0.010 A 
ATOM     51  C   UNL A   1      37.955  32.376  30.864  1.00  0.00     0.010 A 
ATOM     52  C   UNL A   1      35.570  31.614  32.074  1.00  0.00     0.020 A 
ATOM     53  C   UNL A   1      36.892  33.284  30.935  1.00  0.00     0.020 A 
ATOM     54  C   UNL A   1      35.709  32.906  31.558  1.00  0.00     0.054 A 
BRANCH  54  55
ATOM     55  S   UNL A   1      34.383  34.127  31.803  1.00  0.00     0.124 S 
ATOM     56  O   UNL A   1      33.525  33.464  32.781  1.00  0.00    -0.237 OA
ATOM     57  O   UNL A   1      35.111  35.295  32.289  1.00  0.00    -0.237 OA
ATOM     58  O   UNL A   1      33.801  34.275  30.469  1.00  0.00    -0.744 OA
ENDBRANCH  54  55
ENDBRANCH  26  49
BRANCH  38  59
ATOM     59  C   UNL A   1      43.330  28.708  33.611  1.00  0.00    -0.014 A 
ATOM     60  C   UNL A   1      43.763  29.056  34.908  1.00  0.00     0.010 A 
ATOM     61  C   UNL A   1      42.522  27.569  33.461  1.00  0.00     0.010 A 
ATOM     62  C   UNL A   1      43.411  28.274  36.020  1.00  0.00     0.020 A 
ATOM     63  C   UNL A   1      42.155  26.795  34.566  1.00  0.00     0.020 A 
ATOM     64  C   UNL A   1      42.604  27.147  35.840  1.00  0.00     0.054 A 
BRANCH  64  65
ATOM     65  S   UNL A   1      42.098  26.172  37.285  1.00  0.00     0.124 S 
ATOM     66  O   UNL A   1      42.202  24.800  36.797  1.00  0.00    -0.237 OA
ATOM     67  O   UNL A   1      43.081  26.557  38.296  1.00  0.00    -0.237 OA
ATOM     68  O   UNL A   1      40.735  26.631  37.554  1.00  0.00    -0.744 OA
ENDBRANCH  64  65
ENDBRANCH  38  59
ENDBRANCH  12  13
ENDBRANCH   5   7
ENDBRANCH   2   3
ENDBRANCH   1   2
BRANCH   1  69
ATOM     69  C   UNL A   1      34.920  23.556  23.604  1.00  0.00     0.117 C 
BRANCH  69  70
ATOM     70  N   UNL A   1      34.216  22.324  23.298  1.00  0.00    -0.355 N 
ATOM     71  C   UNL A   1      33.297  21.686  24.090  1.00  0.00     0.234 C 
ATOM     72  H   UNL A   1      34.418  21.903  22.431  1.00  0.00     0.163 HD
ATOM     73  O   UNL A   1      32.681  20.726  23.628  1.00  0.00    -0.274 OA
BRANCH  71  74
ATOM     74  C   UNL A   1      33.085  22.321  25.476  1.00  0.00     0.125 C 
ATOM     75  C   UNL A   1      33.809  21.052  26.092  1.00  0.00     0.280 C 
ATOM     76  C   UNL A   1      32.452  22.575  26.881  1.00  0.00     0.087 C 
ATOM     77  C   UNL A   1      31.639  22.725  24.862  1.00  0.00     0.143 C 
ATOM     78  N   UNL A   1      34.411  21.443  27.383  1.00  0.00    -0.345 N 
ATOM     79  C   UNL A   1      33.499  22.415  27.955  1.00  0.00     0.267 C 
ATOM     80  C   UNL A   1      31.867  23.974  26.831  1.00  0.00     0.130 C 
ATOM     81  N   UNL A   1      31.352  24.016  25.491  1.00  0.00    -0.337 N 
ATOM     82  H   UNL A   1      35.331  21.858  27.236  1.00  0.00     0.346 HD
ATOM     83  H   UNL A   1      34.545  20.639  27.998  1.00  0.00     0.346 HD
BRANCH  81  84
ATOM     84  C   UNL A   1      30.959  25.214  24.923  1.00  0.00     0.256 C 
ATOM     85  O   UNL A   1      29.916  25.791  25.241  1.00  0.00    -0.269 OA
BRANCH  84  86
ATOM     86  C   UNL A   1      31.799  25.862  23.888  1.00  0.00     0.065 A 
ATOM     87  C   UNL A   1      31.871  25.221  22.639  1.00  0.00     0.016 A 
ATOM     88  C   UNL A   1      32.467  27.081  24.074  1.00  0.00     0.079 A 
ATOM     89  C   UNL A   1      32.563  25.809  21.579  1.00  0.00     0.001 A 
ATOM     90  C   UNL A   1      33.117  27.694  22.989  1.00  0.00     0.029 A 
ATOM     91  C   UNL A   1      33.176  27.049  21.751  1.00  0.00     0.002 A 
BRANCH  88  92
ATOM     92  N   UNL A   1      32.501  27.726  25.329  1.00  0.00    -0.220 N 
ATOM     93  C   UNL A   1      33.176  27.380  26.476  1.00  0.00     0.225 A 
ATOM     94  N   UNL A   1      31.738  28.821  25.576  1.00  0.00    -0.155 NA
ATOM     95  N   UNL A   1      32.763  28.111  27.487  1.00  0.00    -0.223 NA
ATOM     96  C   UNL A   1      31.866  28.948  26.897  1.00  0.00     0.246 A 
ENDBRANCH  88  92
ENDBRANCH  84  86
ENDBRANCH  81  84
ENDBRANCH  71  74
ENDBRANCH  69  70
ENDBRANCH   1  69
TORSDOF 16
ENDMDL
MODEL 2
REMARK VINA RESULT:     -12.9      2.510      9.040
REMARK SMILES O=C(NCCCNC(=O)[C@]12C[NH2+]C[C@H]1CN(C(=O)c1ccccc1-n1cncn1)C2)c1ccc(-c2c3nc(c(-c4ccc(S(=O)(=O)[O-])cc4)c4ccc([nH]4)c(-c4ccc(S(=O)(=O)[O-])cc4)c4nc(c(-c5ccc(S(=O)(=O)[O-])cc5)c5ccc2[nH]5)C=C4)C=C3)cc1
REMARK SMILES IDX 5 1 4 2 3 3 1 4 2 5 31 7 32 8 90 9 33 10 89 11 34 12 35 13
REMARK SMILES IDX 36 14 83 15 37 16 88 17 82 18 84 19 38 20 87 21 81 22 80 23
REMARK SMILES IDX 39 25 69 26 50 27 68 28 51 29 54 30 67 31 85 32 52 33 53 34
REMARK SMILES IDX 66 36 86 37 55 38 40 39 41 40 49 41 42 42 48 43 43 44 44 45
REMARK SMILES IDX 45 46 46 47 47 48 70 49 71 50 79 51 72 52 78 53 73 54 74 55
REMARK SMILES IDX 75 56 76 57 77 58 56 59 57 60 65 61 58 62 64 63 59 64 60 65
REMARK SMILES IDX 61 66 62 67 63 68 6 69 7 70 8 71 9 73 10 74 11 75 14 76
REMARK SMILES IDX 30 77 12 78 13 79 15 80 16 81 17 84 18 85 19 86 20 87 24 88
REMARK SMILES IDX 21 89 23 90 22 91 25 92 26 93 29 94 27 95 28 96
REMARK H PARENT 3 6 84 24 54 35 7 72 12 82 12 83
REMARK Flexibility Score: inf
ROOT
ATOM      1  C   UNL A   1      32.090  27.977  27.361  1.00  0.00     0.042 C 
ENDROOT
BRANCH   1   2
ATOM      2  C   UNL A   1      33.351  28.773  27.032  1.00  0.00     0.118 C 
BRANCH   2   3
ATOM      3  N   UNL A   1      33.382  30.101  27.611  1.00  0.00    -0.352 N 
ATOM      4  O   UNL A   1      34.039  32.056  28.400  1.00  0.00    -0.269 OA
ATOM      5  C   UNL A   1      34.384  30.940  28.004  1.00  0.00     0.251 C 
ATOM      6  H   UNL A   1      32.484  30.481  27.751  1.00  0.00     0.163 HD
BRANCH   5   7
ATOM      7  C   UNL A   1      35.817  30.556  28.072  1.00  0.00     0.039 A 
ATOM      8  C   UNL A   1      36.331  29.284  27.809  1.00  0.00     0.014 A 
ATOM      9  C   UNL A   1      36.692  31.566  28.506  1.00  0.00     0.014 A 
ATOM     10  C   UNL A   1      37.645  28.974  28.126  1.00  0.00     0.010 A 
ATOM     11  C   UNL A   1      38.016  31.277  28.781  1.00  0.00     0.010 A 
ATOM     12  C   UNL A   1      38.467  29.964  28.651  1.00  0.00    -0.014 A 
BRANCH  12  13
ATOM     13  C   UNL A   1      39.854  29.634  28.940  1.00  0.00     0.031 A 
ATOM     14  C   UNL A   1      40.201  29.618  30.394  1.00  0.00     0.074 A 
ATOM     15  C   UNL A   1      40.666  29.182  27.963  1.00  0.00     0.049 A 
ATOM     16  N   UNL A   1      41.165  30.224  31.009  1.00  0.00    -0.248 NA
ATOM     17  C   UNL A   1      39.273  28.912  31.298  1.00  0.00     0.031 C 
ATOM     18  C   UNL A   1      40.313  28.897  26.567  1.00  0.00     0.029 A 
ATOM     19  N   UNL A   1      41.940  28.721  28.051  1.00  0.00    -0.354 N 
ATOM     20  C   UNL A   1      41.081  29.823  32.343  1.00  0.00     0.074 A 
ATOM     21  C   UNL A   1      39.820  29.145  32.490  1.00  0.00     0.031 C 
ATOM     22  C   UNL A   1      41.236  28.062  26.039  1.00  0.00     0.029 A 
ATOM     23  C   UNL A   1      42.299  27.868  27.011  1.00  0.00     0.049 A 
ATOM     24  H   UNL A   1      42.553  28.965  28.783  1.00  0.00     0.167 HD
ATOM     25  C   UNL A   1      42.141  29.873  33.197  1.00  0.00     0.031 A 
ATOM     26  C   UNL A   1      43.329  26.983  27.005  1.00  0.00     0.031 A 
ATOM     27  C   UNL A   1      43.182  30.738  32.725  1.00  0.00     0.049 A 
ATOM     28  C   UNL A   1      44.261  27.391  28.088  1.00  0.00     0.074 A 
ATOM     29  C   UNL A   1      43.275  32.089  32.460  1.00  0.00     0.029 A 
ATOM     30  N   UNL A   1      44.253  30.156  32.088  1.00  0.00    -0.354 N 
ATOM     31  N   UNL A   1      44.913  28.521  28.081  1.00  0.00    -0.248 NA
ATOM     32  C   UNL A   1      44.091  26.778  29.397  1.00  0.00     0.031 C 
ATOM     33  C   UNL A   1      44.076  32.174  31.284  1.00  0.00     0.029 A 
ATOM     34  C   UNL A   1      44.476  30.880  30.944  1.00  0.00     0.049 A 
ATOM     35  H   UNL A   1      44.761  29.370  32.395  1.00  0.00     0.167 HD
ATOM     36  C   UNL A   1      44.866  28.971  29.393  1.00  0.00     0.074 A 
ATOM     37  C   UNL A   1      44.418  27.816  30.173  1.00  0.00     0.031 C 
ATOM     38  C   UNL A   1      44.918  30.302  29.693  1.00  0.00     0.031 A 
BRANCH  25  39
ATOM     39  C   UNL A   1      42.379  28.833  34.265  1.00  0.00    -0.014 A 
ATOM     40  C   UNL A   1      42.545  29.238  35.603  1.00  0.00     0.010 A 
ATOM     41  C   UNL A   1      42.728  27.502  33.949  1.00  0.00     0.010 A 
ATOM     42  C   UNL A   1      43.092  28.370  36.561  1.00  0.00     0.020 A 
ATOM     43  C   UNL A   1      43.233  26.617  34.902  1.00  0.00     0.020 A 
ATOM     44  C   UNL A   1      43.447  27.069  36.197  1.00  0.00     0.054 A 
BRANCH  44  45
ATOM     45  S   UNL A   1      44.267  25.999  37.404  1.00  0.00     0.124 S 
ATOM     46  O   UNL A   1      43.867  24.670  36.948  1.00  0.00    -0.237 OA
ATOM     47  O   UNL A   1      45.674  26.339  37.213  1.00  0.00    -0.237 OA
ATOM     48  O   UNL A   1      43.695  26.423  38.680  1.00  0.00    -0.744 OA
ENDBRANCH  44  45
ENDBRANCH  25  39
BRANCH  26  49
ATOM     49  C   UNL A   1      43.315  25.614  26.417  1.00  0.00    -0.014 A 
ATOM     50  C   UNL A   1      43.839  25.352  25.138  1.00  0.00     0.010 A 
ATOM     51  C   UNL A   1      43.011  24.505  27.234  1.00  0.00     0.010 A 
ATOM     52  C   UNL A   1      44.085  24.031  24.713  1.00  0.00     0.020 A 
ATOM     53  C   UNL A   1      43.246  23.190  26.817  1.00  0.00     0.020 A 
ATOM     54  C   UNL A   1      43.801  22.959  25.563  1.00  0.00     0.054 A 
BRANCH  54  55
ATOM     55  S   UNL A   1      44.264  21.269  25.075  1.00  0.00     0.124 S 
ATOM     56  O   UNL A   1      43.131  20.484  25.555  1.00  0.00    -0.237 OA
ATOM     57  O   UNL A   1      44.388  21.378  23.624  1.00  0.00    -0.237 OA
ATOM     58  O   UNL A   1      45.522  21.038  25.785  1.00  0.00    -0.744 OA
ENDBRANCH  54  55
ENDBRANCH  26  49
BRANCH  38  59
ATOM     59  C   UNL A   1      45.212  31.281  28.575  1.00  0.00    -0.014 A 
ATOM     60  C   UNL A   1      44.221  31.789  27.710  1.00  0.00     0.010 A 
ATOM     61  C   UNL A   1      46.499  31.838  28.516  1.00  0.00     0.010 A 
ATOM     62  C   UNL A   1      44.518  32.815  26.798  1.00  0.00     0.020 A 
ATOM     63  C   UNL A   1      46.798  32.871  27.621  1.00  0.00     0.020 A 
ATOM     64  C   UNL A   1      45.807  33.351  26.762  1.00  0.00     0.054 A 
BRANCH  64  65
ATOM     65  S   UNL A   1      46.173  34.720  25.627  1.00  0.00     0.124 S 
ATOM     66  O   UNL A   1      47.592  34.529  25.344  1.00  0.00    -0.237 OA
ATOM     67  O   UNL A   1      45.268  34.464  24.508  1.00  0.00    -0.237 OA
ATOM     68  O   UNL A   1      45.853  35.915  26.408  1.00  0.00    -0.744 OA
ENDBRANCH  64  65
ENDBRANCH  38  59
ENDBRANCH  12  13
ENDBRANCH   5   7
ENDBRANCH   2   3
ENDBRANCH   1   2
BRANCH   1  69
ATOM     69  C   UNL A   1      31.766  26.939  26.306  1.00  0.00     0.117 C 
BRANCH  69  70
ATOM     70  N   UNL A   1      30.669  27.375  25.461  1.00  0.00    -0.355 N 
ATOM     71  C   UNL A   1      30.707  27.575  24.106  1.00  0.00     0.234 C 
ATOM     72  H   UNL A   1      29.808  27.543  25.908  1.00  0.00     0.163 HD
ATOM     73  O   UNL A   1      29.655  27.809  23.512  1.00  0.00    -0.274 OA
BRANCH  71  74
ATOM     74  C   UNL A   1      32.095  27.399  23.464  1.00  0.00     0.125 C 
ATOM     75  C   UNL A   1      32.115  28.969  23.241  1.00  0.00     0.280 C 
ATOM     76  C   UNL A   1      33.179  27.281  22.345  1.00  0.00     0.087 C 
ATOM     77  C   UNL A   1      31.416  26.081  22.807  1.00  0.00     0.143 C 
ATOM     78  N   UNL A   1      33.523  29.412  23.189  1.00  0.00    -0.345 N 
ATOM     79  C   UNL A   1      34.244  28.329  22.546  1.00  0.00     0.267 C 
ATOM     80  C   UNL A   1      33.719  25.866  22.433  1.00  0.00     0.130 C 
ATOM     81  N   UNL A   1      32.526  25.127  22.736  1.00  0.00    -0.337 N 
ATOM     82  H   UNL A   1      33.882  29.572  24.130  1.00  0.00     0.346 HD
ATOM     83  H   UNL A   1      33.626  30.292  22.681  1.00  0.00     0.346 HD
BRANCH  81  84
ATOM     84  C   UNL A   1      32.598  23.814  23.165  1.00  0.00     0.256 C 
ATOM     85  O   UNL A   1      32.813  22.875  22.396  1.00  0.00    -0.269 OA
BRANCH  84  86
ATOM     86  C   UNL A   1      32.416  23.485  24.599  1.00  0.00     0.065 A 
ATOM     87  C   UNL A   1      31.110  23.586  25.110  1.00  0.00     0.016 A 
ATOM     88  C   UNL A   1      33.449  23.037  25.435  1.00  0.00     0.079 A 
ATOM     89  C   UNL A   1      30.833  23.204  26.424  1.00  0.00     0.001 A 
ATOM     90  C   UNL A   1      33.154  22.605  26.739  1.00  0.00     0.029 A 
ATOM     91  C   UNL A   1      31.851  22.704  27.234  1.00  0.00     0.002 A 
BRANCH  88  92
ATOM     92  N   UNL A   1      34.792  22.998  25.002  1.00  0.00    -0.220 N 
ATOM     93  C   UNL A   1      35.736  23.997  24.977  1.00  0.00     0.225 A 
ATOM     94  N   UNL A   1      35.316  21.877  24.444  1.00  0.00    -0.155 NA
ATOM     95  N   UNL A   1      36.788  23.614  24.289  1.00  0.00    -0.223 NA
ATOM     96  C   UNL A   1      36.472  22.332  23.958  1.00  0.00     0.246 A 
ENDBRANCH  88  92
ENDBRANCH  84  86
ENDBRANCH  81  84
ENDBRANCH  71  74
ENDBRANCH  69  70
ENDBRANCH   1  69
TORSDOF 16
ENDMDL
MODEL 3
REMARK VINA RESULT:     -12.9      1.324      2.283
REMARK SMILES O=C(NCCCNC(=O)[C@]12C[NH2+]C[C@H]1CN(C(=O)c1ccccc1-n1cncn1)C2)c1ccc(-c2c3nc(c(-c4ccc(S(=O)(=O)[O-])cc4)c4ccc([nH]4)c(-c4ccc(S(=O)(=O)[O-])cc4)c4nc(c(-c5ccc(S(=O)(=O)[O-])cc5)c5ccc2[nH]5)C=C4)C=C3)cc1
REMARK SMILES IDX 5 1 4 2 3 3 1 4 2 5 31 7 32 8 90 9 33 10 89 11 34 12 35 13
REMARK SMILES IDX 36 14 83 15 37 16 88 17 82 18 84 19 38 20 87 21 81 22 80 23
REMARK SMILES IDX 39 25 69 26 50 27 68 28 51 29 54 30 67 31 85 32 52 33 53 34
REMARK SMILES IDX 66 36 86 37 55 38 40 39 41 40 49 41 42 42 48 43 43 44 44 45
REMARK SMILES IDX 45 46 46 47 47 48 70 49 71 50 79 51 72 52 78 53 73 54 74 55
REMARK SMILES IDX 75 56 76 57 77 58 56 59 57 60 65 61 58 62 64 63 59 64 60 65
REMARK SMILES IDX 61 66 62 67 63 68 6 69 7 70 8 71 9 73 10 74 11 75 14 76
REMARK SMILES IDX 30 77 12 78 13 79 15 80 16 81 17 84 18 85 19 86 20 87 24 88
REMARK SMILES IDX 21 89 23 90 22 91 25 92 26 93 29 94 27 95 28 96
REMARK H PARENT 3 6 84 24 54 35 7 72 12 82 12 83
REMARK Flexibility Score: inf
ROOT
ATOM      1  C   UNL A   1      35.790  23.437  25.589  1.00  0.00     0.042 C 
ENDROOT
BRANCH   1   2
ATOM      2  C   UNL A   1      37.023  23.439  24.688  1.00  0.00     0.118 C 
BRANCH   2   3
ATOM      3  N   UNL A   1      38.032  22.468  25.061  1.00  0.00    -0.352 N 
ATOM      4  O   UNL A   1      39.660  21.391  26.094  1.00  0.00    -0.269 OA
ATOM      5  C   UNL A   1      39.011  22.437  26.012  1.00  0.00     0.251 C 
ATOM      6  H   UNL A   1      38.005  21.653  24.510  1.00  0.00     0.163 HD
BRANCH   5   7
ATOM      7  C   UNL A   1      39.391  23.596  26.858  1.00  0.00     0.039 A 
ATOM      8  C   UNL A   1      38.746  24.836  26.877  1.00  0.00     0.014 A 
ATOM      9  C   UNL A   1      40.541  23.418  27.645  1.00  0.00     0.014 A 
ATOM     10  C   UNL A   1      39.318  25.919  27.525  1.00  0.00     0.010 A 
ATOM     11  C   UNL A   1      41.093  24.482  28.333  1.00  0.00     0.010 A 
ATOM     12  C   UNL A   1      40.512  25.744  28.215  1.00  0.00    -0.014 A 
BRANCH  12  13
ATOM     13  C   UNL A   1      41.078  26.880  28.925  1.00  0.00     0.031 A 
ATOM     14  C   UNL A   1      42.401  27.343  28.406  1.00  0.00     0.074 A 
ATOM     15  C   UNL A   1      40.340  27.558  29.827  1.00  0.00     0.049 A 
ATOM     16  N   UNL A   1      43.504  27.547  29.053  1.00  0.00    -0.248 NA
ATOM     17  C   UNL A   1      42.536  27.492  26.944  1.00  0.00     0.031 C 
ATOM     18  C   UNL A   1      38.931  27.337  30.178  1.00  0.00     0.029 A 
ATOM     19  N   UNL A   1      40.643  28.696  30.502  1.00  0.00    -0.354 N 
ATOM     20  C   UNL A   1      44.415  28.033  28.113  1.00  0.00     0.074 A 
ATOM     21  C   UNL A   1      43.816  27.835  26.819  1.00  0.00     0.031 C 
ATOM     22  C   UNL A   1      38.439  28.455  30.755  1.00  0.00     0.029 A 
ATOM     23  C   UNL A   1      39.524  29.406  30.931  1.00  0.00     0.049 A 
ATOM     24  H   UNL A   1      41.566  28.993  30.671  1.00  0.00     0.167 HD
ATOM     25  C   UNL A   1      45.507  28.771  28.457  1.00  0.00     0.031 A 
ATOM     26  C   UNL A   1      39.482  30.715  31.290  1.00  0.00     0.031 A 
ATOM     27  C   UNL A   1      45.841  28.638  29.845  1.00  0.00     0.049 A 
ATOM     28  C   UNL A   1      40.878  31.133  31.580  1.00  0.00     0.074 A 
ATOM     29  C   UNL A   1      46.239  27.590  30.650  1.00  0.00     0.029 A 
ATOM     30  N   UNL A   1      45.418  29.628  30.699  1.00  0.00    -0.354 N 
ATOM     31  N   UNL A   1      41.584  30.637  32.558  1.00  0.00    -0.248 NA
ATOM     32  C   UNL A   1      41.647  31.730  30.498  1.00  0.00     0.031 C 
ATOM     33  C   UNL A   1      45.565  27.806  31.887  1.00  0.00     0.029 A 
ATOM     34  C   UNL A   1      44.854  29.004  31.783  1.00  0.00     0.049 A 
ATOM     35  H   UNL A   1      45.504  30.599  30.559  1.00  0.00     0.167 HD
ATOM     36  C   UNL A   1      42.859  30.475  32.034  1.00  0.00     0.074 A 
ATOM     37  C   UNL A   1      42.856  31.242  30.788  1.00  0.00     0.031 C 
ATOM     38  C   UNL A   1      43.706  29.512  32.505  1.00  0.00     0.031 A 
BRANCH  25  39
ATOM     39  C   UNL A   1      46.026  29.907  27.609  1.00  0.00    -0.014 A 
ATOM     40  C   UNL A   1      47.411  30.158  27.557  1.00  0.00     0.010 A 
ATOM     41  C   UNL A   1      45.172  30.905  27.091  1.00  0.00     0.010 A 
ATOM     42  C   UNL A   1      47.909  31.376  27.070  1.00  0.00     0.020 A 
ATOM     43  C   UNL A   1      45.659  32.102  26.564  1.00  0.00     0.020 A 
ATOM     44  C   UNL A   1      47.025  32.346  26.591  1.00  0.00     0.054 A 
BRANCH  44  45
ATOM     45  S   UNL A   1      47.665  33.960  26.082  1.00  0.00     0.124 S 
ATOM     46  O   UNL A   1      46.595  34.449  25.217  1.00  0.00    -0.237 OA
ATOM     47  O   UNL A   1      47.814  34.651  27.359  1.00  0.00    -0.237 OA
ATOM     48  O   UNL A   1      48.918  33.633  25.405  1.00  0.00    -0.744 OA
ENDBRANCH  44  45
ENDBRANCH  25  39
BRANCH  26  49
ATOM     49  C   UNL A   1      38.391  31.681  30.983  1.00  0.00    -0.014 A 
ATOM     50  C   UNL A   1      38.222  32.224  29.696  1.00  0.00     0.010 A 
ATOM     51  C   UNL A   1      37.346  31.875  31.911  1.00  0.00     0.010 A 
ATOM     52  C   UNL A   1      37.036  32.898  29.344  1.00  0.00     0.020 A 
ATOM     53  C   UNL A   1      36.167  32.549  31.571  1.00  0.00     0.020 A 
ATOM     54  C   UNL A   1      36.009  33.042  30.281  1.00  0.00     0.054 A 
BRANCH  54  55
ATOM     55  S   UNL A   1      34.420  33.771  29.780  1.00  0.00     0.124 S 
ATOM     56  O   UNL A   1      33.861  34.209  31.056  1.00  0.00    -0.237 OA
ATOM     57  O   UNL A   1      34.831  34.837  28.871  1.00  0.00    -0.237 OA
ATOM     58  O   UNL A   1      33.715  32.659  29.144  1.00  0.00    -0.744 OA
ENDBRANCH  54  55
ENDBRANCH  26  49
BRANCH  38  59
ATOM     59  C   UNL A   1      43.299  28.735  33.739  1.00  0.00    -0.014 A 
ATOM     60  C   UNL A   1      42.417  27.634  33.705  1.00  0.00     0.010 A 
ATOM     61  C   UNL A   1      43.969  29.017  34.941  1.00  0.00     0.010 A 
ATOM     62  C   UNL A   1      42.200  26.850  34.849  1.00  0.00     0.020 A 
ATOM     63  C   UNL A   1      43.770  28.230  36.079  1.00  0.00     0.020 A 
ATOM     64  C   UNL A   1      42.882  27.153  36.031  1.00  0.00     0.054 A 
BRANCH  64  65
ATOM     65  S   UNL A   1      42.649  26.100  37.491  1.00  0.00     0.124 S 
ATOM     66  O   UNL A   1      41.222  26.246  37.764  1.00  0.00    -0.237 OA
ATOM     67  O   UNL A   1      43.066  24.783  37.012  1.00  0.00    -0.237 OA
ATOM     68  O   UNL A   1      43.534  26.693  38.493  1.00  0.00    -0.744 OA
ENDBRANCH  64  65
ENDBRANCH  38  59
ENDBRANCH  12  13
ENDBRANCH   5   7
ENDBRANCH   2   3
ENDBRANCH   1   2
BRANCH   1  69
ATOM     69  C   UNL A   1      34.964  22.175  25.441  1.00  0.00     0.117 C 
BRANCH  69  70
ATOM     70  N   UNL A   1      34.464  22.033  24.086  1.00  0.00    -0.355 N 
ATOM     71  C   UNL A   1      33.287  22.531  23.591  1.00  0.00     0.234 C 
ATOM     72  H   UNL A   1      35.029  21.528  23.458  1.00  0.00     0.163 HD
ATOM     73  O   UNL A   1      33.071  22.448  22.382  1.00  0.00    -0.274 OA
BRANCH  71  74
ATOM     74  C   UNL A   1      32.389  23.225  24.630  1.00  0.00     0.125 C 
ATOM     75  C   UNL A   1      31.710  21.814  24.884  1.00  0.00     0.280 C 
ATOM     76  C   UNL A   1      31.114  23.888  25.244  1.00  0.00     0.087 C 
ATOM     77  C   UNL A   1      32.356  24.415  23.530  1.00  0.00     0.143 C 
ATOM     78  N   UNL A   1      31.163  21.803  26.256  1.00  0.00    -0.345 N 
ATOM     79  C   UNL A   1      30.709  23.159  26.500  1.00  0.00     0.267 C 
ATOM     80  C   UNL A   1      31.477  25.340  25.495  1.00  0.00     0.130 C 
ATOM     81  N   UNL A   1      32.287  25.630  24.346  1.00  0.00    -0.337 N 
ATOM     82  H   UNL A   1      31.886  21.542  26.926  1.00  0.00     0.346 HD
ATOM     83  H   UNL A   1      30.407  21.124  26.357  1.00  0.00     0.346 HD
BRANCH  81  84
ATOM     84  C   UNL A   1      33.054  26.780  24.295  1.00  0.00     0.256 C 
ATOM     85  O   UNL A   1      34.007  26.910  23.523  1.00  0.00    -0.269 OA
BRANCH  84  86
ATOM     86  C   UNL A   1      32.747  27.923  25.188  1.00  0.00     0.065 A 
ATOM     87  C   UNL A   1      33.506  28.026  26.367  1.00  0.00     0.016 A 
ATOM     88  C   UNL A   1      31.796  28.911  24.894  1.00  0.00     0.079 A 
ATOM     89  C   UNL A   1      33.348  29.121  27.218  1.00  0.00     0.001 A 
ATOM     90  C   UNL A   1      31.680  30.038  25.727  1.00  0.00     0.029 A 
ATOM     91  C   UNL A   1      32.445  30.131  26.892  1.00  0.00     0.002 A 
BRANCH  88  92
ATOM     92  N   UNL A   1      30.948  28.816  23.771  1.00  0.00    -0.220 N 
ATOM     93  C   UNL A   1      31.093  29.352  22.513  1.00  0.00     0.225 A 
ATOM     94  N   UNL A   1      29.749  28.183  23.849  1.00  0.00    -0.155 NA
ATOM     95  N   UNL A   1      29.977  29.223  21.831  1.00  0.00    -0.223 NA
ATOM     96  C   UNL A   1      29.181  28.537  22.695  1.00  0.00     0.246 A 
ENDBRANCH  88  92
ENDBRANCH  84  86
ENDBRANCH  81  84
ENDBRANCH  71  74
ENDBRANCH  69  70
ENDBRANCH   1  69
TORSDOF 16
ENDMDL
