MODEL 1
REMARK VINA RESULT:     -12.4      0.000      0.000
REMARK SMILES O=C(NCCCNC(=O)c1cn(C2CC2)c2cc(N3CC[NH2+]CC3)ccc2c1=O)c1ccc(-c2c3nc(c(-c4ccc(S(=O)(=O)[O-])cc4)c4ccc([nH]4)c(-c4ccc(S(=O)(=O)[O-])cc4)c4nc(c(-c5ccc(S(=O)(=O)[O-])cc5)c5ccc2[nH]5)C=C4)C=C3)cc1
REMARK SMILES IDX 4 1 3 2 1 3 2 4 30 6 31 7 89 8 32 9 88 10 33 11 34 12 35 13
REMARK SMILES IDX 82 14 36 15 87 16 81 17 83 18 37 19 86 20 80 21 79 22 38 24
REMARK SMILES IDX 68 25 49 26 67 27 50 28 53 29 66 30 84 31 51 32 52 33 65 35
REMARK SMILES IDX 85 36 54 37 39 38 40 39 48 40 41 41 47 42 42 43 43 44 44 45
REMARK SMILES IDX 45 46 46 47 69 48 70 49 78 50 71 51 77 52 72 53 73 54 74 55
REMARK SMILES IDX 75 56 76 57 55 58 56 59 64 60 57 61 63 62 58 63 59 64 60 65
REMARK SMILES IDX 61 66 62 67 5 68 6 69 7 70 8 71 9 73 10 74 11 75 28 76 12 77
REMARK SMILES IDX 27 78 29 79 16 80 26 81 17 82 25 83 18 84 13 85 14 86 15 87
REMARK SMILES IDX 19 88 20 89 24 90 21 91 23 92 22 93
REMARK H PARENT 3 5 83 23 53 34 7 72 22 94 22 95
REMARK Flexibility Score: inf
ROOT
ATOM      1  C   UNL A   1      33.196  28.367  27.366  1.00  0.00     0.118 C 
ENDROOT
BRANCH   1   2
ATOM      2  N   UNL A   1      33.310  29.806  27.554  1.00  0.00    -0.352 N 
ATOM      3  O   UNL A   1      34.097  31.767  28.274  1.00  0.00    -0.269 OA
ATOM      4  C   UNL A   1      34.335  30.586  28.022  1.00  0.00     0.251 C 
ATOM      5  H   UNL A   1      32.504  30.310  27.300  1.00  0.00     0.163 HD
BRANCH   4   6
ATOM      6  C   UNL A   1      35.703  30.054  28.230  1.00  0.00     0.039 A 
ATOM      7  C   UNL A   1      36.027  29.526  29.486  1.00  0.00     0.014 A 
ATOM      8  C   UNL A   1      36.698  30.153  27.255  1.00  0.00     0.014 A 
ATOM      9  C   UNL A   1      37.329  29.091  29.752  1.00  0.00     0.010 A 
ATOM     10  C   UNL A   1      37.969  29.629  27.487  1.00  0.00     0.010 A 
ATOM     11  C   UNL A   1      38.311  29.133  28.751  1.00  0.00    -0.014 A 
BRANCH  11  12
ATOM     12  C   UNL A   1      39.722  28.763  29.041  1.00  0.00     0.031 A 
ATOM     13  C   UNL A   1      40.602  29.722  29.805  1.00  0.00     0.074 A 
ATOM     14  C   UNL A   1      40.216  27.582  28.621  1.00  0.00     0.049 A 
ATOM     15  N   UNL A   1      41.862  29.601  30.130  1.00  0.00    -0.248 NA
ATOM     16  C   UNL A   1      39.995  30.994  30.239  1.00  0.00     0.031 C 
ATOM     17  C   UNL A   1      39.473  26.574  27.863  1.00  0.00     0.029 A 
ATOM     18  N   UNL A   1      41.460  27.022  28.788  1.00  0.00    -0.354 N 
ATOM     19  C   UNL A   1      42.201  30.781  30.784  1.00  0.00     0.074 A 
ATOM     20  C   UNL A   1      41.032  31.630  30.763  1.00  0.00     0.031 C 
ATOM     21  C   UNL A   1      40.256  25.498  27.678  1.00  0.00     0.029 A 
ATOM     22  C   UNL A   1      41.567  25.751  28.270  1.00  0.00     0.049 A 
ATOM     23  H   UNL A   1      42.203  27.486  29.236  1.00  0.00     0.167 HD
ATOM     24  C   UNL A   1      43.368  31.117  31.378  1.00  0.00     0.031 A 
ATOM     25  C   UNL A   1      42.597  24.881  28.288  1.00  0.00     0.031 A 
ATOM     26  C   UNL A   1      44.512  30.250  31.448  1.00  0.00     0.049 A 
ATOM     27  C   UNL A   1      43.878  25.267  28.976  1.00  0.00     0.074 A 
ATOM     28  C   UNL A   1      45.730  30.489  32.060  1.00  0.00     0.029 A 
ATOM     29  N   UNL A   1      44.572  28.972  30.917  1.00  0.00    -0.354 N 
ATOM     30  N   UNL A   1      44.171  26.383  29.598  1.00  0.00    -0.248 NA
ATOM     31  C   UNL A   1      44.960  24.271  28.982  1.00  0.00     0.031 C 
ATOM     32  C   UNL A   1      46.539  29.367  31.871  1.00  0.00     0.029 A 
ATOM     33  C   UNL A   1      45.805  28.409  31.189  1.00  0.00     0.049 A 
ATOM     34  H   UNL A   1      43.845  28.531  30.420  1.00  0.00     0.167 HD
ATOM     35  C   UNL A   1      45.456  26.211  30.102  1.00  0.00     0.074 A 
ATOM     36  C   UNL A   1      45.884  24.883  29.714  1.00  0.00     0.031 C 
ATOM     37  C   UNL A   1      46.208  27.076  30.824  1.00  0.00     0.031 A 
BRANCH  24  38
ATOM     38  C   UNL A   1      43.471  32.467  32.038  1.00  0.00    -0.014 A 
ATOM     39  C   UNL A   1      44.059  33.541  31.345  1.00  0.00     0.010 A 
ATOM     40  C   UNL A   1      43.090  32.641  33.380  1.00  0.00     0.010 A 
ATOM     41  C   UNL A   1      44.292  34.757  31.993  1.00  0.00     0.020 A 
ATOM     42  C   UNL A   1      43.297  33.864  34.023  1.00  0.00     0.020 A 
ATOM     43  C   UNL A   1      43.920  34.906  33.332  1.00  0.00     0.054 A 
BRANCH  43  44
ATOM     44  S   UNL A   1      44.255  36.482  34.167  1.00  0.00     0.124 S 
ATOM     45  O   UNL A   1      42.973  37.168  34.051  1.00  0.00    -0.237 OA
ATOM     46  O   UNL A   1      44.625  36.058  35.516  1.00  0.00    -0.237 OA
ATOM     47  O   UNL A   1      45.348  37.055  33.385  1.00  0.00    -0.744 OA
ENDBRANCH  43  44
ENDBRANCH  24  38
BRANCH  25  48
ATOM     48  C   UNL A   1      42.420  23.526  27.699  1.00  0.00    -0.014 A 
ATOM     49  C   UNL A   1      41.832  22.486  28.443  1.00  0.00     0.010 A 
ATOM     50  C   UNL A   1      42.894  23.254  26.403  1.00  0.00     0.010 A 
ATOM     51  C   UNL A   1      41.757  21.194  27.917  1.00  0.00     0.020 A 
ATOM     52  C   UNL A   1      42.796  21.969  25.863  1.00  0.00     0.020 A 
ATOM     53  C   UNL A   1      42.250  20.940  26.634  1.00  0.00     0.054 A 
BRANCH  53  54
ATOM     54  S   UNL A   1      42.168  19.250  25.979  1.00  0.00     0.124 S 
ATOM     55  O   UNL A   1      40.739  19.100  25.719  1.00  0.00    -0.237 OA
ATOM     56  O   UNL A   1      43.018  19.323  24.793  1.00  0.00    -0.237 OA
ATOM     57  O   UNL A   1      42.696  18.434  27.069  1.00  0.00    -0.744 OA
ENDBRANCH  53  54
ENDBRANCH  25  48
BRANCH  37  58
ATOM     58  C   UNL A   1      47.563  26.624  31.297  1.00  0.00    -0.014 A 
ATOM     59  C   UNL A   1      48.672  26.763  30.440  1.00  0.00     0.010 A 
ATOM     60  C   UNL A   1      47.716  25.939  32.514  1.00  0.00     0.010 A 
ATOM     61  C   UNL A   1      49.903  26.197  30.776  1.00  0.00     0.020 A 
ATOM     62  C   UNL A   1      48.954  25.392  32.864  1.00  0.00     0.020 A 
ATOM     63  C   UNL A   1      50.032  25.503  31.982  1.00  0.00     0.054 A 
BRANCH  63  64
ATOM     64  S   UNL A   1      51.628  24.745  32.391  1.00  0.00     0.124 S 
ATOM     65  O   UNL A   1      51.373  23.332  32.134  1.00  0.00    -0.237 OA
ATOM     66  O   UNL A   1      52.546  25.398  31.460  1.00  0.00    -0.237 OA
ATOM     67  O   UNL A   1      51.823  25.101  33.795  1.00  0.00    -0.744 OA
ENDBRANCH  63  64
ENDBRANCH  37  58
ENDBRANCH  11  12
ENDBRANCH   4   6
ENDBRANCH   1   2
BRANCH   1  68
ATOM     68  C   UNL A   1      31.797  27.939  26.944  1.00  0.00     0.042 C 
BRANCH  68  69
ATOM     69  C   UNL A   1      31.765  26.945  25.793  1.00  0.00     0.118 C 
BRANCH  69  70
ATOM     70  N   UNL A   1      32.565  27.366  24.649  1.00  0.00    -0.352 N 
ATOM     71  C   UNL A   1      33.417  26.647  23.855  1.00  0.00     0.256 C 
ATOM     72  H   UNL A   1      32.476  28.316  24.408  1.00  0.00     0.163 HD
ATOM     73  O   UNL A   1      34.012  27.206  22.937  1.00  0.00    -0.269 OA
BRANCH  71  74
ATOM     74  C   UNL A   1      33.564  25.202  24.100  1.00  0.00     0.104 A 
ATOM     75  C   UNL A   1      34.452  24.785  25.014  1.00  0.00     0.104 A 
ATOM     76  C   UNL A   1      32.768  24.180  23.392  1.00  0.00     0.202 A 
ATOM     77  N   UNL A   1      34.784  23.474  25.289  1.00  0.00    -0.343 N 
ATOM     78  C   UNL A   1      32.975  22.766  23.791  1.00  0.00     0.047 A 
ATOM     79  O   UNL A   1      31.981  24.468  22.495  1.00  0.00    -0.288 OA
ATOM     80  C   UNL A   1      33.969  22.440  24.735  1.00  0.00     0.054 A 
ATOM     81  C   UNL A   1      32.195  21.773  23.195  1.00  0.00     0.016 A 
ATOM     82  C   UNL A   1      34.120  21.086  25.087  1.00  0.00     0.053 A 
ATOM     83  C   UNL A   1      32.403  20.438  23.533  1.00  0.00     0.027 A 
ATOM     84  C   UNL A   1      33.362  20.070  24.485  1.00  0.00     0.039 A 
BRANCH  77  85
ATOM     85  C   UNL A   1      36.086  23.163  25.932  1.00  0.00     0.087 C 
ATOM     86  C   UNL A   1      37.339  22.721  25.212  1.00  0.00     0.027 C 
ATOM     87  C   UNL A   1      37.263  24.093  25.816  1.00  0.00     0.027 C 
ENDBRANCH  77  85
BRANCH  84  88
ATOM     88  N   UNL A   1      33.533  18.747  24.822  1.00  0.00    -0.360 N 
ATOM     89  C   UNL A   1      32.702  18.092  25.831  1.00  0.00     0.178 C 
ATOM     90  C   UNL A   1      34.638  17.960  24.264  1.00  0.00     0.178 C 
ATOM     91  C   UNL A   1      32.250  16.707  25.306  1.00  0.00     0.282 C 
ATOM     92  C   UNL A   1      34.124  16.578  23.802  1.00  0.00     0.282 C 
ATOM     93  N   UNL A   1      33.365  15.848  24.843  1.00  0.00    -0.343 N 
ATOM     94  H   UNL A   1      32.992  14.982  24.453  1.00  0.00     0.346 HD
ATOM     95  H   UNL A   1      33.978  15.621  25.627  1.00  0.00     0.346 HD
ENDBRANCH  84  88
ENDBRANCH  71  74
ENDBRANCH  69  70
ENDBRANCH  68  69
ENDBRANCH   1  68
TORSDOF 15
ENDMDL
MODEL 2
REMARK VINA RESULT:     -12.2      3.051      9.913
REMARK SMILES O=C(NCCCNC(=O)c1cn(C2CC2)c2cc(N3CC[NH2+]CC3)ccc2c1=O)c1ccc(-c2c3nc(c(-c4ccc(S(=O)(=O)[O-])cc4)c4ccc([nH]4)c(-c4ccc(S(=O)(=O)[O-])cc4)c4nc(c(-c5ccc(S(=O)(=O)[O-])cc5)c5ccc2[nH]5)C=C4)C=C3)cc1
REMARK SMILES IDX 4 1 3 2 1 3 2 4 30 6 31 7 89 8 32 9 88 10 33 11 34 12 35 13
REMARK SMILES IDX 82 14 36 15 87 16 81 17 83 18 37 19 86 20 80 21 79 22 38 24
REMARK SMILES IDX 68 25 49 26 67 27 50 28 53 29 66 30 84 31 51 32 52 33 65 35
REMARK SMILES IDX 85 36 54 37 39 38 40 39 48 40 41 41 47 42 42 43 43 44 44 45
REMARK SMILES IDX 45 46 46 47 69 48 70 49 78 50 71 51 77 52 72 53 73 54 74 55
REMARK SMILES IDX 75 56 76 57 55 58 56 59 64 60 57 61 63 62 58 63 59 64 60 65
REMARK SMILES IDX 61 66 62 67 5 68 6 69 7 70 8 71 9 73 10 74 11 75 28 76 12 77
REMARK SMILES IDX 27 78 29 79 16 80 26 81 17 82 25 83 18 84 13 85 14 86 15 87
REMARK SMILES IDX 19 88 20 89 24 90 21 91 23 92 22 93
REMARK H PARENT 3 5 83 23 53 34 7 72 22 94 22 95
REMARK Flexibility Score: inf
ROOT
ATOM      1  C   UNL A   1      36.902  23.558  24.963  1.00  0.00     0.118 C 
ENDROOT
BRANCH   1   2
ATOM      2  N   UNL A   1      37.976  22.685  25.414  1.00  0.00    -0.352 N 
ATOM      3  O   UNL A   1      39.973  22.049  26.183  1.00  0.00    -0.269 OA
ATOM      4  C   UNL A   1      39.130  22.942  26.108  1.00  0.00     0.251 C 
ATOM      5  H   UNL A   1      37.853  21.739  25.176  1.00  0.00     0.163 HD
BRANCH   4   6
ATOM      6  C   UNL A   1      39.386  24.248  26.761  1.00  0.00     0.039 A 
ATOM      7  C   UNL A   1      40.076  25.228  26.038  1.00  0.00     0.014 A 
ATOM      8  C   UNL A   1      39.052  24.493  28.095  1.00  0.00     0.014 A 
ATOM      9  C   UNL A   1      40.413  26.443  26.645  1.00  0.00     0.010 A 
ATOM     10  C   UNL A   1      39.300  25.739  28.668  1.00  0.00     0.010 A 
ATOM     11  C   UNL A   1      40.022  26.712  27.965  1.00  0.00    -0.014 A 
BRANCH  11  12
ATOM     12  C   UNL A   1      40.449  27.956  28.657  1.00  0.00     0.031 A 
ATOM     13  C   UNL A   1      41.881  28.100  29.112  1.00  0.00     0.074 A 
ATOM     14  C   UNL A   1      39.566  28.949  28.881  1.00  0.00     0.049 A 
ATOM     15  N   UNL A   1      42.443  29.089  29.757  1.00  0.00    -0.248 NA
ATOM     16  C   UNL A   1      42.795  26.979  28.829  1.00  0.00     0.031 C 
ATOM     17  C   UNL A   1      38.153  28.926  28.502  1.00  0.00     0.029 A 
ATOM     18  N   UNL A   1      39.733  30.179  29.470  1.00  0.00    -0.354 N 
ATOM     19  C   UNL A   1      43.761  28.701  29.973  1.00  0.00     0.074 A 
ATOM     20  C   UNL A   1      43.904  27.366  29.440  1.00  0.00     0.031 C 
ATOM     21  C   UNL A   1      37.595  30.107  28.817  1.00  0.00     0.029 A 
ATOM     22  C   UNL A   1      38.598  30.957  29.453  1.00  0.00     0.049 A 
ATOM     23  H   UNL A   1      40.584  30.476  29.865  1.00  0.00     0.167 HD
ATOM     24  C   UNL A   1      44.771  29.403  30.535  1.00  0.00     0.031 A 
ATOM     25  C   UNL A   1      38.393  32.219  29.883  1.00  0.00     0.031 A 
ATOM     26  C   UNL A   1      44.643  30.753  31.013  1.00  0.00     0.049 A 
ATOM     27  C   UNL A   1      39.539  32.990  30.481  1.00  0.00     0.074 A 
ATOM     28  C   UNL A   1      45.620  31.561  31.566  1.00  0.00     0.029 A 
ATOM     29  N   UNL A   1      43.478  31.501  30.968  1.00  0.00    -0.354 N 
ATOM     30  N   UNL A   1      40.779  32.607  30.664  1.00  0.00    -0.248 NA
ATOM     31  C   UNL A   1      39.263  34.368  30.914  1.00  0.00     0.031 C 
ATOM     32  C   UNL A   1      45.039  32.789  31.887  1.00  0.00     0.029 A 
ATOM     33  C   UNL A   1      43.713  32.763  31.483  1.00  0.00     0.049 A 
ATOM     34  H   UNL A   1      42.613  31.183  30.623  1.00  0.00     0.167 HD
ATOM     35  C   UNL A   1      41.441  33.708  31.197  1.00  0.00     0.074 A 
ATOM     36  C   UNL A   1      40.465  34.772  31.307  1.00  0.00     0.031 C 
ATOM     37  C   UNL A   1      42.742  33.823  31.558  1.00  0.00     0.031 A 
BRANCH  24  38
ATOM     38  C   UNL A   1      46.125  28.751  30.636  1.00  0.00    -0.014 A 
ATOM     39  C   UNL A   1      47.061  28.918  29.599  1.00  0.00     0.010 A 
ATOM     40  C   UNL A   1      46.427  27.883  31.701  1.00  0.00     0.010 A 
ATOM     41  C   UNL A   1      48.262  28.205  29.609  1.00  0.00     0.020 A 
ATOM     42  C   UNL A   1      47.639  27.190  31.728  1.00  0.00     0.020 A 
ATOM     43  C   UNL A   1      48.538  27.336  30.669  1.00  0.00     0.054 A 
BRANCH  43  44
ATOM     44  S   UNL A   1      50.090  26.396  30.654  1.00  0.00     0.124 S 
ATOM     45  O   UNL A   1      49.714  25.195  29.916  1.00  0.00    -0.237 OA
ATOM     46  O   UNL A   1      51.007  27.301  29.964  1.00  0.00    -0.237 OA
ATOM     47  O   UNL A   1      50.379  26.196  32.072  1.00  0.00    -0.744 OA
ENDBRANCH  43  44
ENDBRANCH  24  38
BRANCH  25  48
ATOM     48  C   UNL A   1      37.062  32.853  29.683  1.00  0.00    -0.014 A 
ATOM     49  C   UNL A   1      36.727  33.458  28.457  1.00  0.00     0.010 A 
ATOM     50  C   UNL A   1      36.140  32.905  30.744  1.00  0.00     0.010 A 
ATOM     51  C   UNL A   1      35.512  34.133  28.310  1.00  0.00     0.020 A 
ATOM     52  C   UNL A   1      34.913  33.557  30.592  1.00  0.00     0.020 A 
ATOM     53  C   UNL A   1      34.618  34.189  29.382  1.00  0.00     0.054 A 
BRANCH  53  54
ATOM     54  S   UNL A   1      33.058  35.094  29.180  1.00  0.00     0.124 S 
ATOM     55  O   UNL A   1      33.529  36.403  28.733  1.00  0.00    -0.237 OA
ATOM     56  O   UNL A   1      32.355  34.302  28.174  1.00  0.00    -0.237 OA
ATOM     57  O   UNL A   1      32.469  35.063  30.516  1.00  0.00    -0.744 OA
ENDBRANCH  53  54
ENDBRANCH  25  48
BRANCH  37  58
ATOM     58  C   UNL A   1      43.228  35.152  32.069  1.00  0.00    -0.014 A 
ATOM     59  C   UNL A   1      43.000  35.496  33.415  1.00  0.00     0.010 A 
ATOM     60  C   UNL A   1      43.772  36.110  31.197  1.00  0.00     0.010 A 
ATOM     61  C   UNL A   1      43.279  36.785  33.875  1.00  0.00     0.020 A 
ATOM     62  C   UNL A   1      44.076  37.394  31.660  1.00  0.00     0.020 A 
ATOM     63  C   UNL A   1      43.803  37.730  32.990  1.00  0.00     0.054 A 
BRANCH  63  64
ATOM     64  S   UNL A   1      44.131  39.409  33.592  1.00  0.00     0.124 S 
ATOM     65  O   UNL A   1      45.036  39.930  32.573  1.00  0.00    -0.237 OA
ATOM     66  O   UNL A   1      42.799  40.010  33.617  1.00  0.00    -0.237 OA
ATOM     67  O   UNL A   1      44.729  39.188  34.907  1.00  0.00    -0.744 OA
ENDBRANCH  63  64
ENDBRANCH  37  58
ENDBRANCH  11  12
ENDBRANCH   4   6
ENDBRANCH   1   2
BRANCH   1  68
ATOM     68  C   UNL A   1      36.045  22.922  23.877  1.00  0.00     0.042 C 
BRANCH  68  69
ATOM     69  C   UNL A   1      34.547  23.078  24.088  1.00  0.00     0.118 C 
BRANCH  69  70
ATOM     70  N   UNL A   1      34.138  22.878  25.473  1.00  0.00    -0.352 N 
ATOM     71  C   UNL A   1      33.356  23.655  26.284  1.00  0.00     0.256 C 
ATOM     72  H   UNL A   1      34.475  22.053  25.890  1.00  0.00     0.163 HD
ATOM     73  O   UNL A   1      33.142  23.305  27.442  1.00  0.00    -0.269 OA
BRANCH  71  74
ATOM     74  C   UNL A   1      32.752  24.878  25.726  1.00  0.00     0.104 A 
ATOM     75  C   UNL A   1      33.466  26.012  25.725  1.00  0.00     0.104 A 
ATOM     76  C   UNL A   1      31.393  24.914  25.152  1.00  0.00     0.202 A 
ATOM     77  N   UNL A   1      33.016  27.258  25.338  1.00  0.00    -0.343 N 
ATOM     78  C   UNL A   1      30.942  26.201  24.565  1.00  0.00     0.047 A 
ATOM     79  O   UNL A   1      30.646  23.941  25.170  1.00  0.00    -0.288 OA
ATOM     80  C   UNL A   1      31.762  27.343  24.660  1.00  0.00     0.054 A 
ATOM     81  C   UNL A   1      29.690  26.263  23.950  1.00  0.00     0.016 A 
ATOM     82  C   UNL A   1      31.295  28.536  24.079  1.00  0.00     0.053 A 
ATOM     83  C   UNL A   1      29.239  27.472  23.427  1.00  0.00     0.027 A 
ATOM     84  C   UNL A   1      30.030  28.626  23.476  1.00  0.00     0.039 A 
BRANCH  77  85
ATOM     85  C   UNL A   1      33.703  28.477  25.836  1.00  0.00     0.087 C 
ATOM     86  C   UNL A   1      33.235  29.344  26.981  1.00  0.00     0.027 C 
ATOM     87  C   UNL A   1      34.452  28.481  27.140  1.00  0.00     0.027 C 
ENDBRANCH  77  85
BRANCH  84  88
ATOM     88  N   UNL A   1      29.574  29.804  22.930  1.00  0.00    -0.360 N 
ATOM     89  C   UNL A   1      29.492  30.005  21.483  1.00  0.00     0.178 C 
ATOM     90  C   UNL A   1      29.257  30.959  23.776  1.00  0.00     0.178 C 
ATOM     91  C   UNL A   1      28.132  30.655  21.131  1.00  0.00     0.282 C 
ATOM     92  C   UNL A   1      27.912  31.582  23.341  1.00  0.00     0.282 C 
ATOM     93  N   UNL A   1      27.841  31.891  21.895  1.00  0.00    -0.343 N 
ATOM     94  H   UNL A   1      26.907  32.228  21.660  1.00  0.00     0.346 HD
ATOM     95  H   UNL A   1      28.522  32.614  21.659  1.00  0.00     0.346 HD
ENDBRANCH  84  88
ENDBRANCH  71  74
ENDBRANCH  69  70
ENDBRANCH  68  69
ENDBRANCH   1  68
TORSDOF 15
ENDMDL
MODEL 3
REMARK VINA RESULT:     -12.2      0.876      8.108
REMARK SMILES O=C(NCCCNC(=O)c1cn(C2CC2)c2cc(N3CC[NH2+]CC3)ccc2c1=O)c1ccc(-c2c3nc(c(-c4ccc(S(=O)(=O)[O-])cc4)c4ccc([nH]4)c(-c4ccc(S(=O)(=O)[O-])cc4)c4nc(c(-c5ccc(S(=O)(=O)[O-])cc5)c5ccc2[nH]5)C=C4)C=C3)cc1
REMARK SMILES IDX 4 1 3 2 1 3 2 4 30 6 31 7 89 8 32 9 88 10 33 11 34 12 35 13
REMARK SMILES IDX 82 14 36 15 87 16 81 17 83 18 37 19 86 20 80 21 79 22 38 24
REMARK SMILES IDX 68 25 49 26 67 27 50 28 53 29 66 30 84 31 51 32 52 33 65 35
REMARK SMILES IDX 85 36 54 37 39 38 40 39 48 40 41 41 47 42 42 43 43 44 44 45
REMARK SMILES IDX 45 46 46 47 69 48 70 49 78 50 71 51 77 52 72 53 73 54 74 55
REMARK SMILES IDX 75 56 76 57 55 58 56 59 64 60 57 61 63 62 58 63 59 64 60 65
REMARK SMILES IDX 61 66 62 67 5 68 6 69 7 70 8 71 9 73 10 74 11 75 28 76 12 77
REMARK SMILES IDX 27 78 29 79 16 80 26 81 17 82 25 83 18 84 13 85 14 86 15 87
REMARK SMILES IDX 19 88 20 89 24 90 21 91 23 92 22 93
REMARK H PARENT 3 5 83 23 53 34 7 72 22 94 22 95
REMARK Flexibility Score: inf
ROOT
ATOM      1  C   UNL A   1      33.482  28.302  27.259  1.00  0.00     0.118 C 
ENDROOT
BRANCH   1   2
ATOM      2  N   UNL A   1      33.499  29.724  27.570  1.00  0.00    -0.352 N 
ATOM      3  O   UNL A   1      34.144  31.662  28.471  1.00  0.00    -0.269 OA
ATOM      4  C   UNL A   1      34.463  30.525  28.126  1.00  0.00     0.251 C 
ATOM      5  H   UNL A   1      32.667  30.196  27.341  1.00  0.00     0.163 HD
BRANCH   4   6
ATOM      6  C   UNL A   1      35.859  30.064  28.319  1.00  0.00     0.039 A 
ATOM      7  C   UNL A   1      36.231  29.584  29.580  1.00  0.00     0.014 A 
ATOM      8  C   UNL A   1      36.829  30.187  27.322  1.00  0.00     0.014 A 
ATOM      9  C   UNL A   1      37.557  29.220  29.831  1.00  0.00     0.010 A 
ATOM     10  C   UNL A   1      38.128  29.731  27.542  1.00  0.00     0.010 A 
ATOM     11  C   UNL A   1      38.518  29.284  28.810  1.00  0.00    -0.014 A 
BRANCH  11  12
ATOM     12  C   UNL A   1      39.950  28.990  29.081  1.00  0.00     0.031 A 
ATOM     13  C   UNL A   1      40.520  27.647  28.693  1.00  0.00     0.074 A 
ATOM     14  C   UNL A   1      40.735  29.911  29.672  1.00  0.00     0.049 A 
ATOM     15  N   UNL A   1      41.730  27.185  28.870  1.00  0.00    -0.248 NA
ATOM     16  C   UNL A   1      39.607  26.689  28.045  1.00  0.00     0.031 C 
ATOM     17  C   UNL A   1      40.302  31.240  30.107  1.00  0.00     0.029 A 
ATOM     18  N   UNL A   1      42.070  29.875  29.996  1.00  0.00    -0.354 N 
ATOM     19  C   UNL A   1      41.716  25.885  28.378  1.00  0.00     0.074 A 
ATOM     20  C   UNL A   1      40.367  25.609  27.943  1.00  0.00     0.031 C 
ATOM     21  C   UNL A   1      41.361  31.912  30.588  1.00  0.00     0.029 A 
ATOM     22  C   UNL A   1      42.540  31.052  30.532  1.00  0.00     0.049 A 
ATOM     23  H   UNL A   1      42.636  29.083  29.856  1.00  0.00     0.167 HD
ATOM     24  C   UNL A   1      42.741  25.009  28.265  1.00  0.00     0.031 A 
ATOM     25  C   UNL A   1      43.783  31.405  30.917  1.00  0.00     0.031 A 
ATOM     26  C   UNL A   1      44.096  25.305  28.644  1.00  0.00     0.049 A 
ATOM     27  C   UNL A   1      44.913  30.423  30.760  1.00  0.00     0.074 A 
ATOM     28  C   UNL A   1      45.211  24.493  28.535  1.00  0.00     0.029 A 
ATOM     29  N   UNL A   1      44.524  26.510  29.176  1.00  0.00    -0.354 N 
ATOM     30  N   UNL A   1      44.878  29.204  30.280  1.00  0.00    -0.248 NA
ATOM     31  C   UNL A   1      46.250  30.870  31.177  1.00  0.00     0.031 C 
ATOM     32  C   UNL A   1      46.311  25.196  29.032  1.00  0.00     0.029 A 
ATOM     33  C   UNL A   1      45.888  26.464  29.398  1.00  0.00     0.049 A 
ATOM     34  H   UNL A   1      43.945  27.283  29.367  1.00  0.00     0.167 HD
ATOM     35  C   UNL A   1      46.193  28.751  30.302  1.00  0.00     0.074 A 
ATOM     36  C   UNL A   1      46.998  29.826  30.840  1.00  0.00     0.031 C 
ATOM     37  C   UNL A   1      46.684  27.552  29.906  1.00  0.00     0.031 A 
BRANCH  24  38
ATOM     38  C   UNL A   1      42.460  23.653  27.675  1.00  0.00    -0.014 A 
ATOM     39  C   UNL A   1      42.021  22.606  28.505  1.00  0.00     0.010 A 
ATOM     40  C   UNL A   1      42.738  23.386  26.322  1.00  0.00     0.010 A 
ATOM     41  C   UNL A   1      41.894  21.309  28.002  1.00  0.00     0.020 A 
ATOM     42  C   UNL A   1      42.586  22.096  25.808  1.00  0.00     0.020 A 
ATOM     43  C   UNL A   1      42.189  21.060  26.658  1.00  0.00     0.054 A 
BRANCH  43  44
ATOM     44  S   UNL A   1      42.047  19.366  26.026  1.00  0.00     0.124 S 
ATOM     45  O   UNL A   1      40.625  19.275  25.711  1.00  0.00    -0.237 OA
ATOM     46  O   UNL A   1      42.949  19.375  24.876  1.00  0.00    -0.237 OA
ATOM     47  O   UNL A   1      42.496  18.546  27.149  1.00  0.00    -0.744 OA
ENDBRANCH  43  44
ENDBRANCH  24  38
BRANCH  25  48
ATOM     48  C   UNL A   1      44.030  32.787  31.414  1.00  0.00    -0.014 A 
ATOM     49  C   UNL A   1      43.923  33.092  32.783  1.00  0.00     0.010 A 
ATOM     50  C   UNL A   1      44.318  33.820  30.504  1.00  0.00     0.010 A 
ATOM     51  C   UNL A   1      44.064  34.410  33.228  1.00  0.00     0.020 A 
ATOM     52  C   UNL A   1      44.485  35.135  30.948  1.00  0.00     0.020 A 
ATOM     53  C   UNL A   1      44.332  35.425  32.306  1.00  0.00     0.054 A 
BRANCH  53  54
ATOM     54  S   UNL A   1      44.483  37.133  32.899  1.00  0.00     0.124 S 
ATOM     55  O   UNL A   1      43.243  37.298  33.653  1.00  0.00    -0.237 OA
ATOM     56  O   UNL A   1      45.704  37.088  33.700  1.00  0.00    -0.237 OA
ATOM     57  O   UNL A   1      44.577  37.915  31.670  1.00  0.00    -0.744 OA
ENDBRANCH  53  54
ENDBRANCH  25  48
BRANCH  37  58
ATOM     58  C   UNL A   1      48.169  27.324  29.987  1.00  0.00    -0.014 A 
ATOM     59  C   UNL A   1      48.723  26.817  31.178  1.00  0.00     0.010 A 
ATOM     60  C   UNL A   1      49.025  27.743  28.955  1.00  0.00     0.010 A 
ATOM     61  C   UNL A   1      50.107  26.760  31.349  1.00  0.00     0.020 A 
ATOM     62  C   UNL A   1      50.411  27.664  29.113  1.00  0.00     0.020 A 
ATOM     63  C   UNL A   1      50.943  27.197  30.318  1.00  0.00     0.054 A 
BRANCH  63  64
ATOM     64  S   UNL A   1      52.739  27.149  30.565  1.00  0.00     0.124 S 
ATOM     65  O   UNL A   1      52.856  26.450  31.840  1.00  0.00    -0.237 OA
ATOM     66  O   UNL A   1      53.208  26.407  29.396  1.00  0.00    -0.237 OA
ATOM     67  O   UNL A   1      53.118  28.560  30.588  1.00  0.00    -0.744 OA
ENDBRANCH  63  64
ENDBRANCH  37  58
ENDBRANCH  11  12
ENDBRANCH   4   6
ENDBRANCH   1   2
BRANCH   1  68
ATOM     68  C   UNL A   1      32.070  27.744  27.137  1.00  0.00     0.042 C 
BRANCH  68  69
ATOM     69  C   UNL A   1      31.837  26.892  25.899  1.00  0.00     0.118 C 
BRANCH  69  70
ATOM     70  N   UNL A   1      32.627  27.318  24.751  1.00  0.00    -0.352 N 
ATOM     71  C   UNL A   1      33.468  26.602  23.941  1.00  0.00     0.256 C 
ATOM     72  H   UNL A   1      32.542  28.271  24.519  1.00  0.00     0.163 HD
ATOM     73  O   UNL A   1      34.056  27.166  23.022  1.00  0.00    -0.269 OA
BRANCH  71  74
ATOM     74  C   UNL A   1      33.609  25.154  24.172  1.00  0.00     0.104 A 
ATOM     75  C   UNL A   1      34.484  24.725  25.092  1.00  0.00     0.104 A 
ATOM     76  C   UNL A   1      32.820  24.143  23.441  1.00  0.00     0.202 A 
ATOM     77  N   UNL A   1      34.810  23.410  25.356  1.00  0.00    -0.343 N 
ATOM     78  C   UNL A   1      33.020  22.723  23.826  1.00  0.00     0.047 A 
ATOM     79  O   UNL A   1      32.045  24.441  22.538  1.00  0.00    -0.288 OA
ATOM     80  C   UNL A   1      34.001  22.384  24.779  1.00  0.00     0.054 A 
ATOM     81  C   UNL A   1      32.245  21.739  23.209  1.00  0.00     0.016 A 
ATOM     82  C   UNL A   1      34.145  21.026  25.118  1.00  0.00     0.053 A 
ATOM     83  C   UNL A   1      32.447  20.400  23.534  1.00  0.00     0.027 A 
ATOM     84  C   UNL A   1      33.392  20.019  24.494  1.00  0.00     0.039 A 
BRANCH  77  85
ATOM     85  C   UNL A   1      36.103  23.089  26.012  1.00  0.00     0.087 C 
ATOM     86  C   UNL A   1      37.347  22.597  25.310  1.00  0.00     0.027 C 
ATOM     87  C   UNL A   1      37.301  23.988  25.871  1.00  0.00     0.027 C 
ENDBRANCH  77  85
BRANCH  84  88
ATOM     88  N   UNL A   1      33.557  18.691  24.817  1.00  0.00    -0.360 N 
ATOM     89  C   UNL A   1      32.714  18.027  25.811  1.00  0.00     0.178 C 
ATOM     90  C   UNL A   1      34.665  17.908  24.261  1.00  0.00     0.178 C 
ATOM     91  C   UNL A   1      32.265  16.650  25.267  1.00  0.00     0.282 C 
ATOM     92  C   UNL A   1      34.152  16.532  23.779  1.00  0.00     0.282 C 
ATOM     93  N   UNL A   1      33.381  15.793  24.805  1.00  0.00    -0.343 N 
ATOM     94  H   UNL A   1      33.010  14.932  24.402  1.00  0.00     0.346 HD
ATOM     95  H   UNL A   1      33.986  15.555  25.591  1.00  0.00     0.346 HD
ENDBRANCH  84  88
ENDBRANCH  71  74
ENDBRANCH  69  70
ENDBRANCH  68  69
ENDBRANCH   1  68
TORSDOF 15
ENDMDL
