MODEL 1
REMARK VINA RESULT:     -11.9      0.000      0.000
REMARK SMILES CC1(C)C(CNC(=O)N2C[C@H](O)C[C@@H]2C(=O)NCCCNC(=O)c2ccc(-c3c4nc(c(-c5ccc(S(=O)(=O)[O-])cc5)c5ccc([nH]5)c(-c5ccc(S(=O)(=O)[O-])cc5)c5nc(c(-c6ccc(S(=O)(=O)[O-])cc6)c6ccc3[nH]6)C=C5)C=C4)cc2)C1(C)C
REMARK SMILES IDX 19 1 18 2 17 3 15 4 16 5 14 7 9 8 10 9 11 10 13 11 7 12 6 13
REMARK SMILES IDX 8 15 5 16 4 17 1 18 2 19 3 20 84 21 85 22 86 23 12 24 20 26
REMARK SMILES IDX 21 27 22 28 23 30 24 31 25 32 83 33 26 34 82 35 27 36 28 37
REMARK SMILES IDX 29 38 76 39 30 40 81 41 75 42 77 43 31 44 80 45 74 46 73 47
REMARK SMILES IDX 32 49 62 50 43 51 61 52 44 53 47 54 60 55 78 56 45 57 46 58
REMARK SMILES IDX 59 60 79 61 48 62 33 63 34 64 42 65 35 66 41 67 36 68 37 69
REMARK SMILES IDX 38 70 39 71 40 72 63 73 64 74 72 75 65 76 71 77 66 78 67 79
REMARK SMILES IDX 68 80 69 81 70 82 49 83 50 84 58 85 51 86 57 87 52 88 53 89
REMARK SMILES IDX 54 90 55 91 56 92
REMARK H PARENT 17 6 6 14 12 25 21 29 77 48 47 59
REMARK Flexibility Score: inf
ROOT
ATOM      1  C   UNL A   1      34.781  29.187  27.120  1.00  0.00     0.042 C 
ENDROOT
BRANCH   1   2
ATOM      2  C   UNL A   1      33.542  29.637  26.352  1.00  0.00     0.117 C 
BRANCH   2   3
ATOM      3  N   UNL A   1      33.651  29.379  24.927  1.00  0.00    -0.354 N 
ATOM      4  C   UNL A   1      32.680  29.005  24.041  1.00  0.00     0.242 C 
ATOM      5  O   UNL A   1      32.980  28.894  22.848  1.00  0.00    -0.273 OA
ATOM      6  H   UNL A   1      34.553  29.490  24.544  1.00  0.00     0.163 HD
BRANCH   4   7
ATOM      7  C   UNL A   1      31.225  28.887  24.526  1.00  0.00     0.179 C 
ATOM      8  N   UNL A   1      30.857  27.479  24.700  1.00  0.00    -0.310 N 
ATOM      9  C   UNL A   1      29.715  27.148  23.858  1.00  0.00     0.154 C 
ATOM     10  C   UNL A   1      29.838  28.138  22.708  1.00  0.00     0.136 C 
ATOM     11  C   UNL A   1      30.296  29.411  23.420  1.00  0.00     0.069 C 
BRANCH   8  12
ATOM     12  C   UNL A   1      31.347  26.793  25.766  1.00  0.00     0.318 C 
ATOM     13  N   UNL A   1      32.134  25.711  25.575  1.00  0.00    -0.338 N 
ATOM     14  H   UNL A   1      32.102  25.033  26.288  1.00  0.00     0.165 HD
ATOM     15  O   UNL A   1      31.128  27.156  26.921  1.00  0.00    -0.249 OA
BRANCH  13  16
ATOM     16  C   UNL A   1      33.013  25.410  24.468  1.00  0.00     0.122 C 
BRANCH  16  17
ATOM     17  C   UNL A   1      34.107  24.487  24.907  1.00  0.00     0.021 C 
ATOM     18  C   UNL A   1      34.842  22.497  26.402  1.00  0.00     0.012 C 
ATOM     19  C   UNL A   1      33.951  23.019  25.290  1.00  0.00    -0.025 C 
ATOM     20  C   UNL A   1      32.584  22.376  25.311  1.00  0.00     0.012 C 
ATOM     21  C   UNL A   1      34.618  23.416  23.953  1.00  0.00    -0.025 C 
ATOM     22  C   UNL A   1      36.123  23.332  23.795  1.00  0.00     0.012 C 
ATOM     23  C   UNL A   1      33.908  23.186  22.635  1.00  0.00     0.012 C 
ENDBRANCH  16  17
ENDBRANCH  13  16
ENDBRANCH   8  12
BRANCH  10  24
ATOM     24  O   UNL A   1      30.815  27.705  21.761  1.00  0.00    -0.391 OA
ATOM     25  H   UNL A   1      31.364  27.010  22.157  1.00  0.00     0.211 HD
ENDBRANCH  10  24
ENDBRANCH   4   7
ENDBRANCH   2   3
ENDBRANCH   1   2
BRANCH   1  26
ATOM     26  C   UNL A   1      35.519  30.315  27.837  1.00  0.00     0.118 C 
BRANCH  26  27
ATOM     27  N   UNL A   1      35.435  30.217  29.290  1.00  0.00    -0.352 N 
ATOM     28  C   UNL A   1      36.391  29.883  30.217  1.00  0.00     0.251 C 
ATOM     29  H   UNL A   1      34.549  30.424  29.666  1.00  0.00     0.163 HD
ATOM     30  O   UNL A   1      36.054  29.708  31.387  1.00  0.00    -0.269 OA
BRANCH  28  31
ATOM     31  C   UNL A   1      37.807  29.708  29.824  1.00  0.00     0.039 A 
ATOM     32  C   UNL A   1      38.755  29.466  30.822  1.00  0.00     0.014 A 
ATOM     33  C   UNL A   1      38.212  29.799  28.490  1.00  0.00     0.014 A 
ATOM     34  C   UNL A   1      40.090  29.238  30.476  1.00  0.00     0.010 A 
ATOM     35  C   UNL A   1      39.529  29.498  28.139  1.00  0.00     0.010 A 
ATOM     36  C   UNL A   1      40.481  29.205  29.127  1.00  0.00    -0.014 A 
BRANCH  36  37
ATOM     37  C   UNL A   1      41.865  28.825  28.736  1.00  0.00     0.031 A 
ATOM     38  C   UNL A   1      42.956  29.859  28.666  1.00  0.00     0.074 A 
ATOM     39  C   UNL A   1      42.124  27.551  28.380  1.00  0.00     0.049 A 
ATOM     40  N   UNL A   1      44.205  29.713  28.299  1.00  0.00    -0.248 NA
ATOM     41  C   UNL A   1      42.598  31.237  29.036  1.00  0.00     0.031 C 
ATOM     42  C   UNL A   1      41.144  26.460  28.364  1.00  0.00     0.029 A 
ATOM     43  N   UNL A   1      43.286  26.954  27.954  1.00  0.00    -0.354 N 
ATOM     44  C   UNL A   1      44.775  30.979  28.380  1.00  0.00     0.074 A 
ATOM     45  C   UNL A   1      43.726  31.887  28.787  1.00  0.00     0.031 C 
ATOM     46  C   UNL A   1      41.751  25.328  27.977  1.00  0.00     0.029 A 
ATOM     47  C   UNL A   1      43.147  25.615  27.668  1.00  0.00     0.049 A 
ATOM     48  H   UNL A   1      44.137  27.439  27.862  1.00  0.00     0.167 HD
ATOM     49  C   UNL A   1      46.059  31.348  28.149  1.00  0.00     0.031 A 
ATOM     50  C   UNL A   1      44.037  24.719  27.196  1.00  0.00     0.031 A 
ATOM     51  C   UNL A   1      47.101  30.442  27.742  1.00  0.00     0.049 A 
ATOM     52  C   UNL A   1      45.448  25.160  26.925  1.00  0.00     0.074 A 
ATOM     53  C   UNL A   1      48.445  30.711  27.541  1.00  0.00     0.029 A 
ATOM     54  N   UNL A   1      46.920  29.095  27.464  1.00  0.00    -0.354 N 
ATOM     55  N   UNL A   1      45.986  26.347  27.082  1.00  0.00    -0.248 NA
ATOM     56  C   UNL A   1      46.377  24.139  26.422  1.00  0.00     0.031 C 
ATOM     57  C   UNL A   1      49.061  29.545  27.078  1.00  0.00     0.029 A 
ATOM     58  C   UNL A   1      48.119  28.529  27.059  1.00  0.00     0.049 A 
ATOM     59  H   UNL A   1      46.066  28.612  27.542  1.00  0.00     0.167 HD
ATOM     60  C   UNL A   1      47.322  26.207  26.721  1.00  0.00     0.074 A 
ATOM     61  C   UNL A   1      47.514  24.818  26.357  1.00  0.00     0.031 C 
ATOM     62  C   UNL A   1      48.300  27.146  26.693  1.00  0.00     0.031 A 
BRANCH  49  63
ATOM     63  C   UNL A   1      46.411  32.805  28.317  1.00  0.00    -0.014 A 
ATOM     64  C   UNL A   1      46.878  33.305  29.546  1.00  0.00     0.010 A 
ATOM     65  C   UNL A   1      46.327  33.676  27.215  1.00  0.00     0.010 A 
ATOM     66  C   UNL A   1      47.218  34.654  29.679  1.00  0.00     0.020 A 
ATOM     67  C   UNL A   1      46.697  35.019  27.335  1.00  0.00     0.020 A 
ATOM     68  C   UNL A   1      47.124  35.504  28.572  1.00  0.00     0.054 A 
BRANCH  68  69
ATOM     69  S   UNL A   1      47.601  37.242  28.769  1.00  0.00     0.124 S 
ATOM     70  O   UNL A   1      49.056  37.169  28.669  1.00  0.00    -0.237 OA
ATOM     71  O   UNL A   1      46.927  37.887  27.645  1.00  0.00    -0.237 OA
ATOM     72  O   UNL A   1      47.086  37.599  30.088  1.00  0.00    -0.744 OA
ENDBRANCH  68  69
ENDBRANCH  49  63
BRANCH  50  73
ATOM     73  C   UNL A   1      43.614  23.312  26.950  1.00  0.00    -0.014 A 
ATOM     74  C   UNL A   1      43.081  22.531  27.991  1.00  0.00     0.010 A 
ATOM     75  C   UNL A   1      43.735  22.748  25.667  1.00  0.00     0.010 A 
ATOM     76  C   UNL A   1      42.695  21.207  27.757  1.00  0.00     0.020 A 
ATOM     77  C   UNL A   1      43.320  21.436  25.422  1.00  0.00     0.020 A 
ATOM     78  C   UNL A   1      42.814  20.670  26.473  1.00  0.00     0.054 A 
BRANCH  78  79
ATOM     79  S   UNL A   1      42.260  18.966  26.183  1.00  0.00     0.124 S 
ATOM     80  O   UNL A   1      43.158  18.531  25.119  1.00  0.00    -0.237 OA
ATOM     81  O   UNL A   1      42.473  18.342  27.487  1.00  0.00    -0.237 OA
ATOM     82  O   UNL A   1      40.859  19.122  25.798  1.00  0.00    -0.744 OA
ENDBRANCH  78  79
ENDBRANCH  50  73
BRANCH  62  83
ATOM     83  C   UNL A   1      49.680  26.700  26.283  1.00  0.00    -0.014 A 
ATOM     84  C   UNL A   1      50.542  26.059  27.190  1.00  0.00     0.010 A 
ATOM     85  C   UNL A   1      50.100  26.882  24.952  1.00  0.00     0.010 A 
ATOM     86  C   UNL A   1      51.810  25.637  26.782  1.00  0.00     0.020 A 
ATOM     87  C   UNL A   1      51.355  26.432  24.532  1.00  0.00     0.020 A 
ATOM     88  C   UNL A   1      52.208  25.825  25.455  1.00  0.00     0.054 A 
BRANCH  88  89
ATOM     89  S   UNL A   1      53.843  25.231  24.941  1.00  0.00     0.124 S 
ATOM     90  O   UNL A   1      54.687  25.664  26.052  1.00  0.00    -0.237 OA
ATOM     91  O   UNL A   1      53.638  23.789  24.832  1.00  0.00    -0.237 OA
ATOM     92  O   UNL A   1      54.081  25.918  23.674  1.00  0.00    -0.744 OA
ENDBRANCH  88  89
ENDBRANCH  62  83
ENDBRANCH  36  37
ENDBRANCH  28  31
ENDBRANCH  26  27
ENDBRANCH   1  26
TORSDOF 17
ENDMDL
MODEL 2
REMARK VINA RESULT:     -11.7      6.548     12.057
REMARK SMILES CC1(C)C(CNC(=O)N2C[C@H](O)C[C@@H]2C(=O)NCCCNC(=O)c2ccc(-c3c4nc(c(-c5ccc(S(=O)(=O)[O-])cc5)c5ccc([nH]5)c(-c5ccc(S(=O)(=O)[O-])cc5)c5nc(c(-c6ccc(S(=O)(=O)[O-])cc6)c6ccc3[nH]6)C=C5)C=C4)cc2)C1(C)C
REMARK SMILES IDX 19 1 18 2 17 3 15 4 16 5 14 7 9 8 10 9 11 10 13 11 7 12 6 13
REMARK SMILES IDX 8 15 5 16 4 17 1 18 2 19 3 20 84 21 85 22 86 23 12 24 20 26
REMARK SMILES IDX 21 27 22 28 23 30 24 31 25 32 83 33 26 34 82 35 27 36 28 37
REMARK SMILES IDX 29 38 76 39 30 40 81 41 75 42 77 43 31 44 80 45 74 46 73 47
REMARK SMILES IDX 32 49 62 50 43 51 61 52 44 53 47 54 60 55 78 56 45 57 46 58
REMARK SMILES IDX 59 60 79 61 48 62 33 63 34 64 42 65 35 66 41 67 36 68 37 69
REMARK SMILES IDX 38 70 39 71 40 72 63 73 64 74 72 75 65 76 71 77 66 78 67 79
REMARK SMILES IDX 68 80 69 81 70 82 49 83 50 84 58 85 51 86 57 87 52 88 53 89
REMARK SMILES IDX 54 90 55 91 56 92
REMARK H PARENT 17 6 6 14 12 25 21 29 77 48 47 59
REMARK Flexibility Score: inf
ROOT
ATOM      1  C   UNL A   1      37.787  23.248  26.030  1.00  0.00     0.042 C 
ENDROOT
BRANCH   1   2
ATOM      2  C   UNL A   1      36.314  23.644  26.055  1.00  0.00     0.117 C 
BRANCH   2   3
ATOM      3  N   UNL A   1      35.446  22.519  26.358  1.00  0.00    -0.354 N 
ATOM      4  C   UNL A   1      34.126  22.342  26.051  1.00  0.00     0.242 C 
ATOM      5  O   UNL A   1      33.587  21.273  26.354  1.00  0.00    -0.273 OA
ATOM      6  H   UNL A   1      35.867  21.779  26.853  1.00  0.00     0.163 HD
BRANCH   4   7
ATOM      7  C   UNL A   1      33.400  23.404  25.206  1.00  0.00     0.179 C 
ATOM      8  N   UNL A   1      31.964  23.396  25.500  1.00  0.00    -0.310 N 
ATOM      9  C   UNL A   1      31.203  23.129  24.286  1.00  0.00     0.154 C 
ATOM     10  C   UNL A   1      32.177  22.320  23.441  1.00  0.00     0.136 C 
ATOM     11  C   UNL A   1      33.510  23.012  23.725  1.00  0.00     0.069 C 
BRANCH   8  12
ATOM     12  C   UNL A   1      31.525  23.919  26.675  1.00  0.00     0.318 C 
ATOM     13  N   UNL A   1      31.370  25.255  26.808  1.00  0.00    -0.338 N 
ATOM     14  H   UNL A   1      31.478  25.604  27.723  1.00  0.00     0.165 HD
ATOM     15  O   UNL A   1      31.219  23.200  27.625  1.00  0.00    -0.249 OA
BRANCH  13  16
ATOM     16  C   UNL A   1      31.070  26.242  25.796  1.00  0.00     0.122 C 
BRANCH  16  17
ATOM     17  C   UNL A   1      32.295  27.033  25.460  1.00  0.00     0.021 C 
ATOM     18  C   UNL A   1      33.474  28.691  23.848  1.00  0.00     0.012 C 
ATOM     19  C   UNL A   1      32.331  28.410  24.806  1.00  0.00    -0.025 C 
ATOM     20  C   UNL A   1      31.050  29.082  24.370  1.00  0.00     0.012 C 
ATOM     21  C   UNL A   1      32.667  28.243  26.306  1.00  0.00    -0.025 C 
ATOM     22  C   UNL A   1      34.105  28.307  26.778  1.00  0.00     0.012 C 
ATOM     23  C   UNL A   1      31.710  28.734  27.373  1.00  0.00     0.012 C 
ENDBRANCH  16  17
ENDBRANCH  13  16
ENDBRANCH   8  12
BRANCH  10  24
ATOM     24  O   UNL A   1      32.212  20.956  23.863  1.00  0.00    -0.391 OA
ATOM     25  H   UNL A   1      31.313  20.590  23.849  1.00  0.00     0.211 HD
ENDBRANCH  10  24
ENDBRANCH   4   7
ENDBRANCH   2   3
ENDBRANCH   1   2
BRANCH   1  26
ATOM     26  C   UNL A   1      38.718  24.252  26.706  1.00  0.00     0.118 C 
BRANCH  26  27
ATOM     27  N   UNL A   1      39.865  24.612  25.879  1.00  0.00    -0.352 N 
ATOM     28  C   UNL A   1      40.788  25.617  26.027  1.00  0.00     0.251 C 
ATOM     29  H   UNL A   1      39.996  24.043  25.087  1.00  0.00     0.163 HD
ATOM     30  O   UNL A   1      41.584  25.837  25.115  1.00  0.00    -0.269 OA
BRANCH  28  31
ATOM     31  C   UNL A   1      40.821  26.450  27.251  1.00  0.00     0.039 A 
ATOM     32  C   UNL A   1      41.644  27.580  27.270  1.00  0.00     0.014 A 
ATOM     33  C   UNL A   1      40.069  26.119  28.381  1.00  0.00     0.014 A 
ATOM     34  C   UNL A   1      41.651  28.417  28.389  1.00  0.00     0.010 A 
ATOM     35  C   UNL A   1      40.020  26.994  29.466  1.00  0.00     0.010 A 
ATOM     36  C   UNL A   1      40.804  28.158  29.480  1.00  0.00    -0.014 A 
BRANCH  36  37
ATOM     37  C   UNL A   1      40.696  29.114  30.614  1.00  0.00     0.031 A 
ATOM     38  C   UNL A   1      41.588  28.983  31.819  1.00  0.00     0.074 A 
ATOM     39  C   UNL A   1      39.742  30.067  30.586  1.00  0.00     0.049 A 
ATOM     40  N   UNL A   1      41.599  29.697  32.917  1.00  0.00    -0.248 NA
ATOM     41  C   UNL A   1      42.584  27.900  31.799  1.00  0.00     0.031 C 
ATOM     42  C   UNL A   1      38.786  30.275  29.495  1.00  0.00     0.029 A 
ATOM     43  N   UNL A   1      39.413  31.036  31.502  1.00  0.00    -0.354 N 
ATOM     44  C   UNL A   1      42.588  29.142  33.721  1.00  0.00     0.074 A 
ATOM     45  C   UNL A   1      43.125  28.006  33.005  1.00  0.00     0.031 C 
ATOM     46  C   UNL A   1      37.998  31.320  29.793  1.00  0.00     0.029 A 
ATOM     47  C   UNL A   1      38.355  31.827  31.113  1.00  0.00     0.049 A 
ATOM     48  H   UNL A   1      39.888  31.155  32.355  1.00  0.00     0.167 HD
ATOM     49  C   UNL A   1      43.019  29.551  34.940  1.00  0.00     0.031 A 
ATOM     50  C   UNL A   1      37.731  32.837  31.750  1.00  0.00     0.031 A 
ATOM     51  C   UNL A   1      42.481  30.682  35.652  1.00  0.00     0.049 A 
ATOM     52  C   UNL A   1      38.213  33.255  33.112  1.00  0.00     0.074 A 
ATOM     53  C   UNL A   1      42.892  31.208  36.865  1.00  0.00     0.029 A 
ATOM     54  N   UNL A   1      41.412  31.455  35.224  1.00  0.00    -0.354 N 
ATOM     55  N   UNL A   1      39.201  32.766  33.823  1.00  0.00    -0.248 NA
ATOM     56  C   UNL A   1      37.501  34.368  33.755  1.00  0.00     0.031 C 
ATOM     57  C   UNL A   1      42.031  32.256  37.201  1.00  0.00     0.029 A 
ATOM     58  C   UNL A   1      41.127  32.432  36.165  1.00  0.00     0.049 A 
ATOM     59  H   UNL A   1      40.927  31.329  34.377  1.00  0.00     0.167 HD
ATOM     60  C   UNL A   1      39.246  33.528  34.985  1.00  0.00     0.074 A 
ATOM     61  C   UNL A   1      38.198  34.523  34.872  1.00  0.00     0.031 C 
ATOM     62  C   UNL A   1      40.079  33.414  36.048  1.00  0.00     0.031 A 
BRANCH  49  63
ATOM     63  C   UNL A   1      44.124  28.760  35.596  1.00  0.00    -0.014 A 
ATOM     64  C   UNL A   1      43.839  27.702  36.477  1.00  0.00     0.010 A 
ATOM     65  C   UNL A   1      45.466  29.043  35.282  1.00  0.00     0.010 A 
ATOM     66  C   UNL A   1      44.874  26.967  37.062  1.00  0.00     0.020 A 
ATOM     67  C   UNL A   1      46.504  28.290  35.839  1.00  0.00     0.020 A 
ATOM     68  C   UNL A   1      46.201  27.267  36.740  1.00  0.00     0.054 A 
BRANCH  68  69
ATOM     69  S   UNL A   1      47.522  26.277  37.491  1.00  0.00     0.124 S 
ATOM     70  O   UNL A   1      48.633  27.225  37.514  1.00  0.00    -0.237 OA
ATOM     71  O   UNL A   1      46.962  25.934  38.796  1.00  0.00    -0.237 OA
ATOM     72  O   UNL A   1      47.683  25.153  36.571  1.00  0.00    -0.744 OA
ENDBRANCH  68  69
ENDBRANCH  49  63
BRANCH  50  73
ATOM     73  C   UNL A   1      36.578  33.524  31.103  1.00  0.00    -0.014 A 
ATOM     74  C   UNL A   1      35.415  33.819  31.837  1.00  0.00     0.010 A 
ATOM     75  C   UNL A   1      36.642  33.895  29.748  1.00  0.00     0.010 A 
ATOM     76  C   UNL A   1      34.332  34.455  31.223  1.00  0.00     0.020 A 
ATOM     77  C   UNL A   1      35.574  34.560  29.138  1.00  0.00     0.020 A 
ATOM     78  C   UNL A   1      34.420  34.825  29.878  1.00  0.00     0.054 A 
BRANCH  78  79
ATOM     79  S   UNL A   1      33.021  35.693  29.116  1.00  0.00     0.124 S 
ATOM     80  O   UNL A   1      33.685  36.789  28.419  1.00  0.00    -0.237 OA
ATOM     81  O   UNL A   1      32.438  34.661  28.263  1.00  0.00    -0.237 OA
ATOM     82  O   UNL A   1      32.197  36.083  30.259  1.00  0.00    -0.744 OA
ENDBRANCH  78  79
ENDBRANCH  50  73
BRANCH  62  83
ATOM     83  C   UNL A   1      39.916  34.408  37.169  1.00  0.00    -0.014 A 
ATOM     84  C   UNL A   1      40.518  35.678  37.115  1.00  0.00     0.010 A 
ATOM     85  C   UNL A   1      39.104  34.084  38.272  1.00  0.00     0.010 A 
ATOM     86  C   UNL A   1      40.337  36.591  38.157  1.00  0.00     0.020 A 
ATOM     87  C   UNL A   1      38.895  35.006  39.300  1.00  0.00     0.020 A 
ATOM     88  C   UNL A   1      39.525  36.250  39.243  1.00  0.00     0.054 A 
BRANCH  88  89
ATOM     89  S   UNL A   1      39.274  37.469  40.562  1.00  0.00     0.124 S 
ATOM     90  O   UNL A   1      40.594  38.085  40.663  1.00  0.00    -0.237 OA
ATOM     91  O   UNL A   1      38.223  38.321  40.013  1.00  0.00    -0.237 OA
ATOM     92  O   UNL A   1      38.875  36.660  41.712  1.00  0.00    -0.744 OA
ENDBRANCH  88  89
ENDBRANCH  62  83
ENDBRANCH  36  37
ENDBRANCH  28  31
ENDBRANCH  26  27
ENDBRANCH   1  26
TORSDOF 17
ENDMDL
MODEL 3
REMARK VINA RESULT:     -11.5      0.692      8.214
REMARK SMILES CC1(C)C(CNC(=O)N2C[C@H](O)C[C@@H]2C(=O)NCCCNC(=O)c2ccc(-c3c4nc(c(-c5ccc(S(=O)(=O)[O-])cc5)c5ccc([nH]5)c(-c5ccc(S(=O)(=O)[O-])cc5)c5nc(c(-c6ccc(S(=O)(=O)[O-])cc6)c6ccc3[nH]6)C=C5)C=C4)cc2)C1(C)C
REMARK SMILES IDX 19 1 18 2 17 3 15 4 16 5 14 7 9 8 10 9 11 10 13 11 7 12 6 13
REMARK SMILES IDX 8 15 5 16 4 17 1 18 2 19 3 20 84 21 85 22 86 23 12 24 20 26
REMARK SMILES IDX 21 27 22 28 23 30 24 31 25 32 83 33 26 34 82 35 27 36 28 37
REMARK SMILES IDX 29 38 76 39 30 40 81 41 75 42 77 43 31 44 80 45 74 46 73 47
REMARK SMILES IDX 32 49 62 50 43 51 61 52 44 53 47 54 60 55 78 56 45 57 46 58
REMARK SMILES IDX 59 60 79 61 48 62 33 63 34 64 42 65 35 66 41 67 36 68 37 69
REMARK SMILES IDX 38 70 39 71 40 72 63 73 64 74 72 75 65 76 71 77 66 78 67 79
REMARK SMILES IDX 68 80 69 81 70 82 49 83 50 84 58 85 51 86 57 87 52 88 53 89
REMARK SMILES IDX 54 90 55 91 56 92
REMARK H PARENT 17 6 6 14 12 25 21 29 77 48 47 59
REMARK Flexibility Score: inf
ROOT
ATOM      1  C   UNL A   1      34.399  30.642  27.251  1.00  0.00     0.042 C 
ENDROOT
BRANCH   1   2
ATOM      2  C   UNL A   1      33.294  29.832  26.580  1.00  0.00     0.117 C 
BRANCH   2   3
ATOM      3  N   UNL A   1      33.733  29.224  25.337  1.00  0.00    -0.354 N 
ATOM      4  C   UNL A   1      33.002  28.543  24.405  1.00  0.00     0.242 C 
ATOM      5  O   UNL A   1      33.568  28.154  23.378  1.00  0.00    -0.273 OA
ATOM      6  H   UNL A   1      34.693  29.316  25.136  1.00  0.00     0.163 HD
BRANCH   4   7
ATOM      7  C   UNL A   1      31.479  28.418  24.587  1.00  0.00     0.179 C 
ATOM      8  N   UNL A   1      31.088  27.008  24.668  1.00  0.00    -0.310 N 
ATOM      9  C   UNL A   1      30.139  26.686  23.611  1.00  0.00     0.154 C 
ATOM     10  C   UNL A   1      30.486  27.689  22.520  1.00  0.00     0.136 C 
ATOM     11  C   UNL A   1      30.789  28.954  23.323  1.00  0.00     0.069 C 
BRANCH   8  12
ATOM     12  C   UNL A   1      31.358  26.310  25.803  1.00  0.00     0.318 C 
ATOM     13  N   UNL A   1      32.013  25.130  25.736  1.00  0.00    -0.338 N 
ATOM     14  H   UNL A   1      31.809  24.492  26.458  1.00  0.00     0.165 HD
ATOM     15  O   UNL A   1      31.055  26.745  26.913  1.00  0.00    -0.249 OA
BRANCH  13  16
ATOM     16  C   UNL A   1      32.968  24.674  24.752  1.00  0.00     0.122 C 
BRANCH  16  17
ATOM     17  C   UNL A   1      33.185  23.199  24.880  1.00  0.00     0.021 C 
ATOM     18  C   UNL A   1      32.525  20.802  24.137  1.00  0.00     0.012 C 
ATOM     19  C   UNL A   1      33.070  22.168  23.763  1.00  0.00    -0.025 C 
ATOM     20  C   UNL A   1      32.641  22.588  22.377  1.00  0.00     0.012 C 
ATOM     21  C   UNL A   1      34.455  22.572  24.320  1.00  0.00    -0.025 C 
ATOM     22  C   UNL A   1      35.204  21.643  25.253  1.00  0.00     0.012 C 
ATOM     23  C   UNL A   1      35.405  23.415  23.495  1.00  0.00     0.012 C 
ENDBRANCH  16  17
ENDBRANCH  13  16
ENDBRANCH   8  12
BRANCH  10  24
ATOM     24  O   UNL A   1      31.634  27.268  21.783  1.00  0.00    -0.391 OA
ATOM     25  H   UNL A   1      31.860  27.942  21.123  1.00  0.00     0.211 HD
ENDBRANCH  10  24
ENDBRANCH   4   7
ENDBRANCH   2   3
ENDBRANCH   1   2
BRANCH   1  26
ATOM     26  C   UNL A   1      35.538  29.799  27.820  1.00  0.00     0.118 C 
BRANCH  26  27
ATOM     27  N   UNL A   1      35.528  29.738  29.278  1.00  0.00    -0.352 N 
ATOM     28  C   UNL A   1      36.546  29.491  30.165  1.00  0.00     0.251 C 
ATOM     29  H   UNL A   1      34.650  29.898  29.691  1.00  0.00     0.163 HD
ATOM     30  O   UNL A   1      36.277  29.328  31.354  1.00  0.00    -0.269 OA
BRANCH  28  31
ATOM     31  C   UNL A   1      37.952  29.395  29.707  1.00  0.00     0.039 A 
ATOM     32  C   UNL A   1      38.941  29.083  30.643  1.00  0.00     0.014 A 
ATOM     33  C   UNL A   1      38.304  29.629  28.376  1.00  0.00     0.014 A 
ATOM     34  C   UNL A   1      40.267  28.927  30.230  1.00  0.00     0.010 A 
ATOM     35  C   UNL A   1      39.614  29.401  27.951  1.00  0.00     0.010 A 
ATOM     36  C   UNL A   1      40.608  29.039  28.872  1.00  0.00    -0.014 A 
BRANCH  36  37
ATOM     37  C   UNL A   1      41.986  28.738  28.398  1.00  0.00     0.031 A 
ATOM     38  C   UNL A   1      42.363  27.349  27.956  1.00  0.00     0.074 A 
ATOM     39  C   UNL A   1      42.921  29.709  28.427  1.00  0.00     0.049 A 
ATOM     40  N   UNL A   1      43.527  26.899  27.560  1.00  0.00    -0.248 NA
ATOM     41  C   UNL A   1      41.302  26.330  27.981  1.00  0.00     0.031 C 
ATOM     42  C   UNL A   1      42.697  31.087  28.872  1.00  0.00     0.029 A 
ATOM     43  N   UNL A   1      44.251  29.687  28.084  1.00  0.00    -0.354 N 
ATOM     44  C   UNL A   1      43.343  25.545  27.303  1.00  0.00     0.074 A 
ATOM     45  C   UNL A   1      41.968  25.237  27.630  1.00  0.00     0.031 C 
ATOM     46  C   UNL A   1      43.838  31.782  28.750  1.00  0.00     0.029 A 
ATOM     47  C   UNL A   1      44.889  30.893  28.267  1.00  0.00     0.049 A 
ATOM     48  H   UNL A   1      44.705  28.885  27.739  1.00  0.00     0.167 HD
ATOM     49  C   UNL A   1      44.234  24.643  26.825  1.00  0.00     0.031 A 
ATOM     50  C   UNL A   1      46.177  31.245  28.082  1.00  0.00     0.031 A 
ATOM     51  C   UNL A   1      45.604  24.951  26.501  1.00  0.00     0.049 A 
ATOM     52  C   UNL A   1      47.152  30.219  27.574  1.00  0.00     0.074 A 
ATOM     53  C   UNL A   1      46.567  24.119  25.956  1.00  0.00     0.029 A 
ATOM     54  N   UNL A   1      46.210  26.183  26.701  1.00  0.00    -0.354 N 
ATOM     55  N   UNL A   1      46.939  28.962  27.264  1.00  0.00    -0.248 NA
ATOM     56  C   UNL A   1      48.540  30.661  27.382  1.00  0.00     0.031 C 
ATOM     57  C   UNL A   1      47.770  24.827  25.888  1.00  0.00     0.029 A 
ATOM     58  C   UNL A   1      47.542  26.123  26.322  1.00  0.00     0.049 A 
ATOM     59  H   UNL A   1      45.760  26.982  27.059  1.00  0.00     0.167 HD
ATOM     60  C   UNL A   1      48.160  28.471  26.815  1.00  0.00     0.074 A 
ATOM     61  C   UNL A   1      49.101  29.571  26.876  1.00  0.00     0.031 C 
ATOM     62  C   UNL A   1      48.473  27.221  26.392  1.00  0.00     0.031 A 
BRANCH  49  63
ATOM     63  C   UNL A   1      43.763  23.223  26.633  1.00  0.00    -0.014 A 
ATOM     64  C   UNL A   1      44.085  22.498  25.472  1.00  0.00     0.010 A 
ATOM     65  C   UNL A   1      43.034  22.585  27.654  1.00  0.00     0.010 A 
ATOM     66  C   UNL A   1      43.656  21.177  25.318  1.00  0.00     0.020 A 
ATOM     67  C   UNL A   1      42.629  21.254  27.518  1.00  0.00     0.020 A 
ATOM     68  C   UNL A   1      42.929  20.563  26.343  1.00  0.00     0.054 A 
BRANCH  68  69
ATOM     69  S   UNL A   1      42.412  18.838  26.128  1.00  0.00     0.124 S 
ATOM     70  O   UNL A   1      42.654  18.283  27.457  1.00  0.00    -0.237 OA
ATOM     71  O   UNL A   1      41.007  18.971  25.750  1.00  0.00    -0.237 OA
ATOM     72  O   UNL A   1      43.292  18.338  25.075  1.00  0.00    -0.744 OA
ENDBRANCH  68  69
ENDBRANCH  49  63
BRANCH  50  73
ATOM     73  C   UNL A   1      46.618  32.636  28.381  1.00  0.00    -0.014 A 
ATOM     74  C   UNL A   1      47.092  32.979  29.660  1.00  0.00     0.010 A 
ATOM     75  C   UNL A   1      46.574  33.626  27.382  1.00  0.00     0.010 A 
ATOM     76  C   UNL A   1      47.496  34.288  29.939  1.00  0.00     0.020 A 
ATOM     77  C   UNL A   1      47.007  34.928  27.647  1.00  0.00     0.020 A 
ATOM     78  C   UNL A   1      47.454  35.254  28.929  1.00  0.00     0.054 A 
BRANCH  78  79
ATOM     79  S   UNL A   1      48.029  36.934  29.301  1.00  0.00     0.124 S 
ATOM     80  O   UNL A   1      48.332  37.453  27.972  1.00  0.00    -0.237 OA
ATOM     81  O   UNL A   1      46.868  37.524  29.962  1.00  0.00    -0.237 OA
ATOM     82  O   UNL A   1      49.185  36.716  30.168  1.00  0.00    -0.744 OA
ENDBRANCH  78  79
ENDBRANCH  50  73
BRANCH  62  83
ATOM     83  C   UNL A   1      49.887  26.978  25.930  1.00  0.00    -0.014 A 
ATOM     84  C   UNL A   1      50.868  26.481  26.807  1.00  0.00     0.010 A 
ATOM     85  C   UNL A   1      50.225  27.202  24.582  1.00  0.00     0.010 A 
ATOM     86  C   UNL A   1      52.168  26.245  26.352  1.00  0.00     0.020 A 
ATOM     87  C   UNL A   1      51.515  26.937  24.117  1.00  0.00     0.020 A 
ATOM     88  C   UNL A   1      52.484  26.473  25.009  1.00  0.00     0.054 A 
BRANCH  88  89
ATOM     89  S   UNL A   1      54.167  26.119  24.435  1.00  0.00     0.124 S 
ATOM     90  O   UNL A   1      54.953  27.108  25.169  1.00  0.00    -0.237 OA
ATOM     91  O   UNL A   1      54.359  24.732  24.847  1.00  0.00    -0.237 OA
ATOM     92  O   UNL A   1      54.094  26.330  22.991  1.00  0.00    -0.744 OA
ENDBRANCH  88  89
ENDBRANCH  62  83
ENDBRANCH  36  37
ENDBRANCH  28  31
ENDBRANCH  26  27
ENDBRANCH   1  26
TORSDOF 17
ENDMDL
