MODEL 1
REMARK VINA RESULT:     -10.4      0.000      0.000
REMARK SMILES [NH3+][C@@H](Cc1ccncc1)C(=O)NCCCNC(=O)c1ccc(-c2c3nc(c(-c4ccc(S(=O)(=O)[O-])cc4)c4ccc([nH]4)c(-c4ccc(S(=O)(=O)[O-])cc4)c4nc(c(-c5ccc(S(=O)(=O)[O-])cc5)c5ccc2[nH]5)C=C4)C=C3)cc1
REMARK SMILES IDX 14 1 13 2 12 3 10 4 11 5 2 7 1 8 3 12 4 13 5 14 9 15 6 16
REMARK SMILES IDX 8 17 7 18 15 19 16 20 17 21 18 23 19 24 20 25 78 26 21 27
REMARK SMILES IDX 77 28 22 29 23 30 24 31 71 32 25 33 76 34 70 35 72 36 26 37
REMARK SMILES IDX 75 38 69 39 68 40 27 42 57 43 38 44 56 45 39 46 42 47 55 48
REMARK SMILES IDX 73 49 40 50 41 51 54 53 74 54 43 55 28 56 29 57 37 58 30 59
REMARK SMILES IDX 36 60 31 61 32 62 33 63 34 64 35 65 58 66 59 67 67 68 60 69
REMARK SMILES IDX 66 70 61 71 62 72 63 73 64 74 65 75 44 76 45 77 53 78 46 79
REMARK SMILES IDX 52 80 47 81 48 82 49 83 50 84 51 85
REMARK H PARENT 12 6 1 9 1 10 1 11 16 22 72 41 42 52
REMARK Flexibility Score: inf
ROOT
ATOM      1  C   UNL A   1      32.944  28.268  25.695  1.00  0.00     0.042 C 
ENDROOT
BRANCH   1   2
ATOM      2  C   UNL A   1      31.605  27.595  25.918  1.00  0.00     0.118 C 
BRANCH   2   3
ATOM      3  N   UNL A   1      31.086  26.863  24.797  1.00  0.00    -0.351 N 
ATOM      4  C   UNL A   1      30.805  27.330  23.544  1.00  0.00     0.278 C 
ATOM      5  O   UNL A   1      30.731  26.492  22.638  1.00  0.00    -0.268 OA
ATOM      6  H   UNL A   1      30.912  25.905  24.949  1.00  0.00     0.163 HD
BRANCH   4   7
ATOM      7  C   UNL A   1      30.540  28.836  23.252  1.00  0.00     0.275 C 
BRANCH   7   8
ATOM      8  N   UNL A   1      31.572  29.378  22.351  1.00  0.00    -0.347 N 
ATOM      9  H   UNL A   1      31.286  30.300  22.020  1.00  0.00     0.345 HD
ATOM     10  H   UNL A   1      31.689  28.752  21.553  1.00  0.00     0.345 HD
ATOM     11  H   UNL A   1      32.456  29.456  22.853  1.00  0.00     0.345 HD
ENDBRANCH   7   8
BRANCH   7  12
ATOM     12  C   UNL A   1      29.068  29.282  23.014  1.00  0.00     0.111 C 
BRANCH  12  13
ATOM     13  C   UNL A   1      28.675  30.678  22.564  1.00  0.00    -0.038 A 
ATOM     14  C   UNL A   1      28.734  31.809  23.390  1.00  0.00     0.024 A 
ATOM     15  C   UNL A   1      28.219  30.869  21.251  1.00  0.00     0.024 A 
ATOM     16  C   UNL A   1      28.464  33.060  22.846  1.00  0.00     0.111 A 
ATOM     17  C   UNL A   1      27.933  32.154  20.809  1.00  0.00     0.111 A 
ATOM     18  N   UNL A   1      28.069  33.254  21.572  1.00  0.00    -0.265 NA
ENDBRANCH  12  13
ENDBRANCH   7  12
ENDBRANCH   4   7
ENDBRANCH   2   3
ENDBRANCH   1   2
BRANCH   1  19
ATOM     19  C   UNL A   1      33.755  28.429  26.969  1.00  0.00     0.118 C 
BRANCH  19  20
ATOM     20  N   UNL A   1      33.689  29.771  27.543  1.00  0.00    -0.352 N 
ATOM     21  C   UNL A   1      34.626  30.530  28.195  1.00  0.00     0.251 C 
ATOM     22  H   UNL A   1      32.814  30.209  27.444  1.00  0.00     0.163 HD
ATOM     23  O   UNL A   1      34.300  31.637  28.620  1.00  0.00    -0.269 OA
BRANCH  21  24
ATOM     24  C   UNL A   1      35.996  30.025  28.429  1.00  0.00     0.039 A 
ATOM     25  C   UNL A   1      36.933  30.139  27.399  1.00  0.00     0.014 A 
ATOM     26  C   UNL A   1      36.369  29.447  29.642  1.00  0.00     0.014 A 
ATOM     27  C   UNL A   1      38.252  29.736  27.613  1.00  0.00     0.010 A 
ATOM     28  C   UNL A   1      37.705  29.172  29.898  1.00  0.00     0.010 A 
ATOM     29  C   UNL A   1      38.659  29.291  28.882  1.00  0.00    -0.014 A 
BRANCH  29  30
ATOM     30  C   UNL A   1      40.070  28.917  29.153  1.00  0.00     0.031 A 
ATOM     31  C   UNL A   1      41.002  29.907  29.803  1.00  0.00     0.074 A 
ATOM     32  C   UNL A   1      40.522  27.707  28.767  1.00  0.00     0.049 A 
ATOM     33  N   UNL A   1      42.270  29.775  30.094  1.00  0.00    -0.248 NA
ATOM     34  C   UNL A   1      40.449  31.233  30.135  1.00  0.00     0.031 C 
ATOM     35  C   UNL A   1      39.732  26.687  28.070  1.00  0.00     0.029 A 
ATOM     36  N   UNL A   1      41.756  27.127  28.909  1.00  0.00    -0.354 N 
ATOM     37  C   UNL A   1      42.667  31.000  30.620  1.00  0.00     0.074 A 
ATOM     38  C   UNL A   1      41.528  31.885  30.543  1.00  0.00     0.031 C 
ATOM     39  C   UNL A   1      40.486  25.591  27.894  1.00  0.00     0.029 A 
ATOM     40  C   UNL A   1      41.822  25.843  28.422  1.00  0.00     0.049 A 
ATOM     41  H   UNL A   1      42.524  27.586  29.322  1.00  0.00     0.167 HD
ATOM     42  C   UNL A   1      43.862  31.349  31.150  1.00  0.00     0.031 A 
ATOM     43  C   UNL A   1      42.842  24.964  28.408  1.00  0.00     0.031 A 
ATOM     44  C   UNL A   1      44.984  30.456  31.248  1.00  0.00     0.049 A 
ATOM     45  C   UNL A   1      44.154  25.367  29.023  1.00  0.00     0.074 A 
ATOM     46  C   UNL A   1      46.220  30.685  31.825  1.00  0.00     0.029 A 
ATOM     47  N   UNL A   1      45.004  29.158  30.761  1.00  0.00    -0.354 N 
ATOM     48  N   UNL A   1      44.487  26.507  29.581  1.00  0.00    -0.248 NA
ATOM     49  C   UNL A   1      45.222  24.359  29.020  1.00  0.00     0.031 C 
ATOM     50  C   UNL A   1      47.006  29.543  31.640  1.00  0.00     0.029 A 
ATOM     51  C   UNL A   1      46.238  28.580  31.005  1.00  0.00     0.049 A 
ATOM     52  H   UNL A   1      44.251  28.713  30.308  1.00  0.00     0.167 HD
ATOM     53  C   UNL A   1      45.795  26.343  30.023  1.00  0.00     0.074 A 
ATOM     54  C   UNL A   1      46.182  24.989  29.683  1.00  0.00     0.031 C 
ATOM     55  C   UNL A   1      46.604  27.231  30.653  1.00  0.00     0.031 A 
BRANCH  42  56
ATOM     56  C   UNL A   1      44.011  32.757  31.668  1.00  0.00    -0.014 A 
ATOM     57  C   UNL A   1      44.459  33.797  30.831  1.00  0.00     0.010 A 
ATOM     58  C   UNL A   1      43.672  33.052  33.001  1.00  0.00     0.010 A 
ATOM     59  C   UNL A   1      44.606  35.094  31.329  1.00  0.00     0.020 A 
ATOM     60  C   UNL A   1      43.788  34.356  33.494  1.00  0.00     0.020 A 
ATOM     61  C   UNL A   1      44.271  35.366  32.659  1.00  0.00     0.054 A 
BRANCH  61  62
ATOM     62  S   UNL A   1      44.448  37.063  33.270  1.00  0.00     0.124 S 
ATOM     63  O   UNL A   1      43.056  37.452  33.485  1.00  0.00    -0.237 OA
ATOM     64  O   UNL A   1      45.245  36.886  34.481  1.00  0.00    -0.237 OA
ATOM     65  O   UNL A   1      45.126  37.758  32.177  1.00  0.00    -0.744 OA
ENDBRANCH  61  62
ENDBRANCH  42  56
BRANCH  43  66
ATOM     66  C   UNL A   1      42.650  23.608  27.823  1.00  0.00    -0.014 A 
ATOM     67  C   UNL A   1      43.027  23.342  26.495  1.00  0.00     0.010 A 
ATOM     68  C   UNL A   1      42.102  22.569  28.599  1.00  0.00     0.010 A 
ATOM     69  C   UNL A   1      42.840  22.071  25.945  1.00  0.00     0.020 A 
ATOM     70  C   UNL A   1      41.941  21.288  28.062  1.00  0.00     0.020 A 
ATOM     71  C   UNL A   1      42.299  21.050  26.733  1.00  0.00     0.054 A 
BRANCH  71  72
ATOM     72  S   UNL A   1      42.107  19.396  26.013  1.00  0.00     0.124 S 
ATOM     73  O   UNL A   1      42.624  18.541  27.076  1.00  0.00    -0.237 OA
ATOM     74  O   UNL A   1      40.666  19.319  25.782  1.00  0.00    -0.237 OA
ATOM     75  O   UNL A   1      42.922  19.454  24.802  1.00  0.00    -0.744 OA
ENDBRANCH  71  72
ENDBRANCH  43  66
BRANCH  55  76
ATOM     76  C   UNL A   1      47.976  26.752  31.044  1.00  0.00    -0.014 A 
ATOM     77  C   UNL A   1      49.075  26.892  30.177  1.00  0.00     0.010 A 
ATOM     78  C   UNL A   1      48.173  26.185  32.317  1.00  0.00     0.010 A 
ATOM     79  C   UNL A   1      50.336  26.428  30.558  1.00  0.00     0.020 A 
ATOM     80  C   UNL A   1      49.439  25.750  32.714  1.00  0.00     0.020 A 
ATOM     81  C   UNL A   1      50.509  25.856  31.823  1.00  0.00     0.054 A 
BRANCH  81  82
ATOM     82  S   UNL A   1      52.160  25.279  32.301  1.00  0.00     0.124 S 
ATOM     83  O   UNL A   1      52.987  25.793  31.212  1.00  0.00    -0.237 OA
ATOM     84  O   UNL A   1      52.361  25.919  33.598  1.00  0.00    -0.237 OA
ATOM     85  O   UNL A   1      52.020  23.825  32.345  1.00  0.00    -0.744 OA
ENDBRANCH  81  82
ENDBRANCH  55  76
ENDBRANCH  29  30
ENDBRANCH  21  24
ENDBRANCH  19  20
ENDBRANCH   1  19
TORSDOF 16
ENDMDL
MODEL 2
REMARK VINA RESULT:     -10.2      3.176      5.456
REMARK SMILES [NH3+][C@@H](Cc1ccncc1)C(=O)NCCCNC(=O)c1ccc(-c2c3nc(c(-c4ccc(S(=O)(=O)[O-])cc4)c4ccc([nH]4)c(-c4ccc(S(=O)(=O)[O-])cc4)c4nc(c(-c5ccc(S(=O)(=O)[O-])cc5)c5ccc2[nH]5)C=C4)C=C3)cc1
REMARK SMILES IDX 14 1 13 2 12 3 10 4 11 5 2 7 1 8 3 12 4 13 5 14 9 15 6 16
REMARK SMILES IDX 8 17 7 18 15 19 16 20 17 21 18 23 19 24 20 25 78 26 21 27
REMARK SMILES IDX 77 28 22 29 23 30 24 31 71 32 25 33 76 34 70 35 72 36 26 37
REMARK SMILES IDX 75 38 69 39 68 40 27 42 57 43 38 44 56 45 39 46 42 47 55 48
REMARK SMILES IDX 73 49 40 50 41 51 54 53 74 54 43 55 28 56 29 57 37 58 30 59
REMARK SMILES IDX 36 60 31 61 32 62 33 63 34 64 35 65 58 66 59 67 67 68 60 69
REMARK SMILES IDX 66 70 61 71 62 72 63 73 64 74 65 75 44 76 45 77 53 78 46 79
REMARK SMILES IDX 52 80 47 81 48 82 49 83 50 84 51 85
REMARK H PARENT 12 6 1 9 1 10 1 11 16 22 72 41 42 52
REMARK Flexibility Score: inf
ROOT
ATOM      1  C   UNL A   1      34.542  33.772  29.704  1.00  0.00     0.042 C 
ENDROOT
BRANCH   1   2
ATOM      2  C   UNL A   1      33.711  35.025  29.515  1.00  0.00     0.118 C 
BRANCH   2   3
ATOM      3  N   UNL A   1      32.709  35.260  30.517  1.00  0.00    -0.351 N 
ATOM      4  C   UNL A   1      32.758  36.132  31.568  1.00  0.00     0.278 C 
ATOM      5  O   UNL A   1      31.679  36.454  32.078  1.00  0.00    -0.268 OA
ATOM      6  H   UNL A   1      31.885  34.727  30.437  1.00  0.00     0.163 HD
BRANCH   4   7
ATOM      7  C   UNL A   1      34.099  36.674  32.144  1.00  0.00     0.275 C 
BRANCH   7   8
ATOM      8  N   UNL A   1      34.046  38.140  32.286  1.00  0.00    -0.347 N 
ATOM      9  H   UNL A   1      34.315  38.400  33.235  1.00  0.00     0.345 HD
ATOM     10  H   UNL A   1      33.097  38.465  32.100  1.00  0.00     0.345 HD
ATOM     11  H   UNL A   1      34.689  38.569  31.620  1.00  0.00     0.345 HD
ENDBRANCH   7   8
BRANCH   7  12
ATOM     12  C   UNL A   1      34.780  35.864  33.286  1.00  0.00     0.111 C 
BRANCH  12  13
ATOM     13  C   UNL A   1      35.514  34.554  33.064  1.00  0.00    -0.038 A 
ATOM     14  C   UNL A   1      34.928  33.293  33.233  1.00  0.00     0.024 A 
ATOM     15  C   UNL A   1      36.861  34.585  32.672  1.00  0.00     0.024 A 
ATOM     16  C   UNL A   1      35.654  32.157  32.890  1.00  0.00     0.111 A 
ATOM     17  C   UNL A   1      37.517  33.394  32.391  1.00  0.00     0.111 A 
ATOM     18  N   UNL A   1      36.933  32.184  32.469  1.00  0.00    -0.265 NA
ENDBRANCH  12  13
ENDBRANCH   7  12
ENDBRANCH   4   7
ENDBRANCH   2   3
ENDBRANCH   1   2
BRANCH   1  19
ATOM     19  C   UNL A   1      34.970  33.133  28.394  1.00  0.00     0.118 C 
BRANCH  19  20
ATOM     20  N   UNL A   1      34.151  31.988  28.002  1.00  0.00    -0.352 N 
ATOM     21  C   UNL A   1      34.437  30.650  27.917  1.00  0.00     0.251 C 
ATOM     22  H   UNL A   1      33.227  32.219  27.756  1.00  0.00     0.163 HD
ATOM     23  O   UNL A   1      33.563  29.883  27.519  1.00  0.00    -0.269 OA
BRANCH  21  24
ATOM     24  C   UNL A   1      35.779  30.128  28.253  1.00  0.00     0.039 A 
ATOM     25  C   UNL A   1      36.761  30.125  27.259  1.00  0.00     0.014 A 
ATOM     26  C   UNL A   1      36.083  29.647  29.526  1.00  0.00     0.014 A 
ATOM     27  C   UNL A   1      38.057  29.705  27.564  1.00  0.00     0.010 A 
ATOM     28  C   UNL A   1      37.398  29.357  29.863  1.00  0.00     0.010 A 
ATOM     29  C   UNL A   1      38.396  29.359  28.883  1.00  0.00    -0.014 A 
BRANCH  29  30
ATOM     30  C   UNL A   1      39.782  28.970  29.247  1.00  0.00     0.031 A 
ATOM     31  C   UNL A   1      40.675  29.945  29.970  1.00  0.00     0.074 A 
ATOM     32  C   UNL A   1      40.249  27.761  28.879  1.00  0.00     0.049 A 
ATOM     33  N   UNL A   1      41.918  29.799  30.347  1.00  0.00    -0.248 NA
ATOM     34  C   UNL A   1      40.111  31.272  30.278  1.00  0.00     0.031 C 
ATOM     35  C   UNL A   1      39.501  26.755  28.118  1.00  0.00     0.029 A 
ATOM     36  N   UNL A   1      41.466  27.169  29.100  1.00  0.00    -0.354 N 
ATOM     37  C   UNL A   1      42.289  31.014  30.912  1.00  0.00     0.074 A 
ATOM     38  C   UNL A   1      41.164  31.910  30.767  1.00  0.00     0.031 C 
ATOM     39  C   UNL A   1      40.257  25.655  27.981  1.00  0.00     0.029 A 
ATOM     40  C   UNL A   1      41.555  25.889  28.604  1.00  0.00     0.049 A 
ATOM     41  H   UNL A   1      42.207  27.616  29.569  1.00  0.00     0.167 HD
ATOM     42  C   UNL A   1      43.447  31.348  31.527  1.00  0.00     0.031 A 
ATOM     43  C   UNL A   1      42.566  25.001  28.650  1.00  0.00     0.031 A 
ATOM     44  C   UNL A   1      44.552  30.443  31.692  1.00  0.00     0.049 A 
ATOM     45  C   UNL A   1      43.836  25.385  29.358  1.00  0.00     0.074 A 
ATOM     46  C   UNL A   1      45.747  30.655  32.356  1.00  0.00     0.029 A 
ATOM     47  N   UNL A   1      44.595  29.150  31.194  1.00  0.00    -0.354 N 
ATOM     48  N   UNL A   1      44.139  26.516  29.951  1.00  0.00    -0.248 NA
ATOM     49  C   UNL A   1      44.893  24.369  29.418  1.00  0.00     0.031 C 
ATOM     50  C   UNL A   1      46.534  29.508  32.213  1.00  0.00     0.029 A 
ATOM     51  C   UNL A   1      45.804  28.558  31.516  1.00  0.00     0.049 A 
ATOM     52  H   UNL A   1      43.871  28.716  30.685  1.00  0.00     0.167 HD
ATOM     53  C   UNL A   1      45.412  26.336  30.480  1.00  0.00     0.074 A 
ATOM     54  C   UNL A   1      45.811  24.982  30.152  1.00  0.00     0.031 C 
ATOM     55  C   UNL A   1      46.183  27.211  31.174  1.00  0.00     0.031 A 
BRANCH  42  56
ATOM     56  C   UNL A   1      43.571  32.748  32.071  1.00  0.00    -0.014 A 
ATOM     57  C   UNL A   1      43.916  33.826  31.233  1.00  0.00     0.010 A 
ATOM     58  C   UNL A   1      43.312  32.998  33.430  1.00  0.00     0.010 A 
ATOM     59  C   UNL A   1      44.042  35.116  31.753  1.00  0.00     0.020 A 
ATOM     60  C   UNL A   1      43.406  34.293  33.947  1.00  0.00     0.020 A 
ATOM     61  C   UNL A   1      43.787  35.342  33.108  1.00  0.00     0.054 A 
BRANCH  61  62
ATOM     62  S   UNL A   1      43.934  37.032  33.749  1.00  0.00     0.124 S 
ATOM     63  O   UNL A   1      44.577  37.722  32.634  1.00  0.00    -0.237 OA
ATOM     64  O   UNL A   1      42.542  37.401  33.997  1.00  0.00    -0.237 OA
ATOM     65  O   UNL A   1      44.758  36.880  34.946  1.00  0.00    -0.744 OA
ENDBRANCH  61  62
ENDBRANCH  42  56
BRANCH  43  66
ATOM     66  C   UNL A   1      42.404  23.653  28.038  1.00  0.00    -0.014 A 
ATOM     67  C   UNL A   1      41.512  22.718  28.593  1.00  0.00     0.010 A 
ATOM     68  C   UNL A   1      43.132  23.302  26.886  1.00  0.00     0.010 A 
ATOM     69  C   UNL A   1      41.366  21.451  28.021  1.00  0.00     0.020 A 
ATOM     70  C   UNL A   1      42.966  22.046  26.293  1.00  0.00     0.020 A 
ATOM     71  C   UNL A   1      42.094  21.123  26.873  1.00  0.00     0.054 A 
BRANCH  71  72
ATOM     72  S   UNL A   1      41.855  19.489  26.121  1.00  0.00     0.124 S 
ATOM     73  O   UNL A   1      42.745  19.554  24.967  1.00  0.00    -0.237 OA
ATOM     74  O   UNL A   1      42.270  18.586  27.193  1.00  0.00    -0.237 OA
ATOM     75  O   UNL A   1      40.427  19.461  25.812  1.00  0.00    -0.744 OA
ENDBRANCH  71  72
ENDBRANCH  43  66
BRANCH  55  76
ATOM     76  C   UNL A   1      47.521  26.715  31.654  1.00  0.00    -0.014 A 
ATOM     77  C   UNL A   1      48.708  27.037  30.972  1.00  0.00     0.010 A 
ATOM     78  C   UNL A   1      47.591  25.944  32.828  1.00  0.00     0.010 A 
ATOM     79  C   UNL A   1      49.936  26.555  31.428  1.00  0.00     0.020 A 
ATOM     80  C   UNL A   1      48.821  25.488  33.307  1.00  0.00     0.020 A 
ATOM     81  C   UNL A   1      49.984  25.779  32.592  1.00  0.00     0.054 A 
BRANCH  81  82
ATOM     82  S   UNL A   1      51.593  25.182  33.176  1.00  0.00     0.124 S 
ATOM     83  O   UNL A   1      51.288  23.800  33.540  1.00  0.00    -0.237 OA
ATOM     84  O   UNL A   1      52.444  25.349  32.001  1.00  0.00    -0.237 OA
ATOM     85  O   UNL A   1      51.906  26.066  34.296  1.00  0.00    -0.744 OA
ENDBRANCH  81  82
ENDBRANCH  55  76
ENDBRANCH  29  30
ENDBRANCH  21  24
ENDBRANCH  19  20
ENDBRANCH   1  19
TORSDOF 16
ENDMDL
MODEL 3
REMARK VINA RESULT:     -10.2      2.826      3.439
REMARK SMILES [NH3+][C@@H](Cc1ccncc1)C(=O)NCCCNC(=O)c1ccc(-c2c3nc(c(-c4ccc(S(=O)(=O)[O-])cc4)c4ccc([nH]4)c(-c4ccc(S(=O)(=O)[O-])cc4)c4nc(c(-c5ccc(S(=O)(=O)[O-])cc5)c5ccc2[nH]5)C=C4)C=C3)cc1
REMARK SMILES IDX 14 1 13 2 12 3 10 4 11 5 2 7 1 8 3 12 4 13 5 14 9 15 6 16
REMARK SMILES IDX 8 17 7 18 15 19 16 20 17 21 18 23 19 24 20 25 78 26 21 27
REMARK SMILES IDX 77 28 22 29 23 30 24 31 71 32 25 33 76 34 70 35 72 36 26 37
REMARK SMILES IDX 75 38 69 39 68 40 27 42 57 43 38 44 56 45 39 46 42 47 55 48
REMARK SMILES IDX 73 49 40 50 41 51 54 53 74 54 43 55 28 56 29 57 37 58 30 59
REMARK SMILES IDX 36 60 31 61 32 62 33 63 34 64 35 65 58 66 59 67 67 68 60 69
REMARK SMILES IDX 66 70 61 71 62 72 63 73 64 74 65 75 44 76 45 77 53 78 46 79
REMARK SMILES IDX 52 80 47 81 48 82 49 83 50 84 51 85
REMARK H PARENT 12 6 1 9 1 10 1 11 16 22 72 41 42 52
REMARK Flexibility Score: inf
ROOT
ATOM      1  C   UNL A   1      33.307  27.612  26.345  1.00  0.00     0.042 C 
ENDROOT
BRANCH   1   2
ATOM      2  C   UNL A   1      31.804  27.803  26.382  1.00  0.00     0.118 C 
BRANCH   2   3
ATOM      3  N   UNL A   1      31.053  26.983  25.473  1.00  0.00    -0.351 N 
ATOM      4  C   UNL A   1      30.606  27.304  24.223  1.00  0.00     0.278 C 
ATOM      5  O   UNL A   1      30.321  26.364  23.472  1.00  0.00    -0.268 OA
ATOM      6  H   UNL A   1      30.835  26.076  25.789  1.00  0.00     0.163 HD
BRANCH   4   7
ATOM      7  C   UNL A   1      30.412  28.776  23.755  1.00  0.00     0.275 C 
BRANCH   7   8
ATOM      8  N   UNL A   1      31.653  29.297  23.155  1.00  0.00    -0.347 N 
ATOM      9  H   UNL A   1      31.452  30.162  22.654  1.00  0.00     0.345 HD
ATOM     10  H   UNL A   1      32.031  28.607  22.505  1.00  0.00     0.345 HD
ATOM     11  H   UNL A   1      32.335  29.479  23.891  1.00  0.00     0.345 HD
ENDBRANCH   7   8
BRANCH   7  12
ATOM     12  C   UNL A   1      29.067  29.149  23.066  1.00  0.00     0.111 C 
BRANCH  12  13
ATOM     13  C   UNL A   1      28.751  30.534  22.532  1.00  0.00    -0.038 A 
ATOM     14  C   UNL A   1      28.412  30.797  21.198  1.00  0.00     0.024 A 
ATOM     15  C   UNL A   1      28.800  31.630  23.407  1.00  0.00     0.024 A 
ATOM     16  C   UNL A   1      28.027  32.084  20.838  1.00  0.00     0.111 A 
ATOM     17  C   UNL A   1      28.437  32.888  22.945  1.00  0.00     0.111 A 
ATOM     18  N   UNL A   1      28.028  33.131  21.685  1.00  0.00    -0.265 NA
ENDBRANCH  12  13
ENDBRANCH   7  12
ENDBRANCH   4   7
ENDBRANCH   2   3
ENDBRANCH   1   2
BRANCH   1  19
ATOM     19  C   UNL A   1      34.045  28.774  25.704  1.00  0.00     0.118 C 
BRANCH  19  20
ATOM     20  N   UNL A   1      33.738  30.070  26.304  1.00  0.00    -0.352 N 
ATOM     21  C   UNL A   1      34.364  30.788  27.290  1.00  0.00     0.251 C 
ATOM     22  H   UNL A   1      32.938  30.506  25.934  1.00  0.00     0.163 HD
ATOM     23  O   UNL A   1      33.873  31.859  27.644  1.00  0.00    -0.269 OA
BRANCH  21  24
ATOM     24  C   UNL A   1      35.583  30.281  27.955  1.00  0.00     0.039 A 
ATOM     25  C   UNL A   1      36.813  30.456  27.315  1.00  0.00     0.014 A 
ATOM     26  C   UNL A   1      35.532  29.640  29.192  1.00  0.00     0.014 A 
ATOM     27  C   UNL A   1      37.989  30.050  27.948  1.00  0.00     0.010 A 
ATOM     28  C   UNL A   1      36.707  29.360  29.877  1.00  0.00     0.010 A 
ATOM     29  C   UNL A   1      37.948  29.539  29.256  1.00  0.00    -0.014 A 
BRANCH  29  30
ATOM     30  C   UNL A   1      39.189  29.160  29.977  1.00  0.00     0.031 A 
ATOM     31  C   UNL A   1      39.573  29.874  31.247  1.00  0.00     0.074 A 
ATOM     32  C   UNL A   1      39.994  28.211  29.458  1.00  0.00     0.049 A 
ATOM     33  N   UNL A   1      40.629  29.704  32.000  1.00  0.00    -0.248 NA
ATOM     34  C   UNL A   1      38.675  30.946  31.715  1.00  0.00     0.031 C 
ATOM     35  C   UNL A   1      39.763  27.495  28.199  1.00  0.00     0.029 A 
ATOM     36  N   UNL A   1      41.170  27.683  29.926  1.00  0.00    -0.354 N 
ATOM     37  C   UNL A   1      40.531  30.655  33.010  1.00  0.00     0.074 A 
ATOM     38  C   UNL A   1      39.353  31.445  32.736  1.00  0.00     0.031 C 
ATOM     39  C   UNL A   1      40.735  26.587  28.024  1.00  0.00     0.029 A 
ATOM     40  C   UNL A   1      41.682  26.685  29.130  1.00  0.00     0.049 A 
ATOM     41  H   UNL A   1      41.606  27.988  30.754  1.00  0.00     0.167 HD
ATOM     42  C   UNL A   1      41.330  30.835  34.087  1.00  0.00     0.031 A 
ATOM     43  C   UNL A   1      42.785  25.928  29.277  1.00  0.00     0.031 A 
ATOM     44  C   UNL A   1      42.485  30.028  34.368  1.00  0.00     0.049 A 
ATOM     45  C   UNL A   1      43.646  26.132  30.494  1.00  0.00     0.074 A 
ATOM     46  C   UNL A   1      43.328  30.082  35.464  1.00  0.00     0.029 A 
ATOM     47  N   UNL A   1      42.959  29.015  33.549  1.00  0.00    -0.354 N 
ATOM     48  N   UNL A   1      43.495  26.989  31.476  1.00  0.00    -0.248 NA
ATOM     49  C   UNL A   1      44.815  25.254  30.630  1.00  0.00     0.031 C 
ATOM     50  C   UNL A   1      44.341  29.136  35.281  1.00  0.00     0.029 A 
ATOM     51  C   UNL A   1      44.094  28.449  34.103  1.00  0.00     0.049 A 
ATOM     52  H   UNL A   1      42.548  28.739  32.697  1.00  0.00     0.167 HD
ATOM     53  C   UNL A   1      44.536  26.734  32.363  1.00  0.00     0.074 A 
ATOM     54  C   UNL A   1      45.294  25.631  31.808  1.00  0.00     0.031 C 
ATOM     55  C   UNL A   1      44.837  27.355  33.530  1.00  0.00     0.031 A 
BRANCH  42  56
ATOM     56  C   UNL A   1      40.974  31.946  35.042  1.00  0.00    -0.014 A 
ATOM     57  C   UNL A   1      40.070  31.734  36.101  1.00  0.00     0.010 A 
ATOM     58  C   UNL A   1      41.571  33.211  34.899  1.00  0.00     0.010 A 
ATOM     59  C   UNL A   1      39.738  32.776  36.970  1.00  0.00     0.020 A 
ATOM     60  C   UNL A   1      41.265  34.248  35.786  1.00  0.00     0.020 A 
ATOM     61  C   UNL A   1      40.337  34.028  36.806  1.00  0.00     0.054 A 
BRANCH  61  62
ATOM     62  S   UNL A   1      39.907  35.355  37.964  1.00  0.00     0.124 S 
ATOM     63  O   UNL A   1      38.725  34.806  38.625  1.00  0.00    -0.237 OA
ATOM     64  O   UNL A   1      41.103  35.453  38.797  1.00  0.00    -0.237 OA
ATOM     65  O   UNL A   1      39.657  36.506  37.099  1.00  0.00    -0.744 OA
ENDBRANCH  61  62
ENDBRANCH  42  56
BRANCH  43  66
ATOM     66  C   UNL A   1      43.118  24.889  28.264  1.00  0.00    -0.014 A 
ATOM     67  C   UNL A   1      42.711  23.555  28.449  1.00  0.00     0.010 A 
ATOM     68  C   UNL A   1      43.831  25.231  27.100  1.00  0.00     0.010 A 
ATOM     69  C   UNL A   1      43.031  22.579  27.500  1.00  0.00     0.020 A 
ATOM     70  C   UNL A   1      44.126  24.263  26.135  1.00  0.00     0.020 A 
ATOM     71  C   UNL A   1      43.735  22.940  26.348  1.00  0.00     0.054 A 
BRANCH  71  72
ATOM     72  S   UNL A   1      44.098  21.666  25.108  1.00  0.00     0.124 S 
ATOM     73  O   UNL A   1      43.985  22.415  23.861  1.00  0.00    -0.237 OA
ATOM     74  O   UNL A   1      45.450  21.247  25.475  1.00  0.00    -0.237 OA
ATOM     75  O   UNL A   1      43.061  20.662  25.335  1.00  0.00    -0.744 OA
ENDBRANCH  71  72
ENDBRANCH  43  66
BRANCH  55  76
ATOM     76  C   UNL A   1      46.019  26.831  34.301  1.00  0.00    -0.014 A 
ATOM     77  C   UNL A   1      47.310  27.358  34.109  1.00  0.00     0.010 A 
ATOM     78  C   UNL A   1      45.827  25.819  35.258  1.00  0.00     0.010 A 
ATOM     79  C   UNL A   1      48.393  26.847  34.826  1.00  0.00     0.020 A 
ATOM     80  C   UNL A   1      46.902  25.328  36.001  1.00  0.00     0.020 A 
ATOM     81  C   UNL A   1      48.183  25.832  35.765  1.00  0.00     0.054 A 
BRANCH  81  82
ATOM     82  S   UNL A   1      49.603  25.198  36.698  1.00  0.00     0.124 S 
ATOM     83  O   UNL A   1      50.416  24.601  35.641  1.00  0.00    -0.237 OA
ATOM     84  O   UNL A   1      50.152  26.407  37.306  1.00  0.00    -0.237 OA
ATOM     85  O   UNL A   1      49.007  24.250  37.636  1.00  0.00    -0.744 OA
ENDBRANCH  81  82
ENDBRANCH  55  76
ENDBRANCH  29  30
ENDBRANCH  21  24
ENDBRANCH  19  20
ENDBRANCH   1  19
TORSDOF 16
ENDMDL
