MODEL 1
REMARK VINA RESULT:     -11.4      0.000      0.000
REMARK SMILES COCC[C@@]1(C(=O)NCCCNC(=O)c2ccc(-c3c4nc(c(-c5ccc(S(=O)(=O)[O-])cc5)c5ccc([nH]5)c(-c5ccc(S(=O)(=O)[O-])cc5)c5nc(c(-c6ccc(S(=O)(=O)[O-])cc6)c6ccc3[nH]6)C=C5)C=C4)cc2)CCCN(C(=O)NCc2ccc(OC)cc2)C1
REMARK SMILES IDX 9 1 8 2 6 3 7 4 5 6 75 7 91 8 76 9 78 10 77 11 4 12 3 13
REMARK SMILES IDX 2 14 1 15 79 16 80 17 81 18 82 20 83 21 84 22 90 23 85 24
REMARK SMILES IDX 89 25 86 26 87 27 88 28 10 29 11 30 12 31 13 32 14 34 15 35
REMARK SMILES IDX 16 36 74 37 17 38 73 39 18 40 19 41 20 42 67 43 21 44 72 45
REMARK SMILES IDX 66 46 68 47 22 48 71 49 65 50 64 51 23 53 53 54 34 55 52 56
REMARK SMILES IDX 35 57 38 58 51 59 69 60 36 61 37 62 50 64 70 65 39 66 24 67
REMARK SMILES IDX 25 68 33 69 26 70 32 71 27 72 28 73 29 74 30 75 31 76 54 77
REMARK SMILES IDX 55 78 63 79 56 80 62 81 57 82 58 83 59 84 60 85 61 86 40 87
REMARK SMILES IDX 41 88 49 89 42 90 48 91 43 92 44 93 45 94 46 95 47 96
REMARK H PARENT 8 5 81 19 12 33 68 52 38 63
REMARK Flexibility Score: inf
ROOT
ATOM      1  C   UNL A   1      34.640  24.411  24.947  1.00  0.00     0.117 C 
ENDROOT
BRANCH   1   2
ATOM      2  N   UNL A   1      34.366  24.606  23.549  1.00  0.00    -0.355 N 
ATOM      3  C   UNL A   1      33.546  25.459  22.896  1.00  0.00     0.228 C 
ATOM      4  O   UNL A   1      33.781  25.525  21.679  1.00  0.00    -0.274 OA
ATOM      5  H   UNL A   1      34.872  24.005  22.956  1.00  0.00     0.163 HD
BRANCH   3   6
ATOM      6  C   UNL A   1      32.301  26.203  23.479  1.00  0.00     0.069 C 
ATOM      7  C   UNL A   1      32.883  27.416  24.274  1.00  0.00     0.021 C 
ATOM      8  C   UNL A   1      31.311  25.448  24.395  1.00  0.00     0.138 C 
ATOM      9  C   UNL A   1      33.397  27.007  25.663  1.00  0.00     0.023 C 
ATOM     10  N   UNL A   1      31.844  25.132  25.726  1.00  0.00    -0.324 N 
ATOM     11  C   UNL A   1      32.300  26.305  26.450  1.00  0.00     0.121 C 
BRANCH   6  12
ATOM     12  C   UNL A   1      31.553  26.690  22.188  1.00  0.00     0.047 C 
BRANCH  12  13
ATOM     13  C   UNL A   1      30.688  27.954  22.270  1.00  0.00     0.161 C 
BRANCH  13  14
ATOM     14  O   UNL A   1      29.484  27.725  22.993  1.00  0.00    -0.385 OA
ATOM     15  C   UNL A   1      28.551  28.795  22.943  1.00  0.00     0.194 C 
ENDBRANCH  13  14
ENDBRANCH  12  13
ENDBRANCH   6  12
BRANCH  10  16
ATOM     16  C   UNL A   1      31.636  23.877  26.211  1.00  0.00     0.317 C 
ATOM     17  O   UNL A   1      31.403  23.674  27.408  1.00  0.00    -0.249 OA
ATOM     18  N   UNL A   1      31.515  22.799  25.435  1.00  0.00    -0.334 N 
ATOM     19  H   UNL A   1      31.079  22.063  25.922  1.00  0.00     0.165 HD
BRANCH  18  20
ATOM     20  C   UNL A   1      31.840  22.398  24.082  1.00  0.00     0.153 C 
BRANCH  20  21
ATOM     21  C   UNL A   1      32.274  20.953  24.143  1.00  0.00    -0.028 A 
ATOM     22  C   UNL A   1      32.601  20.326  25.348  1.00  0.00     0.009 A 
ATOM     23  C   UNL A   1      32.207  20.177  22.974  1.00  0.00     0.009 A 
ATOM     24  C   UNL A   1      32.845  18.948  25.376  1.00  0.00     0.047 A 
ATOM     25  C   UNL A   1      32.436  18.802  23.008  1.00  0.00     0.047 A 
ATOM     26  C   UNL A   1      32.757  18.179  24.211  1.00  0.00     0.118 A 
BRANCH  26  27
ATOM     27  O   UNL A   1      32.996  16.842  24.377  1.00  0.00    -0.497 OA
ATOM     28  C   UNL A   1      32.808  16.326  25.691  1.00  0.00     0.278 C 
ENDBRANCH  26  27
ENDBRANCH  20  21
ENDBRANCH  18  20
ENDBRANCH  10  16
ENDBRANCH   3   6
ENDBRANCH   1   2
BRANCH   1  29
ATOM     29  C   UNL A   1      35.592  23.272  25.233  1.00  0.00     0.042 C 
BRANCH  29  30
ATOM     30  C   UNL A   1      37.030  23.664  24.962  1.00  0.00     0.118 C 
BRANCH  30  31
ATOM     31  N   UNL A   1      37.982  22.686  25.488  1.00  0.00    -0.352 N 
ATOM     32  C   UNL A   1      39.104  22.869  26.261  1.00  0.00     0.251 C 
ATOM     33  H   UNL A   1      37.788  21.750  25.252  1.00  0.00     0.163 HD
ATOM     34  O   UNL A   1      39.876  21.942  26.450  1.00  0.00    -0.269 OA
BRANCH  32  35
ATOM     35  C   UNL A   1      39.368  24.203  26.835  1.00  0.00     0.039 A 
ATOM     36  C   UNL A   1      38.973  24.472  28.146  1.00  0.00     0.014 A 
ATOM     37  C   UNL A   1      40.038  25.170  26.084  1.00  0.00     0.014 A 
ATOM     38  C   UNL A   1      39.319  25.692  28.726  1.00  0.00     0.010 A 
ATOM     39  C   UNL A   1      40.488  26.325  26.700  1.00  0.00     0.010 A 
ATOM     40  C   UNL A   1      40.116  26.609  28.021  1.00  0.00    -0.014 A 
BRANCH  40  41
ATOM     41  C   UNL A   1      40.550  27.891  28.624  1.00  0.00     0.031 A 
ATOM     42  C   UNL A   1      41.957  28.022  29.148  1.00  0.00     0.074 A 
ATOM     43  C   UNL A   1      39.663  28.896  28.769  1.00  0.00     0.049 A 
ATOM     44  N   UNL A   1      42.508  29.023  29.782  1.00  0.00    -0.248 NA
ATOM     45  C   UNL A   1      42.852  26.864  28.971  1.00  0.00     0.031 C 
ATOM     46  C   UNL A   1      38.258  28.860  28.346  1.00  0.00     0.029 A 
ATOM     47  N   UNL A   1      39.809  30.144  29.315  1.00  0.00    -0.354 N 
ATOM     48  C   UNL A   1      43.792  28.602  30.108  1.00  0.00     0.074 A 
ATOM     49  C   UNL A   1      43.924  27.239  29.650  1.00  0.00     0.031 C 
ATOM     50  C   UNL A   1      37.687  30.046  28.613  1.00  0.00     0.029 A 
ATOM     51  C   UNL A   1      38.665  30.907  29.266  1.00  0.00     0.049 A 
ATOM     52  H   UNL A   1      40.654  30.465  29.705  1.00  0.00     0.167 HD
ATOM     53  C   UNL A   1      44.780  29.298  30.713  1.00  0.00     0.031 A 
ATOM     54  C   UNL A   1      38.433  32.160  29.705  1.00  0.00     0.031 A 
ATOM     55  C   UNL A   1      44.652  30.670  31.121  1.00  0.00     0.049 A 
ATOM     56  C   UNL A   1      39.558  32.915  30.361  1.00  0.00     0.074 A 
ATOM     57  C   UNL A   1      45.620  31.498  31.660  1.00  0.00     0.029 A 
ATOM     58  N   UNL A   1      43.486  31.415  31.033  1.00  0.00    -0.354 N 
ATOM     59  N   UNL A   1      40.794  32.529  30.579  1.00  0.00    -0.248 NA
ATOM     60  C   UNL A   1      39.263  34.278  30.821  1.00  0.00     0.031 C 
ATOM     61  C   UNL A   1      45.023  32.727  31.952  1.00  0.00     0.029 A 
ATOM     62  C   UNL A   1      43.702  32.685  31.535  1.00  0.00     0.049 A 
ATOM     63  H   UNL A   1      42.633  31.088  30.666  1.00  0.00     0.167 HD
ATOM     64  C   UNL A   1      41.430  33.615  31.168  1.00  0.00     0.074 A 
ATOM     65  C   UNL A   1      40.449  34.678  31.257  1.00  0.00     0.031 C 
ATOM     66  C   UNL A   1      42.711  33.729  31.598  1.00  0.00     0.031 A 
BRANCH  53  67
ATOM     67  C   UNL A   1      46.088  28.598  30.969  1.00  0.00    -0.014 A 
ATOM     68  C   UNL A   1      46.316  27.888  32.162  1.00  0.00     0.010 A 
ATOM     69  C   UNL A   1      47.076  28.589  29.968  1.00  0.00     0.010 A 
ATOM     70  C   UNL A   1      47.516  27.199  32.357  1.00  0.00     0.020 A 
ATOM     71  C   UNL A   1      48.266  27.878  30.147  1.00  0.00     0.020 A 
ATOM     72  C   UNL A   1      48.481  27.195  31.345  1.00  0.00     0.054 A 
BRANCH  72  73
ATOM     73  S   UNL A   1      50.000  26.236  31.599  1.00  0.00     0.124 S 
ATOM     74  O   UNL A   1      51.017  27.284  31.624  1.00  0.00    -0.237 OA
ATOM     75  O   UNL A   1      49.748  25.574  32.877  1.00  0.00    -0.237 OA
ATOM     76  O   UNL A   1      50.049  25.348  30.440  1.00  0.00    -0.744 OA
ENDBRANCH  72  73
ENDBRANCH  53  67
BRANCH  54  77
ATOM     77  C   UNL A   1      37.094  32.789  29.531  1.00  0.00    -0.014 A 
ATOM     78  C   UNL A   1      36.754  33.416  28.318  1.00  0.00     0.010 A 
ATOM     79  C   UNL A   1      36.163  32.795  30.585  1.00  0.00     0.010 A 
ATOM     80  C   UNL A   1      35.528  34.073  28.178  1.00  0.00     0.020 A 
ATOM     81  C   UNL A   1      34.922  33.423  30.437  1.00  0.00     0.020 A 
ATOM     82  C   UNL A   1      34.622  34.077  29.241  1.00  0.00     0.054 A 
BRANCH  82  83
ATOM     83  S   UNL A   1      33.036  34.935  29.037  1.00  0.00     0.124 S 
ATOM     84  O   UNL A   1      32.491  34.890  30.390  1.00  0.00    -0.237 OA
ATOM     85  O   UNL A   1      33.449  36.253  28.564  1.00  0.00    -0.237 OA
ATOM     86  O   UNL A   1      32.332  34.119  28.050  1.00  0.00    -0.744 OA
ENDBRANCH  82  83
ENDBRANCH  54  77
BRANCH  66  87
ATOM     87  C   UNL A   1      43.141  35.058  32.155  1.00  0.00    -0.014 A 
ATOM     88  C   UNL A   1      43.794  36.010  31.353  1.00  0.00     0.010 A 
ATOM     89  C   UNL A   1      42.828  35.378  33.489  1.00  0.00     0.010 A 
ATOM     90  C   UNL A   1      44.157  37.248  31.887  1.00  0.00     0.020 A 
ATOM     91  C   UNL A   1      43.160  36.627  34.016  1.00  0.00     0.020 A 
ATOM     92  C   UNL A   1      43.836  37.550  33.215  1.00  0.00     0.054 A 
BRANCH  92  93
ATOM     93  S   UNL A   1      44.277  39.182  33.869  1.00  0.00     0.124 S 
ATOM     94  O   UNL A   1      42.984  39.860  33.889  1.00  0.00    -0.237 OA
ATOM     95  O   UNL A   1      44.839  38.861  35.180  1.00  0.00    -0.237 OA
ATOM     96  O   UNL A   1      45.237  39.698  32.896  1.00  0.00    -0.744 OA
ENDBRANCH  92  93
ENDBRANCH  66  87
ENDBRANCH  40  41
ENDBRANCH  32  35
ENDBRANCH  30  31
ENDBRANCH  29  30
ENDBRANCH   1  29
TORSDOF 20
ENDMDL
MODEL 2
REMARK VINA RESULT:     -10.7      2.233      2.858
REMARK SMILES COCC[C@@]1(C(=O)NCCCNC(=O)c2ccc(-c3c4nc(c(-c5ccc(S(=O)(=O)[O-])cc5)c5ccc([nH]5)c(-c5ccc(S(=O)(=O)[O-])cc5)c5nc(c(-c6ccc(S(=O)(=O)[O-])cc6)c6ccc3[nH]6)C=C5)C=C4)cc2)CCCN(C(=O)NCc2ccc(OC)cc2)C1
REMARK SMILES IDX 9 1 8 2 6 3 7 4 5 6 75 7 91 8 76 9 78 10 77 11 4 12 3 13
REMARK SMILES IDX 2 14 1 15 79 16 80 17 81 18 82 20 83 21 84 22 90 23 85 24
REMARK SMILES IDX 89 25 86 26 87 27 88 28 10 29 11 30 12 31 13 32 14 34 15 35
REMARK SMILES IDX 16 36 74 37 17 38 73 39 18 40 19 41 20 42 67 43 21 44 72 45
REMARK SMILES IDX 66 46 68 47 22 48 71 49 65 50 64 51 23 53 53 54 34 55 52 56
REMARK SMILES IDX 35 57 38 58 51 59 69 60 36 61 37 62 50 64 70 65 39 66 24 67
REMARK SMILES IDX 25 68 33 69 26 70 32 71 27 72 28 73 29 74 30 75 31 76 54 77
REMARK SMILES IDX 55 78 63 79 56 80 62 81 57 82 58 83 59 84 60 85 61 86 40 87
REMARK SMILES IDX 41 88 49 89 42 90 48 91 43 92 44 93 45 94 46 95 47 96
REMARK H PARENT 8 5 81 19 12 33 68 52 38 63
REMARK Flexibility Score: inf
ROOT
ATOM      1  C   UNL A   1      35.025  24.038  24.541  1.00  0.00     0.117 C 
ENDROOT
BRANCH   1   2
ATOM      2  N   UNL A   1      34.468  24.126  23.219  1.00  0.00    -0.355 N 
ATOM      3  C   UNL A   1      33.542  24.947  22.678  1.00  0.00     0.228 C 
ATOM      4  O   UNL A   1      33.518  24.905  21.437  1.00  0.00    -0.274 OA
ATOM      5  H   UNL A   1      34.832  23.463  22.588  1.00  0.00     0.163 HD
BRANCH   3   6
ATOM      6  C   UNL A   1      32.454  25.774  23.438  1.00  0.00     0.069 C 
ATOM      7  C   UNL A   1      33.243  26.895  24.189  1.00  0.00     0.021 C 
ATOM      8  C   UNL A   1      31.519  25.072  24.449  1.00  0.00     0.138 C 
ATOM      9  C   UNL A   1      33.885  26.382  25.488  1.00  0.00     0.023 C 
ATOM     10  N   UNL A   1      32.182  24.653  25.690  1.00  0.00    -0.324 N 
ATOM     11  C   UNL A   1      32.834  25.748  26.386  1.00  0.00     0.121 C 
BRANCH   6  12
ATOM     12  C   UNL A   1      31.601  26.381  22.269  1.00  0.00     0.047 C 
BRANCH  12  13
ATOM     13  C   UNL A   1      31.173  27.851  22.355  1.00  0.00     0.161 C 
BRANCH  13  14
ATOM     14  O   UNL A   1      29.759  27.995  22.295  1.00  0.00    -0.385 OA
ATOM     15  C   UNL A   1      29.256  29.163  22.930  1.00  0.00     0.194 C 
ENDBRANCH  13  14
ENDBRANCH  12  13
ENDBRANCH   6  12
BRANCH  10  16
ATOM     16  C   UNL A   1      31.919  23.402  26.159  1.00  0.00     0.317 C 
ATOM     17  O   UNL A   1      31.704  23.190  27.358  1.00  0.00    -0.249 OA
ATOM     18  N   UNL A   1      31.721  22.346  25.367  1.00  0.00    -0.334 N 
ATOM     19  H   UNL A   1      31.258  21.626  25.852  1.00  0.00     0.165 HD
BRANCH  18  20
ATOM     20  C   UNL A   1      31.991  21.954  24.000  1.00  0.00     0.153 C 
BRANCH  20  21
ATOM     21  C   UNL A   1      32.830  20.700  24.059  1.00  0.00    -0.028 A 
ATOM     22  C   UNL A   1      34.086  20.675  24.671  1.00  0.00     0.009 A 
ATOM     23  C   UNL A   1      32.271  19.491  23.614  1.00  0.00     0.009 A 
ATOM     24  C   UNL A   1      34.759  19.460  24.840  1.00  0.00     0.047 A 
ATOM     25  C   UNL A   1      32.938  18.279  23.798  1.00  0.00     0.047 A 
ATOM     26  C   UNL A   1      34.186  18.258  24.412  1.00  0.00     0.118 A 
BRANCH  26  27
ATOM     27  O   UNL A   1      34.935  17.138  24.656  1.00  0.00    -0.497 OA
ATOM     28  C   UNL A   1      34.215  15.967  25.028  1.00  0.00     0.278 C 
ENDBRANCH  26  27
ENDBRANCH  20  21
ENDBRANCH  18  20
ENDBRANCH  10  16
ENDBRANCH   3   6
ENDBRANCH   1   2
BRANCH   1  29
ATOM     29  C   UNL A   1      36.398  23.408  24.590  1.00  0.00     0.042 C 
BRANCH  29  30
ATOM     30  C   UNL A   1      36.779  23.005  25.999  1.00  0.00     0.118 C 
BRANCH  30  31
ATOM     31  N   UNL A   1      37.844  22.002  26.023  1.00  0.00    -0.352 N 
ATOM     32  C   UNL A   1      39.187  22.142  26.279  1.00  0.00     0.251 C 
ATOM     33  H   UNL A   1      37.552  21.082  25.825  1.00  0.00     0.163 HD
ATOM     34  O   UNL A   1      39.951  21.213  26.073  1.00  0.00    -0.269 OA
BRANCH  32  35
ATOM     35  C   UNL A   1      39.688  23.437  26.782  1.00  0.00     0.039 A 
ATOM     36  C   UNL A   1      40.465  23.464  27.941  1.00  0.00     0.014 A 
ATOM     37  C   UNL A   1      39.416  24.614  26.083  1.00  0.00     0.014 A 
ATOM     38  C   UNL A   1      41.030  24.670  28.356  1.00  0.00     0.010 A 
ATOM     39  C   UNL A   1      40.079  25.781  26.424  1.00  0.00     0.010 A 
ATOM     40  C   UNL A   1      40.875  25.827  27.575  1.00  0.00    -0.014 A 
BRANCH  40  41
ATOM     41  C   UNL A   1      41.507  27.114  27.954  1.00  0.00     0.031 A 
ATOM     42  C   UNL A   1      42.990  27.293  27.762  1.00  0.00     0.074 A 
ATOM     43  C   UNL A   1      40.764  28.077  28.537  1.00  0.00     0.049 A 
ATOM     44  N   UNL A   1      43.747  28.303  28.102  1.00  0.00    -0.248 NA
ATOM     45  C   UNL A   1      43.729  26.178  27.140  1.00  0.00     0.031 C 
ATOM     46  C   UNL A   1      39.327  27.990  28.822  1.00  0.00     0.029 A 
ATOM     47  N   UNL A   1      41.115  29.318  28.999  1.00  0.00    -0.354 N 
ATOM     48  C   UNL A   1      45.045  27.930  27.771  1.00  0.00     0.074 A 
ATOM     49  C   UNL A   1      44.984  26.585  27.252  1.00  0.00     0.031 C 
ATOM     50  C   UNL A   1      38.916  29.144  29.370  1.00  0.00     0.029 A 
ATOM     51  C   UNL A   1      40.062  30.032  29.522  1.00  0.00     0.049 A 
ATOM     52  H   UNL A   1      42.035  29.666  28.960  1.00  0.00     0.167 HD
ATOM     53  C   UNL A   1      46.181  28.655  27.869  1.00  0.00     0.031 A 
ATOM     54  C   UNL A   1      40.030  31.264  30.067  1.00  0.00     0.031 A 
ATOM     55  C   UNL A   1      46.223  30.011  28.343  1.00  0.00     0.049 A 
ATOM     56  C   UNL A   1      41.310  32.052  30.148  1.00  0.00     0.074 A 
ATOM     57  C   UNL A   1      47.307  30.867  28.397  1.00  0.00     0.029 A 
ATOM     58  N   UNL A   1      45.132  30.707  28.840  1.00  0.00    -0.354 N 
ATOM     59  N   UNL A   1      42.513  31.715  29.746  1.00  0.00    -0.248 NA
ATOM     60  C   UNL A   1      41.228  33.392  30.745  1.00  0.00     0.031 C 
ATOM     61  C   UNL A   1      46.884  32.063  28.982  1.00  0.00     0.029 A 
ATOM     62  C   UNL A   1      45.523  31.974  29.231  1.00  0.00     0.049 A 
ATOM     63  H   UNL A   1      44.216  30.352  28.904  1.00  0.00     0.167 HD
ATOM     64  C   UNL A   1      43.321  32.814  30.009  1.00  0.00     0.074 A 
ATOM     65  C   UNL A   1      42.468  33.832  30.589  1.00  0.00     0.031 C 
ATOM     66  C   UNL A   1      44.650  32.973  29.792  1.00  0.00     0.031 A 
BRANCH  53  67
ATOM     67  C   UNL A   1      47.475  28.005  27.454  1.00  0.00    -0.014 A 
ATOM     68  C   UNL A   1      47.958  28.112  26.137  1.00  0.00     0.010 A 
ATOM     69  C   UNL A   1      48.255  27.339  28.417  1.00  0.00     0.010 A 
ATOM     70  C   UNL A   1      49.187  27.549  25.787  1.00  0.00     0.020 A 
ATOM     71  C   UNL A   1      49.498  26.798  28.077  1.00  0.00     0.020 A 
ATOM     72  C   UNL A   1      49.952  26.900  26.761  1.00  0.00     0.054 A 
BRANCH  72  73
ATOM     73  S   UNL A   1      51.574  26.237  26.291  1.00  0.00     0.124 S 
ATOM     74  O   UNL A   1      52.482  27.107  27.035  1.00  0.00    -0.237 OA
ATOM     75  O   UNL A   1      51.503  24.856  26.760  1.00  0.00    -0.237 OA
ATOM     76  O   UNL A   1      51.608  26.399  24.839  1.00  0.00    -0.744 OA
ENDBRANCH  72  73
ENDBRANCH  53  67
BRANCH  54  77
ATOM     77  C   UNL A   1      38.749  31.840  30.566  1.00  0.00    -0.014 A 
ATOM     78  C   UNL A   1      37.901  32.550  29.697  1.00  0.00     0.010 A 
ATOM     79  C   UNL A   1      38.384  31.709  31.918  1.00  0.00     0.010 A 
ATOM     80  C   UNL A   1      36.737  33.156  30.179  1.00  0.00     0.020 A 
ATOM     81  C   UNL A   1      37.203  32.285  32.397  1.00  0.00     0.020 A 
ATOM     82  C   UNL A   1      36.398  33.024  31.527  1.00  0.00     0.054 A 
BRANCH  82  83
ATOM     83  S   UNL A   1      34.882  33.818  32.131  1.00  0.00     0.124 S 
ATOM     84  O   UNL A   1      34.004  32.671  32.342  1.00  0.00    -0.237 OA
ATOM     85  O   UNL A   1      35.340  34.496  33.339  1.00  0.00    -0.237 OA
ATOM     86  O   UNL A   1      34.501  34.704  31.033  1.00  0.00    -0.744 OA
ENDBRANCH  82  83
ENDBRANCH  54  77
BRANCH  66  87
ATOM     87  C   UNL A   1      45.255  34.307  30.135  1.00  0.00    -0.014 A 
ATOM     88  C   UNL A   1      45.819  34.551  31.399  1.00  0.00     0.010 A 
ATOM     89  C   UNL A   1      45.310  35.310  29.150  1.00  0.00     0.010 A 
ATOM     90  C   UNL A   1      46.400  35.789  31.682  1.00  0.00     0.020 A 
ATOM     91  C   UNL A   1      45.919  36.537  29.419  1.00  0.00     0.020 A 
ATOM     92  C   UNL A   1      46.447  36.774  30.690  1.00  0.00     0.054 A 
BRANCH  92  93
ATOM     93  S   UNL A   1      47.248  38.355  31.068  1.00  0.00     0.124 S 
ATOM     94  O   UNL A   1      48.625  38.106  30.650  1.00  0.00    -0.237 OA
ATOM     95  O   UNL A   1      46.500  39.300  30.241  1.00  0.00    -0.237 OA
ATOM     96  O   UNL A   1      47.052  38.507  32.508  1.00  0.00    -0.744 OA
ENDBRANCH  92  93
ENDBRANCH  66  87
ENDBRANCH  40  41
ENDBRANCH  32  35
ENDBRANCH  30  31
ENDBRANCH  29  30
ENDBRANCH   1  29
TORSDOF 20
ENDMDL
MODEL 3
REMARK VINA RESULT:     -10.1      2.165      8.075
REMARK SMILES COCC[C@@]1(C(=O)NCCCNC(=O)c2ccc(-c3c4nc(c(-c5ccc(S(=O)(=O)[O-])cc5)c5ccc([nH]5)c(-c5ccc(S(=O)(=O)[O-])cc5)c5nc(c(-c6ccc(S(=O)(=O)[O-])cc6)c6ccc3[nH]6)C=C5)C=C4)cc2)CCCN(C(=O)NCc2ccc(OC)cc2)C1
REMARK SMILES IDX 9 1 8 2 6 3 7 4 5 6 75 7 91 8 76 9 78 10 77 11 4 12 3 13
REMARK SMILES IDX 2 14 1 15 79 16 80 17 81 18 82 20 83 21 84 22 90 23 85 24
REMARK SMILES IDX 89 25 86 26 87 27 88 28 10 29 11 30 12 31 13 32 14 34 15 35
REMARK SMILES IDX 16 36 74 37 17 38 73 39 18 40 19 41 20 42 67 43 21 44 72 45
REMARK SMILES IDX 66 46 68 47 22 48 71 49 65 50 64 51 23 53 53 54 34 55 52 56
REMARK SMILES IDX 35 57 38 58 51 59 69 60 36 61 37 62 50 64 70 65 39 66 24 67
REMARK SMILES IDX 25 68 33 69 26 70 32 71 27 72 28 73 29 74 30 75 31 76 54 77
REMARK SMILES IDX 55 78 63 79 56 80 62 81 57 82 58 83 59 84 60 85 61 86 40 87
REMARK SMILES IDX 41 88 49 89 42 90 48 91 43 92 44 93 45 94 46 95 47 96
REMARK H PARENT 8 5 81 19 12 33 68 52 38 63
REMARK Flexibility Score: inf
ROOT
ATOM      1  C   UNL A   1      34.995  23.713  24.005  1.00  0.00     0.117 C 
ENDROOT
BRANCH   1   2
ATOM      2  N   UNL A   1      34.311  24.029  22.781  1.00  0.00    -0.355 N 
ATOM      3  C   UNL A   1      33.537  25.077  22.419  1.00  0.00     0.228 C 
ATOM      4  O   UNL A   1      33.348  25.142  21.194  1.00  0.00    -0.274 OA
ATOM      5  H   UNL A   1      34.429  23.357  22.073  1.00  0.00     0.163 HD
BRANCH   3   6
ATOM      6  C   UNL A   1      32.775  26.059  23.366  1.00  0.00     0.069 C 
ATOM      7  C   UNL A   1      33.859  26.600  24.354  1.00  0.00     0.021 C 
ATOM      8  C   UNL A   1      31.570  25.554  24.193  1.00  0.00     0.138 C 
ATOM      9  C   UNL A   1      34.161  25.606  25.485  1.00  0.00     0.023 C 
ATOM     10  N   UNL A   1      31.931  24.649  25.290  1.00  0.00    -0.324 N 
ATOM     11  C   UNL A   1      32.883  25.232  26.220  1.00  0.00     0.121 C 
BRANCH   6  12
ATOM     12  C   UNL A   1      32.301  27.188  22.385  1.00  0.00     0.047 C 
BRANCH  12  13
ATOM     13  C   UNL A   1      31.468  28.349  22.944  1.00  0.00     0.161 C 
BRANCH  13  14
ATOM     14  O   UNL A   1      30.080  28.179  22.679  1.00  0.00    -0.385 OA
ATOM     15  C   UNL A   1      29.395  29.372  22.324  1.00  0.00     0.194 C 
ENDBRANCH  13  14
ENDBRANCH  12  13
ENDBRANCH   6  12
BRANCH  10  16
ATOM     16  C   UNL A   1      31.189  23.519  25.451  1.00  0.00     0.317 C 
ATOM     17  O   UNL A   1      30.321  23.431  26.328  1.00  0.00    -0.249 OA
ATOM     18  N   UNL A   1      31.222  22.490  24.602  1.00  0.00    -0.334 N 
ATOM     19  H   UNL A   1      30.425  21.922  24.708  1.00  0.00     0.165 HD
BRANCH  18  20
ATOM     20  C   UNL A   1      32.091  21.968  23.570  1.00  0.00     0.153 C 
BRANCH  20  21
ATOM     21  C   UNL A   1      32.259  20.492  23.839  1.00  0.00    -0.028 A 
ATOM     22  C   UNL A   1      32.281  19.546  22.810  1.00  0.00     0.009 A 
ATOM     23  C   UNL A   1      32.546  20.072  25.148  1.00  0.00     0.009 A 
ATOM     24  C   UNL A   1      32.594  18.212  23.091  1.00  0.00     0.047 A 
ATOM     25  C   UNL A   1      32.873  18.743  25.423  1.00  0.00     0.047 A 
ATOM     26  C   UNL A   1      32.899  17.806  24.394  1.00  0.00     0.118 A 
BRANCH  26  27
ATOM     27  O   UNL A   1      33.210  16.480  24.533  1.00  0.00    -0.497 OA
ATOM     28  C   UNL A   1      34.577  16.178  24.793  1.00  0.00     0.278 C 
ENDBRANCH  26  27
ENDBRANCH  20  21
ENDBRANCH  18  20
ENDBRANCH  10  16
ENDBRANCH   3   6
ENDBRANCH   1   2
BRANCH   1  29
ATOM     29  C   UNL A   1      36.393  23.173  23.807  1.00  0.00     0.042 C 
BRANCH  29  30
ATOM     30  C   UNL A   1      37.286  23.485  24.989  1.00  0.00     0.118 C 
BRANCH  30  31
ATOM     31  N   UNL A   1      38.031  22.313  25.448  1.00  0.00    -0.352 N 
ATOM     32  C   UNL A   1      39.203  22.232  26.163  1.00  0.00     0.251 C 
ATOM     33  H   UNL A   1      37.631  21.446  25.208  1.00  0.00     0.163 HD
ATOM     34  O   UNL A   1      39.767  21.158  26.296  1.00  0.00    -0.269 OA
BRANCH  32  35
ATOM     35  C   UNL A   1      39.772  23.464  26.744  1.00  0.00     0.039 A 
ATOM     36  C   UNL A   1      40.504  23.385  27.930  1.00  0.00     0.014 A 
ATOM     37  C   UNL A   1      39.610  24.688  26.092  1.00  0.00     0.014 A 
ATOM     38  C   UNL A   1      41.134  24.528  28.421  1.00  0.00     0.010 A 
ATOM     39  C   UNL A   1      40.338  25.789  26.510  1.00  0.00     0.010 A 
ATOM     40  C   UNL A   1      41.091  25.727  27.690  1.00  0.00    -0.014 A 
BRANCH  40  41
ATOM     41  C   UNL A   1      41.794  26.948  28.151  1.00  0.00     0.031 A 
ATOM     42  C   UNL A   1      40.997  28.082  28.740  1.00  0.00     0.074 A 
ATOM     43  C   UNL A   1      43.125  27.062  27.964  1.00  0.00     0.049 A 
ATOM     44  N   UNL A   1      41.408  29.262  29.125  1.00  0.00    -0.248 NA
ATOM     45  C   UNL A   1      39.543  27.881  28.883  1.00  0.00     0.031 C 
ATOM     46  C   UNL A   1      43.990  26.047  27.353  1.00  0.00     0.029 A 
ATOM     47  N   UNL A   1      43.984  28.085  28.267  1.00  0.00    -0.354 N 
ATOM     48  C   UNL A   1      40.264  29.949  29.517  1.00  0.00     0.074 A 
ATOM     49  C   UNL A   1      39.138  29.078  29.277  1.00  0.00     0.031 C 
ATOM     50  C   UNL A   1      45.259  26.484  27.366  1.00  0.00     0.029 A 
ATOM     51  C   UNL A   1      45.295  27.824  27.938  1.00  0.00     0.049 A 
ATOM     52  H   UNL A   1      43.691  28.929  28.682  1.00  0.00     0.167 HD
ATOM     53  C   UNL A   1      40.166  31.187  30.052  1.00  0.00     0.031 A 
ATOM     54  C   UNL A   1      46.397  28.586  28.079  1.00  0.00     0.031 A 
ATOM     55  C   UNL A   1      41.299  32.026  30.331  1.00  0.00     0.049 A 
ATOM     56  C   UNL A   1      46.257  29.954  28.692  1.00  0.00     0.074 A 
ATOM     57  C   UNL A   1      41.319  33.259  30.955  1.00  0.00     0.029 A 
ATOM     58  N   UNL A   1      42.610  31.716  30.005  1.00  0.00    -0.354 N 
ATOM     59  N   UNL A   1      45.176  30.550  29.140  1.00  0.00    -0.248 NA
ATOM     60  C   UNL A   1      47.485  30.747  28.831  1.00  0.00     0.031 C 
ATOM     61  C   UNL A   1      42.637  33.722  30.955  1.00  0.00     0.029 A 
ATOM     62  C   UNL A   1      43.445  32.748  30.389  1.00  0.00     0.049 A 
ATOM     63  H   UNL A   1      42.902  30.884  29.567  1.00  0.00     0.167 HD
ATOM     64  C   UNL A   1      45.602  31.772  29.645  1.00  0.00     0.074 A 
ATOM     65  C   UNL A   1      47.039  31.824  29.463  1.00  0.00     0.031 C 
ATOM     66  C   UNL A   1      44.874  32.767  30.210  1.00  0.00     0.031 A 
BRANCH  53  67
ATOM     67  C   UNL A   1      38.793  31.712  30.377  1.00  0.00    -0.014 A 
ATOM     68  C   UNL A   1      38.208  31.498  31.638  1.00  0.00     0.010 A 
ATOM     69  C   UNL A   1      38.108  32.494  29.429  1.00  0.00     0.010 A 
ATOM     70  C   UNL A   1      36.956  32.041  31.939  1.00  0.00     0.020 A 
ATOM     71  C   UNL A   1      36.868  33.062  29.736  1.00  0.00     0.020 A 
ATOM     72  C   UNL A   1      36.297  32.824  30.986  1.00  0.00     0.054 A 
BRANCH  72  73
ATOM     73  S   UNL A   1      34.704  33.571  31.430  1.00  0.00     0.124 S 
ATOM     74  O   UNL A   1      34.054  33.689  30.127  1.00  0.00    -0.237 OA
ATOM     75  O   UNL A   1      34.126  32.577  32.331  1.00  0.00    -0.237 OA
ATOM     76  O   UNL A   1      35.076  34.837  32.057  1.00  0.00    -0.744 OA
ENDBRANCH  72  73
ENDBRANCH  53  67
BRANCH  54  77
ATOM     77  C   UNL A   1      47.730  28.077  27.650  1.00  0.00    -0.014 A 
ATOM     78  C   UNL A   1      48.239  28.398  26.378  1.00  0.00     0.010 A 
ATOM     79  C   UNL A   1      48.486  27.246  28.495  1.00  0.00     0.010 A 
ATOM     80  C   UNL A   1      49.454  27.861  25.943  1.00  0.00     0.020 A 
ATOM     81  C   UNL A   1      49.717  26.732  28.077  1.00  0.00     0.020 A 
ATOM     82  C   UNL A   1      50.183  27.026  26.793  1.00  0.00     0.054 A 
BRANCH  82  83
ATOM     83  S   UNL A   1      51.759  26.342  26.209  1.00  0.00     0.124 S 
ATOM     84  O   UNL A   1      52.726  27.250  26.816  1.00  0.00    -0.237 OA
ATOM     85  O   UNL A   1      51.734  24.986  26.750  1.00  0.00    -0.237 OA
ATOM     86  O   UNL A   1      51.648  26.426  24.754  1.00  0.00    -0.744 OA
ENDBRANCH  82  83
ENDBRANCH  54  77
BRANCH  66  87
ATOM     87  C   UNL A   1      45.620  33.971  30.717  1.00  0.00    -0.014 A 
ATOM     88  C   UNL A   1      45.826  35.099  29.905  1.00  0.00     0.010 A 
ATOM     89  C   UNL A   1      46.066  33.991  32.051  1.00  0.00     0.010 A 
ATOM     90  C   UNL A   1      46.497  36.215  30.409  1.00  0.00     0.020 A 
ATOM     91  C   UNL A   1      46.708  35.118  32.568  1.00  0.00     0.020 A 
ATOM     92  C   UNL A   1      46.933  36.218  31.739  1.00  0.00     0.054 A 
BRANCH  92  93
ATOM     93  S   UNL A   1      47.759  37.697  32.382  1.00  0.00     0.124 S 
ATOM     94  O   UNL A   1      48.185  38.365  31.155  1.00  0.00    -0.237 OA
ATOM     95  O   UNL A   1      46.691  38.364  33.123  1.00  0.00    -0.237 OA
ATOM     96  O   UNL A   1      48.839  37.160  33.206  1.00  0.00    -0.744 OA
ENDBRANCH  92  93
ENDBRANCH  66  87
ENDBRANCH  40  41
ENDBRANCH  32  35
ENDBRANCH  30  31
ENDBRANCH  29  30
ENDBRANCH   1  29
TORSDOF 20
ENDMDL
