MODEL 1
REMARK VINA RESULT:     -10.7      0.000      0.000
REMARK SMILES CC(C)c1ccc(CCCC(=O)NCCCNC(=O)c2ccc(-c3c4nc(c(-c5ccc(S(=O)(=O)[O-])cc5)c5ccc([nH]5)c(-c5ccc(S(=O)(=O)[O-])cc5)c5nc(c(-c6ccc(S(=O)(=O)[O-])cc6)c6ccc3[nH]6)C=C5)C=C4)cc2)cc1
REMARK SMILES IDX 14 1 13 2 11 3 12 4 10 6 9 7 8 8 7 9 4 10 5 11 81 12 6 13
REMARK SMILES IDX 80 14 2 15 1 16 3 17 15 18 16 19 17 20 18 21 19 23 20 24
REMARK SMILES IDX 21 25 79 26 22 27 78 28 23 29 24 30 25 31 72 32 26 33 77 34
REMARK SMILES IDX 71 35 73 36 27 37 76 38 70 39 69 40 28 42 58 43 39 44 57 45
REMARK SMILES IDX 40 46 43 47 56 48 74 49 41 50 42 51 55 53 75 54 44 55 29 56
REMARK SMILES IDX 30 57 38 58 31 59 37 60 32 61 33 62 34 63 35 64 36 65 59 66
REMARK SMILES IDX 60 67 68 68 61 69 67 70 62 71 63 72 64 73 65 74 66 75 45 76
REMARK SMILES IDX 46 77 54 78 47 79 53 80 48 81 49 82 50 83 51 84 52 85
REMARK H PARENT 13 5 17 22 73 41 43 52
REMARK Flexibility Score: inf
ROOT
ATOM      1  C   UNL A   1      33.845  26.291  24.879  1.00  0.00     0.117 C 
ENDROOT
BRANCH   1   2
ATOM      2  N   UNL A   1      33.758  26.099  23.445  1.00  0.00    -0.356 N 
ATOM      3  C   UNL A   1      33.143  25.124  22.726  1.00  0.00     0.220 C 
ATOM      4  O   UNL A   1      33.270  25.155  21.499  1.00  0.00    -0.275 OA
ATOM      5  H   UNL A   1      34.217  26.784  22.908  1.00  0.00     0.163 HD
BRANCH   3   6
ATOM      6  C   UNL A   1      32.222  24.113  23.381  1.00  0.00     0.100 C 
BRANCH   6   7
ATOM      7  C   UNL A   1      30.730  24.418  23.558  1.00  0.00     0.015 C 
BRANCH   7   8
ATOM      8  C   UNL A   1      30.211  25.565  24.444  1.00  0.00     0.036 C 
BRANCH   8   9
ATOM      9  C   UNL A   1      29.894  26.946  23.911  1.00  0.00    -0.048 A 
ATOM     10  C   UNL A   1      29.083  29.569  23.108  1.00  0.00    -0.045 A 
ATOM     11  C   UNL A   1      30.372  29.315  23.581  1.00  0.00     0.004 A 
ATOM     12  C   UNL A   1      28.198  28.484  23.041  1.00  0.00     0.004 A 
ATOM     13  C   UNL A   1      30.776  28.024  23.932  1.00  0.00     0.004 A 
ATOM     14  C   UNL A   1      28.594  27.199  23.443  1.00  0.00     0.004 A 
BRANCH  10  15
ATOM     15  C   UNL A   1      28.644  30.955  22.650  1.00  0.00     0.013 C 
ATOM     16  C   UNL A   1      28.112  31.020  21.211  1.00  0.00     0.012 C 
ATOM     17  C   UNL A   1      27.572  31.512  23.595  1.00  0.00     0.012 C 
ENDBRANCH  10  15
ENDBRANCH   8   9
ENDBRANCH   7   8
ENDBRANCH   6   7
ENDBRANCH   3   6
ENDBRANCH   1   2
BRANCH   1  18
ATOM     18  C   UNL A   1      33.977  27.769  25.222  1.00  0.00     0.042 C 
BRANCH  18  19
ATOM     19  C   UNL A   1      33.844  28.049  26.707  1.00  0.00     0.118 C 
BRANCH  19  20
ATOM     20  N   UNL A   1      33.535  29.444  26.985  1.00  0.00    -0.352 N 
ATOM     21  C   UNL A   1      34.273  30.384  27.670  1.00  0.00     0.251 C 
ATOM     22  H   UNL A   1      32.672  29.762  26.632  1.00  0.00     0.163 HD
ATOM     23  O   UNL A   1      33.774  31.464  27.948  1.00  0.00    -0.269 OA
BRANCH  21  24
ATOM     24  C   UNL A   1      35.658  30.067  28.094  1.00  0.00     0.039 A 
ATOM     25  C   UNL A   1      35.881  29.580  29.385  1.00  0.00     0.014 A 
ATOM     26  C   UNL A   1      36.734  30.239  27.220  1.00  0.00     0.014 A 
ATOM     27  C   UNL A   1      37.169  29.200  29.771  1.00  0.00     0.010 A 
ATOM     28  C   UNL A   1      37.991  29.760  27.567  1.00  0.00     0.010 A 
ATOM     29  C   UNL A   1      38.229  29.251  28.851  1.00  0.00    -0.014 A 
BRANCH  29  30
ATOM     30  C   UNL A   1      39.609  28.831  29.212  1.00  0.00     0.031 A 
ATOM     31  C   UNL A   1      40.521  29.813  29.905  1.00  0.00     0.074 A 
ATOM     32  C   UNL A   1      40.066  27.612  28.859  1.00  0.00     0.049 A 
ATOM     33  N   UNL A   1      41.795  29.706  30.179  1.00  0.00    -0.248 NA
ATOM     34  C   UNL A   1      39.927  31.099  30.316  1.00  0.00     0.031 C 
ATOM     35  C   UNL A   1      39.294  26.581  28.162  1.00  0.00     0.029 A 
ATOM     36  N   UNL A   1      41.300  27.036  29.032  1.00  0.00    -0.354 N 
ATOM     37  C   UNL A   1      42.154  30.909  30.775  1.00  0.00     0.074 A 
ATOM     38  C   UNL A   1      40.986  31.759  30.760  1.00  0.00     0.031 C 
ATOM     39  C   UNL A   1      40.064  25.492  27.990  1.00  0.00     0.029 A 
ATOM     40  C   UNL A   1      41.398  25.764  28.518  1.00  0.00     0.049 A 
ATOM     41  H   UNL A   1      42.048  27.492  29.485  1.00  0.00     0.167 HD
ATOM     42  C   UNL A   1      43.341  31.268  31.319  1.00  0.00     0.031 A 
ATOM     43  C   UNL A   1      42.446  24.919  28.462  1.00  0.00     0.031 A 
ATOM     44  C   UNL A   1      44.495  30.412  31.358  1.00  0.00     0.049 A 
ATOM     45  C   UNL A   1      43.766  25.355  29.047  1.00  0.00     0.074 A 
ATOM     46  C   UNL A   1      45.738  30.669  31.908  1.00  0.00     0.029 A 
ATOM     47  N   UNL A   1      44.542  29.126  30.843  1.00  0.00    -0.354 N 
ATOM     48  N   UNL A   1      44.074  26.487  29.635  1.00  0.00    -0.248 NA
ATOM     49  C   UNL A   1      44.876  24.396  28.970  1.00  0.00     0.031 C 
ATOM     50  C   UNL A   1      46.549  29.553  31.691  1.00  0.00     0.029 A 
ATOM     51  C   UNL A   1      45.793  28.578  31.060  1.00  0.00     0.049 A 
ATOM     52  H   UNL A   1      43.795  28.670  30.391  1.00  0.00     0.167 HD
ATOM     53  C   UNL A   1      45.399  26.354  30.037  1.00  0.00     0.074 A 
ATOM     54  C   UNL A   1      45.830  25.032  29.636  1.00  0.00     0.031 C 
ATOM     55  C   UNL A   1      46.189  27.247  30.682  1.00  0.00     0.031 A 
BRANCH  42  56
ATOM     56  C   UNL A   1      43.442  32.633  31.945  1.00  0.00    -0.014 A 
ATOM     57  C   UNL A   1      43.718  33.765  31.156  1.00  0.00     0.010 A 
ATOM     58  C   UNL A   1      43.195  32.800  33.320  1.00  0.00     0.010 A 
ATOM     59  C   UNL A   1      43.769  35.035  31.733  1.00  0.00     0.020 A 
ATOM     60  C   UNL A   1      43.216  34.074  33.897  1.00  0.00     0.020 A 
ATOM     61  C   UNL A   1      43.513  35.182  33.099  1.00  0.00     0.054 A 
BRANCH  61  62
ATOM     62  S   UNL A   1      43.528  36.852  33.805  1.00  0.00     0.124 S 
ATOM     63  O   UNL A   1      42.252  36.891  34.516  1.00  0.00    -0.237 OA
ATOM     64  O   UNL A   1      44.718  36.830  34.652  1.00  0.00    -0.237 OA
ATOM     65  O   UNL A   1      43.614  37.724  32.637  1.00  0.00    -0.744 OA
ENDBRANCH  61  62
ENDBRANCH  42  56
BRANCH  43  66
ATOM     66  C   UNL A   1      42.309  23.575  27.833  1.00  0.00    -0.014 A 
ATOM     67  C   UNL A   1      41.877  22.470  28.590  1.00  0.00     0.010 A 
ATOM     68  C   UNL A   1      42.660  23.379  26.484  1.00  0.00     0.010 A 
ATOM     69  C   UNL A   1      41.852  21.190  28.028  1.00  0.00     0.020 A 
ATOM     70  C   UNL A   1      42.602  22.107  25.909  1.00  0.00     0.020 A 
ATOM     71  C   UNL A   1      42.222  21.015  26.692  1.00  0.00     0.054 A 
BRANCH  71  72
ATOM     72  S   UNL A   1      42.195  19.343  25.985  1.00  0.00     0.124 S 
ATOM     73  O   UNL A   1      43.064  19.492  24.824  1.00  0.00    -0.237 OA
ATOM     74  O   UNL A   1      42.728  18.530  27.076  1.00  0.00    -0.237 OA
ATOM     75  O   UNL A   1      40.781  19.123  25.687  1.00  0.00    -0.744 OA
ENDBRANCH  71  72
ENDBRANCH  43  66
BRANCH  55  76
ATOM     76  C   UNL A   1      47.576  26.803  31.065  1.00  0.00    -0.014 A 
ATOM     77  C   UNL A   1      47.816  26.076  32.243  1.00  0.00     0.010 A 
ATOM     78  C   UNL A   1      48.644  27.055  30.184  1.00  0.00     0.010 A 
ATOM     79  C   UNL A   1      49.105  25.631  32.546  1.00  0.00     0.020 A 
ATOM     80  C   UNL A   1      49.928  26.586  30.467  1.00  0.00     0.020 A 
ATOM     81  C   UNL A   1      50.152  25.885  31.653  1.00  0.00     0.054 A 
BRANCH  81  82
ATOM     82  S   UNL A   1      51.803  25.242  32.041  1.00  0.00     0.124 S 
ATOM     83  O   UNL A   1      51.564  23.802  32.094  1.00  0.00    -0.237 OA
ATOM     84  O   UNL A   1      52.600  25.706  30.907  1.00  0.00    -0.237 OA
ATOM     85  O   UNL A   1      52.127  25.868  33.321  1.00  0.00    -0.744 OA
ENDBRANCH  81  82
ENDBRANCH  55  76
ENDBRANCH  29  30
ENDBRANCH  21  24
ENDBRANCH  19  20
ENDBRANCH  18  19
ENDBRANCH   1  18
TORSDOF 17
ENDMDL
MODEL 2
REMARK VINA RESULT:     -10.6      3.314      6.364
REMARK SMILES CC(C)c1ccc(CCCC(=O)NCCCNC(=O)c2ccc(-c3c4nc(c(-c5ccc(S(=O)(=O)[O-])cc5)c5ccc([nH]5)c(-c5ccc(S(=O)(=O)[O-])cc5)c5nc(c(-c6ccc(S(=O)(=O)[O-])cc6)c6ccc3[nH]6)C=C5)C=C4)cc2)cc1
REMARK SMILES IDX 14 1 13 2 11 3 12 4 10 6 9 7 8 8 7 9 4 10 5 11 81 12 6 13
REMARK SMILES IDX 80 14 2 15 1 16 3 17 15 18 16 19 17 20 18 21 19 23 20 24
REMARK SMILES IDX 21 25 79 26 22 27 78 28 23 29 24 30 25 31 72 32 26 33 77 34
REMARK SMILES IDX 71 35 73 36 27 37 76 38 70 39 69 40 28 42 58 43 39 44 57 45
REMARK SMILES IDX 40 46 43 47 56 48 74 49 41 50 42 51 55 53 75 54 44 55 29 56
REMARK SMILES IDX 30 57 38 58 31 59 37 60 32 61 33 62 34 63 35 64 36 65 59 66
REMARK SMILES IDX 60 67 68 68 61 69 67 70 62 71 63 72 64 73 65 74 66 75 45 76
REMARK SMILES IDX 46 77 54 78 47 79 53 80 48 81 49 82 50 83 51 84 52 85
REMARK H PARENT 13 5 17 22 73 41 43 52
REMARK Flexibility Score: inf
ROOT
ATOM      1  C   UNL A   1      33.984  34.869  29.583  1.00  0.00     0.117 C 
ENDROOT
BRANCH   1   2
ATOM      2  N   UNL A   1      32.893  35.483  30.313  1.00  0.00    -0.356 N 
ATOM      3  C   UNL A   1      32.849  35.967  31.581  1.00  0.00     0.220 C 
ATOM      4  O   UNL A   1      31.766  36.390  31.993  1.00  0.00    -0.275 OA
ATOM      5  H   UNL A   1      32.051  35.561  29.809  1.00  0.00     0.163 HD
BRANCH   3   6
ATOM      6  C   UNL A   1      34.103  36.115  32.421  1.00  0.00     0.100 C 
BRANCH   6   7
ATOM      7  C   UNL A   1      34.516  35.014  33.405  1.00  0.00     0.015 C 
BRANCH   7   8
ATOM      8  C   UNL A   1      34.595  33.528  33.012  1.00  0.00     0.036 C 
BRANCH   8   9
ATOM      9  C   UNL A   1      35.779  32.644  33.344  1.00  0.00    -0.048 A 
ATOM     10  C   UNL A   1      38.129  31.057  33.714  1.00  0.00    -0.045 A 
ATOM     11  C   UNL A   1      37.798  32.087  34.594  1.00  0.00     0.004 A 
ATOM     12  C   UNL A   1      37.262  30.829  32.636  1.00  0.00     0.004 A 
ATOM     13  C   UNL A   1      36.626  32.832  34.434  1.00  0.00     0.004 A 
ATOM     14  C   UNL A   1      36.113  31.613  32.451  1.00  0.00     0.004 A 
BRANCH  10  15
ATOM     15  C   UNL A   1      39.363  30.184  33.912  1.00  0.00     0.013 C 
ATOM     16  C   UNL A   1      39.476  28.998  32.941  1.00  0.00     0.012 C 
ATOM     17  C   UNL A   1      40.637  31.031  33.801  1.00  0.00     0.012 C 
ENDBRANCH  10  15
ENDBRANCH   8   9
ENDBRANCH   7   8
ENDBRANCH   6   7
ENDBRANCH   3   6
ENDBRANCH   1   2
BRANCH   1  18
ATOM     18  C   UNL A   1      33.458  33.894  28.538  1.00  0.00     0.042 C 
BRANCH  18  19
ATOM     19  C   UNL A   1      34.413  32.748  28.260  1.00  0.00     0.118 C 
BRANCH  19  20
ATOM     20  N   UNL A   1      33.718  31.509  27.945  1.00  0.00    -0.352 N 
ATOM     21  C   UNL A   1      34.223  30.235  27.798  1.00  0.00     0.251 C 
ATOM     22  H   UNL A   1      32.745  31.593  27.816  1.00  0.00     0.163 HD
ATOM     23  O   UNL A   1      33.508  29.344  27.365  1.00  0.00    -0.269 OA
BRANCH  21  24
ATOM     24  C   UNL A   1      35.640  29.961  28.137  1.00  0.00     0.039 A 
ATOM     25  C   UNL A   1      35.955  29.482  29.411  1.00  0.00     0.014 A 
ATOM     26  C   UNL A   1      36.654  30.165  27.199  1.00  0.00     0.014 A 
ATOM     27  C   UNL A   1      37.276  29.142  29.717  1.00  0.00     0.010 A 
ATOM     28  C   UNL A   1      37.944  29.725  27.468  1.00  0.00     0.010 A 
ATOM     29  C   UNL A   1      38.276  29.224  28.735  1.00  0.00    -0.014 A 
BRANCH  29  30
ATOM     30  C   UNL A   1      39.688  28.848  29.010  1.00  0.00     0.031 A 
ATOM     31  C   UNL A   1      40.624  29.876  29.596  1.00  0.00     0.074 A 
ATOM     32  C   UNL A   1      40.146  27.625  28.674  1.00  0.00     0.049 A 
ATOM     33  N   UNL A   1      41.917  29.806  29.780  1.00  0.00    -0.248 NA
ATOM     34  C   UNL A   1      40.032  31.165  29.997  1.00  0.00     0.031 C 
ATOM     35  C   UNL A   1      39.350  26.551  28.076  1.00  0.00     0.029 A 
ATOM     36  N   UNL A   1      41.403  27.082  28.779  1.00  0.00    -0.354 N 
ATOM     37  C   UNL A   1      42.290  31.040  30.301  1.00  0.00     0.074 A 
ATOM     38  C   UNL A   1      41.104  31.865  30.338  1.00  0.00     0.031 C 
ATOM     39  C   UNL A   1      40.131  25.472  27.891  1.00  0.00     0.029 A 
ATOM     40  C   UNL A   1      41.492  25.792  28.309  1.00  0.00     0.049 A 
ATOM     41  H   UNL A   1      42.170  27.570  29.157  1.00  0.00     0.167 HD
ATOM     42  C   UNL A   1      43.504  31.444  30.742  1.00  0.00     0.031 A 
ATOM     43  C   UNL A   1      42.553  24.966  28.211  1.00  0.00     0.031 A 
ATOM     44  C   UNL A   1      44.678  30.614  30.731  1.00  0.00     0.049 A 
ATOM     45  C   UNL A   1      43.901  25.453  28.680  1.00  0.00     0.074 A 
ATOM     46  C   UNL A   1      45.951  30.919  31.179  1.00  0.00     0.029 A 
ATOM     47  N   UNL A   1      44.717  29.309  30.265  1.00  0.00    -0.354 N 
ATOM     48  N   UNL A   1      44.224  26.614  29.199  1.00  0.00    -0.248 NA
ATOM     49  C   UNL A   1      45.025  24.514  28.561  1.00  0.00     0.031 C 
ATOM     50  C   UNL A   1      46.770  29.811  30.947  1.00  0.00     0.029 A 
ATOM     51  C   UNL A   1      45.993  28.796  30.412  1.00  0.00     0.049 A 
ATOM     52  H   UNL A   1      43.951  28.820  29.887  1.00  0.00     0.167 HD
ATOM     53  C   UNL A   1      45.578  26.524  29.509  1.00  0.00     0.074 A 
ATOM     54  C   UNL A   1      46.009  25.196  29.130  1.00  0.00     0.031 C 
ATOM     55  C   UNL A   1      46.392  27.459  30.059  1.00  0.00     0.031 A 
BRANCH  42  56
ATOM     56  C   UNL A   1      43.619  32.835  31.305  1.00  0.00    -0.014 A 
ATOM     57  C   UNL A   1      43.510  33.059  32.690  1.00  0.00     0.010 A 
ATOM     58  C   UNL A   1      43.904  33.920  30.456  1.00  0.00     0.010 A 
ATOM     59  C   UNL A   1      43.658  34.345  33.213  1.00  0.00     0.020 A 
ATOM     60  C   UNL A   1      44.084  35.205  30.979  1.00  0.00     0.020 A 
ATOM     61  C   UNL A   1      43.950  35.409  32.355  1.00  0.00     0.054 A 
BRANCH  61  62
ATOM     62  S   UNL A   1      44.197  37.056  33.074  1.00  0.00     0.124 S 
ATOM     63  O   UNL A   1      42.995  37.213  33.889  1.00  0.00    -0.237 OA
ATOM     64  O   UNL A   1      45.443  36.895  33.817  1.00  0.00    -0.237 OA
ATOM     65  O   UNL A   1      44.278  37.935  31.911  1.00  0.00    -0.744 OA
ENDBRANCH  61  62
ENDBRANCH  42  56
BRANCH  43  66
ATOM     66  C   UNL A   1      42.402  23.595  27.647  1.00  0.00    -0.014 A 
ATOM     67  C   UNL A   1      42.056  22.513  28.477  1.00  0.00     0.010 A 
ATOM     68  C   UNL A   1      42.655  23.352  26.284  1.00  0.00     0.010 A 
ATOM     69  C   UNL A   1      42.020  21.211  27.969  1.00  0.00     0.020 A 
ATOM     70  C   UNL A   1      42.585  22.056  25.765  1.00  0.00     0.020 A 
ATOM     71  C   UNL A   1      42.293  20.990  26.617  1.00  0.00     0.054 A 
BRANCH  71  72
ATOM     72  S   UNL A   1      42.254  19.290  25.980  1.00  0.00     0.124 S 
ATOM     73  O   UNL A   1      43.099  19.392  24.796  1.00  0.00    -0.237 OA
ATOM     74  O   UNL A   1      42.811  18.523  27.092  1.00  0.00    -0.237 OA
ATOM     75  O   UNL A   1      40.835  19.057  25.720  1.00  0.00    -0.744 OA
ENDBRANCH  71  72
ENDBRANCH  43  66
BRANCH  55  76
ATOM     76  C   UNL A   1      47.812  27.059  30.357  1.00  0.00    -0.014 A 
ATOM     77  C   UNL A   1      48.855  27.323  29.454  1.00  0.00     0.010 A 
ATOM     78  C   UNL A   1      48.114  26.480  31.604  1.00  0.00     0.010 A 
ATOM     79  C   UNL A   1      50.172  26.989  29.781  1.00  0.00     0.020 A 
ATOM     80  C   UNL A   1      49.432  26.173  31.948  1.00  0.00     0.020 A 
ATOM     81  C   UNL A   1      50.451  26.421  31.028  1.00  0.00     0.054 A 
BRANCH  81  82
ATOM     82  S   UNL A   1      52.176  26.055  31.452  1.00  0.00     0.124 S 
ATOM     83  O   UNL A   1      52.491  27.122  32.399  1.00  0.00    -0.237 OA
ATOM     84  O   UNL A   1      52.087  24.714  32.023  1.00  0.00    -0.237 OA
ATOM     85  O   UNL A   1      52.873  26.135  30.169  1.00  0.00    -0.744 OA
ENDBRANCH  81  82
ENDBRANCH  55  76
ENDBRANCH  29  30
ENDBRANCH  21  24
ENDBRANCH  19  20
ENDBRANCH  18  19
ENDBRANCH   1  18
TORSDOF 17
ENDMDL
MODEL 3
REMARK VINA RESULT:     -10.4      1.347      3.378
REMARK SMILES CC(C)c1ccc(CCCC(=O)NCCCNC(=O)c2ccc(-c3c4nc(c(-c5ccc(S(=O)(=O)[O-])cc5)c5ccc([nH]5)c(-c5ccc(S(=O)(=O)[O-])cc5)c5nc(c(-c6ccc(S(=O)(=O)[O-])cc6)c6ccc3[nH]6)C=C5)C=C4)cc2)cc1
REMARK SMILES IDX 14 1 13 2 11 3 12 4 10 6 9 7 8 8 7 9 4 10 5 11 81 12 6 13
REMARK SMILES IDX 80 14 2 15 1 16 3 17 15 18 16 19 17 20 18 21 19 23 20 24
REMARK SMILES IDX 21 25 79 26 22 27 78 28 23 29 24 30 25 31 72 32 26 33 77 34
REMARK SMILES IDX 71 35 73 36 27 37 76 38 70 39 69 40 28 42 58 43 39 44 57 45
REMARK SMILES IDX 40 46 43 47 56 48 74 49 41 50 42 51 55 53 75 54 44 55 29 56
REMARK SMILES IDX 30 57 38 58 31 59 37 60 32 61 33 62 34 63 35 64 36 65 59 66
REMARK SMILES IDX 60 67 68 68 61 69 67 70 62 71 63 72 64 73 65 74 66 75 45 76
REMARK SMILES IDX 46 77 54 78 47 79 53 80 48 81 49 82 50 83 51 84 52 85
REMARK H PARENT 13 5 17 22 73 41 43 52
REMARK Flexibility Score: inf
ROOT
ATOM      1  C   UNL A   1      31.608  29.287  25.340  1.00  0.00     0.117 C 
ENDROOT
BRANCH   1   2
ATOM      2  N   UNL A   1      31.190  29.230  23.954  1.00  0.00    -0.356 N 
ATOM      3  C   UNL A   1      30.482  28.280  23.290  1.00  0.00     0.220 C 
ATOM      4  O   UNL A   1      30.306  28.441  22.079  1.00  0.00    -0.275 OA
ATOM      5  H   UNL A   1      31.462  30.002  23.407  1.00  0.00     0.163 HD
BRANCH   3   6
ATOM      6  C   UNL A   1      29.811  27.131  24.019  1.00  0.00     0.100 C 
BRANCH   6   7
ATOM      7  C   UNL A   1      30.146  25.679  23.662  1.00  0.00     0.015 C 
BRANCH   7   8
ATOM      8  C   UNL A   1      30.921  24.743  24.606  1.00  0.00     0.036 C 
BRANCH   8   9
ATOM      9  C   UNL A   1      32.413  24.504  24.495  1.00  0.00    -0.048 A 
ATOM     10  C   UNL A   1      35.204  23.879  24.524  1.00  0.00    -0.045 A 
ATOM     11  C   UNL A   1      34.393  23.553  23.435  1.00  0.00     0.004 A 
ATOM     12  C   UNL A   1      34.594  24.527  25.607  1.00  0.00     0.004 A 
ATOM     13  C   UNL A   1      33.039  23.899  23.408  1.00  0.00     0.004 A 
ATOM     14  C   UNL A   1      33.224  24.826  25.596  1.00  0.00     0.004 A 
BRANCH  10  15
ATOM     15  C   UNL A   1      36.697  23.578  24.543  1.00  0.00     0.013 C 
ATOM     16  C   UNL A   1      37.344  23.611  25.936  1.00  0.00     0.012 C 
ATOM     17  C   UNL A   1      36.973  22.209  23.907  1.00  0.00     0.012 C 
ENDBRANCH  10  15
ENDBRANCH   8   9
ENDBRANCH   7   8
ENDBRANCH   6   7
ENDBRANCH   3   6
ENDBRANCH   1   2
BRANCH   1  18
ATOM     18  C   UNL A   1      32.667  28.233  25.631  1.00  0.00     0.042 C 
BRANCH  18  19
ATOM     19  C   UNL A   1      33.992  28.827  26.072  1.00  0.00     0.118 C 
BRANCH  19  20
ATOM     20  N   UNL A   1      33.835  30.130  26.701  1.00  0.00    -0.352 N 
ATOM     21  C   UNL A   1      34.636  30.753  27.634  1.00  0.00     0.251 C 
ATOM     22  H   UNL A   1      33.041  30.639  26.421  1.00  0.00     0.163 HD
ATOM     23  O   UNL A   1      34.252  31.780  28.175  1.00  0.00    -0.269 OA
BRANCH  21  24
ATOM     24  C   UNL A   1      35.943  30.157  28.000  1.00  0.00     0.039 A 
ATOM     25  C   UNL A   1      37.003  30.231  27.092  1.00  0.00     0.014 A 
ATOM     26  C   UNL A   1      36.128  29.535  29.237  1.00  0.00     0.014 A 
ATOM     27  C   UNL A   1      38.263  29.745  27.455  1.00  0.00     0.010 A 
ATOM     28  C   UNL A   1      37.402  29.154  29.636  1.00  0.00     0.010 A 
ATOM     29  C   UNL A   1      38.482  29.238  28.745  1.00  0.00    -0.014 A 
BRANCH  29  30
ATOM     30  C   UNL A   1      39.812  28.736  29.182  1.00  0.00     0.031 A 
ATOM     31  C   UNL A   1      40.725  29.648  29.962  1.00  0.00     0.074 A 
ATOM     32  C   UNL A   1      40.227  27.504  28.823  1.00  0.00     0.049 A 
ATOM     33  N   UNL A   1      41.971  29.467  30.315  1.00  0.00    -0.248 NA
ATOM     34  C   UNL A   1      40.172  30.953  30.371  1.00  0.00     0.031 C 
ATOM     35  C   UNL A   1      39.452  26.534  28.046  1.00  0.00     0.029 A 
ATOM     36  N   UNL A   1      41.416  26.858  29.059  1.00  0.00    -0.354 N 
ATOM     37  C   UNL A   1      42.351  30.633  30.969  1.00  0.00     0.074 A 
ATOM     38  C   UNL A   1      41.232  31.544  30.904  1.00  0.00     0.031 C 
ATOM     39  C   UNL A   1      40.175  25.411  27.892  1.00  0.00     0.029 A 
ATOM     40  C   UNL A   1      41.482  25.597  28.513  1.00  0.00     0.049 A 
ATOM     41  H   UNL A   1      42.154  27.261  29.572  1.00  0.00     0.167 HD
ATOM     42  C   UNL A   1      43.516  30.912  31.599  1.00  0.00     0.031 A 
ATOM     43  C   UNL A   1      42.487  24.699  28.501  1.00  0.00     0.031 A 
ATOM     44  C   UNL A   1      44.619  29.996  31.687  1.00  0.00     0.049 A 
ATOM     45  C   UNL A   1      43.785  25.048  29.183  1.00  0.00     0.074 A 
ATOM     46  C   UNL A   1      45.834  30.171  32.325  1.00  0.00     0.029 A 
ATOM     47  N   UNL A   1      44.634  28.723  31.138  1.00  0.00    -0.354 N 
ATOM     48  N   UNL A   1      44.112  26.146  29.823  1.00  0.00    -0.248 NA
ATOM     49  C   UNL A   1      44.848  24.033  29.150  1.00  0.00     0.031 C 
ATOM     50  C   UNL A   1      46.600  29.019  32.127  1.00  0.00     0.029 A 
ATOM     51  C   UNL A   1      45.838  28.103  31.419  1.00  0.00     0.049 A 
ATOM     52  H   UNL A   1      43.897  28.320  30.625  1.00  0.00     0.167 HD
ATOM     53  C   UNL A   1      45.399  25.932  30.307  1.00  0.00     0.074 A 
ATOM     54  C   UNL A   1      45.786  24.600  29.895  1.00  0.00     0.031 C 
ATOM     55  C   UNL A   1      46.189  26.763  31.029  1.00  0.00     0.031 A 
BRANCH  42  56
ATOM     56  C   UNL A   1      43.646  32.253  32.271  1.00  0.00    -0.014 A 
ATOM     57  C   UNL A   1      43.217  32.433  33.599  1.00  0.00     0.010 A 
ATOM     58  C   UNL A   1      44.260  33.325  31.598  1.00  0.00     0.010 A 
ATOM     59  C   UNL A   1      43.378  33.666  34.234  1.00  0.00     0.020 A 
ATOM     60  C   UNL A   1      44.450  34.553  32.241  1.00  0.00     0.020 A 
ATOM     61  C   UNL A   1      43.998  34.717  33.552  1.00  0.00     0.054 A 
BRANCH  61  62
ATOM     62  S   UNL A   1      44.245  36.286  34.426  1.00  0.00     0.124 S 
ATOM     63  O   UNL A   1      44.643  37.178  33.339  1.00  0.00    -0.237 OA
ATOM     64  O   UNL A   1      42.927  36.544  34.999  1.00  0.00    -0.237 OA
ATOM     65  O   UNL A   1      45.294  35.984  35.396  1.00  0.00    -0.744 OA
ENDBRANCH  61  62
ENDBRANCH  42  56
BRANCH  43  66
ATOM     66  C   UNL A   1      42.323  23.381  27.824  1.00  0.00    -0.014 A 
ATOM     67  C   UNL A   1      41.681  22.314  28.479  1.00  0.00     0.010 A 
ATOM     68  C   UNL A   1      42.854  23.168  26.538  1.00  0.00     0.010 A 
ATOM     69  C   UNL A   1      41.623  21.048  27.887  1.00  0.00     0.020 A 
ATOM     70  C   UNL A   1      42.766  21.914  25.928  1.00  0.00     0.020 A 
ATOM     71  C   UNL A   1      42.173  20.854  26.618  1.00  0.00     0.054 A 
BRANCH  71  72
ATOM     72  S   UNL A   1      42.099  19.201  25.872  1.00  0.00     0.124 S 
ATOM     73  O   UNL A   1      40.673  19.057  25.600  1.00  0.00    -0.237 OA
ATOM     74  O   UNL A   1      42.957  19.344  24.699  1.00  0.00    -0.237 OA
ATOM     75  O   UNL A   1      42.627  18.330  26.921  1.00  0.00    -0.744 OA
ENDBRANCH  71  72
ENDBRANCH  43  66
BRANCH  55  76
ATOM     76  C   UNL A   1      47.523  26.237  31.488  1.00  0.00    -0.014 A 
ATOM     77  C   UNL A   1      47.702  25.718  32.780  1.00  0.00     0.010 A 
ATOM     78  C   UNL A   1      48.593  26.191  30.574  1.00  0.00     0.010 A 
ATOM     79  C   UNL A   1      48.937  25.186  33.161  1.00  0.00     0.020 A 
ATOM     80  C   UNL A   1      49.819  25.632  30.940  1.00  0.00     0.020 A 
ATOM     81  C   UNL A   1      49.986  25.143  32.236  1.00  0.00     0.054 A 
BRANCH  81  82
ATOM     82  S   UNL A   1      51.558  24.390  32.736  1.00  0.00     0.124 S 
ATOM     83  O   UNL A   1      51.540  24.579  34.184  1.00  0.00    -0.237 OA
ATOM     84  O   UNL A   1      51.411  23.010  32.280  1.00  0.00    -0.237 OA
ATOM     85  O   UNL A   1      52.562  25.174  32.018  1.00  0.00    -0.744 OA
ENDBRANCH  81  82
ENDBRANCH  55  76
ENDBRANCH  29  30
ENDBRANCH  21  24
ENDBRANCH  19  20
ENDBRANCH  18  19
ENDBRANCH   1  18
TORSDOF 17
ENDMDL
