MODEL 1
REMARK VINA RESULT:     -12.3      0.000      0.000
REMARK SMILES COc1ccccc1NC(=O)c1ccc(NC(=O)Cn2nc(C(=O)NCCCNC(=O)c3ccc(-c4c5nc(c(-c6ccc(S(=O)(=O)[O-])cc6)c6ccc([nH]6)c(-c6ccc(S(=O)(=O)[O-])cc6)c6nc(c(-c7ccc(S(=O)(=O)[O-])cc7)c7ccc4[nH]7)C=C6)C=C5)cc3)c3ccccc3c2=O)cc1
REMARK SMILES IDX 23 1 24 2 25 3 22 5 20 6 21 7 98 8 97 9 99 10 92 11 96 12
REMARK SMILES IDX 93 13 95 14 94 15 19 16 17 17 16 18 18 20 15 21 12 22 13 23
REMARK SMILES IDX 101 24 14 25 100 26 10 27 9 28 11 30 8 31 3 32 4 33 5 34
REMARK SMILES IDX 7 35 6 36 2 37 1 38 26 39 27 40 28 41 29 42 30 43 31 45
REMARK SMILES IDX 32 46 33 47 91 48 34 49 90 50 35 51 36 52 37 53 84 54 38 55
REMARK SMILES IDX 89 56 83 57 85 58 39 59 88 60 82 61 81 62 40 64 70 65 51 66
REMARK SMILES IDX 69 67 52 68 55 69 68 70 86 71 53 72 54 73 67 75 87 76 56 77
REMARK SMILES IDX 41 78 42 79 50 80 43 81 49 82 44 83 45 84 46 85 47 86 48 87
REMARK SMILES IDX 71 88 72 89 80 90 73 91 79 92 74 93 75 94 76 95 77 96 78 97
REMARK SMILES IDX 57 98 58 99 66 100 59 101 65 102 60 103 61 104 62 105 63 106
REMARK SMILES IDX 64 107
REMARK H PARENT 25 4 16 19 9 29 29 44 85 63 55 74
REMARK Flexibility Score: inf
ROOT
ATOM      1  C   UNL A   1      33.932  21.810  26.854  1.00  0.00     0.272 C 
ATOM      2  O   UNL A   1      33.272  22.013  27.860  1.00  0.00    -0.267 OA
ATOM      3  N   UNL A   1      35.297  21.640  26.923  1.00  0.00    -0.351 N 
ATOM      4  H   UNL A   1      35.672  21.443  27.812  1.00  0.00     0.163 HD
ENDROOT
BRANCH   1   5
ATOM      5  C   UNL A   1      33.245  21.659  25.493  1.00  0.00     0.156 A 
ATOM      6  N   UNL A   1      32.538  22.630  23.511  1.00  0.00    -0.219 N 
ATOM      7  N   UNL A   1      33.009  22.741  24.804  1.00  0.00    -0.163 NA
ATOM      8  C   UNL A   1      32.270  21.409  22.894  1.00  0.00     0.275 A 
ATOM      9  C   UNL A   1      32.493  20.194  23.694  1.00  0.00     0.051 A 
ATOM     10  O   UNL A   1      31.857  21.290  21.743  1.00  0.00    -0.267 OA
ATOM     11  C   UNL A   1      32.923  20.302  25.009  1.00  0.00     0.020 A 
ATOM     12  C   UNL A   1      32.212  18.936  23.140  1.00  0.00     0.014 A 
ATOM     13  C   UNL A   1      33.010  19.146  25.798  1.00  0.00     0.011 A 
ATOM     14  C   UNL A   1      32.313  17.788  23.924  1.00  0.00     0.001 A 
ATOM     15  C   UNL A   1      32.693  17.896  25.258  1.00  0.00     0.001 A 
BRANCH   6  16
ATOM     16  C   UNL A   1      32.063  23.868  22.879  1.00  0.00     0.248 C 
BRANCH  16  17
ATOM     17  C   UNL A   1      33.067  24.545  21.931  1.00  0.00     0.246 C 
ATOM     18  N   UNL A   1      33.632  25.752  22.240  1.00  0.00    -0.324 N 
ATOM     19  H   UNL A   1      34.543  25.884  21.890  1.00  0.00     0.169 HD
ATOM     20  O   UNL A   1      33.383  24.012  20.862  1.00  0.00    -0.273 OA
BRANCH  18  21
ATOM     21  C   UNL A   1      33.121  26.826  22.974  1.00  0.00     0.041 A 
ATOM     22  C   UNL A   1      32.174  28.903  24.587  1.00  0.00     0.040 A 
ATOM     23  C   UNL A   1      33.034  29.176  23.521  1.00  0.00     0.016 A 
ATOM     24  C   UNL A   1      31.811  27.587  24.878  1.00  0.00     0.016 A 
ATOM     25  C   UNL A   1      33.494  28.142  22.707  1.00  0.00     0.027 A 
ATOM     26  C   UNL A   1      32.319  26.547  24.089  1.00  0.00     0.027 A 
BRANCH  22  27
ATOM     27  C   UNL A   1      31.615  30.046  25.321  1.00  0.00     0.255 C 
ATOM     28  N   UNL A   1      32.218  30.601  26.422  1.00  0.00    -0.319 N 
ATOM     29  H   UNL A   1      31.651  31.260  26.885  1.00  0.00     0.170 HD
ATOM     30  O   UNL A   1      30.529  30.474  24.922  1.00  0.00    -0.269 OA
BRANCH  28  31
ATOM     31  C   UNL A   1      33.481  30.430  27.031  1.00  0.00     0.084 A 
ATOM     32  C   UNL A   1      34.128  31.497  27.692  1.00  0.00     0.142 A 
ATOM     33  C   UNL A   1      35.414  31.297  28.233  1.00  0.00     0.048 A 
ATOM     34  C   UNL A   1      36.068  30.073  28.133  1.00  0.00     0.004 A 
ATOM     35  C   UNL A   1      34.180  29.217  26.913  1.00  0.00     0.030 A 
ATOM     36  C   UNL A   1      35.451  29.032  27.462  1.00  0.00     0.002 A 
BRANCH  32  37
ATOM     37  O   UNL A   1      33.730  32.794  27.876  1.00  0.00    -0.495 OA
ATOM     38  C   UNL A   1      34.668  33.844  28.018  1.00  0.00     0.278 C 
ENDBRANCH  32  37
ENDBRANCH  28  31
ENDBRANCH  22  27
ENDBRANCH  18  21
ENDBRANCH  16  17
ENDBRANCH   6  16
ENDBRANCH   1   5
BRANCH   3  39
ATOM     39  C   UNL A   1      36.241  21.721  25.824  1.00  0.00     0.118 C 
BRANCH  39  40
ATOM     40  C   UNL A   1      36.491  23.189  25.477  1.00  0.00     0.042 C 
BRANCH  40  41
ATOM     41  C   UNL A   1      37.711  23.737  26.204  1.00  0.00     0.118 C 
BRANCH  41  42
ATOM     42  N   UNL A   1      38.725  22.707  26.412  1.00  0.00    -0.352 N 
ATOM     43  C   UNL A   1      40.084  22.874  26.561  1.00  0.00     0.251 C 
ATOM     44  H   UNL A   1      38.397  21.780  26.453  1.00  0.00     0.163 HD
ATOM     45  O   UNL A   1      40.852  21.932  26.395  1.00  0.00    -0.269 OA
BRANCH  43  46
ATOM     46  C   UNL A   1      40.607  24.212  26.918  1.00  0.00     0.039 A 
ATOM     47  C   UNL A   1      40.472  25.281  26.028  1.00  0.00     0.014 A 
ATOM     48  C   UNL A   1      41.244  24.399  28.148  1.00  0.00     0.014 A 
ATOM     49  C   UNL A   1      40.925  26.553  26.398  1.00  0.00     0.010 A 
ATOM     50  C   UNL A   1      41.618  25.675  28.545  1.00  0.00     0.010 A 
ATOM     51  C   UNL A   1      41.476  26.764  27.671  1.00  0.00    -0.014 A 
BRANCH  51  52
ATOM     52  C   UNL A   1      41.964  28.090  28.132  1.00  0.00     0.031 A 
ATOM     53  C   UNL A   1      43.439  28.395  28.042  1.00  0.00     0.074 A 
ATOM     54  C   UNL A   1      41.130  28.947  28.751  1.00  0.00     0.049 A 
ATOM     55  N   UNL A   1      44.123  29.349  28.616  1.00  0.00    -0.248 NA
ATOM     56  C   UNL A   1      44.259  27.464  27.246  1.00  0.00     0.031 C 
ATOM     57  C   UNL A   1      39.691  28.751  28.946  1.00  0.00     0.029 A 
ATOM     58  N   UNL A   1      41.384  30.149  29.367  1.00  0.00    -0.354 N 
ATOM     59  C   UNL A   1      45.456  29.090  28.314  1.00  0.00     0.074 A 
ATOM     60  C   UNL A   1      45.486  27.882  27.518  1.00  0.00     0.031 C 
ATOM     61  C   UNL A   1      39.192  29.795  29.630  1.00  0.00     0.029 A 
ATOM     62  C   UNL A   1      40.278  30.711  29.961  1.00  0.00     0.049 A 
ATOM     63  H   UNL A   1      42.275  30.567  29.381  1.00  0.00     0.167 HD
ATOM     64  C   UNL A   1      46.554  29.799  28.662  1.00  0.00     0.031 A 
ATOM     65  C   UNL A   1      40.159  31.826  30.706  1.00  0.00     0.031 A 
ATOM     66  C   UNL A   1      46.508  31.045  29.378  1.00  0.00     0.049 A 
ATOM     67  C   UNL A   1      41.384  32.652  30.992  1.00  0.00     0.074 A 
ATOM     68  C   UNL A   1      47.554  31.895  29.691  1.00  0.00     0.029 A 
ATOM     69  N   UNL A   1      45.350  31.632  29.862  1.00  0.00    -0.354 N 
ATOM     70  N   UNL A   1      42.631  32.414  30.661  1.00  0.00    -0.248 NA
ATOM     71  C   UNL A   1      41.186  33.900  31.743  1.00  0.00     0.031 C 
ATOM     72  C   UNL A   1      47.030  32.992  30.382  1.00  0.00     0.029 A 
ATOM     73  C   UNL A   1      45.655  32.837  30.469  1.00  0.00     0.049 A 
ATOM     74  H   UNL A   1      44.447  31.249  29.787  1.00  0.00     0.167 HD
ATOM     75  C   UNL A   1      43.361  33.497  31.138  1.00  0.00     0.074 A 
ATOM     76  C   UNL A   1      42.417  34.394  31.771  1.00  0.00     0.031 C 
ATOM     77  C   UNL A   1      44.693  33.727  31.065  1.00  0.00     0.031 A 
BRANCH  64  78
ATOM     78  C   UNL A   1      47.901  29.255  28.269  1.00  0.00    -0.014 A 
ATOM     79  C   UNL A   1      48.500  29.610  27.049  1.00  0.00     0.010 A 
ATOM     80  C   UNL A   1      48.605  28.428  29.164  1.00  0.00     0.010 A 
ATOM     81  C   UNL A   1      49.767  29.123  26.715  1.00  0.00     0.020 A 
ATOM     82  C   UNL A   1      49.882  27.959  28.845  1.00  0.00     0.020 A 
ATOM     83  C   UNL A   1      50.449  28.299  27.616  1.00  0.00     0.054 A 
BRANCH  83  84
ATOM     84  S   UNL A   1      52.113  27.720  27.181  1.00  0.00     0.124 S 
ATOM     85  O   UNL A   1      52.895  28.949  27.286  1.00  0.00    -0.237 OA
ATOM     86  O   UNL A   1      52.384  26.715  28.206  1.00  0.00    -0.237 OA
ATOM     87  O   UNL A   1      51.954  27.196  25.827  1.00  0.00    -0.744 OA
ENDBRANCH  83  84
ENDBRANCH  64  78
BRANCH  65  88
ATOM     88  C   UNL A   1      38.832  32.239  31.235  1.00  0.00    -0.014 A 
ATOM     89  C   UNL A   1      38.027  33.133  30.506  1.00  0.00     0.010 A 
ATOM     90  C   UNL A   1      38.371  31.757  32.473  1.00  0.00     0.010 A 
ATOM     91  C   UNL A   1      36.802  33.566  31.022  1.00  0.00     0.020 A 
ATOM     92  C   UNL A   1      37.135  32.169  32.981  1.00  0.00     0.020 A 
ATOM     93  C   UNL A   1      36.366  33.086  32.260  1.00  0.00     0.054 A 
BRANCH  93  94
ATOM     94  S   UNL A   1      34.763  33.640  32.903  1.00  0.00     0.124 S 
ATOM     95  O   UNL A   1      34.724  35.029  32.458  1.00  0.00    -0.237 OA
ATOM     96  O   UNL A   1      33.823  32.737  32.243  1.00  0.00    -0.237 OA
ATOM     97  O   UNL A   1      34.892  33.446  34.346  1.00  0.00    -0.744 OA
ENDBRANCH  93  94
ENDBRANCH  65  88
BRANCH  77  98
ATOM     98  C   UNL A   1      45.207  35.020  31.628  1.00  0.00    -0.014 A 
ATOM     99  C   UNL A   1      45.193  36.200  30.867  1.00  0.00     0.010 A 
ATOM    100  C   UNL A   1      45.636  35.066  32.968  1.00  0.00     0.010 A 
ATOM    101  C   UNL A   1      45.617  37.406  31.430  1.00  0.00     0.020 A 
ATOM    102  C   UNL A   1      46.043  36.273  33.539  1.00  0.00     0.020 A 
ATOM    103  C   UNL A   1      46.039  37.434  32.763  1.00  0.00     0.054 A 
BRANCH 103 104
ATOM    104  S   UNL A   1      46.524  39.022  33.495  1.00  0.00     0.124 S 
ATOM    105  O   UNL A   1      47.125  39.709  32.356  1.00  0.00    -0.237 OA
ATOM    106  O   UNL A   1      45.251  39.567  33.959  1.00  0.00    -0.237 OA
ATOM    107  O   UNL A   1      47.454  38.642  34.556  1.00  0.00    -0.744 OA
ENDBRANCH 103 104
ENDBRANCH  77  98
ENDBRANCH  51  52
ENDBRANCH  43  46
ENDBRANCH  41  42
ENDBRANCH  40  41
ENDBRANCH  39  40
ENDBRANCH   3  39
TORSDOF 19
ENDMDL
MODEL 2
REMARK VINA RESULT:     -11.8      3.451     10.001
REMARK SMILES COc1ccccc1NC(=O)c1ccc(NC(=O)Cn2nc(C(=O)NCCCNC(=O)c3ccc(-c4c5nc(c(-c6ccc(S(=O)(=O)[O-])cc6)c6ccc([nH]6)c(-c6ccc(S(=O)(=O)[O-])cc6)c6nc(c(-c7ccc(S(=O)(=O)[O-])cc7)c7ccc4[nH]7)C=C6)C=C5)cc3)c3ccccc3c2=O)cc1
REMARK SMILES IDX 23 1 24 2 25 3 22 5 20 6 21 7 98 8 97 9 99 10 92 11 96 12
REMARK SMILES IDX 93 13 95 14 94 15 19 16 17 17 16 18 18 20 15 21 12 22 13 23
REMARK SMILES IDX 101 24 14 25 100 26 10 27 9 28 11 30 8 31 3 32 4 33 5 34
REMARK SMILES IDX 7 35 6 36 2 37 1 38 26 39 27 40 28 41 29 42 30 43 31 45
REMARK SMILES IDX 32 46 33 47 91 48 34 49 90 50 35 51 36 52 37 53 84 54 38 55
REMARK SMILES IDX 89 56 83 57 85 58 39 59 88 60 82 61 81 62 40 64 70 65 51 66
REMARK SMILES IDX 69 67 52 68 55 69 68 70 86 71 53 72 54 73 67 75 87 76 56 77
REMARK SMILES IDX 41 78 42 79 50 80 43 81 49 82 44 83 45 84 46 85 47 86 48 87
REMARK SMILES IDX 71 88 72 89 80 90 73 91 79 92 74 93 75 94 76 95 77 96 78 97
REMARK SMILES IDX 57 98 58 99 66 100 59 101 65 102 60 103 61 104 62 105 63 106
REMARK SMILES IDX 64 107
REMARK H PARENT 25 4 16 19 9 29 29 44 85 63 55 74
REMARK Flexibility Score: inf
ROOT
ATOM      1  C   UNL A   1      34.755  33.895  28.509  1.00  0.00     0.272 C 
ATOM      2  O   UNL A   1      35.121  34.696  27.666  1.00  0.00    -0.267 OA
ATOM      3  N   UNL A   1      34.329  34.315  29.750  1.00  0.00    -0.351 N 
ATOM      4  H   UNL A   1      34.101  35.269  29.838  1.00  0.00     0.163 HD
ENDROOT
BRANCH   1   5
ATOM      5  C   UNL A   1      34.683  32.400  28.180  1.00  0.00     0.156 A 
ATOM      6  N   UNL A   1      33.509  30.629  27.255  1.00  0.00    -0.219 N 
ATOM      7  N   UNL A   1      33.561  31.932  27.709  1.00  0.00    -0.163 NA
ATOM      8  C   UNL A   1      34.598  29.759  27.293  1.00  0.00     0.275 A 
ATOM      9  C   UNL A   1      35.848  30.280  27.869  1.00  0.00     0.051 A 
ATOM     10  O   UNL A   1      34.574  28.600  26.888  1.00  0.00    -0.267 OA
ATOM     11  C   UNL A   1      35.891  31.574  28.370  1.00  0.00     0.020 A 
ATOM     12  C   UNL A   1      36.971  29.444  27.966  1.00  0.00     0.014 A 
ATOM     13  C   UNL A   1      37.047  32.015  29.030  1.00  0.00     0.011 A 
ATOM     14  C   UNL A   1      38.123  29.890  28.610  1.00  0.00     0.001 A 
ATOM     15  C   UNL A   1      38.154  31.169  29.159  1.00  0.00     0.001 A 
BRANCH   6  16
ATOM     16  C   UNL A   1      32.174  30.088  26.968  1.00  0.00     0.248 C 
BRANCH  16  17
ATOM     17  C   UNL A   1      31.408  30.800  25.841  1.00  0.00     0.246 C 
ATOM     18  N   UNL A   1      30.977  30.120  24.736  1.00  0.00    -0.324 N 
ATOM     19  H   UNL A   1      30.147  30.466  24.333  1.00  0.00     0.169 HD
ATOM     20  O   UNL A   1      31.168  32.010  25.909  1.00  0.00    -0.273 OA
BRANCH  18  21
ATOM     21  C   UNL A   1      31.527  29.010  24.088  1.00  0.00     0.041 A 
ATOM     22  C   UNL A   1      32.741  26.774  22.930  1.00  0.00     0.040 A 
ATOM     23  C   UNL A   1      31.383  26.748  23.253  1.00  0.00     0.016 A 
ATOM     24  C   UNL A   1      33.511  27.902  23.217  1.00  0.00     0.016 A 
ATOM     25  C   UNL A   1      30.774  27.869  23.817  1.00  0.00     0.027 A 
ATOM     26  C   UNL A   1      32.905  29.005  23.832  1.00  0.00     0.027 A 
BRANCH  22  27
ATOM     27  C   UNL A   1      33.293  25.616  22.214  1.00  0.00     0.255 C 
ATOM     28  N   UNL A   1      33.841  24.530  22.849  1.00  0.00    -0.319 N 
ATOM     29  H   UNL A   1      34.295  23.909  22.234  1.00  0.00     0.170 HD
ATOM     30  O   UNL A   1      33.280  25.678  20.982  1.00  0.00    -0.269 OA
BRANCH  28  31
ATOM     31  C   UNL A   1      33.891  24.112  24.197  1.00  0.00     0.084 A 
ATOM     32  C   UNL A   1      35.109  23.738  24.806  1.00  0.00     0.142 A 
ATOM     33  C   UNL A   1      35.103  23.270  26.135  1.00  0.00     0.048 A 
ATOM     34  C   UNL A   1      33.926  23.165  26.868  1.00  0.00     0.004 A 
ATOM     35  C   UNL A   1      32.714  23.961  24.949  1.00  0.00     0.030 A 
ATOM     36  C   UNL A   1      32.726  23.504  26.269  1.00  0.00     0.002 A 
BRANCH  32  37
ATOM     37  O   UNL A   1      36.378  23.697  24.292  1.00  0.00    -0.495 OA
ATOM     38  C   UNL A   1      36.844  22.582  23.557  1.00  0.00     0.278 C 
ENDBRANCH  32  37
ENDBRANCH  28  31
ENDBRANCH  22  27
ENDBRANCH  18  21
ENDBRANCH  16  17
ENDBRANCH   6  16
ENDBRANCH   1   5
BRANCH   3  39
ATOM     39  C   UNL A   1      34.183  33.500  30.942  1.00  0.00     0.118 C 
BRANCH  39  40
ATOM     40  C   UNL A   1      35.257  33.889  31.957  1.00  0.00     0.042 C 
BRANCH  40  41
ATOM     41  C   UNL A   1      35.493  32.783  32.976  1.00  0.00     0.118 C 
BRANCH  41  42
ATOM     42  N   UNL A   1      35.605  33.310  34.333  1.00  0.00    -0.352 N 
ATOM     43  C   UNL A   1      36.747  33.502  35.076  1.00  0.00     0.251 C 
ATOM     44  H   UNL A   1      34.758  33.561  34.769  1.00  0.00     0.163 HD
ATOM     45  O   UNL A   1      36.688  33.630  36.295  1.00  0.00    -0.269 OA
BRANCH  43  46
ATOM     46  C   UNL A   1      38.055  33.544  34.383  1.00  0.00     0.039 A 
ATOM     47  C   UNL A   1      39.099  32.714  34.800  1.00  0.00     0.014 A 
ATOM     48  C   UNL A   1      38.242  34.423  33.313  1.00  0.00     0.014 A 
ATOM     49  C   UNL A   1      40.314  32.726  34.104  1.00  0.00     0.010 A 
ATOM     50  C   UNL A   1      39.416  34.374  32.576  1.00  0.00     0.010 A 
ATOM     51  C   UNL A   1      40.472  33.537  32.970  1.00  0.00    -0.014 A 
BRANCH  51  52
ATOM     52  C   UNL A   1      41.729  33.588  32.179  1.00  0.00     0.031 A 
ATOM     53  C   UNL A   1      42.581  34.830  32.246  1.00  0.00     0.074 A 
ATOM     54  C   UNL A   1      42.027  32.605  31.308  1.00  0.00     0.049 A 
ATOM     55  N   UNL A   1      43.553  35.210  31.459  1.00  0.00    -0.248 NA
ATOM     56  C   UNL A   1      42.254  35.800  33.307  1.00  0.00     0.031 C 
ATOM     57  C   UNL A   1      41.259  31.372  31.111  1.00  0.00     0.029 A 
ATOM     58  N   UNL A   1      43.047  32.506  30.392  1.00  0.00    -0.354 N 
ATOM     59  C   UNL A   1      43.901  36.489  31.881  1.00  0.00     0.074 A 
ATOM     60  C   UNL A   1      43.027  36.826  32.983  1.00  0.00     0.031 C 
ATOM     61  C   UNL A   1      41.836  30.643  30.141  1.00  0.00     0.029 A 
ATOM     62  C   UNL A   1      42.985  31.372  29.616  1.00  0.00     0.049 A 
ATOM     63  H   UNL A   1      43.755  33.184  30.301  1.00  0.00     0.167 HD
ATOM     64  C   UNL A   1      44.866  37.305  31.398  1.00  0.00     0.031 A 
ATOM     65  C   UNL A   1      43.755  30.977  28.584  1.00  0.00     0.031 A 
ATOM     66  C   UNL A   1      45.788  36.927  30.361  1.00  0.00     0.049 A 
ATOM     67  C   UNL A   1      44.888  31.861  28.134  1.00  0.00     0.074 A 
ATOM     68  C   UNL A   1      46.867  37.640  29.869  1.00  0.00     0.029 A 
ATOM     69  N   UNL A   1      45.755  35.721  29.680  1.00  0.00    -0.354 N 
ATOM     70  N   UNL A   1      45.228  33.049  28.574  1.00  0.00    -0.248 NA
ATOM     71  C   UNL A   1      45.745  31.347  27.056  1.00  0.00     0.031 C 
ATOM     72  C   UNL A   1      47.480  36.869  28.877  1.00  0.00     0.029 A 
ATOM     73  C   UNL A   1      46.799  35.666  28.775  1.00  0.00     0.049 A 
ATOM     74  H   UNL A   1      45.089  35.010  29.819  1.00  0.00     0.167 HD
ATOM     75  C   UNL A   1      46.356  33.411  27.846  1.00  0.00     0.074 A 
ATOM     76  C   UNL A   1      46.646  32.314  26.945  1.00  0.00     0.031 C 
ATOM     77  C   UNL A   1      47.085  34.550  27.912  1.00  0.00     0.031 A 
BRANCH  64  78
ATOM     78  C   UNL A   1      44.986  38.684  31.987  1.00  0.00    -0.014 A 
ATOM     79  C   UNL A   1      44.230  39.757  31.487  1.00  0.00     0.010 A 
ATOM     80  C   UNL A   1      45.821  38.894  33.102  1.00  0.00     0.010 A 
ATOM     81  C   UNL A   1      44.329  41.024  32.069  1.00  0.00     0.020 A 
ATOM     82  C   UNL A   1      45.903  40.152  33.702  1.00  0.00     0.020 A 
ATOM     83  C   UNL A   1      45.166  41.213  33.173  1.00  0.00     0.054 A 
BRANCH  83  84
ATOM     84  S   UNL A   1      45.238  42.855  33.942  1.00  0.00     0.124 S 
ATOM     85  O   UNL A   1      45.036  43.733  32.793  1.00  0.00    -0.237 OA
ATOM     86  O   UNL A   1      44.137  42.812  34.901  1.00  0.00    -0.237 OA
ATOM     87  O   UNL A   1      46.572  42.901  34.535  1.00  0.00    -0.744 OA
ENDBRANCH  83  84
ENDBRANCH  64  78
BRANCH  65  88
ATOM     88  C   UNL A   1      43.493  29.682  27.901  1.00  0.00    -0.014 A 
ATOM     89  C   UNL A   1      44.136  28.510  28.336  1.00  0.00     0.010 A 
ATOM     90  C   UNL A   1      42.613  29.614  26.806  1.00  0.00     0.010 A 
ATOM     91  C   UNL A   1      43.934  27.300  27.667  1.00  0.00     0.020 A 
ATOM     92  C   UNL A   1      42.389  28.400  26.149  1.00  0.00     0.020 A 
ATOM     93  C   UNL A   1      43.067  27.254  26.573  1.00  0.00     0.054 A 
BRANCH  93  94
ATOM     94  S   UNL A   1      42.798  25.669  25.730  1.00  0.00     0.124 S 
ATOM     95  O   UNL A   1      43.995  25.561  24.904  1.00  0.00    -0.237 OA
ATOM     96  O   UNL A   1      42.707  24.726  26.842  1.00  0.00    -0.237 OA
ATOM     97  O   UNL A   1      41.549  25.882  25.002  1.00  0.00    -0.744 OA
ENDBRANCH  93  94
ENDBRANCH  65  88
BRANCH  77  98
ATOM     98  C   UNL A   1      48.297  34.651  27.033  1.00  0.00    -0.014 A 
ATOM     99  C   UNL A   1      48.232  35.275  25.775  1.00  0.00     0.010 A 
ATOM    100  C   UNL A   1      49.535  34.182  27.509  1.00  0.00     0.010 A 
ATOM    101  C   UNL A   1      49.384  35.414  24.999  1.00  0.00     0.020 A 
ATOM    102  C   UNL A   1      50.692  34.337  26.743  1.00  0.00     0.020 A 
ATOM    103  C   UNL A   1      50.607  34.944  25.489  1.00  0.00     0.054 A 
BRANCH 103 104
ATOM    104  S   UNL A   1      52.103  35.193  24.493  1.00  0.00     0.124 S 
ATOM    105  O   UNL A   1      52.354  33.848  23.982  1.00  0.00    -0.237 OA
ATOM    106  O   UNL A   1      51.673  36.174  23.500  1.00  0.00    -0.237 OA
ATOM    107  O   UNL A   1      53.083  35.685  25.460  1.00  0.00    -0.744 OA
ENDBRANCH 103 104
ENDBRANCH  77  98
ENDBRANCH  51  52
ENDBRANCH  43  46
ENDBRANCH  41  42
ENDBRANCH  40  41
ENDBRANCH  39  40
ENDBRANCH   3  39
TORSDOF 19
ENDMDL
MODEL 3
REMARK VINA RESULT:     -11.7      2.445      8.391
REMARK SMILES COc1ccccc1NC(=O)c1ccc(NC(=O)Cn2nc(C(=O)NCCCNC(=O)c3ccc(-c4c5nc(c(-c6ccc(S(=O)(=O)[O-])cc6)c6ccc([nH]6)c(-c6ccc(S(=O)(=O)[O-])cc6)c6nc(c(-c7ccc(S(=O)(=O)[O-])cc7)c7ccc4[nH]7)C=C6)C=C5)cc3)c3ccccc3c2=O)cc1
REMARK SMILES IDX 23 1 24 2 25 3 22 5 20 6 21 7 98 8 97 9 99 10 92 11 96 12
REMARK SMILES IDX 93 13 95 14 94 15 19 16 17 17 16 18 18 20 15 21 12 22 13 23
REMARK SMILES IDX 101 24 14 25 100 26 10 27 9 28 11 30 8 31 3 32 4 33 5 34
REMARK SMILES IDX 7 35 6 36 2 37 1 38 26 39 27 40 28 41 29 42 30 43 31 45
REMARK SMILES IDX 32 46 33 47 91 48 34 49 90 50 35 51 36 52 37 53 84 54 38 55
REMARK SMILES IDX 89 56 83 57 85 58 39 59 88 60 82 61 81 62 40 64 70 65 51 66
REMARK SMILES IDX 69 67 52 68 55 69 68 70 86 71 53 72 54 73 67 75 87 76 56 77
REMARK SMILES IDX 41 78 42 79 50 80 43 81 49 82 44 83 45 84 46 85 47 86 48 87
REMARK SMILES IDX 71 88 72 89 80 90 73 91 79 92 74 93 75 94 76 95 77 96 78 97
REMARK SMILES IDX 57 98 58 99 66 100 59 101 65 102 60 103 61 104 62 105 63 106
REMARK SMILES IDX 64 107
REMARK H PARENT 25 4 16 19 9 29 29 44 85 63 55 74
REMARK Flexibility Score: inf
ROOT
ATOM      1  C   UNL A   1      34.665  22.352  26.816  1.00  0.00     0.272 C 
ATOM      2  O   UNL A   1      34.222  22.135  27.931  1.00  0.00    -0.267 OA
ATOM      3  N   UNL A   1      35.893  21.859  26.432  1.00  0.00    -0.351 N 
ATOM      4  H   UNL A   1      36.271  21.139  26.986  1.00  0.00     0.163 HD
ENDROOT
BRANCH   1   5
ATOM      5  C   UNL A   1      33.828  23.113  25.783  1.00  0.00     0.156 A 
ATOM      6  N   UNL A   1      33.140  25.140  24.894  1.00  0.00    -0.219 N 
ATOM      7  N   UNL A   1      33.753  24.410  25.893  1.00  0.00    -0.163 NA
ATOM      8  C   UNL A   1      32.565  24.561  23.764  1.00  0.00     0.275 A 
ATOM      9  C   UNL A   1      32.611  23.093  23.669  1.00  0.00     0.051 A 
ATOM     10  O   UNL A   1      32.022  25.193  22.861  1.00  0.00    -0.267 OA
ATOM     11  C   UNL A   1      33.184  22.353  24.694  1.00  0.00     0.020 A 
ATOM     12  C   UNL A   1      32.020  22.448  22.572  1.00  0.00     0.014 A 
ATOM     13  C   UNL A   1      33.109  20.953  24.652  1.00  0.00     0.011 A 
ATOM     14  C   UNL A   1      31.960  21.056  22.527  1.00  0.00     0.001 A 
ATOM     15  C   UNL A   1      32.487  20.310  23.577  1.00  0.00     0.001 A 
BRANCH   6  16
ATOM     16  C   UNL A   1      32.872  26.554  25.186  1.00  0.00     0.248 C 
BRANCH  16  17
ATOM     17  C   UNL A   1      31.805  26.808  26.263  1.00  0.00     0.246 C 
ATOM     18  N   UNL A   1      31.683  28.028  26.868  1.00  0.00    -0.324 N 
ATOM     19  H   UNL A   1      30.767  28.264  27.147  1.00  0.00     0.169 HD
ATOM     20  O   UNL A   1      31.032  25.907  26.611  1.00  0.00    -0.273 OA
BRANCH  18  21
ATOM     21  C   UNL A   1      32.652  28.995  27.153  1.00  0.00     0.041 A 
ATOM     22  C   UNL A   1      34.678  30.874  27.576  1.00  0.00     0.040 A 
ATOM     23  C   UNL A   1      33.359  31.292  27.384  1.00  0.00     0.016 A 
ATOM     24  C   UNL A   1      35.000  29.517  27.520  1.00  0.00     0.016 A 
ATOM     25  C   UNL A   1      32.346  30.354  27.188  1.00  0.00     0.027 A 
ATOM     26  C   UNL A   1      33.986  28.583  27.271  1.00  0.00     0.027 A 
BRANCH  22  27
ATOM     27  C   UNL A   1      35.675  31.899  27.914  1.00  0.00     0.255 C 
ATOM     28  N   UNL A   1      36.705  31.684  28.795  1.00  0.00    -0.319 N 
ATOM     29  H   UNL A   1      37.197  32.505  29.026  1.00  0.00     0.170 HD
ATOM     30  O   UNL A   1      35.521  33.005  27.391  1.00  0.00    -0.269 OA
BRANCH  28  31
ATOM     31  C   UNL A   1      37.212  30.534  29.440  1.00  0.00     0.084 A 
ATOM     32  C   UNL A   1      38.110  29.661  28.788  1.00  0.00     0.142 A 
ATOM     33  C   UNL A   1      38.543  28.494  29.449  1.00  0.00     0.048 A 
ATOM     34  C   UNL A   1      38.107  28.174  30.731  1.00  0.00     0.004 A 
ATOM     35  C   UNL A   1      36.761  30.168  30.720  1.00  0.00     0.030 A 
ATOM     36  C   UNL A   1      37.206  29.011  31.364  1.00  0.00     0.002 A 
BRANCH  32  37
ATOM     37  O   UNL A   1      38.638  29.718  27.526  1.00  0.00    -0.495 OA
ATOM     38  C   UNL A   1      39.752  28.931  27.152  1.00  0.00     0.278 C 
ENDBRANCH  32  37
ENDBRANCH  28  31
ENDBRANCH  22  27
ENDBRANCH  18  21
ENDBRANCH  16  17
ENDBRANCH   6  16
ENDBRANCH   1   5
BRANCH   3  39
ATOM     39  C   UNL A   1      36.687  22.292  25.297  1.00  0.00     0.118 C 
BRANCH  39  40
ATOM     40  C   UNL A   1      37.383  23.610  25.637  1.00  0.00     0.042 C 
BRANCH  40  41
ATOM     41  C   UNL A   1      38.416  23.430  26.740  1.00  0.00     0.118 C 
BRANCH  41  42
ATOM     42  N   UNL A   1      39.161  22.184  26.587  1.00  0.00    -0.352 N 
ATOM     43  C   UNL A   1      40.527  22.009  26.575  1.00  0.00     0.251 C 
ATOM     44  H   UNL A   1      38.621  21.368  26.480  1.00  0.00     0.163 HD
ATOM     45  O   UNL A   1      41.023  20.988  26.112  1.00  0.00    -0.269 OA
BRANCH  43  46
ATOM     46  C   UNL A   1      41.391  23.078  27.124  1.00  0.00     0.039 A 
ATOM     47  C   UNL A   1      41.921  22.962  28.412  1.00  0.00     0.014 A 
ATOM     48  C   UNL A   1      41.671  24.207  26.350  1.00  0.00     0.014 A 
ATOM     49  C   UNL A   1      42.778  23.955  28.901  1.00  0.00     0.010 A 
ATOM     50  C   UNL A   1      42.584  25.148  26.804  1.00  0.00     0.010 A 
ATOM     51  C   UNL A   1      43.138  25.042  28.089  1.00  0.00    -0.014 A 
BRANCH  51  52
ATOM     52  C   UNL A   1      44.053  26.122  28.541  1.00  0.00     0.031 A 
ATOM     53  C   UNL A   1      43.473  27.311  29.265  1.00  0.00     0.074 A 
ATOM     54  C   UNL A   1      45.352  26.111  28.183  1.00  0.00     0.049 A 
ATOM     55  N   UNL A   1      44.014  28.476  29.510  1.00  0.00    -0.248 NA
ATOM     56  C   UNL A   1      42.077  27.190  29.724  1.00  0.00     0.031 C 
ATOM     57  C   UNL A   1      46.026  25.043  27.440  1.00  0.00     0.029 A 
ATOM     58  N   UNL A   1      46.334  27.053  28.370  1.00  0.00    -0.354 N 
ATOM     59  C   UNL A   1      43.006  29.247  30.079  1.00  0.00     0.074 A 
ATOM     60  C   UNL A   1      41.818  28.424  30.130  1.00  0.00     0.031 C 
ATOM     61  C   UNL A   1      47.308  25.390  27.237  1.00  0.00     0.029 A 
ATOM     62  C   UNL A   1      47.538  26.718  27.794  1.00  0.00     0.049 A 
ATOM     63  H   UNL A   1      46.189  27.889  28.868  1.00  0.00     0.167 HD
ATOM     64  C   UNL A   1      43.068  30.523  30.525  1.00  0.00     0.031 A 
ATOM     65  C   UNL A   1      48.688  27.413  27.707  1.00  0.00     0.031 A 
ATOM     66  C   UNL A   1      44.275  31.303  30.551  1.00  0.00     0.049 A 
ATOM     67  C   UNL A   1      48.758  28.794  28.304  1.00  0.00     0.074 A 
ATOM     68  C   UNL A   1      44.469  32.569  31.076  1.00  0.00     0.029 A 
ATOM     69  N   UNL A   1      45.498  30.878  30.058  1.00  0.00    -0.354 N 
ATOM     70  N   UNL A   1      47.805  29.490  28.877  1.00  0.00    -0.248 NA
ATOM     71  C   UNL A   1      50.058  29.477  28.251  1.00  0.00     0.031 C 
ATOM     72  C   UNL A   1      45.810  32.917  30.885  1.00  0.00     0.029 A 
ATOM     73  C   UNL A   1      46.454  31.855  30.271  1.00  0.00     0.049 A 
ATOM     74  H   UNL A   1      45.662  30.012  29.621  1.00  0.00     0.167 HD
ATOM     75  C   UNL A   1      48.399  30.681  29.277  1.00  0.00     0.074 A 
ATOM     76  C   UNL A   1      49.793  30.607  28.892  1.00  0.00     0.031 C 
ATOM     77  C   UNL A   1      47.841  31.744  29.905  1.00  0.00     0.031 A 
BRANCH  64  78
ATOM     78  C   UNL A   1      41.801  31.157  31.031  1.00  0.00    -0.014 A 
ATOM     79  C   UNL A   1      41.461  31.116  32.394  1.00  0.00     0.010 A 
ATOM     80  C   UNL A   1      40.971  31.861  30.138  1.00  0.00     0.010 A 
ATOM     81  C   UNL A   1      40.297  31.741  32.851  1.00  0.00     0.020 A 
ATOM     82  C   UNL A   1      39.820  32.508  30.595  1.00  0.00     0.020 A 
ATOM     83  C   UNL A   1      39.484  32.432  31.948  1.00  0.00     0.054 A 
BRANCH  83  84
ATOM     84  S   UNL A   1      38.005  33.276  32.575  1.00  0.00     0.124 S 
ATOM     85  O   UNL A   1      38.588  34.399  33.305  1.00  0.00    -0.237 OA
ATOM     86  O   UNL A   1      37.290  33.628  31.351  1.00  0.00    -0.237 OA
ATOM     87  O   UNL A   1      37.354  32.265  33.402  1.00  0.00    -0.744 OA
ENDBRANCH  83  84
ENDBRANCH  64  78
BRANCH  65  88
ATOM     88  C   UNL A   1      49.876  26.822  27.035  1.00  0.00    -0.014 A 
ATOM     89  C   UNL A   1      50.790  26.046  27.769  1.00  0.00     0.010 A 
ATOM     90  C   UNL A   1      50.109  27.043  25.666  1.00  0.00     0.010 A 
ATOM     91  C   UNL A   1      51.935  25.530  27.155  1.00  0.00     0.020 A 
ATOM     92  C   UNL A   1      51.241  26.509  25.043  1.00  0.00     0.020 A 
ATOM     93  C   UNL A   1      52.157  25.771  25.797  1.00  0.00     0.054 A 
BRANCH  93  94
ATOM     94  S   UNL A   1      53.637  25.075  25.011  1.00  0.00     0.124 S 
ATOM     95  O   UNL A   1      54.708  25.693  25.785  1.00  0.00    -0.237 OA
ATOM     96  O   UNL A   1      53.460  23.638  25.210  1.00  0.00    -0.237 OA
ATOM     97  O   UNL A   1      53.525  25.522  23.624  1.00  0.00    -0.744 OA
ENDBRANCH  93  94
ENDBRANCH  65  88
BRANCH  77  98
ATOM     98  C   UNL A   1      48.743  32.888  30.266  1.00  0.00    -0.014 A 
ATOM     99  C   UNL A   1      48.919  33.978  29.396  1.00  0.00     0.010 A 
ATOM    100  C   UNL A   1      49.360  32.907  31.531  1.00  0.00     0.010 A 
ATOM    101  C   UNL A   1      49.712  35.061  29.777  1.00  0.00     0.020 A 
ATOM    102  C   UNL A   1      50.139  33.998  31.922  1.00  0.00     0.020 A 
ATOM    103  C   UNL A   1      50.317  35.064  31.038  1.00  0.00     0.054 A 
BRANCH 103 104
ATOM    104  S   UNL A   1      51.291  36.510  31.539  1.00  0.00     0.124 S 
ATOM    105  O   UNL A   1      52.437  36.432  30.638  1.00  0.00    -0.237 OA
ATOM    106  O   UNL A   1      50.373  37.620  31.296  1.00  0.00    -0.237 OA
ATOM    107  O   UNL A   1      51.588  36.255  32.948  1.00  0.00    -0.744 OA
ENDBRANCH 103 104
ENDBRANCH  77  98
ENDBRANCH  51  52
ENDBRANCH  43  46
ENDBRANCH  41  42
ENDBRANCH  40  41
ENDBRANCH  39  40
ENDBRANCH   3  39
TORSDOF 19
ENDMDL
