MODEL 1
REMARK VINA RESULT:     -13.1      0.000      0.000
REMARK SMILES Cc1cc(C(=O)NCCCNC(=O)c2ccc(-c3c4nc(c(-c5ccc(S(=O)(=O)[O-])cc5)c5ccc([nH]5)c(-c5ccc(S(=O)(=O)[O-])cc5)c5nc(c(-c6ccc(S(=O)(=O)[O-])cc6)c6ccc3[nH]6)C=C5)C=C4)cc2)ccc1NS(=O)(=O)c1ccc2c(c1)CCC2
REMARK SMILES IDX 9 1 8 2 7 3 5 4 6 5 4 7 1 8 2 9 3 10 76 11 75 12 74 13 77 14
REMARK SMILES IDX 78 16 79 17 80 18 81 19 82 20 86 21 83 22 85 23 84 24 87 25
REMARK SMILES IDX 89 26 88 27 10 28 11 29 12 30 13 32 14 33 15 34 73 35 16 36
REMARK SMILES IDX 72 37 17 38 18 39 19 40 66 41 20 42 71 43 65 44 67 45 21 46
REMARK SMILES IDX 70 47 64 48 63 49 22 51 52 52 33 53 51 54 34 55 37 56 50 57
REMARK SMILES IDX 68 58 35 59 36 60 49 62 69 63 38 64 23 65 24 66 32 67 25 68
REMARK SMILES IDX 31 69 26 70 27 71 28 72 29 73 30 74 53 75 54 76 62 77 55 78
REMARK SMILES IDX 61 79 56 80 57 81 58 82 59 83 60 84 39 85 40 86 48 87 41 88
REMARK SMILES IDX 47 89 42 90 43 91 44 92 45 93 46 94
REMARK H PARENT 7 6 77 15 11 31 67 50 37 61
REMARK Flexibility Score: inf
ROOT
ATOM      1  C   UNL A   1      37.149  20.205  24.677  1.00  0.00     0.042 C 
ENDROOT
BRANCH   1   2
ATOM      2  C   UNL A   1      35.557  20.105  24.983  1.00  0.00     0.118 C 
BRANCH   2   3
ATOM      3  N   UNL A   1      34.982  20.794  26.158  1.00  0.00    -0.352 N 
ATOM      4  C   UNL A   1      33.811  21.470  26.451  1.00  0.00     0.251 C 
ATOM      5  O   UNL A   1      33.527  21.699  27.629  1.00  0.00    -0.269 OA
ATOM      6  H   UNL A   1      35.589  20.763  26.932  1.00  0.00     0.163 HD
BRANCH   4   7
ATOM      7  C   UNL A   1      32.880  22.005  25.415  1.00  0.00     0.040 A 
ATOM      8  C   UNL A   1      30.575  25.014  24.988  1.00  0.00     0.046 C 
ATOM      9  C   UNL A   1      31.460  23.848  24.640  1.00  0.00    -0.026 A 
ATOM     10  C   UNL A   1      32.099  23.145  25.688  1.00  0.00     0.019 A 
ATOM     11  C   UNL A   1      31.640  23.394  23.323  1.00  0.00     0.052 A 
ATOM     12  C   UNL A   1      32.063  22.096  23.134  1.00  0.00     0.028 A 
ATOM     13  C   UNL A   1      32.779  21.473  24.142  1.00  0.00     0.016 A 
BRANCH  11  14
ATOM     14  N   UNL A   1      31.823  24.329  22.257  1.00  0.00    -0.279 N 
ATOM     15  H   UNL A   1      31.109  24.370  21.581  1.00  0.00     0.180 HD
BRANCH  14  16
ATOM     16  S   UNL A   1      33.131  25.368  22.036  1.00  0.00     0.261 S 
ATOM     17  O   UNL A   1      34.310  24.682  22.582  1.00  0.00    -0.201 OA
ATOM     18  O   UNL A   1      33.094  25.764  20.663  1.00  0.00    -0.201 OA
BRANCH  16  19
ATOM     19  C   UNL A   1      32.956  26.875  23.010  1.00  0.00     0.088 A 
ATOM     20  C   UNL A   1      31.980  27.844  22.753  1.00  0.00     0.022 A 
ATOM     21  C   UNL A   1      33.741  26.978  24.176  1.00  0.00     0.026 A 
ATOM     22  C   UNL A   1      31.625  28.753  23.758  1.00  0.00     0.005 A 
ATOM     23  C   UNL A   1      33.394  27.915  25.142  1.00  0.00    -0.043 A 
ATOM     24  C   UNL A   1      32.260  28.706  24.984  1.00  0.00    -0.045 A 
ATOM     25  C   UNL A   1      34.076  28.284  26.422  1.00  0.00     0.036 C 
ATOM     26  C   UNL A   1      31.915  29.429  26.254  1.00  0.00     0.036 C 
ATOM     27  C   UNL A   1      32.878  28.757  27.254  1.00  0.00     0.010 C 
ENDBRANCH  16  19
ENDBRANCH  14  16
ENDBRANCH  11  14
ENDBRANCH   4   7
ENDBRANCH   2   3
ENDBRANCH   1   2
BRANCH   1  28
ATOM     28  C   UNL A   1      37.768  21.495  25.364  1.00  0.00     0.118 C 
BRANCH  28  29
ATOM     29  N   UNL A   1      39.167  22.057  25.908  1.00  0.00    -0.352 N 
ATOM     30  C   UNL A   1      39.764  23.157  26.799  1.00  0.00     0.251 C 
ATOM     31  H   UNL A   1      39.899  21.507  25.545  1.00  0.00     0.163 HD
ATOM     32  O   UNL A   1      40.441  22.646  27.718  1.00  0.00    -0.269 OA
BRANCH  30  33
ATOM     33  C   UNL A   1      39.791  24.840  26.891  1.00  0.00     0.039 A 
ATOM     34  C   UNL A   1      40.423  25.670  25.894  1.00  0.00     0.014 A 
ATOM     35  C   UNL A   1      39.348  25.643  27.939  1.00  0.00     0.014 A 
ATOM     36  C   UNL A   1      41.131  26.917  26.266  1.00  0.00     0.010 A 
ATOM     37  C   UNL A   1      40.073  26.828  28.332  1.00  0.00     0.010 A 
ATOM     38  C   UNL A   1      41.190  27.295  27.625  1.00  0.00    -0.014 A 
BRANCH  38  39
ATOM     39  C   UNL A   1      42.491  27.730  28.414  1.00  0.00     0.031 A 
ATOM     40  C   UNL A   1      43.703  26.988  28.108  1.00  0.00     0.074 A 
ATOM     41  C   UNL A   1      42.809  28.787  29.255  1.00  0.00     0.049 A 
ATOM     42  N   UNL A   1      44.367  26.235  28.920  1.00  0.00    -0.248 NA
ATOM     43  C   UNL A   1      44.253  27.095  26.766  1.00  0.00     0.031 C 
ATOM     44  C   UNL A   1      44.033  29.187  29.994  1.00  0.00     0.029 A 
ATOM     45  N   UNL A   1      42.012  29.820  29.714  1.00  0.00    -0.354 N 
ATOM     46  C   UNL A   1      45.576  26.050  28.285  1.00  0.00     0.074 A 
ATOM     47  C   UNL A   1      45.315  26.300  26.882  1.00  0.00     0.031 C 
ATOM     48  C   UNL A   1      43.697  29.981  31.050  1.00  0.00     0.029 A 
ATOM     49  C   UNL A   1      42.256  30.112  31.050  1.00  0.00     0.049 A 
ATOM     50  H   UNL A   1      41.352  30.294  29.159  1.00  0.00     0.167 HD
ATOM     51  C   UNL A   1      46.764  26.125  28.962  1.00  0.00     0.031 A 
ATOM     52  C   UNL A   1      41.337  29.720  32.000  1.00  0.00     0.031 A 
ATOM     53  C   UNL A   1      46.585  26.609  30.346  1.00  0.00     0.049 A 
ATOM     54  C   UNL A   1      41.881  28.586  32.826  1.00  0.00     0.074 A 
ATOM     55  C   UNL A   1      46.989  27.762  31.008  1.00  0.00     0.029 A 
ATOM     56  N   UNL A   1      45.623  26.032  31.170  1.00  0.00    -0.354 N 
ATOM     57  N   UNL A   1      43.018  28.019  32.562  1.00  0.00    -0.248 NA
ATOM     58  C   UNL A   1      41.205  27.961  33.954  1.00  0.00     0.031 C 
ATOM     59  C   UNL A   1      46.229  27.886  32.210  1.00  0.00     0.029 A 
ATOM     60  C   UNL A   1      45.392  26.789  32.306  1.00  0.00     0.049 A 
ATOM     61  H   UNL A   1      45.162  25.186  30.967  1.00  0.00     0.167 HD
ATOM     62  C   UNL A   1      43.271  27.009  33.429  1.00  0.00     0.074 A 
ATOM     63  C   UNL A   1      42.093  27.002  34.285  1.00  0.00     0.031 C 
ATOM     64  C   UNL A   1      44.438  26.308  33.317  1.00  0.00     0.031 A 
BRANCH  51  65
ATOM     65  C   UNL A   1      48.109  26.070  28.246  1.00  0.00    -0.014 A 
ATOM     66  C   UNL A   1      48.675  27.223  27.670  1.00  0.00     0.010 A 
ATOM     67  C   UNL A   1      48.901  24.904  28.166  1.00  0.00     0.010 A 
ATOM     68  C   UNL A   1      49.918  27.192  27.007  1.00  0.00     0.020 A 
ATOM     69  C   UNL A   1      50.105  24.837  27.453  1.00  0.00     0.020 A 
ATOM     70  C   UNL A   1      50.620  25.993  26.889  1.00  0.00     0.054 A 
BRANCH  70  71
ATOM     71  S   UNL A   1      52.242  25.967  26.084  1.00  0.00     0.124 S 
ATOM     72  O   UNL A   1      52.454  24.544  25.839  1.00  0.00    -0.237 OA
ATOM     73  O   UNL A   1      52.013  26.787  24.898  1.00  0.00    -0.237 OA
ATOM     74  O   UNL A   1      53.135  26.561  27.079  1.00  0.00    -0.744 OA
ENDBRANCH  70  71
ENDBRANCH  51  65
BRANCH  52  75
ATOM     75  C   UNL A   1      39.862  29.786  31.581  1.00  0.00    -0.014 A 
ATOM     76  C   UNL A   1      39.011  28.882  32.211  1.00  0.00     0.010 A 
ATOM     77  C   UNL A   1      39.377  31.075  31.585  1.00  0.00     0.010 A 
ATOM     78  C   UNL A   1      38.264  29.290  33.334  1.00  0.00     0.020 A 
ATOM     79  C   UNL A   1      38.741  31.433  32.793  1.00  0.00     0.020 A 
ATOM     80  C   UNL A   1      38.289  30.607  33.768  1.00  0.00     0.054 A 
BRANCH  80  81
ATOM     81  S   UNL A   1      38.261  31.384  35.756  1.00  0.00     0.124 S 
ATOM     82  O   UNL A   1      39.562  32.038  35.859  1.00  0.00    -0.237 OA
ATOM     83  O   UNL A   1      37.152  32.318  35.782  1.00  0.00    -0.237 OA
ATOM     84  O   UNL A   1      38.107  30.249  36.657  1.00  0.00    -0.744 OA
ENDBRANCH  80  81
ENDBRANCH  52  75
BRANCH  64  85
ATOM     85  C   UNL A   1      44.849  25.109  34.133  1.00  0.00    -0.014 A 
ATOM     86  C   UNL A   1      44.870  23.788  33.676  1.00  0.00     0.010 A 
ATOM     87  C   UNL A   1      45.251  25.318  35.477  1.00  0.00     0.010 A 
ATOM     88  C   UNL A   1      45.319  22.745  34.491  1.00  0.00     0.020 A 
ATOM     89  C   UNL A   1      45.718  24.294  36.295  1.00  0.00     0.020 A 
ATOM     90  C   UNL A   1      45.752  23.006  35.790  1.00  0.00     0.054 A 
BRANCH  90  91
ATOM     91  S   UNL A   1      46.346  21.639  36.799  1.00  0.00     0.124 S 
ATOM     92  O   UNL A   1      45.874  22.017  38.130  1.00  0.00    -0.237 OA
ATOM     93  O   UNL A   1      45.669  20.494  36.195  1.00  0.00    -0.237 OA
ATOM     94  O   UNL A   1      47.795  21.671  36.620  1.00  0.00    -0.744 OA
ENDBRANCH  90  91
ENDBRANCH  64  85
ENDBRANCH  38  39
ENDBRANCH  30  33
ENDBRANCH  28  29
ENDBRANCH   1  28
TORSDOF 16
ENDMDL
MODEL 2
REMARK VINA RESULT:     -13.0      1.470      2.616
REMARK SMILES Cc1cc(C(=O)NCCCNC(=O)c2ccc(-c3c4nc(c(-c5ccc(S(=O)(=O)[O-])cc5)c5ccc([nH]5)c(-c5ccc(S(=O)(=O)[O-])cc5)c5nc(c(-c6ccc(S(=O)(=O)[O-])cc6)c6ccc3[nH]6)C=C5)C=C4)cc2)ccc1NS(=O)(=O)c1ccc2c(c1)CCC2
REMARK SMILES IDX 9 1 8 2 7 3 5 4 6 5 4 7 1 8 2 9 3 10 76 11 75 12 74 13 77 14
REMARK SMILES IDX 78 16 79 17 80 18 81 19 82 20 86 21 83 22 85 23 84 24 87 25
REMARK SMILES IDX 89 26 88 27 10 28 11 29 12 30 13 32 14 33 15 34 73 35 16 36
REMARK SMILES IDX 72 37 17 38 18 39 19 40 66 41 20 42 71 43 65 44 67 45 21 46
REMARK SMILES IDX 70 47 64 48 63 49 22 51 52 52 33 53 51 54 34 55 37 56 50 57
REMARK SMILES IDX 68 58 35 59 36 60 49 62 69 63 38 64 23 65 24 66 32 67 25 68
REMARK SMILES IDX 31 69 26 70 27 71 28 72 29 73 30 74 53 75 54 76 62 77 55 78
REMARK SMILES IDX 61 79 56 80 57 81 58 82 59 83 60 84 39 85 40 86 48 87 41 88
REMARK SMILES IDX 47 89 42 90 43 91 44 92 45 93 46 94
REMARK H PARENT 7 6 77 15 11 31 67 50 37 61
REMARK Flexibility Score: inf
ROOT
ATOM      1  C   UNL A   1      36.442  22.808  24.651  1.00  0.00     0.042 C 
ENDROOT
BRANCH   1   2
ATOM      2  C   UNL A   1      35.720  23.940  25.564  1.00  0.00     0.118 C 
BRANCH   2   3
ATOM      3  N   UNL A   1      34.465  23.628  26.280  1.00  0.00    -0.352 N 
ATOM      4  C   UNL A   1      33.222  24.217  26.429  1.00  0.00     0.251 C 
ATOM      5  O   UNL A   1      32.292  23.551  26.889  1.00  0.00    -0.269 OA
ATOM      6  H   UNL A   1      34.530  22.782  26.778  1.00  0.00     0.163 HD
BRANCH   4   7
ATOM      7  C   UNL A   1      32.940  25.650  26.122  1.00  0.00     0.040 A 
ATOM      8  C   UNL A   1      34.144  28.287  23.643  1.00  0.00     0.046 C 
ATOM      9  C   UNL A   1      33.260  27.562  24.622  1.00  0.00    -0.026 A 
ATOM     10  C   UNL A   1      33.702  26.327  25.151  1.00  0.00     0.019 A 
ATOM     11  C   UNL A   1      32.036  28.084  25.074  1.00  0.00     0.052 A 
ATOM     12  C   UNL A   1      31.531  27.617  26.269  1.00  0.00     0.028 A 
ATOM     13  C   UNL A   1      31.904  26.357  26.705  1.00  0.00     0.016 A 
BRANCH  11  14
ATOM     14  N   UNL A   1      31.137  28.712  24.156  1.00  0.00    -0.279 N 
ATOM     15  H   UNL A   1      31.062  29.691  24.215  1.00  0.00     0.180 HD
BRANCH  14  16
ATOM     16  S   UNL A   1      30.192  27.952  22.986  1.00  0.00     0.261 S 
ATOM     17  O   UNL A   1      28.950  27.537  23.653  1.00  0.00    -0.201 OA
ATOM     18  O   UNL A   1      30.152  28.844  21.870  1.00  0.00    -0.201 OA
BRANCH  16  19
ATOM     19  C   UNL A   1      30.957  26.429  22.399  1.00  0.00     0.088 A 
ATOM     20  C   UNL A   1      31.908  26.395  21.374  1.00  0.00     0.022 A 
ATOM     21  C   UNL A   1      30.691  25.255  23.133  1.00  0.00     0.026 A 
ATOM     22  C   UNL A   1      32.754  25.285  21.249  1.00  0.00     0.005 A 
ATOM     23  C   UNL A   1      31.519  24.152  22.963  1.00  0.00    -0.043 A 
ATOM     24  C   UNL A   1      32.624  24.220  22.119  1.00  0.00    -0.045 A 
ATOM     25  C   UNL A   1      31.432  22.777  23.550  1.00  0.00     0.036 C 
ATOM     26  C   UNL A   1      33.529  23.036  22.304  1.00  0.00     0.036 C 
ATOM     27  C   UNL A   1      32.913  22.380  23.557  1.00  0.00     0.010 C 
ENDBRANCH  16  19
ENDBRANCH  14  16
ENDBRANCH  11  14
ENDBRANCH   4   7
ENDBRANCH   2   3
ENDBRANCH   1   2
BRANCH   1  28
ATOM     28  C   UNL A   1      37.692  22.192  25.414  1.00  0.00     0.118 C 
BRANCH  28  29
ATOM     29  N   UNL A   1      39.136  22.614  25.967  1.00  0.00    -0.352 N 
ATOM     30  C   UNL A   1      39.833  23.651  26.861  1.00  0.00     0.251 C 
ATOM     31  H   UNL A   1      39.812  21.993  25.609  1.00  0.00     0.163 HD
ATOM     32  O   UNL A   1      40.449  23.077  27.785  1.00  0.00    -0.269 OA
BRANCH  30  33
ATOM     33  C   UNL A   1      40.027  25.323  26.951  1.00  0.00     0.039 A 
ATOM     34  C   UNL A   1      40.806  26.075  25.998  1.00  0.00     0.014 A 
ATOM     35  C   UNL A   1      39.600  26.177  27.965  1.00  0.00     0.014 A 
ATOM     36  C   UNL A   1      41.612  27.246  26.414  1.00  0.00     0.010 A 
ATOM     37  C   UNL A   1      40.415  27.284  28.404  1.00  0.00     0.010 A 
ATOM     38  C   UNL A   1      41.619  27.628  27.773  1.00  0.00    -0.014 A 
BRANCH  38  39
ATOM     39  C   UNL A   1      42.902  27.934  28.647  1.00  0.00     0.031 A 
ATOM     40  C   UNL A   1      44.099  27.181  28.312  1.00  0.00     0.074 A 
ATOM     41  C   UNL A   1      43.222  28.891  29.601  1.00  0.00     0.049 A 
ATOM     42  N   UNL A   1      44.705  26.328  29.068  1.00  0.00    -0.248 NA
ATOM     43  C   UNL A   1      44.704  27.399  27.008  1.00  0.00     0.031 C 
ATOM     44  C   UNL A   1      44.429  29.170  30.419  1.00  0.00     0.029 A 
ATOM     45  N   UNL A   1      42.443  29.903  30.131  1.00  0.00    -0.354 N 
ATOM     46  C   UNL A   1      45.931  26.161  28.461  1.00  0.00     0.074 A 
ATOM     47  C   UNL A   1      45.733  26.557  27.082  1.00  0.00     0.031 C 
ATOM     48  C   UNL A   1      44.079  29.868  31.536  1.00  0.00     0.029 A 
ATOM     49  C   UNL A   1      42.644  30.053  31.498  1.00  0.00     0.049 A 
ATOM     50  H   UNL A   1      41.821  30.453  29.603  1.00  0.00     0.167 HD
ATOM     51  C   UNL A   1      47.093  26.124  29.184  1.00  0.00     0.031 A 
ATOM     52  C   UNL A   1      41.676  29.603  32.370  1.00  0.00     0.031 A 
ATOM     53  C   UNL A   1      46.877  26.477  30.602  1.00  0.00     0.049 A 
ATOM     54  C   UNL A   1      42.149  28.375  33.098  1.00  0.00     0.074 A 
ATOM     55  C   UNL A   1      47.293  27.543  31.390  1.00  0.00     0.029 A 
ATOM     56  N   UNL A   1      45.865  25.857  31.329  1.00  0.00    -0.354 N 
ATOM     57  N   UNL A   1      43.275  27.794  32.820  1.00  0.00    -0.248 NA
ATOM     58  C   UNL A   1      41.409  27.667  34.134  1.00  0.00     0.031 C 
ATOM     59  C   UNL A   1      46.491  27.576  32.570  1.00  0.00     0.029 A 
ATOM     60  C   UNL A   1      45.615  26.507  32.527  1.00  0.00     0.049 A 
ATOM     61  H   UNL A   1      45.384  25.054  31.027  1.00  0.00     0.167 HD
ATOM     62  C   UNL A   1      43.460  26.695  33.590  1.00  0.00     0.074 A 
ATOM     63  C   UNL A   1      42.250  26.647  34.398  1.00  0.00     0.031 C 
ATOM     64  C   UNL A   1      44.607  25.965  33.450  1.00  0.00     0.031 A 
BRANCH  51  65
ATOM     65  C   UNL A   1      48.463  26.090  28.514  1.00  0.00    -0.014 A 
ATOM     66  C   UNL A   1      49.034  24.877  28.085  1.00  0.00     0.010 A 
ATOM     67  C   UNL A   1      49.215  27.249  28.220  1.00  0.00     0.010 A 
ATOM     68  C   UNL A   1      50.297  24.826  27.461  1.00  0.00     0.020 A 
ATOM     69  C   UNL A   1      50.500  27.213  27.665  1.00  0.00     0.020 A 
ATOM     70  C   UNL A   1      51.030  25.996  27.269  1.00  0.00     0.054 A 
BRANCH  70  71
ATOM     71  S   UNL A   1      52.628  25.934  26.419  1.00  0.00     0.124 S 
ATOM     72  O   UNL A   1      52.651  24.577  25.881  1.00  0.00    -0.237 OA
ATOM     73  O   UNL A   1      52.498  27.003  25.434  1.00  0.00    -0.237 OA
ATOM     74  O   UNL A   1      53.599  26.192  27.482  1.00  0.00    -0.744 OA
ENDBRANCH  70  71
ENDBRANCH  51  65
BRANCH  52  75
ATOM     75  C   UNL A   1      40.221  29.766  31.908  1.00  0.00    -0.014 A 
ATOM     76  C   UNL A   1      39.307  28.870  32.456  1.00  0.00     0.010 A 
ATOM     77  C   UNL A   1      39.798  31.074  31.971  1.00  0.00     0.010 A 
ATOM     78  C   UNL A   1      38.541  29.250  33.576  1.00  0.00     0.020 A 
ATOM     79  C   UNL A   1      39.137  31.394  33.177  1.00  0.00     0.020 A 
ATOM     80  C   UNL A   1      38.612  30.537  34.087  1.00  0.00     0.054 A 
BRANCH  80  81
ATOM     81  S   UNL A   1      38.551  31.200  36.115  1.00  0.00     0.124 S 
ATOM     82  O   UNL A   1      39.963  31.237  36.480  1.00  0.00    -0.237 OA
ATOM     83  O   UNL A   1      37.943  32.516  36.064  1.00  0.00    -0.237 OA
ATOM     84  O   UNL A   1      37.780  30.215  36.863  1.00  0.00    -0.744 OA
ENDBRANCH  80  81
ENDBRANCH  52  75
BRANCH  64  85
ATOM     85  C   UNL A   1      44.945  24.677  34.156  1.00  0.00    -0.014 A 
ATOM     86  C   UNL A   1      44.090  23.580  34.291  1.00  0.00     0.010 A 
ATOM     87  C   UNL A   1      46.233  24.549  34.738  1.00  0.00     0.010 A 
ATOM     88  C   UNL A   1      44.511  22.403  34.918  1.00  0.00     0.020 A 
ATOM     89  C   UNL A   1      46.673  23.379  35.348  1.00  0.00     0.020 A 
ATOM     90  C   UNL A   1      45.804  22.306  35.430  1.00  0.00     0.054 A 
BRANCH  90  91
ATOM     91  S   UNL A   1      46.316  20.766  36.208  1.00  0.00     0.124 S 
ATOM     92  O   UNL A   1      45.640  20.839  37.501  1.00  0.00    -0.237 OA
ATOM     93  O   UNL A   1      45.793  19.764  35.282  1.00  0.00    -0.237 OA
ATOM     94  O   UNL A   1      47.773  20.864  36.260  1.00  0.00    -0.744 OA
ENDBRANCH  90  91
ENDBRANCH  64  85
ENDBRANCH  38  39
ENDBRANCH  30  33
ENDBRANCH  28  29
ENDBRANCH   1  28
TORSDOF 16
ENDMDL
MODEL 3
REMARK VINA RESULT:     -13.0      5.719      8.907
REMARK SMILES Cc1cc(C(=O)NCCCNC(=O)c2ccc(-c3c4nc(c(-c5ccc(S(=O)(=O)[O-])cc5)c5ccc([nH]5)c(-c5ccc(S(=O)(=O)[O-])cc5)c5nc(c(-c6ccc(S(=O)(=O)[O-])cc6)c6ccc3[nH]6)C=C5)C=C4)cc2)ccc1NS(=O)(=O)c1ccc2c(c1)CCC2
REMARK SMILES IDX 9 1 8 2 7 3 5 4 6 5 4 7 1 8 2 9 3 10 76 11 75 12 74 13 77 14
REMARK SMILES IDX 78 16 79 17 80 18 81 19 82 20 86 21 83 22 85 23 84 24 87 25
REMARK SMILES IDX 89 26 88 27 10 28 11 29 12 30 13 32 14 33 15 34 73 35 16 36
REMARK SMILES IDX 72 37 17 38 18 39 19 40 66 41 20 42 71 43 65 44 67 45 21 46
REMARK SMILES IDX 70 47 64 48 63 49 22 51 52 52 33 53 51 54 34 55 37 56 50 57
REMARK SMILES IDX 68 58 35 59 36 60 49 62 69 63 38 64 23 65 24 66 32 67 25 68
REMARK SMILES IDX 31 69 26 70 27 71 28 72 29 73 30 74 53 75 54 76 62 77 55 78
REMARK SMILES IDX 61 79 56 80 57 81 58 82 59 83 60 84 39 85 40 86 48 87 41 88
REMARK SMILES IDX 47 89 42 90 43 91 44 92 45 93 46 94
REMARK H PARENT 7 6 77 15 11 31 67 50 37 61
REMARK Flexibility Score: inf
ROOT
ATOM      1  C   UNL A   1      32.848  30.560  27.029  1.00  0.00     0.042 C 
ENDROOT
BRANCH   1   2
ATOM      2  C   UNL A   1      33.095  29.211  26.158  1.00  0.00     0.118 C 
BRANCH   2   3
ATOM      3  N   UNL A   1      33.348  29.301  24.704  1.00  0.00    -0.352 N 
ATOM      4  C   UNL A   1      32.800  28.762  23.555  1.00  0.00     0.251 C 
ATOM      5  O   UNL A   1      33.083  29.259  22.462  1.00  0.00    -0.269 OA
ATOM      6  H   UNL A   1      34.102  29.901  24.502  1.00  0.00     0.163 HD
BRANCH   4   7
ATOM      7  C   UNL A   1      31.918  27.558  23.542  1.00  0.00     0.040 A 
ATOM      8  C   UNL A   1      32.261  23.828  22.820  1.00  0.00     0.046 C 
ATOM      9  C   UNL A   1      31.723  25.119  23.375  1.00  0.00    -0.026 A 
ATOM     10  C   UNL A   1      32.423  26.318  23.103  1.00  0.00     0.019 A 
ATOM     11  C   UNL A   1      30.527  25.195  24.108  1.00  0.00     0.052 A 
ATOM     12  C   UNL A   1      29.879  26.410  24.173  1.00  0.00     0.028 A 
ATOM     13  C   UNL A   1      30.616  27.570  24.008  1.00  0.00     0.016 A 
BRANCH  11  14
ATOM     14  N   UNL A   1      30.227  24.211  25.102  1.00  0.00    -0.279 N 
ATOM     15  H   UNL A   1      29.467  23.615  24.915  1.00  0.00     0.180 HD
BRANCH  14  16
ATOM     16  S   UNL A   1      31.038  23.966  26.558  1.00  0.00     0.261 S 
ATOM     17  O   UNL A   1      31.401  25.297  27.067  1.00  0.00    -0.201 OA
ATOM     18  O   UNL A   1      30.208  23.097  27.331  1.00  0.00    -0.201 OA
BRANCH  16  19
ATOM     19  C   UNL A   1      32.600  23.101  26.314  1.00  0.00     0.088 A 
ATOM     20  C   UNL A   1      32.680  21.743  25.984  1.00  0.00     0.022 A 
ATOM     21  C   UNL A   1      33.771  23.886  26.296  1.00  0.00     0.026 A 
ATOM     22  C   UNL A   1      33.854  21.238  25.409  1.00  0.00     0.005 A 
ATOM     23  C   UNL A   1      34.934  23.350  25.756  1.00  0.00    -0.043 A 
ATOM     24  C   UNL A   1      34.932  22.075  25.197  1.00  0.00    -0.045 A 
ATOM     25  C   UNL A   1      36.315  23.921  25.672  1.00  0.00     0.036 C 
ATOM     26  C   UNL A   1      36.194  21.813  24.426  1.00  0.00     0.036 C 
ATOM     27  C   UNL A   1      36.836  23.215  24.414  1.00  0.00     0.010 C 
ENDBRANCH  16  19
ENDBRANCH  14  16
ENDBRANCH  11  14
ENDBRANCH   4   7
ENDBRANCH   2   3
ENDBRANCH   1   2
BRANCH   1  28
ATOM     28  C   UNL A   1      34.181  30.993  27.774  1.00  0.00     0.118 C 
BRANCH  28  29
ATOM     29  N   UNL A   1      35.773  30.869  27.637  1.00  0.00    -0.352 N 
ATOM     30  C   UNL A   1      36.947  29.940  27.980  1.00  0.00     0.251 C 
ATOM     31  H   UNL A   1      36.120  31.665  27.172  1.00  0.00     0.163 HD
ATOM     32  O   UNL A   1      37.561  29.620  26.938  1.00  0.00    -0.269 OA
BRANCH  30  33
ATOM     33  C   UNL A   1      37.660  29.244  29.339  1.00  0.00     0.039 A 
ATOM     34  C   UNL A   1      36.971  29.097  30.598  1.00  0.00     0.014 A 
ATOM     35  C   UNL A   1      38.984  28.840  29.494  1.00  0.00     0.014 A 
ATOM     36  C   UNL A   1      37.682  29.254  31.889  1.00  0.00     0.010 A 
ATOM     37  C   UNL A   1      39.688  29.046  30.738  1.00  0.00     0.010 A 
ATOM     38  C   UNL A   1      39.061  29.557  31.882  1.00  0.00    -0.014 A 
BRANCH  38  39
ATOM     39  C   UNL A   1      39.765  30.703  32.716  1.00  0.00     0.031 A 
ATOM     40  C   UNL A   1      40.781  30.274  33.663  1.00  0.00     0.074 A 
ATOM     41  C   UNL A   1      39.757  32.090  32.660  1.00  0.00     0.049 A 
ATOM     42  N   UNL A   1      40.732  30.396  34.947  1.00  0.00    -0.248 NA
ATOM     43  C   UNL A   1      41.988  29.653  33.141  1.00  0.00     0.031 C 
ATOM     44  C   UNL A   1      40.420  33.160  33.449  1.00  0.00     0.029 A 
ATOM     45  N   UNL A   1      39.049  32.935  31.825  1.00  0.00    -0.354 N 
ATOM     46  C   UNL A   1      42.031  30.171  35.350  1.00  0.00     0.074 A 
ATOM     47  C   UNL A   1      42.639  29.410  34.276  1.00  0.00     0.031 C 
ATOM     48  C   UNL A   1      39.712  34.319  33.340  1.00  0.00     0.029 A 
ATOM     49  C   UNL A   1      38.565  34.049  32.501  1.00  0.00     0.049 A 
ATOM     50  H   UNL A   1      38.906  32.769  30.866  1.00  0.00     0.167 HD
ATOM     51  C   UNL A   1      42.638  30.952  36.296  1.00  0.00     0.031 A 
ATOM     52  C   UNL A   1      37.221  34.119  32.799  1.00  0.00     0.031 A 
ATOM     53  C   UNL A   1      41.819  32.129  36.652  1.00  0.00     0.049 A 
ATOM     54  C   UNL A   1      36.996  33.939  34.276  1.00  0.00     0.074 A 
ATOM     55  C   UNL A   1      41.998  33.497  36.480  1.00  0.00     0.029 A 
ATOM     56  N   UNL A   1      40.475  31.973  36.978  1.00  0.00    -0.354 N 
ATOM     57  N   UNL A   1      37.960  33.646  35.093  1.00  0.00    -0.248 NA
ATOM     58  C   UNL A   1      35.707  34.011  34.951  1.00  0.00     0.031 C 
ATOM     59  C   UNL A   1      40.740  34.146  36.666  1.00  0.00     0.029 A 
ATOM     60  C   UNL A   1      39.802  33.184  36.993  1.00  0.00     0.049 A 
ATOM     61  H   UNL A   1      40.054  31.106  37.174  1.00  0.00     0.167 HD
ATOM     62  C   UNL A   1      37.499  33.508  36.360  1.00  0.00     0.074 A 
ATOM     63  C   UNL A   1      36.068  33.737  36.220  1.00  0.00     0.031 C 
ATOM     64  C   UNL A   1      38.379  33.219  37.364  1.00  0.00     0.031 A 
BRANCH  51  65
ATOM     65  C   UNL A   1      44.116  30.807  36.641  1.00  0.00    -0.014 A 
ATOM     66  C   UNL A   1      44.561  29.821  37.542  1.00  0.00     0.010 A 
ATOM     67  C   UNL A   1      45.134  31.585  36.046  1.00  0.00     0.010 A 
ATOM     68  C   UNL A   1      45.923  29.670  37.870  1.00  0.00     0.020 A 
ATOM     69  C   UNL A   1      46.483  31.495  36.410  1.00  0.00     0.020 A 
ATOM     70  C   UNL A   1      46.876  30.521  37.312  1.00  0.00     0.054 A 
BRANCH  70  71
ATOM     71  S   UNL A   1      48.631  30.289  37.694  1.00  0.00     0.124 S 
ATOM     72  O   UNL A   1      48.974  29.103  36.914  1.00  0.00    -0.237 OA
ATOM     73  O   UNL A   1      49.218  31.543  37.230  1.00  0.00    -0.237 OA
ATOM     74  O   UNL A   1      48.651  30.101  39.144  1.00  0.00    -0.744 OA
ENDBRANCH  70  71
ENDBRANCH  51  65
BRANCH  52  75
ATOM     75  C   UNL A   1      36.265  33.530  31.753  1.00  0.00    -0.014 A 
ATOM     76  C   UNL A   1      35.096  32.961  32.251  1.00  0.00     0.010 A 
ATOM     77  C   UNL A   1      36.038  34.397  30.707  1.00  0.00     0.010 A 
ATOM     78  C   UNL A   1      33.908  33.717  32.282  1.00  0.00     0.020 A 
ATOM     79  C   UNL A   1      34.886  35.193  30.877  1.00  0.00     0.020 A 
ATOM     80  C   UNL A   1      33.857  34.990  31.736  1.00  0.00     0.054 A 
BRANCH  80  81
ATOM     81  S   UNL A   1      32.814  36.723  32.421  1.00  0.00     0.124 S 
ATOM     82  O   UNL A   1      31.469  36.210  32.659  1.00  0.00    -0.237 OA
ATOM     83  O   UNL A   1      33.496  37.117  33.639  1.00  0.00    -0.237 OA
ATOM     84  O   UNL A   1      32.881  37.711  31.352  1.00  0.00    -0.744 OA
ENDBRANCH  80  81
ENDBRANCH  52  75
BRANCH  64  85
ATOM     85  C   UNL A   1      38.040  32.949  38.808  1.00  0.00    -0.014 A 
ATOM     86  C   UNL A   1      37.206  31.926  39.265  1.00  0.00     0.010 A 
ATOM     87  C   UNL A   1      38.604  33.794  39.798  1.00  0.00     0.010 A 
ATOM     88  C   UNL A   1      36.992  31.719  40.631  1.00  0.00     0.020 A 
ATOM     89  C   UNL A   1      38.416  33.591  41.161  1.00  0.00     0.020 A 
ATOM     90  C   UNL A   1      37.608  32.545  41.570  1.00  0.00     0.054 A 
BRANCH  90  91
ATOM     91  S   UNL A   1      37.327  32.231  43.320  1.00  0.00     0.124 S 
ATOM     92  O   UNL A   1      38.356  33.058  43.946  1.00  0.00    -0.237 OA
ATOM     93  O   UNL A   1      35.953  32.696  43.499  1.00  0.00    -0.237 OA
ATOM     94  O   UNL A   1      37.519  30.790  43.456  1.00  0.00    -0.744 OA
ENDBRANCH  90  91
ENDBRANCH  64  85
ENDBRANCH  38  39
ENDBRANCH  30  33
ENDBRANCH  28  29
ENDBRANCH   1  28
TORSDOF 16
ENDMDL
