MODEL 1
REMARK VINA RESULT:     -10.0      0.000      0.000
REMARK SMILES O=C(C[NH+]1CC2(CCCC2)C1)NCCCNC(=O)c1ccc(-c2c3nc(c(-c4ccc(S(=O)(=O)[O-])cc4)c4ccc([nH]4)c(-c4ccc(S(=O)(=O)[O-])cc4)c4nc(c(-c5ccc(S(=O)(=O)[O-])cc5)c5ccc2[nH]5)C=C4)C=C3)cc1
REMARK SMILES IDX 15 1 14 2 13 3 12 4 1 5 2 6 3 8 4 9 5 10 11 11 6 13 7 14
REMARK SMILES IDX 10 15 8 16 9 17 16 18 17 19 18 21 19 22 20 23 78 24 21 25
REMARK SMILES IDX 77 26 22 27 23 28 24 29 71 30 25 31 76 32 70 33 72 34 26 35
REMARK SMILES IDX 75 36 69 37 68 38 27 40 57 41 38 42 56 43 39 44 42 45 55 46
REMARK SMILES IDX 73 47 40 48 41 49 54 51 74 52 43 53 28 54 29 55 37 56 30 57
REMARK SMILES IDX 36 58 31 59 32 60 33 61 34 62 35 63 58 64 59 65 67 66 60 67
REMARK SMILES IDX 66 68 61 69 62 70 63 71 64 72 65 73 44 74 45 75 53 76 46 77
REMARK SMILES IDX 52 78 47 79 48 80 49 81 50 82 51 83
REMARK H PARENT 12 7 4 12 16 20 72 39 42 50
REMARK Flexibility Score: inf
ROOT
ATOM      1  C   UNL A   1      34.854  32.963  28.561  1.00  0.00     0.118 C 
ENDROOT
BRANCH   1   2
ATOM      2  C   UNL A   1      34.381  34.318  28.044  1.00  0.00     0.042 C 
BRANCH   2   3
ATOM      3  C   UNL A   1      33.413  35.032  28.979  1.00  0.00     0.118 C 
BRANCH   3   4
ATOM      4  N   UNL A   1      33.547  34.584  30.348  1.00  0.00    -0.351 N 
ATOM      5  O   UNL A   1      33.313  36.667  31.281  1.00  0.00    -0.269 OA
ATOM      6  C   UNL A   1      33.476  35.456  31.408  1.00  0.00     0.275 C 
ATOM      7  H   UNL A   1      33.691  33.627  30.525  1.00  0.00     0.163 HD
BRANCH   6   8
ATOM      8  C   UNL A   1      33.657  34.811  32.776  1.00  0.00     0.363 C 
BRANCH   8   9
ATOM      9  N   UNL A   1      34.916  35.166  33.480  1.00  0.00    -0.326 N 
ATOM     10  C   UNL A   1      36.184  34.910  32.749  1.00  0.00     0.275 C 
ATOM     11  C   UNL A   1      35.270  34.045  34.396  1.00  0.00     0.275 C 
ATOM     12  H   UNL A   1      34.715  36.122  33.771  1.00  0.00     0.348 HD
ATOM     13  C   UNL A   1      36.240  33.472  33.316  1.00  0.00     0.068 C 
ATOM     14  C   UNL A   1      35.772  32.419  32.302  1.00  0.00     0.019 C 
ATOM     15  C   UNL A   1      37.554  32.954  33.917  1.00  0.00     0.019 C 
ATOM     16  C   UNL A   1      36.512  31.154  32.700  1.00  0.00     0.001 C 
ATOM     17  C   UNL A   1      37.866  31.666  33.155  1.00  0.00     0.001 C 
ENDBRANCH   8   9
ENDBRANCH   6   8
ENDBRANCH   3   4
ENDBRANCH   2   3
ENDBRANCH   1   2
BRANCH   1  18
ATOM     18  N   UNL A   1      34.023  31.859  28.102  1.00  0.00    -0.352 N 
ATOM     19  C   UNL A   1      34.352  30.554  27.823  1.00  0.00     0.251 C 
ATOM     20  H   UNL A   1      33.073  32.082  27.971  1.00  0.00     0.163 HD
ATOM     21  O   UNL A   1      33.522  29.825  27.289  1.00  0.00    -0.269 OA
BRANCH  19  22
ATOM     22  C   UNL A   1      35.701  30.035  28.138  1.00  0.00     0.039 A 
ATOM     23  C   UNL A   1      36.671  30.035  27.131  1.00  0.00     0.014 A 
ATOM     24  C   UNL A   1      36.012  29.541  29.407  1.00  0.00     0.014 A 
ATOM     25  C   UNL A   1      37.971  29.612  27.420  1.00  0.00     0.010 A 
ATOM     26  C   UNL A   1      37.326  29.193  29.713  1.00  0.00     0.010 A 
ATOM     27  C   UNL A   1      38.322  29.231  28.725  1.00  0.00    -0.014 A 
BRANCH  27  28
ATOM     28  C   UNL A   1      39.728  28.904  29.080  1.00  0.00     0.031 A 
ATOM     29  C   UNL A   1      40.617  29.936  29.721  1.00  0.00     0.074 A 
ATOM     30  C   UNL A   1      40.225  27.691  28.762  1.00  0.00     0.049 A 
ATOM     31  N   UNL A   1      41.881  29.844  30.047  1.00  0.00    -0.248 NA
ATOM     32  C   UNL A   1      40.015  31.245  30.015  1.00  0.00     0.031 C 
ATOM     33  C   UNL A   1      39.478  26.616  28.103  1.00  0.00     0.029 A 
ATOM     34  N   UNL A   1      41.477  27.159  28.942  1.00  0.00    -0.354 N 
ATOM     35  C   UNL A   1      42.229  31.084  30.571  1.00  0.00     0.074 A 
ATOM     36  C   UNL A   1      41.056  31.925  30.475  1.00  0.00     0.031 C 
ATOM     37  C   UNL A   1      40.276  25.547  27.962  1.00  0.00     0.029 A 
ATOM     38  C   UNL A   1      41.604  25.873  28.470  1.00  0.00     0.049 A 
ATOM     39  H   UNL A   1      42.216  27.652  29.368  1.00  0.00     0.167 HD
ATOM     40  C   UNL A   1      43.413  31.481  31.099  1.00  0.00     0.031 A 
ATOM     41  C   UNL A   1      42.671  25.049  28.437  1.00  0.00     0.031 A 
ATOM     42  C   UNL A   1      44.578  30.640  31.191  1.00  0.00     0.049 A 
ATOM     43  C   UNL A   1      43.981  25.524  29.003  1.00  0.00     0.074 A 
ATOM     44  C   UNL A   1      45.807  30.935  31.758  1.00  0.00     0.029 A 
ATOM     45  N   UNL A   1      44.667  29.346  30.700  1.00  0.00    -0.354 N 
ATOM     46  N   UNL A   1      44.270  26.677  29.557  1.00  0.00    -0.248 NA
ATOM     47  C   UNL A   1      45.108  24.583  28.947  1.00  0.00     0.031 C 
ATOM     48  C   UNL A   1      46.657  29.844  31.550  1.00  0.00     0.029 A 
ATOM     49  C   UNL A   1      45.938  28.841  30.920  1.00  0.00     0.049 A 
ATOM     50  H   UNL A   1      43.934  28.858  30.260  1.00  0.00     0.167 HD
ATOM     51  C   UNL A   1      45.604  26.589  29.940  1.00  0.00     0.074 A 
ATOM     52  C   UNL A   1      46.058  25.264  29.572  1.00  0.00     0.031 C 
ATOM     53  C   UNL A   1      46.381  27.522  30.544  1.00  0.00     0.031 A 
BRANCH  40  54
ATOM     54  C   UNL A   1      43.512  32.896  31.609  1.00  0.00    -0.014 A 
ATOM     55  C   UNL A   1      43.081  33.236  32.906  1.00  0.00     0.010 A 
ATOM     56  C   UNL A   1      44.090  33.892  30.800  1.00  0.00     0.010 A 
ATOM     57  C   UNL A   1      43.188  34.552  33.366  1.00  0.00     0.020 A 
ATOM     58  C   UNL A   1      44.228  35.202  31.269  1.00  0.00     0.020 A 
ATOM     59  C   UNL A   1      43.761  35.527  32.544  1.00  0.00     0.054 A 
BRANCH  59  60
ATOM     60  S   UNL A   1      43.908  37.219  33.179  1.00  0.00     0.124 S 
ATOM     61  O   UNL A   1      42.788  37.289  34.115  1.00  0.00    -0.237 OA
ATOM     62  O   UNL A   1      45.236  37.217  33.788  1.00  0.00    -0.237 OA
ATOM     63  O   UNL A   1      43.774  38.051  31.986  1.00  0.00    -0.744 OA
ENDBRANCH  59  60
ENDBRANCH  40  54
BRANCH  41  64
ATOM     64  C   UNL A   1      42.541  23.688  27.849  1.00  0.00    -0.014 A 
ATOM     65  C   UNL A   1      42.144  22.599  28.645  1.00  0.00     0.010 A 
ATOM     66  C   UNL A   1      42.803  23.474  26.482  1.00  0.00     0.010 A 
ATOM     67  C   UNL A   1      42.031  21.320  28.091  1.00  0.00     0.020 A 
ATOM     68  C   UNL A   1      42.659  22.204  25.918  1.00  0.00     0.020 A 
ATOM     69  C   UNL A   1      42.285  21.132  26.730  1.00  0.00     0.054 A 
BRANCH  69  70
ATOM     70  S   UNL A   1      42.084  19.472  26.024  1.00  0.00     0.124 S 
ATOM     71  O   UNL A   1      40.654  19.435  25.737  1.00  0.00    -0.237 OA
ATOM     72  O   UNL A   1      42.963  19.517  24.859  1.00  0.00    -0.237 OA
ATOM     73  O   UNL A   1      42.531  18.587  27.099  1.00  0.00    -0.744 OA
ENDBRANCH  69  70
ENDBRANCH  41  64
BRANCH  53  74
ATOM     74  C   UNL A   1      47.799  27.134  30.876  1.00  0.00    -0.014 A 
ATOM     75  C   UNL A   1      48.119  26.485  32.083  1.00  0.00     0.010 A 
ATOM     76  C   UNL A   1      48.822  27.379  29.941  1.00  0.00     0.010 A 
ATOM     77  C   UNL A   1      49.439  26.121  32.361  1.00  0.00     0.020 A 
ATOM     78  C   UNL A   1      50.137  26.987  30.201  1.00  0.00     0.020 A 
ATOM     79  C   UNL A   1      50.440  26.372  31.417  1.00  0.00     0.054 A 
BRANCH  79  80
ATOM     80  S   UNL A   1      52.138  25.850  31.785  1.00  0.00     0.124 S 
ATOM     81  O   UNL A   1      52.810  26.079  30.509  1.00  0.00    -0.237 OA
ATOM     82  O   UNL A   1      52.521  26.754  32.868  1.00  0.00    -0.237 OA
ATOM     83  O   UNL A   1      51.994  24.449  32.172  1.00  0.00    -0.744 OA
ENDBRANCH  79  80
ENDBRANCH  53  74
ENDBRANCH  27  28
ENDBRANCH  19  22
ENDBRANCH   1  18
TORSDOF 14
ENDMDL
MODEL 2
REMARK VINA RESULT:      -9.9      2.839     11.704
REMARK SMILES O=C(C[NH+]1CC2(CCCC2)C1)NCCCNC(=O)c1ccc(-c2c3nc(c(-c4ccc(S(=O)(=O)[O-])cc4)c4ccc([nH]4)c(-c4ccc(S(=O)(=O)[O-])cc4)c4nc(c(-c5ccc(S(=O)(=O)[O-])cc5)c5ccc2[nH]5)C=C4)C=C3)cc1
REMARK SMILES IDX 15 1 14 2 13 3 12 4 1 5 2 6 3 8 4 9 5 10 11 11 6 13 7 14
REMARK SMILES IDX 10 15 8 16 9 17 16 18 17 19 18 21 19 22 20 23 78 24 21 25
REMARK SMILES IDX 77 26 22 27 23 28 24 29 71 30 25 31 76 32 70 33 72 34 26 35
REMARK SMILES IDX 75 36 69 37 68 38 27 40 57 41 38 42 56 43 39 44 42 45 55 46
REMARK SMILES IDX 73 47 40 48 41 49 54 51 74 52 43 53 28 54 29 55 37 56 30 57
REMARK SMILES IDX 36 58 31 59 32 60 33 61 34 62 35 63 58 64 59 65 67 66 60 67
REMARK SMILES IDX 66 68 61 69 62 70 63 71 64 72 65 73 44 74 45 75 53 76 46 77
REMARK SMILES IDX 52 78 47 79 48 80 49 81 50 82 51 83
REMARK H PARENT 12 7 4 12 16 20 72 39 42 50
REMARK Flexibility Score: inf
ROOT
ATOM      1  C   UNL A   1      41.296  21.802  26.758  1.00  0.00     0.118 C 
ENDROOT
BRANCH   1   2
ATOM      2  C   UNL A   1      41.572  20.370  27.207  1.00  0.00     0.042 C 
BRANCH   2   3
ATOM      3  C   UNL A   1      42.487  19.594  26.270  1.00  0.00     0.118 C 
BRANCH   3   4
ATOM      4  N   UNL A   1      43.738  20.280  26.037  1.00  0.00    -0.351 N 
ATOM      5  O   UNL A   1      44.120  19.341  23.979  1.00  0.00    -0.269 OA
ATOM      6  C   UNL A   1      44.463  20.099  24.883  1.00  0.00     0.275 C 
ATOM      7  H   UNL A   1      44.081  20.895  26.725  1.00  0.00     0.163 HD
BRANCH   6   8
ATOM      8  C   UNL A   1      45.764  20.887  24.818  1.00  0.00     0.363 C 
BRANCH   8   9
ATOM      9  N   UNL A   1      45.732  22.090  23.947  1.00  0.00    -0.326 N 
ATOM     10  C   UNL A   1      46.332  23.331  24.502  1.00  0.00     0.275 C 
ATOM     11  C   UNL A   1      44.393  22.729  24.085  1.00  0.00     0.275 C 
ATOM     12  H   UNL A   1      46.119  21.716  23.081  1.00  0.00     0.348 HD
ATOM     13  C   UNL A   1      44.978  23.721  25.138  1.00  0.00     0.068 C 
ATOM     14  C   UNL A   1      44.921  23.413  26.642  1.00  0.00     0.019 C 
ATOM     15  C   UNL A   1      44.450  25.151  24.960  1.00  0.00     0.019 C 
ATOM     16  C   UNL A   1      43.934  24.424  27.199  1.00  0.00     0.001 C 
ATOM     17  C   UNL A   1      44.203  25.670  26.376  1.00  0.00     0.001 C 
ENDBRANCH   8   9
ENDBRANCH   6   8
ENDBRANCH   3   4
ENDBRANCH   2   3
ENDBRANCH   1   2
BRANCH   1  18
ATOM     18  N   UNL A   1      40.031  21.941  26.051  1.00  0.00    -0.352 N 
ATOM     19  C   UNL A   1      39.112  22.962  26.065  1.00  0.00     0.251 C 
ATOM     20  H   UNL A   1      39.797  21.182  25.468  1.00  0.00     0.163 HD
ATOM     21  O   UNL A   1      38.026  22.803  25.515  1.00  0.00    -0.269 OA
BRANCH  19  22
ATOM     22  C   UNL A   1      39.412  24.235  26.757  1.00  0.00     0.039 A 
ATOM     23  C   UNL A   1      38.923  24.424  28.053  1.00  0.00     0.014 A 
ATOM     24  C   UNL A   1      40.158  25.241  26.138  1.00  0.00     0.014 A 
ATOM     25  C   UNL A   1      39.247  25.589  28.753  1.00  0.00     0.010 A 
ATOM     26  C   UNL A   1      40.545  26.365  26.865  1.00  0.00     0.010 A 
ATOM     27  C   UNL A   1      40.100  26.549  28.183  1.00  0.00    -0.014 A 
BRANCH  27  28
ATOM     28  C   UNL A   1      40.561  27.728  28.961  1.00  0.00     0.031 A 
ATOM     29  C   UNL A   1      41.896  27.715  29.655  1.00  0.00     0.074 A 
ATOM     30  C   UNL A   1      39.742  28.792  29.096  1.00  0.00     0.049 A 
ATOM     31  N   UNL A   1      42.435  28.630  30.421  1.00  0.00    -0.248 NA
ATOM     32  C   UNL A   1      42.725  26.512  29.485  1.00  0.00     0.031 C 
ATOM     33  C   UNL A   1      38.406  28.913  28.506  1.00  0.00     0.029 A 
ATOM     34  N   UNL A   1      39.908  29.971  29.779  1.00  0.00    -0.354 N 
ATOM     35  C   UNL A   1      43.655  28.109  30.833  1.00  0.00     0.074 A 
ATOM     36  C   UNL A   1      43.757  26.780  30.273  1.00  0.00     0.031 C 
ATOM     37  C   UNL A   1      37.889  30.108  28.827  1.00  0.00     0.029 A 
ATOM     38  C   UNL A   1      38.828  30.819  29.688  1.00  0.00     0.049 A 
ATOM     39  H   UNL A   1      40.722  30.189  30.288  1.00  0.00     0.167 HD
ATOM     40  C   UNL A   1      44.613  28.691  31.597  1.00  0.00     0.031 A 
ATOM     41  C   UNL A   1      38.610  32.028  30.242  1.00  0.00     0.031 A 
ATOM     42  C   UNL A   1      44.507  30.015  32.153  1.00  0.00     0.049 A 
ATOM     43  C   UNL A   1      39.676  32.639  31.110  1.00  0.00     0.074 A 
ATOM     44  C   UNL A   1      45.446  30.712  32.896  1.00  0.00     0.029 A 
ATOM     45  N   UNL A   1      43.398  30.840  32.041  1.00  0.00    -0.354 N 
ATOM     46  N   UNL A   1      40.853  32.159  31.431  1.00  0.00    -0.248 NA
ATOM     47  C   UNL A   1      39.387  33.962  31.682  1.00  0.00     0.031 C 
ATOM     48  C   UNL A   1      44.879  31.930  33.285  1.00  0.00     0.029 A 
ATOM     49  C   UNL A   1      43.614  32.024  32.725  1.00  0.00     0.049 A 
ATOM     50  H   UNL A   1      42.576  30.616  31.545  1.00  0.00     0.167 HD
ATOM     51  C   UNL A   1      41.456  33.133  32.221  1.00  0.00     0.074 A 
ATOM     52  C   UNL A   1      40.521  34.235  32.311  1.00  0.00     0.031 C 
ATOM     53  C   UNL A   1      42.675  33.114  32.814  1.00  0.00     0.031 A 
BRANCH  40  54
ATOM     54  C   UNL A   1      45.859  27.893  31.886  1.00  0.00    -0.014 A 
ATOM     55  C   UNL A   1      45.914  26.994  32.969  1.00  0.00     0.010 A 
ATOM     56  C   UNL A   1      46.974  28.005  31.036  1.00  0.00     0.010 A 
ATOM     57  C   UNL A   1      47.074  26.255  33.218  1.00  0.00     0.020 A 
ATOM     58  C   UNL A   1      48.124  27.244  31.263  1.00  0.00     0.020 A 
ATOM     59  C   UNL A   1      48.172  26.385  32.363  1.00  0.00     0.054 A 
BRANCH  59  60
ATOM     60  S   UNL A   1      49.654  25.395  32.698  1.00  0.00     0.124 S 
ATOM     61  O   UNL A   1      49.151  24.415  33.658  1.00  0.00    -0.237 OA
ATOM     62  O   UNL A   1      49.989  24.866  31.379  1.00  0.00    -0.237 OA
ATOM     63  O   UNL A   1      50.605  26.363  33.239  1.00  0.00    -0.744 OA
ENDBRANCH  59  60
ENDBRANCH  40  54
BRANCH  41  64
ATOM     64  C   UNL A   1      37.327  32.741  29.990  1.00  0.00    -0.014 A 
ATOM     65  C   UNL A   1      37.186  33.588  28.877  1.00  0.00     0.010 A 
ATOM     66  C   UNL A   1      36.232  32.567  30.858  1.00  0.00     0.010 A 
ATOM     67  C   UNL A   1      35.983  34.263  28.647  1.00  0.00     0.020 A 
ATOM     68  C   UNL A   1      35.018  33.214  30.613  1.00  0.00     0.020 A 
ATOM     69  C   UNL A   1      34.905  34.068  29.515  1.00  0.00     0.054 A 
BRANCH  69  70
ATOM     70  S   UNL A   1      33.339  34.916  29.167  1.00  0.00     0.124 S 
ATOM     71  O   UNL A   1      32.711  34.015  28.207  1.00  0.00    -0.237 OA
ATOM     72  O   UNL A   1      32.714  34.973  30.486  1.00  0.00    -0.237 OA
ATOM     73  O   UNL A   1      33.762  36.208  28.631  1.00  0.00    -0.744 OA
ENDBRANCH  69  70
ENDBRANCH  41  64
BRANCH  53  74
ATOM     74  C   UNL A   1      43.086  34.337  33.593  1.00  0.00    -0.014 A 
ATOM     75  C   UNL A   1      42.868  34.431  34.979  1.00  0.00     0.010 A 
ATOM     76  C   UNL A   1      43.750  35.388  32.933  1.00  0.00     0.010 A 
ATOM     77  C   UNL A   1      43.273  35.569  35.683  1.00  0.00     0.020 A 
ATOM     78  C   UNL A   1      44.186  36.512  33.638  1.00  0.00     0.020 A 
ATOM     79  C   UNL A   1      43.931  36.601  35.008  1.00  0.00     0.054 A 
BRANCH  79  80
ATOM     80  S   UNL A   1      44.485  38.048  35.953  1.00  0.00     0.124 S 
ATOM     81  O   UNL A   1      43.672  37.949  37.163  1.00  0.00    -0.237 OA
ATOM     82  O   UNL A   1      45.911  37.785  36.131  1.00  0.00    -0.237 OA
ATOM     83  O   UNL A   1      44.168  39.175  35.080  1.00  0.00    -0.744 OA
ENDBRANCH  79  80
ENDBRANCH  53  74
ENDBRANCH  27  28
ENDBRANCH  19  22
ENDBRANCH   1  18
TORSDOF 14
ENDMDL
MODEL 3
REMARK VINA RESULT:      -9.7      4.365     12.461
REMARK SMILES O=C(C[NH+]1CC2(CCCC2)C1)NCCCNC(=O)c1ccc(-c2c3nc(c(-c4ccc(S(=O)(=O)[O-])cc4)c4ccc([nH]4)c(-c4ccc(S(=O)(=O)[O-])cc4)c4nc(c(-c5ccc(S(=O)(=O)[O-])cc5)c5ccc2[nH]5)C=C4)C=C3)cc1
REMARK SMILES IDX 15 1 14 2 13 3 12 4 1 5 2 6 3 8 4 9 5 10 11 11 6 13 7 14
REMARK SMILES IDX 10 15 8 16 9 17 16 18 17 19 18 21 19 22 20 23 78 24 21 25
REMARK SMILES IDX 77 26 22 27 23 28 24 29 71 30 25 31 76 32 70 33 72 34 26 35
REMARK SMILES IDX 75 36 69 37 68 38 27 40 57 41 38 42 56 43 39 44 42 45 55 46
REMARK SMILES IDX 73 47 40 48 41 49 54 51 74 52 43 53 28 54 29 55 37 56 30 57
REMARK SMILES IDX 36 58 31 59 32 60 33 61 34 62 35 63 58 64 59 65 67 66 60 67
REMARK SMILES IDX 66 68 61 69 62 70 63 71 64 72 65 73 44 74 45 75 53 76 46 77
REMARK SMILES IDX 52 78 47 79 48 80 49 81 50 82 51 83
REMARK H PARENT 12 7 4 12 16 20 72 39 42 50
REMARK Flexibility Score: inf
ROOT
ATOM      1  C   UNL A   1      40.670  22.910  27.360  1.00  0.00     0.118 C 
ENDROOT
BRANCH   1   2
ATOM      2  C   UNL A   1      40.340  21.476  26.958  1.00  0.00     0.042 C 
BRANCH   2   3
ATOM      3  C   UNL A   1      41.338  20.446  27.469  1.00  0.00     0.118 C 
BRANCH   3   4
ATOM      4  N   UNL A   1      42.663  20.655  26.930  1.00  0.00    -0.351 N 
ATOM      5  O   UNL A   1      42.351  19.344  25.073  1.00  0.00    -0.269 OA
ATOM      6  C   UNL A   1      43.066  20.081  25.747  1.00  0.00     0.275 C 
ATOM      7  H   UNL A   1      43.295  21.226  27.423  1.00  0.00     0.163 HD
BRANCH   6   8
ATOM      8  C   UNL A   1      44.500  20.395  25.343  1.00  0.00     0.363 C 
BRANCH   8   9
ATOM      9  N   UNL A   1      44.649  21.466  24.324  1.00  0.00    -0.326 N 
ATOM     10  C   UNL A   1      45.802  22.388  24.490  1.00  0.00     0.275 C 
ATOM     11  C   UNL A   1      43.750  22.594  24.697  1.00  0.00     0.275 C 
ATOM     12  H   UNL A   1      44.589  20.925  23.462  1.00  0.00     0.348 HD
ATOM     13  C   UNL A   1      44.949  23.319  25.384  1.00  0.00     0.068 C 
ATOM     14  C   UNL A   1      45.243  23.135  26.879  1.00  0.00     0.019 C 
ATOM     15  C   UNL A   1      44.957  24.831  25.115  1.00  0.00     0.019 C 
ATOM     16  C   UNL A   1      44.917  24.482  27.499  1.00  0.00     0.001 C 
ATOM     17  C   UNL A   1      45.362  25.474  26.440  1.00  0.00     0.001 C 
ENDBRANCH   8   9
ENDBRANCH   6   8
ENDBRANCH   3   4
ENDBRANCH   2   3
ENDBRANCH   1   2
BRANCH   1  18
ATOM     18  N   UNL A   1      41.002  23.756  26.222  1.00  0.00    -0.352 N 
ATOM     19  C   UNL A   1      41.129  25.121  26.136  1.00  0.00     0.251 C 
ATOM     20  H   UNL A   1      41.161  23.273  25.379  1.00  0.00     0.163 HD
ATOM     21  O   UNL A   1      41.256  25.646  25.033  1.00  0.00    -0.269 OA
BRANCH  19  22
ATOM     22  C   UNL A   1      41.087  25.959  27.355  1.00  0.00     0.039 A 
ATOM     23  C   UNL A   1      42.121  26.874  27.576  1.00  0.00     0.014 A 
ATOM     24  C   UNL A   1      40.048  25.842  28.281  1.00  0.00     0.014 A 
ATOM     25  C   UNL A   1      42.071  27.722  28.684  1.00  0.00     0.010 A 
ATOM     26  C   UNL A   1      39.961  26.741  29.343  1.00  0.00     0.010 A 
ATOM     27  C   UNL A   1      40.967  27.696  29.552  1.00  0.00    -0.014 A 
BRANCH  27  28
ATOM     28  C   UNL A   1      40.835  28.679  30.659  1.00  0.00     0.031 A 
ATOM     29  C   UNL A   1      41.699  28.573  31.887  1.00  0.00     0.074 A 
ATOM     30  C   UNL A   1      39.885  29.634  30.585  1.00  0.00     0.049 A 
ATOM     31  N   UNL A   1      41.683  29.307  32.971  1.00  0.00    -0.248 NA
ATOM     32  C   UNL A   1      42.696  27.492  31.910  1.00  0.00     0.031 C 
ATOM     33  C   UNL A   1      38.956  29.820  29.466  1.00  0.00     0.029 A 
ATOM     34  N   UNL A   1      39.535  30.623  31.470  1.00  0.00    -0.354 N 
ATOM     35  C   UNL A   1      42.653  28.770  33.807  1.00  0.00     0.074 A 
ATOM     36  C   UNL A   1      43.206  27.619  33.127  1.00  0.00     0.031 C 
ATOM     37  C   UNL A   1      38.166  30.874  29.720  1.00  0.00     0.029 A 
ATOM     38  C   UNL A   1      38.492  31.409  31.037  1.00  0.00     0.049 A 
ATOM     39  H   UNL A   1      39.988  30.757  32.334  1.00  0.00     0.167 HD
ATOM     40  C   UNL A   1      43.059  29.204  35.026  1.00  0.00     0.031 A 
ATOM     41  C   UNL A   1      37.858  32.437  31.635  1.00  0.00     0.031 A 
ATOM     42  C   UNL A   1      42.505  30.349  35.700  1.00  0.00     0.049 A 
ATOM     43  C   UNL A   1      38.308  32.881  33.000  1.00  0.00     0.074 A 
ATOM     44  C   UNL A   1      42.886  30.899  36.913  1.00  0.00     0.029 A 
ATOM     45  N   UNL A   1      41.449  31.116  35.231  1.00  0.00    -0.354 N 
ATOM     46  N   UNL A   1      39.276  32.403  33.745  1.00  0.00    -0.248 NA
ATOM     47  C   UNL A   1      37.587  34.011  33.600  1.00  0.00     0.031 C 
ATOM     48  C   UNL A   1      42.018  31.956  37.206  1.00  0.00     0.029 A 
ATOM     49  C   UNL A   1      41.143  32.112  36.142  1.00  0.00     0.049 A 
ATOM     50  H   UNL A   1      40.985  30.973  34.374  1.00  0.00     0.167 HD
ATOM     51  C   UNL A   1      39.296  33.191  34.891  1.00  0.00     0.074 A 
ATOM     52  C   UNL A   1      38.257  34.188  34.730  1.00  0.00     0.031 C 
ATOM     53  C   UNL A   1      40.104  33.097  35.976  1.00  0.00     0.031 A 
BRANCH  40  54
ATOM     54  C   UNL A   1      44.152  28.428  35.717  1.00  0.00    -0.014 A 
ATOM     55  C   UNL A   1      43.852  27.355  36.578  1.00  0.00     0.010 A 
ATOM     56  C   UNL A   1      45.499  28.743  35.465  1.00  0.00     0.010 A 
ATOM     57  C   UNL A   1      44.877  26.641  37.205  1.00  0.00     0.020 A 
ATOM     58  C   UNL A   1      46.528  28.010  36.065  1.00  0.00     0.020 A 
ATOM     59  C   UNL A   1      46.210  26.974  36.944  1.00  0.00     0.054 A 
BRANCH  59  60
ATOM     60  S   UNL A   1      47.518  26.013  37.752  1.00  0.00     0.124 S 
ATOM     61  O   UNL A   1      48.599  26.094  36.773  1.00  0.00    -0.237 OA
ATOM     62  O   UNL A   1      47.738  26.753  38.992  1.00  0.00    -0.237 OA
ATOM     63  O   UNL A   1      46.926  24.688  37.917  1.00  0.00    -0.744 OA
ENDBRANCH  59  60
ENDBRANCH  40  54
BRANCH  41  64
ATOM     64  C   UNL A   1      36.731  33.120  30.942  1.00  0.00    -0.014 A 
ATOM     65  C   UNL A   1      35.416  33.003  31.427  1.00  0.00     0.010 A 
ATOM     66  C   UNL A   1      36.968  33.902  29.796  1.00  0.00     0.010 A 
ATOM     67  C   UNL A   1      34.358  33.638  30.769  1.00  0.00     0.020 A 
ATOM     68  C   UNL A   1      35.918  34.565  29.155  1.00  0.00     0.020 A 
ATOM     69  C   UNL A   1      34.617  34.418  29.639  1.00  0.00     0.054 A 
BRANCH  69  70
ATOM     70  S   UNL A   1      33.234  35.273  28.832  1.00  0.00     0.124 S 
ATOM     71  O   UNL A   1      33.922  36.291  28.046  1.00  0.00    -0.237 OA
ATOM     72  O   UNL A   1      32.605  34.199  28.068  1.00  0.00    -0.237 OA
ATOM     73  O   UNL A   1      32.442  35.775  29.954  1.00  0.00    -0.744 OA
ENDBRANCH  69  70
ENDBRANCH  41  64
BRANCH  53  74
ATOM     74  C   UNL A   1      39.920  34.120  37.068  1.00  0.00    -0.014 A 
ATOM     75  C   UNL A   1      40.439  35.421  36.947  1.00  0.00     0.010 A 
ATOM     76  C   UNL A   1      39.172  33.785  38.212  1.00  0.00     0.010 A 
ATOM     77  C   UNL A   1      40.242  36.358  37.966  1.00  0.00     0.020 A 
ATOM     78  C   UNL A   1      38.944  34.728  39.217  1.00  0.00     0.020 A 
ATOM     79  C   UNL A   1      39.494  36.005  39.094  1.00  0.00     0.054 A 
BRANCH  79  80
ATOM     80  S   UNL A   1      39.217  37.253  40.382  1.00  0.00     0.124 S 
ATOM     81  O   UNL A   1      38.506  38.296  39.647  1.00  0.00    -0.237 OA
ATOM     82  O   UNL A   1      38.420  36.523  41.366  1.00  0.00    -0.237 OA
ATOM     83  O   UNL A   1      40.566  37.606  40.818  1.00  0.00    -0.744 OA
ENDBRANCH  79  80
ENDBRANCH  53  74
ENDBRANCH  27  28
ENDBRANCH  19  22
ENDBRANCH   1  18
TORSDOF 14
ENDMDL
