MODEL 1
REMARK VINA RESULT:     -12.0      0.000      0.000
REMARK SMILES NS(=O)(=O)c1ccc(C#Cc2cc(Cl)cc3c2O[C@H](C(F)(F)F)C(C(=O)NCCCNC(=O)c2ccc(-c4c5nc(c(-c6ccc(S(=O)(=O)[O-])cc6)c6ccc([nH]6)c(-c6ccc(S(=O)(=O)[O-])cc6)c6nc(c(-c7ccc(S(=O)(=O)[O-])cc7)c7ccc4[nH]7)C=C6)C=C5)cc2)=C3)cc1
REMARK SMILES IDX 28 1 27 2 25 3 26 4 24 6 11 7 12 8 17 9 13 10 16 11 18 12
REMARK SMILES IDX 14 13 15 14 94 15 19 16 10 17 9 18 8 19 5 20 6 21 96 22 7 23
REMARK SMILES IDX 95 24 2 25 3 26 4 27 1 28 20 31 21 32 22 33 23 34 29 35
REMARK SMILES IDX 30 36 31 37 32 38 33 40 34 41 35 42 93 43 36 44 92 45 37 46
REMARK SMILES IDX 38 47 39 48 86 49 40 50 91 51 85 52 87 53 41 54 90 55 84 56
REMARK SMILES IDX 83 57 42 59 72 60 53 61 71 62 54 63 57 64 70 65 88 66 55 67
REMARK SMILES IDX 56 68 69 70 89 71 58 72 43 73 44 74 52 75 45 76 51 77 46 78
REMARK SMILES IDX 47 79 48 80 49 81 50 82 73 83 74 84 82 85 75 86 81 87 76 88
REMARK SMILES IDX 77 89 78 90 79 91 80 92 59 93 60 94 68 95 61 96 67 97 62 98
REMARK SMILES IDX 63 99 64 100 65 101 66 102
REMARK H PARENT 27 5 1 29 1 30 31 39 87 58 57 69
REMARK Flexibility Score: inf
ROOT
ATOM      1  C   UNL A   1      37.034  20.354  24.591  1.00  0.00     0.118 C 
ENDROOT
BRANCH   1   2
ATOM      2  N   UNL A   1      35.731  20.091  25.186  1.00  0.00    -0.352 N 
ATOM      3  C   UNL A   1      34.563  20.757  25.341  1.00  0.00     0.251 C 
ATOM      4  O   UNL A   1      33.657  20.127  25.895  1.00  0.00    -0.270 OA
ATOM      5  H   UNL A   1      35.689  19.191  25.581  1.00  0.00     0.163 HD
BRANCH   3   6
ATOM      6  C   UNL A   1      34.321  22.158  24.890  1.00  0.00     0.067 C 
ATOM      7  C   UNL A   1      33.347  26.051  23.654  1.00  0.00     0.069 A 
ATOM      8  C   UNL A   1      33.001  26.288  22.324  1.00  0.00     0.041 A 
ATOM      9  C   UNL A   1      33.628  24.743  24.070  1.00  0.00     0.143 A 
ATOM     10  C   UNL A   1      32.929  25.219  21.430  1.00  0.00     0.043 A 
ATOM     11  C   UNL A   1      33.548  23.670  23.176  1.00  0.00     0.020 A 
ATOM     12  O   UNL A   1      33.937  24.561  25.387  1.00  0.00    -0.474 OA
ATOM     13  Cl  UNL A   1      32.501  25.513  19.788  1.00  0.00    -0.084 Cl
ATOM     14  C   UNL A   1      33.194  23.912  21.848  1.00  0.00     0.032 A 
ATOM     15  C   UNL A   1      33.796  22.315  23.661  1.00  0.00     0.025 C 
ATOM     16  C   UNL A   1      34.660  23.356  25.723  1.00  0.00     0.314 C 
BRANCH   7  17
ATOM     17  C   UNL A   1      33.445  27.140  24.581  1.00  0.00    -0.058 C 
ATOM     18  C   UNL A   1      33.590  28.037  25.371  1.00  0.00    -0.062 C 
BRANCH  18  19
ATOM     19  C   UNL A   1      33.825  29.131  26.262  1.00  0.00     0.025 A 
ATOM     20  C   UNL A   1      34.306  31.367  27.862  1.00  0.00     0.082 A 
ATOM     21  C   UNL A   1      35.279  30.370  27.761  1.00  0.00     0.023 A 
ATOM     22  C   UNL A   1      33.079  31.233  27.203  1.00  0.00     0.023 A 
ATOM     23  C   UNL A   1      35.035  29.250  26.956  1.00  0.00     0.018 A 
ATOM     24  C   UNL A   1      32.844  30.116  26.401  1.00  0.00     0.018 A 
BRANCH  20  25
ATOM     25  S   UNL A   1      34.574  32.832  28.818  1.00  0.00     0.238 S 
ATOM     26  O   UNL A   1      34.201  32.561  30.187  1.00  0.00    -0.207 OA
ATOM     27  O   UNL A   1      34.035  33.948  28.077  1.00  0.00    -0.207 OA
BRANCH  25  28
ATOM     28  N   UNL A   1      36.237  33.039  28.832  1.00  0.00    -0.225 NA
ATOM     29  H   UNL A   1      36.500  33.727  28.126  1.00  0.00     0.137 HD
ATOM     30  H   UNL A   1      36.691  32.150  28.625  1.00  0.00     0.137 HD
ENDBRANCH  25  28
ENDBRANCH  20  25
ENDBRANCH  18  19
ENDBRANCH   7  17
BRANCH  16  31
ATOM     31  C   UNL A   1      36.174  23.648  25.739  1.00  0.00     0.429 C 
ATOM     32  F   UNL A   1      36.827  22.746  26.511  1.00  0.00    -0.167 F 
ATOM     33  F   UNL A   1      36.734  23.573  24.506  1.00  0.00    -0.167 F 
ATOM     34  F   UNL A   1      36.462  24.880  26.217  1.00  0.00    -0.167 F 
ENDBRANCH  16  31
ENDBRANCH   3   6
ENDBRANCH   1   2
BRANCH   1  35
ATOM     35  C   UNL A   1      38.108  19.432  25.140  1.00  0.00     0.042 C 
BRANCH  35  36
ATOM     36  C   UNL A   1      39.274  20.219  25.710  1.00  0.00     0.118 C 
BRANCH  36  37
ATOM     37  N   UNL A   1      40.447  19.373  25.947  1.00  0.00    -0.352 N 
ATOM     38  C   UNL A   1      41.742  19.711  26.260  1.00  0.00     0.251 C 
ATOM     39  H   UNL A   1      40.279  18.406  25.870  1.00  0.00     0.163 HD
ATOM     40  O   UNL A   1      42.630  18.867  26.187  1.00  0.00    -0.269 OA
BRANCH  38  41
ATOM     41  C   UNL A   1      42.049  21.098  26.649  1.00  0.00     0.039 A 
ATOM     42  C   UNL A   1      41.913  22.120  25.713  1.00  0.00     0.014 A 
ATOM     43  C   UNL A   1      42.532  21.372  27.929  1.00  0.00     0.014 A 
ATOM     44  C   UNL A   1      42.503  23.346  25.958  1.00  0.00     0.010 A 
ATOM     45  C   UNL A   1      42.987  22.658  28.227  1.00  0.00     0.010 A 
ATOM     46  C   UNL A   1      43.041  23.636  27.221  1.00  0.00    -0.014 A 
BRANCH  46  47
ATOM     47  C   UNL A   1      43.649  24.970  27.457  1.00  0.00     0.031 A 
ATOM     48  C   UNL A   1      42.895  26.042  28.197  1.00  0.00     0.074 A 
ATOM     49  C   UNL A   1      44.916  25.185  27.050  1.00  0.00     0.049 A 
ATOM     50  N   UNL A   1      43.282  27.254  28.498  1.00  0.00    -0.248 NA
ATOM     51  C   UNL A   1      41.531  25.722  28.651  1.00  0.00     0.031 C 
ATOM     52  C   UNL A   1      45.754  24.202  26.358  1.00  0.00     0.029 A 
ATOM     53  N   UNL A   1      45.735  26.277  27.186  1.00  0.00    -0.354 N 
ATOM     54  C   UNL A   1      42.206  27.849  29.147  1.00  0.00     0.074 A 
ATOM     55  C   UNL A   1      41.136  26.879  29.167  1.00  0.00     0.031 C 
ATOM     56  C   UNL A   1      46.985  24.705  26.201  1.00  0.00     0.029 A 
ATOM     57  C   UNL A   1      46.998  26.081  26.681  1.00  0.00     0.049 A 
ATOM     58  H   UNL A   1      45.445  27.121  27.605  1.00  0.00     0.167 HD
ATOM     59  C   UNL A   1      42.129  29.088  29.687  1.00  0.00     0.031 A 
ATOM     60  C   UNL A   1      48.053  26.915  26.590  1.00  0.00     0.031 A 
ATOM     61  C   UNL A   1      43.219  30.032  29.676  1.00  0.00     0.049 A 
ATOM     62  C   UNL A   1      47.923  28.303  27.142  1.00  0.00     0.074 A 
ATOM     63  C   UNL A   1      43.252  31.300  30.228  1.00  0.00     0.029 A 
ATOM     64  N   UNL A   1      44.459  29.819  29.089  1.00  0.00    -0.354 N 
ATOM     65  N   UNL A   1      46.907  28.840  27.774  1.00  0.00    -0.248 NA
ATOM     66  C   UNL A   1      49.074  29.197  26.977  1.00  0.00     0.031 C 
ATOM     67  C   UNL A   1      44.471  31.889  29.890  1.00  0.00     0.029 A 
ATOM     68  C   UNL A   1      45.246  30.952  29.223  1.00  0.00     0.049 A 
ATOM     69  H   UNL A   1      44.738  28.987  28.644  1.00  0.00     0.167 HD
ATOM     70  C   UNL A   1      47.303  30.131  28.100  1.00  0.00     0.074 A 
ATOM     71  C   UNL A   1      48.660  30.285  27.615  1.00  0.00     0.031 C 
ATOM     72  C   UNL A   1      46.600  31.098  28.739  1.00  0.00     0.031 A 
BRANCH  59  73
ATOM     73  C   UNL A   1      40.831  29.520  30.329  1.00  0.00    -0.014 A 
ATOM     74  C   UNL A   1      39.866  30.195  29.557  1.00  0.00     0.010 A 
ATOM     75  C   UNL A   1      40.612  29.376  31.711  1.00  0.00     0.010 A 
ATOM     76  C   UNL A   1      38.731  30.750  30.154  1.00  0.00     0.020 A 
ATOM     77  C   UNL A   1      39.458  29.895  32.309  1.00  0.00     0.020 A 
ATOM     78  C   UNL A   1      38.538  30.602  31.529  1.00  0.00     0.054 A 
BRANCH  78  79
ATOM     79  S   UNL A   1      37.076  31.359  32.292  1.00  0.00     0.124 S 
ATOM     80  O   UNL A   1      36.003  30.473  31.851  1.00  0.00    -0.237 OA
ATOM     81  O   UNL A   1      37.397  31.304  33.716  1.00  0.00    -0.237 OA
ATOM     82  O   UNL A   1      37.051  32.705  31.722  1.00  0.00    -0.744 OA
ENDBRANCH  78  79
ENDBRANCH  59  73
BRANCH  60  83
ATOM     83  C   UNL A   1      49.316  26.412  25.978  1.00  0.00    -0.014 A 
ATOM     84  C   UNL A   1      50.237  25.674  26.746  1.00  0.00     0.010 A 
ATOM     85  C   UNL A   1      49.665  26.786  24.670  1.00  0.00     0.010 A 
ATOM     86  C   UNL A   1      51.517  25.405  26.256  1.00  0.00     0.020 A 
ATOM     87  C   UNL A   1      50.931  26.481  24.159  1.00  0.00     0.020 A 
ATOM     88  C   UNL A   1      51.862  25.830  24.971  1.00  0.00     0.054 A 
BRANCH  88  89
ATOM     89  S   UNL A   1      53.563  25.569  24.401  1.00  0.00     0.124 S 
ATOM     90  O   UNL A   1      53.779  24.165  24.742  1.00  0.00    -0.237 OA
ATOM     91  O   UNL A   1      53.468  25.863  22.974  1.00  0.00    -0.237 OA
ATOM     92  O   UNL A   1      54.338  26.527  25.184  1.00  0.00    -0.744 OA
ENDBRANCH  88  89
ENDBRANCH  60  83
BRANCH  72  93
ATOM     93  C   UNL A   1      47.266  32.434  28.968  1.00  0.00    -0.014 A 
ATOM     94  C   UNL A   1      47.179  33.432  27.979  1.00  0.00     0.010 A 
ATOM     95  C   UNL A   1      48.100  32.644  30.079  1.00  0.00     0.010 A 
ATOM     96  C   UNL A   1      47.959  34.587  28.065  1.00  0.00     0.020 A 
ATOM     97  C   UNL A   1      48.851  33.818  30.190  1.00  0.00     0.020 A 
ATOM     98  C   UNL A   1      48.802  34.765  29.165  1.00  0.00     0.054 A 
BRANCH  98  99
ATOM     99  S   UNL A   1      49.860  36.236  29.220  1.00  0.00     0.124 S 
ATOM    100  O   UNL A   1      49.055  37.165  30.008  1.00  0.00    -0.237 OA
ATOM    101  O   UNL A   1      51.066  35.735  29.876  1.00  0.00    -0.237 OA
ATOM    102  O   UNL A   1      50.028  36.594  27.813  1.00  0.00    -0.744 OA
ENDBRANCH  98  99
ENDBRANCH  72  93
ENDBRANCH  46  47
ENDBRANCH  38  41
ENDBRANCH  36  37
ENDBRANCH  35  36
ENDBRANCH   1  35
TORSDOF 18
ENDMDL
MODEL 2
REMARK VINA RESULT:     -11.8      0.735      7.820
REMARK SMILES NS(=O)(=O)c1ccc(C#Cc2cc(Cl)cc3c2O[C@H](C(F)(F)F)C(C(=O)NCCCNC(=O)c2ccc(-c4c5nc(c(-c6ccc(S(=O)(=O)[O-])cc6)c6ccc([nH]6)c(-c6ccc(S(=O)(=O)[O-])cc6)c6nc(c(-c7ccc(S(=O)(=O)[O-])cc7)c7ccc4[nH]7)C=C6)C=C5)cc2)=C3)cc1
REMARK SMILES IDX 28 1 27 2 25 3 26 4 24 6 11 7 12 8 17 9 13 10 16 11 18 12
REMARK SMILES IDX 14 13 15 14 94 15 19 16 10 17 9 18 8 19 5 20 6 21 96 22 7 23
REMARK SMILES IDX 95 24 2 25 3 26 4 27 1 28 20 31 21 32 22 33 23 34 29 35
REMARK SMILES IDX 30 36 31 37 32 38 33 40 34 41 35 42 93 43 36 44 92 45 37 46
REMARK SMILES IDX 38 47 39 48 86 49 40 50 91 51 85 52 87 53 41 54 90 55 84 56
REMARK SMILES IDX 83 57 42 59 72 60 53 61 71 62 54 63 57 64 70 65 88 66 55 67
REMARK SMILES IDX 56 68 69 70 89 71 58 72 43 73 44 74 52 75 45 76 51 77 46 78
REMARK SMILES IDX 47 79 48 80 49 81 50 82 73 83 74 84 82 85 75 86 81 87 76 88
REMARK SMILES IDX 77 89 78 90 79 91 80 92 59 93 60 94 68 95 61 96 67 97 62 98
REMARK SMILES IDX 63 99 64 100 65 101 66 102
REMARK H PARENT 27 5 1 29 1 30 31 39 87 58 57 69
REMARK Flexibility Score: inf
ROOT
ATOM      1  C   UNL A   1      37.034  20.223  24.652  1.00  0.00     0.118 C 
ENDROOT
BRANCH   1   2
ATOM      2  N   UNL A   1      35.751  19.999  25.305  1.00  0.00    -0.352 N 
ATOM      3  C   UNL A   1      34.609  20.699  25.505  1.00  0.00     0.251 C 
ATOM      4  O   UNL A   1      33.711  20.097  26.103  1.00  0.00    -0.270 OA
ATOM      5  H   UNL A   1      35.701  19.103  25.708  1.00  0.00     0.163 HD
BRANCH   3   6
ATOM      6  C   UNL A   1      34.386  22.102  25.055  1.00  0.00     0.067 C 
ATOM      7  C   UNL A   1      33.465  26.012  23.830  1.00  0.00     0.069 A 
ATOM      8  C   UNL A   1      33.076  26.250  22.512  1.00  0.00     0.041 A 
ATOM      9  C   UNL A   1      33.728  24.700  24.243  1.00  0.00     0.143 A 
ATOM     10  C   UNL A   1      32.943  25.178  21.628  1.00  0.00     0.043 A 
ATOM     11  C   UNL A   1      33.588  23.624  23.360  1.00  0.00     0.020 A 
ATOM     12  O   UNL A   1      34.081  24.517  25.550  1.00  0.00    -0.474 OA
ATOM     13  Cl  UNL A   1      32.463  25.474  20.001  1.00  0.00    -0.084 Cl
ATOM     14  C   UNL A   1      33.191  23.868  22.044  1.00  0.00     0.032 A 
ATOM     15  C   UNL A   1      33.820  22.266  23.845  1.00  0.00     0.025 C 
ATOM     16  C   UNL A   1      34.785  23.296  25.866  1.00  0.00     0.314 C 
BRANCH   7  17
ATOM     17  C   UNL A   1      33.624  27.104  24.745  1.00  0.00    -0.058 C 
ATOM     18  C   UNL A   1      33.766  28.061  25.461  1.00  0.00    -0.062 C 
BRANCH  18  19
ATOM     19  C   UNL A   1      33.870  29.233  26.274  1.00  0.00     0.025 A 
ATOM     20  C   UNL A   1      34.100  31.613  27.715  1.00  0.00     0.082 A 
ATOM     21  C   UNL A   1      35.132  30.673  27.767  1.00  0.00     0.023 A 
ATOM     22  C   UNL A   1      32.938  31.352  26.981  1.00  0.00     0.023 A 
ATOM     23  C   UNL A   1      35.013  29.480  27.042  1.00  0.00     0.018 A 
ATOM     24  C   UNL A   1      32.828  30.164  26.259  1.00  0.00     0.018 A 
BRANCH  20  25
ATOM     25  S   UNL A   1      34.211  33.162  28.563  1.00  0.00     0.238 S 
ATOM     26  O   UNL A   1      35.393  33.854  28.102  1.00  0.00    -0.207 OA
ATOM     27  O   UNL A   1      33.956  32.919  29.963  1.00  0.00    -0.207 OA
BRANCH  25  28
ATOM     28  N   UNL A   1      32.911  34.056  27.998  1.00  0.00    -0.225 NA
ATOM     29  H   UNL A   1      33.255  34.860  27.472  1.00  0.00     0.137 HD
ATOM     30  H   UNL A   1      32.354  34.381  28.788  1.00  0.00     0.137 HD
ENDBRANCH  25  28
ENDBRANCH  20  25
ENDBRANCH  18  19
ENDBRANCH   7  17
BRANCH  16  31
ATOM     31  C   UNL A   1      36.306  23.550  25.824  1.00  0.00     0.429 C 
ATOM     32  F   UNL A   1      36.836  23.089  24.666  1.00  0.00    -0.167 F 
ATOM     33  F   UNL A   1      36.618  24.868  25.889  1.00  0.00    -0.167 F 
ATOM     34  F   UNL A   1      36.962  22.949  26.843  1.00  0.00    -0.167 F 
ENDBRANCH  16  31
ENDBRANCH   3   6
ENDBRANCH   1   2
BRANCH   1  35
ATOM     35  C   UNL A   1      38.089  19.237  25.119  1.00  0.00     0.042 C 
BRANCH  35  36
ATOM     36  C   UNL A   1      39.207  19.939  25.871  1.00  0.00     0.118 C 
BRANCH  36  37
ATOM     37  N   UNL A   1      40.451  19.166  25.856  1.00  0.00    -0.352 N 
ATOM     38  C   UNL A   1      41.756  19.573  25.999  1.00  0.00     0.251 C 
ATOM     39  H   UNL A   1      40.332  18.198  25.724  1.00  0.00     0.163 HD
ATOM     40  O   UNL A   1      42.672  18.804  25.722  1.00  0.00    -0.269 OA
BRANCH  38  41
ATOM     41  C   UNL A   1      42.035  20.947  26.453  1.00  0.00     0.039 A 
ATOM     42  C   UNL A   1      42.068  21.984  25.524  1.00  0.00     0.014 A 
ATOM     43  C   UNL A   1      42.326  21.191  27.796  1.00  0.00     0.014 A 
ATOM     44  C   UNL A   1      42.644  23.190  25.876  1.00  0.00     0.010 A 
ATOM     45  C   UNL A   1      42.762  22.461  28.180  1.00  0.00     0.010 A 
ATOM     46  C   UNL A   1      42.992  23.449  27.210  1.00  0.00    -0.014 A 
BRANCH  46  47
ATOM     47  C   UNL A   1      43.590  24.763  27.558  1.00  0.00     0.031 A 
ATOM     48  C   UNL A   1      45.011  25.087  27.185  1.00  0.00     0.074 A 
ATOM     49  C   UNL A   1      42.817  25.687  28.163  1.00  0.00     0.049 A 
ATOM     50  N   UNL A   1      45.683  26.188  27.401  1.00  0.00    -0.248 NA
ATOM     51  C   UNL A   1      45.785  24.046  26.487  1.00  0.00     0.031 C 
ATOM     52  C   UNL A   1      41.413  25.492  28.536  1.00  0.00     0.029 A 
ATOM     53  N   UNL A   1      43.081  26.979  28.539  1.00  0.00    -0.354 N 
ATOM     54  C   UNL A   1      46.959  25.964  26.897  1.00  0.00     0.074 A 
ATOM     55  C   UNL A   1      46.982  24.610  26.393  1.00  0.00     0.031 C 
ATOM     56  C   UNL A   1      40.920  26.642  29.012  1.00  0.00     0.029 A 
ATOM     57  C   UNL A   1      41.995  27.625  29.080  1.00  0.00     0.049 A 
ATOM     58  H   UNL A   1      43.963  27.403  28.431  1.00  0.00     0.167 HD
ATOM     59  C   UNL A   1      48.008  26.819  26.849  1.00  0.00     0.031 A 
ATOM     60  C   UNL A   1      41.869  28.863  29.598  1.00  0.00     0.031 A 
ATOM     61  C   UNL A   1      47.954  28.174  27.338  1.00  0.00     0.049 A 
ATOM     62  C   UNL A   1      43.064  29.770  29.588  1.00  0.00     0.074 A 
ATOM     63  C   UNL A   1      48.953  29.131  27.303  1.00  0.00     0.029 A 
ATOM     64  N   UNL A   1      46.855  28.766  27.946  1.00  0.00    -0.354 N 
ATOM     65  N   UNL A   1      44.254  29.551  29.084  1.00  0.00    -0.248 NA
ATOM     66  C   UNL A   1      42.902  31.091  30.207  1.00  0.00     0.031 C 
ATOM     67  C   UNL A   1      48.493  30.263  27.976  1.00  0.00     0.029 A 
ATOM     68  C   UNL A   1      47.170  30.058  28.335  1.00  0.00     0.049 A 
ATOM     69  H   UNL A   1      45.983  28.332  28.081  1.00  0.00     0.167 HD
ATOM     70  C   UNL A   1      44.981  30.713  29.309  1.00  0.00     0.074 A 
ATOM     71  C   UNL A   1      44.088  31.641  29.973  1.00  0.00     0.031 C 
ATOM     72  C   UNL A   1      46.273  30.980  28.995  1.00  0.00     0.031 A 
BRANCH  59  73
ATOM     73  C   UNL A   1      49.314  26.333  26.264  1.00  0.00    -0.014 A 
ATOM     74  C   UNL A   1      50.210  25.609  27.074  1.00  0.00     0.010 A 
ATOM     75  C   UNL A   1      49.714  26.691  24.964  1.00  0.00     0.010 A 
ATOM     76  C   UNL A   1      51.490  25.288  26.615  1.00  0.00     0.020 A 
ATOM     77  C   UNL A   1      50.980  26.337  24.484  1.00  0.00     0.020 A 
ATOM     78  C   UNL A   1      51.869  25.661  25.324  1.00  0.00     0.054 A 
BRANCH  78  79
ATOM     79  S   UNL A   1      53.547  25.265  24.758  1.00  0.00     0.124 S 
ATOM     80  O   UNL A   1      53.559  25.823  23.410  1.00  0.00    -0.237 OA
ATOM     81  O   UNL A   1      54.383  25.955  25.737  1.00  0.00    -0.237 OA
ATOM     82  O   UNL A   1      53.597  23.806  24.832  1.00  0.00    -0.744 OA
ENDBRANCH  78  79
ENDBRANCH  59  73
BRANCH  60  83
ATOM     83  C   UNL A   1      40.543  29.291  30.125  1.00  0.00    -0.014 A 
ATOM     84  C   UNL A   1      39.646  30.004  29.306  1.00  0.00     0.010 A 
ATOM     85  C   UNL A   1      40.230  29.111  31.482  1.00  0.00     0.010 A 
ATOM     86  C   UNL A   1      38.512  30.609  29.853  1.00  0.00     0.020 A 
ATOM     87  C   UNL A   1      39.074  29.681  32.025  1.00  0.00     0.020 A 
ATOM     88  C   UNL A   1      38.246  30.461  31.216  1.00  0.00     0.054 A 
BRANCH  88  89
ATOM     89  S   UNL A   1      36.833  31.350  31.923  1.00  0.00     0.124 S 
ATOM     90  O   UNL A   1      37.177  31.377  33.342  1.00  0.00    -0.237 OA
ATOM     91  O   UNL A   1      36.893  32.637  31.236  1.00  0.00    -0.237 OA
ATOM     92  O   UNL A   1      35.690  30.512  31.574  1.00  0.00    -0.744 OA
ENDBRANCH  88  89
ENDBRANCH  60  83
BRANCH  72  93
ATOM     93  C   UNL A   1      46.832  32.334  29.357  1.00  0.00    -0.014 A 
ATOM     94  C   UNL A   1      47.373  32.543  30.641  1.00  0.00     0.010 A 
ATOM     95  C   UNL A   1      46.682  33.433  28.493  1.00  0.00     0.010 A 
ATOM     96  C   UNL A   1      47.694  33.830  31.076  1.00  0.00     0.020 A 
ATOM     97  C   UNL A   1      47.042  34.717  28.910  1.00  0.00     0.020 A 
ATOM     98  C   UNL A   1      47.513  34.912  30.210  1.00  0.00     0.054 A 
BRANCH  98  99
ATOM     99  S   UNL A   1      47.867  36.582  30.820  1.00  0.00     0.124 S 
ATOM    100  O   UNL A   1      46.912  37.392  30.069  1.00  0.00    -0.237 OA
ATOM    101  O   UNL A   1      47.601  36.461  32.251  1.00  0.00    -0.237 OA
ATOM    102  O   UNL A   1      49.271  36.787  30.470  1.00  0.00    -0.744 OA
ENDBRANCH  98  99
ENDBRANCH  72  93
ENDBRANCH  46  47
ENDBRANCH  38  41
ENDBRANCH  36  37
ENDBRANCH  35  36
ENDBRANCH   1  35
TORSDOF 18
ENDMDL
MODEL 3
REMARK VINA RESULT:     -11.0      5.599     12.205
REMARK SMILES NS(=O)(=O)c1ccc(C#Cc2cc(Cl)cc3c2O[C@H](C(F)(F)F)C(C(=O)NCCCNC(=O)c2ccc(-c4c5nc(c(-c6ccc(S(=O)(=O)[O-])cc6)c6ccc([nH]6)c(-c6ccc(S(=O)(=O)[O-])cc6)c6nc(c(-c7ccc(S(=O)(=O)[O-])cc7)c7ccc4[nH]7)C=C6)C=C5)cc2)=C3)cc1
REMARK SMILES IDX 28 1 27 2 25 3 26 4 24 6 11 7 12 8 17 9 13 10 16 11 18 12
REMARK SMILES IDX 14 13 15 14 94 15 19 16 10 17 9 18 8 19 5 20 6 21 96 22 7 23
REMARK SMILES IDX 95 24 2 25 3 26 4 27 1 28 20 31 21 32 22 33 23 34 29 35
REMARK SMILES IDX 30 36 31 37 32 38 33 40 34 41 35 42 93 43 36 44 92 45 37 46
REMARK SMILES IDX 38 47 39 48 86 49 40 50 91 51 85 52 87 53 41 54 90 55 84 56
REMARK SMILES IDX 83 57 42 59 72 60 53 61 71 62 54 63 57 64 70 65 88 66 55 67
REMARK SMILES IDX 56 68 69 70 89 71 58 72 43 73 44 74 52 75 45 76 51 77 46 78
REMARK SMILES IDX 47 79 48 80 49 81 50 82 73 83 74 84 82 85 75 86 81 87 76 88
REMARK SMILES IDX 77 89 78 90 79 91 80 92 59 93 60 94 68 95 61 96 67 97 62 98
REMARK SMILES IDX 63 99 64 100 65 101 66 102
REMARK H PARENT 27 5 1 29 1 30 31 39 87 58 57 69
REMARK Flexibility Score: inf
ROOT
ATOM      1  C   UNL A   1      47.710  26.763  24.903  1.00  0.00     0.118 C 
ENDROOT
BRANCH   1   2
ATOM      2  N   UNL A   1      47.793  25.424  24.339  1.00  0.00    -0.352 N 
ATOM      3  C   UNL A   1      47.123  24.254  24.467  1.00  0.00     0.251 C 
ATOM      4  O   UNL A   1      47.514  23.331  23.744  1.00  0.00    -0.270 OA
ATOM      5  H   UNL A   1      48.533  25.348  23.694  1.00  0.00     0.163 HD
BRANCH   3   6
ATOM      6  C   UNL A   1      45.980  24.031  25.396  1.00  0.00     0.067 C 
ATOM      7  C   UNL A   1      42.730  23.701  28.036  1.00  0.00     0.069 A 
ATOM      8  C   UNL A   1      42.945  23.784  29.411  1.00  0.00     0.041 A 
ATOM      9  C   UNL A   1      43.812  23.856  27.159  1.00  0.00     0.143 A 
ATOM     10  C   UNL A   1      44.231  24.031  29.894  1.00  0.00     0.043 A 
ATOM     11  C   UNL A   1      45.100  24.111  27.642  1.00  0.00     0.020 A 
ATOM     12  O   UNL A   1      43.544  23.792  25.822  1.00  0.00    -0.474 OA
ATOM     13  Cl  UNL A   1      44.495  24.132  31.593  1.00  0.00    -0.084 Cl
ATOM     14  C   UNL A   1      45.308  24.200  29.019  1.00  0.00     0.032 A 
ATOM     15  C   UNL A   1      46.191  24.320  26.694  1.00  0.00     0.025 C 
ATOM     16  C   UNL A   1      44.657  23.486  24.953  1.00  0.00     0.314 C 
BRANCH   7  17
ATOM     17  C   UNL A   1      41.419  23.429  27.524  1.00  0.00    -0.058 C 
ATOM     18  C   UNL A   1      40.322  23.256  27.057  1.00  0.00    -0.062 C 
BRANCH  18  19
ATOM     19  C   UNL A   1      39.055  23.050  26.428  1.00  0.00     0.025 A 
ATOM     20  C   UNL A   1      36.510  22.634  25.359  1.00  0.00     0.082 A 
ATOM     21  C   UNL A   1      37.461  21.613  25.293  1.00  0.00     0.023 A 
ATOM     22  C   UNL A   1      36.837  23.874  25.918  1.00  0.00     0.023 A 
ATOM     23  C   UNL A   1      38.737  21.824  25.831  1.00  0.00     0.018 A 
ATOM     24  C   UNL A   1      38.108  24.077  26.455  1.00  0.00     0.018 A 
BRANCH  20  25
ATOM     25  S   UNL A   1      34.865  22.412  24.747  1.00  0.00     0.238 S 
ATOM     26  O   UNL A   1      33.992  23.337  25.432  1.00  0.00    -0.207 OA
ATOM     27  O   UNL A   1      34.600  20.994  24.696  1.00  0.00    -0.207 OA
BRANCH  25  28
ATOM     28  N   UNL A   1      34.923  22.935  23.155  1.00  0.00    -0.225 NA
ATOM     29  H   UNL A   1      35.110  23.938  23.134  1.00  0.00     0.137 HD
ATOM     30  H   UNL A   1      34.028  22.747  22.703  1.00  0.00     0.137 HD
ENDBRANCH  25  28
ENDBRANCH  20  25
ENDBRANCH  18  19
ENDBRANCH   7  17
BRANCH  16  31
ATOM     31  C   UNL A   1      44.707  21.968  24.690  1.00  0.00     0.429 C 
ATOM     32  F   UNL A   1      43.612  21.357  25.203  1.00  0.00    -0.167 F 
ATOM     33  F   UNL A   1      44.729  21.666  23.368  1.00  0.00    -0.167 F 
ATOM     34  F   UNL A   1      45.797  21.381  25.236  1.00  0.00    -0.167 F 
ENDBRANCH  16  31
ENDBRANCH   3   6
ENDBRANCH   1   2
BRANCH   1  35
ATOM     35  C   UNL A   1      46.549  27.553  24.326  1.00  0.00     0.042 C 
BRANCH  35  36
ATOM     36  C   UNL A   1      45.466  27.783  25.365  1.00  0.00     0.118 C 
BRANCH  36  37
ATOM     37  N   UNL A   1      44.142  27.387  24.878  1.00  0.00    -0.352 N 
ATOM     38  C   UNL A   1      42.938  27.304  25.535  1.00  0.00     0.251 C 
ATOM     39  H   UNL A   1      44.111  27.140  23.925  1.00  0.00     0.163 HD
ATOM     40  O   UNL A   1      41.991  26.726  25.009  1.00  0.00    -0.269 OA
BRANCH  38  41
ATOM     41  C   UNL A   1      42.812  27.887  26.882  1.00  0.00     0.039 A 
ATOM     42  C   UNL A   1      42.368  27.092  27.935  1.00  0.00     0.014 A 
ATOM     43  C   UNL A   1      43.077  29.243  27.083  1.00  0.00     0.014 A 
ATOM     44  C   UNL A   1      41.936  27.693  29.103  1.00  0.00     0.010 A 
ATOM     45  C   UNL A   1      42.783  29.820  28.320  1.00  0.00     0.010 A 
ATOM     46  C   UNL A   1      42.145  29.064  29.315  1.00  0.00    -0.014 A 
BRANCH  46  47
ATOM     47  C   UNL A   1      41.686  29.675  30.589  1.00  0.00     0.031 A 
ATOM     48  C   UNL A   1      42.543  29.616  31.825  1.00  0.00     0.074 A 
ATOM     49  C   UNL A   1      40.513  30.338  30.604  1.00  0.00     0.049 A 
ATOM     50  N   UNL A   1      42.300  30.107  33.013  1.00  0.00    -0.248 NA
ATOM     51  C   UNL A   1      43.833  28.913  31.725  1.00  0.00     0.031 C 
ATOM     52  C   UNL A   1      39.620  30.490  29.452  1.00  0.00     0.029 A 
ATOM     53  N   UNL A   1      39.883  31.036  31.602  1.00  0.00    -0.354 N 
ATOM     54  C   UNL A   1      43.384  29.749  33.805  1.00  0.00     0.074 A 
ATOM     55  C   UNL A   1      44.274  28.969  32.975  1.00  0.00     0.031 C 
ATOM     56  C   UNL A   1      38.604  31.295  29.785  1.00  0.00     0.029 A 
ATOM     57  C   UNL A   1      38.710  31.630  31.200  1.00  0.00     0.049 A 
ATOM     58  H   UNL A   1      40.237  31.105  32.519  1.00  0.00     0.167 HD
ATOM     59  C   UNL A   1      43.618  30.057  35.102  1.00  0.00     0.031 A 
ATOM     60  C   UNL A   1      37.802  32.350  31.888  1.00  0.00     0.031 A 
ATOM     61  C   UNL A   1      42.726  30.857  35.904  1.00  0.00     0.049 A 
ATOM     62  C   UNL A   1      38.055  32.627  33.340  1.00  0.00     0.074 A 
ATOM     63  C   UNL A   1      42.890  31.255  37.219  1.00  0.00     0.029 A 
ATOM     64  N   UNL A   1      41.512  31.379  35.478  1.00  0.00    -0.354 N 
ATOM     65  N   UNL A   1      39.098  32.302  34.066  1.00  0.00    -0.248 NA
ATOM     66  C   UNL A   1      37.018  33.369  34.067  1.00  0.00     0.031 C 
ATOM     67  C   UNL A   1      41.736  31.929  37.617  1.00  0.00     0.029 A 
ATOM     68  C   UNL A   1      40.896  32.052  36.520  1.00  0.00     0.049 A 
ATOM     69  H   UNL A   1      41.145  31.284  34.570  1.00  0.00     0.167 HD
ATOM     70  C   UNL A   1      38.853  32.816  35.333  1.00  0.00     0.074 A 
ATOM     71  C   UNL A   1      37.573  33.493  35.267  1.00  0.00     0.031 C 
ATOM     72  C   UNL A   1      39.620  32.728  36.447  1.00  0.00     0.031 A 
BRANCH  59  73
ATOM     73  C   UNL A   1      44.873  29.531  35.758  1.00  0.00    -0.014 A 
ATOM     74  C   UNL A   1      44.830  28.310  36.460  1.00  0.00     0.010 A 
ATOM     75  C   UNL A   1      46.058  30.289  35.792  1.00  0.00     0.010 A 
ATOM     76  C   UNL A   1      45.925  27.878  37.213  1.00  0.00     0.020 A 
ATOM     77  C   UNL A   1      47.171  29.840  36.511  1.00  0.00     0.020 A 
ATOM     78  C   UNL A   1      47.087  28.650  37.238  1.00  0.00     0.054 A 
BRANCH  78  79
ATOM     79  S   UNL A   1      48.486  28.089  38.248  1.00  0.00     0.124 S 
ATOM     80  O   UNL A   1      49.251  27.287  37.299  1.00  0.00    -0.237 OA
ATOM     81  O   UNL A   1      49.106  29.346  38.658  1.00  0.00    -0.237 OA
ATOM     82  O   UNL A   1      47.848  27.340  39.330  1.00  0.00    -0.744 OA
ENDBRANCH  78  79
ENDBRANCH  59  73
BRANCH  60  83
ATOM     83  C   UNL A   1      36.605  32.871  31.170  1.00  0.00    -0.014 A 
ATOM     84  C   UNL A   1      36.729  33.420  29.879  1.00  0.00     0.010 A 
ATOM     85  C   UNL A   1      35.365  32.947  31.826  1.00  0.00     0.010 A 
ATOM     86  C   UNL A   1      35.668  34.118  29.298  1.00  0.00     0.020 A 
ATOM     87  C   UNL A   1      34.287  33.610  31.230  1.00  0.00     0.020 A 
ATOM     88  C   UNL A   1      34.459  34.227  29.990  1.00  0.00     0.054 A 
BRANCH  88  89
ATOM     89  S   UNL A   1      33.137  35.234  29.266  1.00  0.00     0.124 S 
ATOM     90  O   UNL A   1      32.337  35.565  30.443  1.00  0.00    -0.237 OA
ATOM     91  O   UNL A   1      33.874  36.346  28.673  1.00  0.00    -0.237 OA
ATOM     92  O   UNL A   1      32.499  34.331  28.313  1.00  0.00    -0.744 OA
ENDBRANCH  88  89
ENDBRANCH  60  83
BRANCH  72  93
ATOM     93  C   UNL A   1      39.118  33.376  37.714  1.00  0.00    -0.014 A 
ATOM     94  C   UNL A   1      39.626  34.631  38.102  1.00  0.00     0.010 A 
ATOM     95  C   UNL A   1      38.270  32.682  38.594  1.00  0.00     0.010 A 
ATOM     96  C   UNL A   1      39.347  35.151  39.368  1.00  0.00     0.020 A 
ATOM     97  C   UNL A   1      37.953  33.218  39.845  1.00  0.00     0.020 A 
ATOM     98  C   UNL A   1      38.522  34.432  40.237  1.00  0.00     0.054 A 
BRANCH  98  99
ATOM     99  S   UNL A   1      38.232  35.089  41.902  1.00  0.00     0.124 S 
ATOM    100  O   UNL A   1      38.549  36.505  41.734  1.00  0.00    -0.237 OA
ATOM    101  O   UNL A   1      36.821  34.782  42.124  1.00  0.00    -0.237 OA
ATOM    102  O   UNL A   1      39.165  34.336  42.737  1.00  0.00    -0.744 OA
ENDBRANCH  98  99
ENDBRANCH  72  93
ENDBRANCH  46  47
ENDBRANCH  38  41
ENDBRANCH  36  37
ENDBRANCH  35  36
ENDBRANCH   1  35
TORSDOF 18
ENDMDL
