MODEL 1
REMARK VINA RESULT:     -10.6      0.000      0.000
REMARK SMILES CC[C@H](C)NS(=O)(=O)c1ccc(C(=O)NCCCNC(=O)c2ccc(-c3c4nc(c(-c5ccc(S(=O)(=O)[O-])cc5)c5ccc([nH]5)c(-c5ccc(S(=O)(=O)[O-])cc5)c5nc(c(-c6ccc(S(=O)(=O)[O-])cc6)c6ccc3[nH]6)C=C5)C=C4)cc2)cc1F
REMARK SMILES IDX 16 1 15 2 13 3 14 4 12 6 9 7 10 8 83 9 11 10 82 11 84 12
REMARK SMILES IDX 6 13 7 14 8 15 5 16 3 18 4 19 2 20 1 21 17 22 18 23 19 24
REMARK SMILES IDX 20 25 21 27 22 28 23 29 81 30 24 31 80 32 25 33 26 34 27 35
REMARK SMILES IDX 74 36 28 37 79 38 73 39 75 40 29 41 78 42 72 43 71 44 30 46
REMARK SMILES IDX 60 47 41 48 59 49 42 50 45 51 58 52 76 53 43 54 44 55 57 57
REMARK SMILES IDX 77 58 46 59 31 60 32 61 40 62 33 63 39 64 34 65 35 66 36 67
REMARK SMILES IDX 37 68 38 69 61 70 62 71 70 72 63 73 69 74 64 75 65 76 66 77
REMARK SMILES IDX 67 78 68 79 47 80 48 81 56 82 49 83 55 84 50 85 51 86 52 87
REMARK SMILES IDX 53 88 54 89
REMARK H PARENT 15 5 5 17 19 26 75 45 45 56
REMARK Flexibility Score: inf
ROOT
ATOM      1  C   UNL A   1      32.902  27.908  24.742  1.00  0.00     0.118 C 
ENDROOT
BRANCH   1   2
ATOM      2  N   UNL A   1      33.316  27.655  23.374  1.00  0.00    -0.352 N 
ATOM      3  C   UNL A   1      33.491  26.499  22.661  1.00  0.00     0.251 C 
ATOM      4  O   UNL A   1      33.809  26.596  21.477  1.00  0.00    -0.269 OA
ATOM      5  H   UNL A   1      33.507  28.472  22.859  1.00  0.00     0.163 HD
BRANCH   3   6
ATOM      6  C   UNL A   1      33.260  25.143  23.230  1.00  0.00     0.042 A 
ATOM      7  C   UNL A   1      33.017  22.598  24.372  1.00  0.00     0.118 A 
ATOM      8  C   UNL A   1      34.103  23.403  24.715  1.00  0.00     0.026 A 
ATOM      9  C   UNL A   1      32.045  23.069  23.503  1.00  0.00     0.144 A 
ATOM     10  C   UNL A   1      34.218  24.672  24.145  1.00  0.00     0.015 A 
ATOM     11  C   UNL A   1      32.148  24.345  22.950  1.00  0.00     0.054 A 
ATOM     12  F   UNL A   1      30.972  22.330  23.195  1.00  0.00    -0.205 F 
BRANCH   7  13
ATOM     13  S   UNL A   1      32.873  20.969  25.020  1.00  0.00     0.243 S 
ATOM     14  O   UNL A   1      31.519  20.816  25.515  1.00  0.00    -0.207 OA
ATOM     15  O   UNL A   1      34.003  20.725  25.883  1.00  0.00    -0.207 OA
BRANCH  13  16
ATOM     16  N   UNL A   1      33.052  19.995  23.673  1.00  0.00    -0.208 NA
ATOM     17  H   UNL A   1      32.583  20.482  22.909  1.00  0.00     0.141 HD
BRANCH  16  18
ATOM     18  C   UNL A   1      32.571  18.608  23.629  1.00  0.00     0.066 C 
ATOM     19  C   UNL A   1      32.279  18.236  22.175  1.00  0.00     0.025 C 
BRANCH  18  20
ATOM     20  C   UNL A   1      33.572  17.636  24.271  1.00  0.00     0.016 C 
ATOM     21  C   UNL A   1      34.168  16.605  23.320  1.00  0.00     0.005 C 
ENDBRANCH  18  20
ENDBRANCH  16  18
ENDBRANCH  13  16
ENDBRANCH   7  13
ENDBRANCH   3   6
ENDBRANCH   1   2
BRANCH   1  22
ATOM     22  C   UNL A   1      34.100  28.270  25.617  1.00  0.00     0.042 C 
BRANCH  22  23
ATOM     23  C   UNL A   1      33.739  28.431  27.092  1.00  0.00     0.118 C 
BRANCH  23  24
ATOM     24  N   UNL A   1      33.653  29.833  27.479  1.00  0.00    -0.352 N 
ATOM     25  C   UNL A   1      34.534  30.600  28.200  1.00  0.00     0.251 C 
ATOM     26  H   UNL A   1      32.840  30.301  27.178  1.00  0.00     0.163 HD
ATOM     27  O   UNL A   1      34.170  31.686  28.642  1.00  0.00    -0.269 OA
BRANCH  25  28
ATOM     28  C   UNL A   1      35.910  30.119  28.450  1.00  0.00     0.039 A 
ATOM     29  C   UNL A   1      36.849  30.179  27.417  1.00  0.00     0.014 A 
ATOM     30  C   UNL A   1      36.265  29.584  29.692  1.00  0.00     0.014 A 
ATOM     31  C   UNL A   1      38.162  29.763  27.650  1.00  0.00     0.010 A 
ATOM     32  C   UNL A   1      37.589  29.234  29.942  1.00  0.00     0.010 A 
ATOM     33  C   UNL A   1      38.551  29.323  28.925  1.00  0.00    -0.014 A 
BRANCH  33  34
ATOM     34  C   UNL A   1      39.961  28.969  29.228  1.00  0.00     0.031 A 
ATOM     35  C   UNL A   1      40.894  30.000  29.802  1.00  0.00     0.074 A 
ATOM     36  C   UNL A   1      40.420  27.743  28.905  1.00  0.00     0.049 A 
ATOM     37  N   UNL A   1      42.178  29.909  30.036  1.00  0.00    -0.248 NA
ATOM     38  C   UNL A   1      40.312  31.311  30.134  1.00  0.00     0.031 C 
ATOM     39  C   UNL A   1      39.620  26.668  28.314  1.00  0.00     0.029 A 
ATOM     40  N   UNL A   1      41.675  27.199  29.017  1.00  0.00    -0.354 N 
ATOM     41  C   UNL A   1      42.562  31.153  30.524  1.00  0.00     0.074 A 
ATOM     42  C   UNL A   1      41.384  31.993  30.512  1.00  0.00     0.031 C 
ATOM     43  C   UNL A   1      40.399  25.590  28.130  1.00  0.00     0.029 A 
ATOM     44  C   UNL A   1      41.761  25.910  28.545  1.00  0.00     0.049 A 
ATOM     45  H   UNL A   1      42.441  27.686  29.398  1.00  0.00     0.167 HD
ATOM     46  C   UNL A   1      43.782  31.554  30.956  1.00  0.00     0.031 A 
ATOM     47  C   UNL A   1      42.819  25.083  28.440  1.00  0.00     0.031 A 
ATOM     48  C   UNL A   1      44.948  30.710  30.971  1.00  0.00     0.049 A 
ATOM     49  C   UNL A   1      44.168  25.559  28.902  1.00  0.00     0.074 A 
ATOM     50  C   UNL A   1      46.215  31.004  31.443  1.00  0.00     0.029 A 
ATOM     51  N   UNL A   1      44.991  29.410  30.491  1.00  0.00    -0.354 N 
ATOM     52  N   UNL A   1      44.498  26.719  29.420  1.00  0.00    -0.248 NA
ATOM     53  C   UNL A   1      45.286  24.616  28.771  1.00  0.00     0.031 C 
ATOM     54  C   UNL A   1      47.039  29.901  31.195  1.00  0.00     0.029 A 
ATOM     55  C   UNL A   1      46.270  28.898  30.626  1.00  0.00     0.049 A 
ATOM     56  H   UNL A   1      44.225  28.923  30.111  1.00  0.00     0.167 HD
ATOM     57  C   UNL A   1      45.858  26.636  29.696  1.00  0.00     0.074 A 
ATOM     58  C   UNL A   1      46.285  25.308  29.304  1.00  0.00     0.031 C 
ATOM     59  C   UNL A   1      46.679  27.575  30.227  1.00  0.00     0.031 A 
BRANCH  46  60
ATOM     60  C   UNL A   1      43.919  32.974  31.440  1.00  0.00    -0.014 A 
ATOM     61  C   UNL A   1      43.832  33.289  32.808  1.00  0.00     0.010 A 
ATOM     62  C   UNL A   1      44.182  34.004  30.517  1.00  0.00     0.010 A 
ATOM     63  C   UNL A   1      43.960  34.612  33.240  1.00  0.00     0.020 A 
ATOM     64  C   UNL A   1      44.341  35.325  30.949  1.00  0.00     0.020 A 
ATOM     65  C   UNL A   1      44.211  35.622  32.307  1.00  0.00     0.054 A 
BRANCH  65  66
ATOM     66  S   UNL A   1      44.393  37.326  32.900  1.00  0.00     0.124 S 
ATOM     67  O   UNL A   1      45.731  37.300  33.486  1.00  0.00    -0.237 OA
ATOM     68  O   UNL A   1      44.260  38.108  31.673  1.00  0.00    -0.237 OA
ATOM     69  O   UNL A   1      43.299  37.481  33.856  1.00  0.00    -0.744 OA
ENDBRANCH  65  66
ENDBRANCH  46  60
BRANCH  47  70
ATOM     70  C   UNL A   1      42.641  23.719  27.872  1.00  0.00    -0.014 A 
ATOM     71  C   UNL A   1      42.268  22.645  28.700  1.00  0.00     0.010 A 
ATOM     72  C   UNL A   1      42.826  23.489  26.496  1.00  0.00     0.010 A 
ATOM     73  C   UNL A   1      42.098  21.364  28.164  1.00  0.00     0.020 A 
ATOM     74  C   UNL A   1      42.631  22.216  25.953  1.00  0.00     0.020 A 
ATOM     75  C   UNL A   1      42.279  21.159  26.793  1.00  0.00     0.054 A 
BRANCH  75  76
ATOM     76  S   UNL A   1      42.001  19.501  26.112  1.00  0.00     0.124 S 
ATOM     77  O   UNL A   1      42.510  18.645  27.179  1.00  0.00    -0.237 OA
ATOM     78  O   UNL A   1      40.553  19.478  25.918  1.00  0.00    -0.237 OA
ATOM     79  O   UNL A   1      42.787  19.502  24.881  1.00  0.00    -0.744 OA
ENDBRANCH  75  76
ENDBRANCH  47  70
BRANCH  59  80
ATOM     80  C   UNL A   1      48.121  27.196  30.439  1.00  0.00    -0.014 A 
ATOM     81  C   UNL A   1      49.097  27.477  29.467  1.00  0.00     0.010 A 
ATOM     82  C   UNL A   1      48.513  26.613  31.658  1.00  0.00     0.010 A 
ATOM     83  C   UNL A   1      50.437  27.162  29.701  1.00  0.00     0.020 A 
ATOM     84  C   UNL A   1      49.856  26.322  31.906  1.00  0.00     0.020 A 
ATOM     85  C   UNL A   1      50.809  26.589  30.921  1.00  0.00     0.054 A 
BRANCH  85  86
ATOM     86  S   UNL A   1      52.564  26.245  31.224  1.00  0.00     0.124 S 
ATOM     87  O   UNL A   1      53.103  26.197  29.868  1.00  0.00    -0.237 OA
ATOM     88  O   UNL A   1      52.981  27.394  32.025  1.00  0.00    -0.237 OA
ATOM     89  O   UNL A   1      52.551  24.969  31.936  1.00  0.00    -0.744 OA
ENDBRANCH  85  86
ENDBRANCH  59  80
ENDBRANCH  33  34
ENDBRANCH  25  28
ENDBRANCH  23  24
ENDBRANCH  22  23
ENDBRANCH   1  22
TORSDOF 17
ENDMDL
MODEL 2
REMARK VINA RESULT:     -10.4      4.538     11.144
REMARK SMILES CC[C@H](C)NS(=O)(=O)c1ccc(C(=O)NCCCNC(=O)c2ccc(-c3c4nc(c(-c5ccc(S(=O)(=O)[O-])cc5)c5ccc([nH]5)c(-c5ccc(S(=O)(=O)[O-])cc5)c5nc(c(-c6ccc(S(=O)(=O)[O-])cc6)c6ccc3[nH]6)C=C5)C=C4)cc2)cc1F
REMARK SMILES IDX 16 1 15 2 13 3 14 4 12 6 9 7 10 8 83 9 11 10 82 11 84 12
REMARK SMILES IDX 6 13 7 14 8 15 5 16 3 18 4 19 2 20 1 21 17 22 18 23 19 24
REMARK SMILES IDX 20 25 21 27 22 28 23 29 81 30 24 31 80 32 25 33 26 34 27 35
REMARK SMILES IDX 74 36 28 37 79 38 73 39 75 40 29 41 78 42 72 43 71 44 30 46
REMARK SMILES IDX 60 47 41 48 59 49 42 50 45 51 58 52 76 53 43 54 44 55 57 57
REMARK SMILES IDX 77 58 46 59 31 60 32 61 40 62 33 63 39 64 34 65 35 66 36 67
REMARK SMILES IDX 37 68 38 69 61 70 62 71 70 72 63 73 69 74 64 75 65 76 66 77
REMARK SMILES IDX 67 78 68 79 47 80 48 81 56 82 49 83 55 84 50 85 51 86 52 87
REMARK SMILES IDX 53 88 54 89
REMARK H PARENT 15 5 5 17 19 26 75 45 45 56
REMARK Flexibility Score: inf
ROOT
ATOM      1  C   UNL A   1      43.242  21.612  26.582  1.00  0.00     0.118 C 
ENDROOT
BRANCH   1   2
ATOM      2  N   UNL A   1      43.580  21.521  25.173  1.00  0.00    -0.352 N 
ATOM      3  C   UNL A   1      44.139  22.413  24.298  1.00  0.00     0.251 C 
ATOM      4  O   UNL A   1      44.356  22.032  23.148  1.00  0.00    -0.269 OA
ATOM      5  H   UNL A   1      43.364  20.650  24.768  1.00  0.00     0.163 HD
BRANCH   3   6
ATOM      6  C   UNL A   1      44.550  23.791  24.684  1.00  0.00     0.042 A 
ATOM      7  C   UNL A   1      45.505  26.305  25.464  1.00  0.00     0.118 A 
ATOM      8  C   UNL A   1      46.401  25.246  25.317  1.00  0.00     0.026 A 
ATOM      9  C   UNL A   1      44.158  26.124  25.189  1.00  0.00     0.144 A 
ATOM     10  C   UNL A   1      45.919  23.995  24.924  1.00  0.00     0.015 A 
ATOM     11  C   UNL A   1      43.681  24.881  24.778  1.00  0.00     0.054 A 
ATOM     12  F   UNL A   1      43.289  27.138  25.282  1.00  0.00    -0.205 F 
BRANCH   7  13
ATOM     13  S   UNL A   1      46.065  27.878  26.018  1.00  0.00     0.243 S 
ATOM     14  O   UNL A   1      46.084  28.762  24.869  1.00  0.00    -0.207 OA
ATOM     15  O   UNL A   1      47.252  27.680  26.813  1.00  0.00    -0.207 OA
BRANCH  13  16
ATOM     16  N   UNL A   1      44.850  28.383  27.050  1.00  0.00    -0.208 NA
ATOM     17  H   UNL A   1      44.069  27.744  26.901  1.00  0.00     0.141 HD
BRANCH  16  18
ATOM     18  C   UNL A   1      44.283  29.737  27.000  1.00  0.00     0.066 C 
ATOM     19  C   UNL A   1      42.767  29.628  26.832  1.00  0.00     0.025 C 
BRANCH  18  20
ATOM     20  C   UNL A   1      44.656  30.559  28.243  1.00  0.00     0.016 C 
ATOM     21  C   UNL A   1      46.115  30.449  28.672  1.00  0.00     0.005 C 
ENDBRANCH  18  20
ENDBRANCH  16  18
ENDBRANCH  13  16
ENDBRANCH   7  13
ENDBRANCH   3   6
ENDBRANCH   1   2
BRANCH   1  22
ATOM     22  C   UNL A   1      41.942  22.388  26.784  1.00  0.00     0.042 C 
BRANCH  22  23
ATOM     23  C   UNL A   1      40.736  21.485  27.027  1.00  0.00     0.118 C 
BRANCH  23  24
ATOM     24  N   UNL A   1      39.648  21.774  26.103  1.00  0.00    -0.352 N 
ATOM     25  C   UNL A   1      38.854  22.889  26.004  1.00  0.00     0.251 C 
ATOM     26  H   UNL A   1      39.451  21.062  25.452  1.00  0.00     0.163 HD
ATOM     27  O   UNL A   1      37.827  22.843  25.332  1.00  0.00    -0.269 OA
BRANCH  25  28
ATOM     28  C   UNL A   1      39.228  24.136  26.705  1.00  0.00     0.039 A 
ATOM     29  C   UNL A   1      38.793  24.333  28.019  1.00  0.00     0.014 A 
ATOM     30  C   UNL A   1      39.982  25.120  26.060  1.00  0.00     0.014 A 
ATOM     31  C   UNL A   1      39.170  25.489  28.707  1.00  0.00     0.010 A 
ATOM     32  C   UNL A   1      40.413  26.238  26.770  1.00  0.00     0.010 A 
ATOM     33  C   UNL A   1      40.014  26.432  28.100  1.00  0.00    -0.014 A 
BRANCH  33  34
ATOM     34  C   UNL A   1      40.511  27.619  28.841  1.00  0.00     0.031 A 
ATOM     35  C   UNL A   1      41.860  27.587  29.506  1.00  0.00     0.074 A 
ATOM     36  C   UNL A   1      39.710  28.694  28.983  1.00  0.00     0.049 A 
ATOM     37  N   UNL A   1      42.419  28.483  30.278  1.00  0.00    -0.248 NA
ATOM     38  C   UNL A   1      42.676  26.380  29.294  1.00  0.00     0.031 C 
ATOM     39  C   UNL A   1      38.368  28.832  28.413  1.00  0.00     0.029 A 
ATOM     40  N   UNL A   1      39.902  29.869  29.665  1.00  0.00    -0.354 N 
ATOM     41  C   UNL A   1      43.642  27.943  30.660  1.00  0.00     0.074 A 
ATOM     42  C   UNL A   1      43.724  26.624  30.069  1.00  0.00     0.031 C 
ATOM     43  C   UNL A   1      37.865  30.029  28.753  1.00  0.00     0.029 A 
ATOM     44  C   UNL A   1      38.825  30.724  29.604  1.00  0.00     0.049 A 
ATOM     45  H   UNL A   1      40.730  30.080  30.152  1.00  0.00     0.167 HD
ATOM     46  C   UNL A   1      44.614  28.500  31.422  1.00  0.00     0.031 A 
ATOM     47  C   UNL A   1      38.624  31.924  30.182  1.00  0.00     0.031 A 
ATOM     48  C   UNL A   1      44.527  29.815  32.001  1.00  0.00     0.049 A 
ATOM     49  C   UNL A   1      39.706  32.511  31.045  1.00  0.00     0.074 A 
ATOM     50  C   UNL A   1      45.481  30.492  32.741  1.00  0.00     0.029 A 
ATOM     51  N   UNL A   1      43.424  30.649  31.911  1.00  0.00    -0.354 N 
ATOM     52  N   UNL A   1      40.883  32.011  31.342  1.00  0.00    -0.248 NA
ATOM     53  C   UNL A   1      39.439  33.824  31.645  1.00  0.00     0.031 C 
ATOM     54  C   UNL A   1      44.932  31.714  33.145  1.00  0.00     0.029 A 
ATOM     55  C   UNL A   1      43.660  31.823  32.606  1.00  0.00     0.049 A 
ATOM     56  H   UNL A   1      42.595  30.439  31.423  1.00  0.00     0.167 HD
ATOM     57  C   UNL A   1      41.503  32.960  32.147  1.00  0.00     0.074 A 
ATOM     58  C   UNL A   1      40.580  34.069  32.276  1.00  0.00     0.031 C 
ATOM     59  C   UNL A   1      42.728  32.916  32.728  1.00  0.00     0.031 A 
BRANCH  46  60
ATOM     60  C   UNL A   1      45.852  27.683  31.681  1.00  0.00    -0.014 A 
ATOM     61  C   UNL A   1      46.940  27.707  30.790  1.00  0.00     0.010 A 
ATOM     62  C   UNL A   1      45.948  26.912  32.855  1.00  0.00     0.010 A 
ATOM     63  C   UNL A   1      48.082  26.942  31.044  1.00  0.00     0.020 A 
ATOM     64  C   UNL A   1      47.101  26.169  33.128  1.00  0.00     0.020 A 
ATOM     65  C   UNL A   1      48.154  26.175  32.211  1.00  0.00     0.054 A 
BRANCH  65  66
ATOM     66  S   UNL A   1      49.656  25.209  32.524  1.00  0.00     0.124 S 
ATOM     67  O   UNL A   1      49.162  24.168  33.422  1.00  0.00    -0.237 OA
ATOM     68  O   UNL A   1      50.031  24.757  31.186  1.00  0.00    -0.237 OA
ATOM     69  O   UNL A   1      50.570  26.173  33.132  1.00  0.00    -0.744 OA
ENDBRANCH  65  66
ENDBRANCH  46  60
BRANCH  47  70
ATOM     70  C   UNL A   1      37.343  32.648  29.961  1.00  0.00    -0.014 A 
ATOM     71  C   UNL A   1      36.225  32.383  30.772  1.00  0.00     0.010 A 
ATOM     72  C   UNL A   1      37.239  33.622  28.951  1.00  0.00     0.010 A 
ATOM     73  C   UNL A   1      35.023  33.067  30.566  1.00  0.00     0.020 A 
ATOM     74  C   UNL A   1      36.047  34.327  28.760  1.00  0.00     0.020 A 
ATOM     75  C   UNL A   1      34.943  34.037  29.562  1.00  0.00     0.054 A 
BRANCH  75  76
ATOM     76  S   UNL A   1      33.389  34.949  29.349  1.00  0.00     0.124 S 
ATOM     77  O   UNL A   1      32.855  34.960  30.706  1.00  0.00    -0.237 OA
ATOM     78  O   UNL A   1      33.848  36.238  28.837  1.00  0.00    -0.237 OA
ATOM     79  O   UNL A   1      32.646  34.135  28.389  1.00  0.00    -0.744 OA
ENDBRANCH  75  76
ENDBRANCH  47  70
BRANCH  59  80
ATOM     80  C   UNL A   1      43.155  34.111  33.537  1.00  0.00    -0.014 A 
ATOM     81  C   UNL A   1      43.708  35.247  32.920  1.00  0.00     0.010 A 
ATOM     82  C   UNL A   1      42.937  34.122  34.927  1.00  0.00     0.010 A 
ATOM     83  C   UNL A   1      44.055  36.365  33.681  1.00  0.00     0.020 A 
ATOM     84  C   UNL A   1      43.256  35.249  35.688  1.00  0.00     0.020 A 
ATOM     85  C   UNL A   1      43.823  36.361  35.061  1.00  0.00     0.054 A 
BRANCH  85  86
ATOM     86  S   UNL A   1      44.226  37.848  36.017  1.00  0.00     0.124 S 
ATOM     87  O   UNL A   1      45.663  37.693  36.231  1.00  0.00    -0.237 OA
ATOM     88  O   UNL A   1      43.839  38.926  35.110  1.00  0.00    -0.237 OA
ATOM     89  O   UNL A   1      43.401  37.725  37.217  1.00  0.00    -0.744 OA
ENDBRANCH  85  86
ENDBRANCH  59  80
ENDBRANCH  33  34
ENDBRANCH  25  28
ENDBRANCH  23  24
ENDBRANCH  22  23
ENDBRANCH   1  22
TORSDOF 17
ENDMDL
MODEL 3
REMARK VINA RESULT:     -10.4      1.479      2.053
REMARK SMILES CC[C@H](C)NS(=O)(=O)c1ccc(C(=O)NCCCNC(=O)c2ccc(-c3c4nc(c(-c5ccc(S(=O)(=O)[O-])cc5)c5ccc([nH]5)c(-c5ccc(S(=O)(=O)[O-])cc5)c5nc(c(-c6ccc(S(=O)(=O)[O-])cc6)c6ccc3[nH]6)C=C5)C=C4)cc2)cc1F
REMARK SMILES IDX 16 1 15 2 13 3 14 4 12 6 9 7 10 8 83 9 11 10 82 11 84 12
REMARK SMILES IDX 6 13 7 14 8 15 5 16 3 18 4 19 2 20 1 21 17 22 18 23 19 24
REMARK SMILES IDX 20 25 21 27 22 28 23 29 81 30 24 31 80 32 25 33 26 34 27 35
REMARK SMILES IDX 74 36 28 37 79 38 73 39 75 40 29 41 78 42 72 43 71 44 30 46
REMARK SMILES IDX 60 47 41 48 59 49 42 50 45 51 58 52 76 53 43 54 44 55 57 57
REMARK SMILES IDX 77 58 46 59 31 60 32 61 40 62 33 63 39 64 34 65 35 66 36 67
REMARK SMILES IDX 37 68 38 69 61 70 62 71 70 72 63 73 69 74 64 75 65 76 66 77
REMARK SMILES IDX 67 78 68 79 47 80 48 81 56 82 49 83 55 84 50 85 51 86 52 87
REMARK SMILES IDX 53 88 54 89
REMARK H PARENT 15 5 5 17 19 26 75 45 45 56
REMARK Flexibility Score: inf
ROOT
ATOM      1  C   UNL A   1      32.951  28.637  24.463  1.00  0.00     0.118 C 
ENDROOT
BRANCH   1   2
ATOM      2  N   UNL A   1      31.804  28.650  23.574  1.00  0.00    -0.352 N 
ATOM      3  C   UNL A   1      31.090  27.648  22.973  1.00  0.00     0.251 C 
ATOM      4  O   UNL A   1      30.114  27.964  22.294  1.00  0.00    -0.269 OA
ATOM      5  H   UNL A   1      31.476  29.553  23.361  1.00  0.00     0.163 HD
BRANCH   3   6
ATOM      6  C   UNL A   1      31.400  26.203  23.150  1.00  0.00     0.042 A 
ATOM      7  C   UNL A   1      31.871  23.489  23.656  1.00  0.00     0.118 A 
ATOM      8  C   UNL A   1      30.886  24.161  24.379  1.00  0.00     0.026 A 
ATOM      9  C   UNL A   1      32.584  24.149  22.667  1.00  0.00     0.144 A 
ATOM     10  C   UNL A   1      30.653  25.513  24.121  1.00  0.00     0.015 A 
ATOM     11  C   UNL A   1      32.337  25.494  22.395  1.00  0.00     0.054 A 
ATOM     12  F   UNL A   1      33.503  23.512  21.931  1.00  0.00    -0.205 F 
BRANCH   7  13
ATOM     13  S   UNL A   1      32.236  21.803  23.998  1.00  0.00     0.243 S 
ATOM     14  O   UNL A   1      32.153  21.077  22.745  1.00  0.00    -0.207 OA
ATOM     15  O   UNL A   1      31.454  21.394  25.138  1.00  0.00    -0.207 OA
BRANCH  13  16
ATOM     16  N   UNL A   1      33.838  21.840  24.477  1.00  0.00    -0.208 NA
ATOM     17  H   UNL A   1      34.115  20.867  24.610  1.00  0.00     0.141 HD
BRANCH  16  18
ATOM     18  C   UNL A   1      34.289  22.559  25.675  1.00  0.00     0.066 C 
ATOM     19  C   UNL A   1      34.868  21.548  26.665  1.00  0.00     0.025 C 
BRANCH  18  20
ATOM     20  C   UNL A   1      35.303  23.660  25.333  1.00  0.00     0.016 C 
ATOM     21  C   UNL A   1      34.709  25.054  25.169  1.00  0.00     0.005 C 
ENDBRANCH  18  20
ENDBRANCH  16  18
ENDBRANCH  13  16
ENDBRANCH   7  13
ENDBRANCH   3   6
ENDBRANCH   1   2
BRANCH   1  22
ATOM     22  C   UNL A   1      32.593  28.008  25.809  1.00  0.00     0.042 C 
BRANCH  22  23
ATOM     23  C   UNL A   1      33.553  28.401  26.929  1.00  0.00     0.118 C 
BRANCH  23  24
ATOM     24  N   UNL A   1      33.448  29.815  27.262  1.00  0.00    -0.352 N 
ATOM     25  C   UNL A   1      34.298  30.611  27.988  1.00  0.00     0.251 C 
ATOM     26  H   UNL A   1      32.644  30.268  26.916  1.00  0.00     0.163 HD
ATOM     27  O   UNL A   1      33.914  31.710  28.377  1.00  0.00    -0.269 OA
BRANCH  25  28
ATOM     28  C   UNL A   1      35.666  30.147  28.305  1.00  0.00     0.039 A 
ATOM     29  C   UNL A   1      36.650  30.207  27.314  1.00  0.00     0.014 A 
ATOM     30  C   UNL A   1      35.969  29.627  29.566  1.00  0.00     0.014 A 
ATOM     31  C   UNL A   1      37.955  29.807  27.610  1.00  0.00     0.010 A 
ATOM     32  C   UNL A   1      37.285  29.293  29.879  1.00  0.00     0.010 A 
ATOM     33  C   UNL A   1      38.291  29.382  28.906  1.00  0.00    -0.014 A 
BRANCH  33  34
ATOM     34  C   UNL A   1      39.689  29.046  29.276  1.00  0.00     0.031 A 
ATOM     35  C   UNL A   1      40.573  30.081  29.917  1.00  0.00     0.074 A 
ATOM     36  C   UNL A   1      40.185  27.834  28.956  1.00  0.00     0.049 A 
ATOM     37  N   UNL A   1      41.844  30.007  30.216  1.00  0.00    -0.248 NA
ATOM     38  C   UNL A   1      39.952  31.376  30.241  1.00  0.00     0.031 C 
ATOM     39  C   UNL A   1      39.436  26.757  28.304  1.00  0.00     0.029 A 
ATOM     40  N   UNL A   1      41.442  27.309  29.123  1.00  0.00    -0.354 N 
ATOM     41  C   UNL A   1      42.181  31.248  30.745  1.00  0.00     0.074 A 
ATOM     42  C   UNL A   1      40.991  32.069  30.686  1.00  0.00     0.031 C 
ATOM     43  C   UNL A   1      40.241  25.695  28.142  1.00  0.00     0.029 A 
ATOM     44  C   UNL A   1      41.574  26.030  28.633  1.00  0.00     0.049 A 
ATOM     45  H   UNL A   1      42.178  27.800  29.552  1.00  0.00     0.167 HD
ATOM     46  C   UNL A   1      43.369  31.660  31.248  1.00  0.00     0.031 A 
ATOM     47  C   UNL A   1      42.650  25.222  28.569  1.00  0.00     0.031 A 
ATOM     48  C   UNL A   1      44.547  30.835  31.309  1.00  0.00     0.049 A 
ATOM     49  C   UNL A   1      43.966  25.712  29.109  1.00  0.00     0.074 A 
ATOM     50  C   UNL A   1      45.783  31.141  31.851  1.00  0.00     0.029 A 
ATOM     51  N   UNL A   1      44.638  29.545  30.808  1.00  0.00    -0.354 N 
ATOM     52  N   UNL A   1      44.248  26.867  29.664  1.00  0.00    -0.248 NA
ATOM     53  C   UNL A   1      45.105  24.790  29.020  1.00  0.00     0.031 C 
ATOM     54  C   UNL A   1      46.638  30.056  31.627  1.00  0.00     0.029 A 
ATOM     55  C   UNL A   1      45.917  29.052  31.000  1.00  0.00     0.049 A 
ATOM     56  H   UNL A   1      43.902  29.053  30.379  1.00  0.00     0.167 HD
ATOM     57  C   UNL A   1      45.593  26.801  30.010  1.00  0.00     0.074 A 
ATOM     58  C   UNL A   1      46.062  25.488  29.617  1.00  0.00     0.031 C 
ATOM     59  C   UNL A   1      46.369  27.743  30.599  1.00  0.00     0.031 A 
BRANCH  46  60
ATOM     60  C   UNL A   1      43.457  33.073  31.763  1.00  0.00    -0.014 A 
ATOM     61  C   UNL A   1      43.891  34.124  30.935  1.00  0.00     0.010 A 
ATOM     62  C   UNL A   1      43.061  33.362  33.082  1.00  0.00     0.010 A 
ATOM     63  C   UNL A   1      43.969  35.429  31.429  1.00  0.00     0.020 A 
ATOM     64  C   UNL A   1      43.108  34.671  33.571  1.00  0.00     0.020 A 
ATOM     65  C   UNL A   1      43.579  35.694  32.745  1.00  0.00     0.054 A 
BRANCH  65  66
ATOM     66  S   UNL A   1      43.672  37.401  33.352  1.00  0.00     0.124 S 
ATOM     67  O   UNL A   1      44.911  37.378  34.125  1.00  0.00    -0.237 OA
ATOM     68  O   UNL A   1      43.718  38.178  32.116  1.00  0.00    -0.237 OA
ATOM     69  O   UNL A   1      42.451  37.557  34.139  1.00  0.00    -0.744 OA
ENDBRANCH  65  66
ENDBRANCH  46  60
BRANCH  47  70
ATOM     70  C   UNL A   1      42.526  23.867  27.968  1.00  0.00    -0.014 A 
ATOM     71  C   UNL A   1      42.223  22.755  28.774  1.00  0.00     0.010 A 
ATOM     72  C   UNL A   1      42.692  23.682  26.583  1.00  0.00     0.010 A 
ATOM     73  C   UNL A   1      42.104  21.482  28.208  1.00  0.00     0.020 A 
ATOM     74  C   UNL A   1      42.546  22.416  26.010  1.00  0.00     0.020 A 
ATOM     75  C   UNL A   1      42.263  21.322  26.828  1.00  0.00     0.054 A 
BRANCH  75  76
ATOM     76  S   UNL A   1      42.051  19.670  26.108  1.00  0.00     0.124 S 
ATOM     77  O   UNL A   1      40.619  19.642  25.829  1.00  0.00    -0.237 OA
ATOM     78  O   UNL A   1      42.924  19.720  24.938  1.00  0.00    -0.237 OA
ATOM     79  O   UNL A   1      42.500  18.775  27.172  1.00  0.00    -0.744 OA
ENDBRANCH  75  76
ENDBRANCH  47  70
BRANCH  59  80
ATOM     80  C   UNL A   1      47.804  27.384  30.880  1.00  0.00    -0.014 A 
ATOM     81  C   UNL A   1      48.188  26.843  32.120  1.00  0.00     0.010 A 
ATOM     82  C   UNL A   1      48.767  27.526  29.865  1.00  0.00     0.010 A 
ATOM     83  C   UNL A   1      49.516  26.472  32.347  1.00  0.00     0.020 A 
ATOM     84  C   UNL A   1      50.089  27.130  30.079  1.00  0.00     0.020 A 
ATOM     85  C   UNL A   1      50.457  26.614  31.323  1.00  0.00     0.054 A 
BRANCH  85  86
ATOM     86  S   UNL A   1      52.160  26.067  31.622  1.00  0.00     0.124 S 
ATOM     87  O   UNL A   1      52.827  26.456  30.383  1.00  0.00    -0.237 OA
ATOM     88  O   UNL A   1      52.539  26.835  32.807  1.00  0.00    -0.237 OA
ATOM     89  O   UNL A   1      52.031  24.627  31.836  1.00  0.00    -0.744 OA
ENDBRANCH  85  86
ENDBRANCH  59  80
ENDBRANCH  33  34
ENDBRANCH  25  28
ENDBRANCH  23  24
ENDBRANCH  22  23
ENDBRANCH   1  22
TORSDOF 17
ENDMDL
