MODEL 1
REMARK VINA RESULT:     -12.1      0.000      0.000
REMARK SMILES COC(=O)C1CCN(C(=O)N[C@@H]2C=C[C@H](C(=O)NCCCNC(=O)c3ccc(-c4c5nc(c(-c6ccc(S(=O)(=O)[O-])cc6)c6ccc([nH]6)c(-c6ccc(S(=O)(=O)[O-])cc6)c6nc(c(-c7ccc(S(=O)(=O)[O-])cc7)c7ccc4[nH]7)C=C6)C=C5)cc3)C2)CC1
REMARK SMILES IDX 20 1 19 2 18 3 16 4 17 5 15 7 12 8 13 9 85 10 14 11 11 12
REMARK SMILES IDX 5 13 6 14 87 15 7 16 86 17 8 18 9 19 10 20 3 22 4 23 2 24
REMARK SMILES IDX 1 25 21 26 22 27 23 28 24 30 25 31 26 32 84 33 27 34 83 35
REMARK SMILES IDX 28 36 29 37 30 38 77 39 31 40 82 41 76 42 78 43 32 44 81 45
REMARK SMILES IDX 75 46 74 47 33 49 63 50 44 51 62 52 45 53 48 54 61 55 79 56
REMARK SMILES IDX 46 57 47 58 60 60 80 61 49 62 34 63 35 64 43 65 36 66 42 67
REMARK SMILES IDX 37 68 38 69 39 70 40 71 41 72 64 73 65 74 73 75 66 76 72 77
REMARK SMILES IDX 67 78 68 79 69 80 70 81 71 82 50 83 51 84 59 85 52 86 58 87
REMARK SMILES IDX 53 88 54 89 55 90 56 91 57 92
REMARK H PARENT 18 6 11 21 22 29 78 48 48 59
REMARK Flexibility Score: inf
ROOT
ATOM      1  C   UNL A   1      37.780  23.681  25.560  1.00  0.00     0.042 C 
ENDROOT
BRANCH   1   2
ATOM      2  C   UNL A   1      37.235  22.258  25.486  1.00  0.00     0.117 C 
BRANCH   2   3
ATOM      3  N   UNL A   1      36.228  21.998  26.501  1.00  0.00    -0.356 N 
ATOM      4  C   UNL A   1      34.987  21.454  26.452  1.00  0.00     0.227 C 
ATOM      5  O   UNL A   1      34.376  21.392  27.526  1.00  0.00    -0.274 OA
ATOM      6  H   UNL A   1      36.504  22.271  27.406  1.00  0.00     0.163 HD
BRANCH   4   7
ATOM      7  C   UNL A   1      34.344  20.846  25.197  1.00  0.00     0.103 C 
ATOM      8  C   UNL A   1      31.977  21.346  24.651  1.00  0.00     0.107 C 
ATOM      9  C   UNL A   1      32.206  19.915  25.027  1.00  0.00    -0.006 C 
ATOM     10  C   UNL A   1      33.428  21.845  24.463  1.00  0.00     0.047 C 
ATOM     11  C   UNL A   1      33.481  19.644  25.333  1.00  0.00    -0.016 C 
BRANCH   8  12
ATOM     12  N   UNL A   1      31.334  22.079  25.725  1.00  0.00    -0.332 N 
ATOM     13  C   UNL A   1      29.785  26.088  23.648  1.00  0.00     0.102 C 
ATOM     14  C   UNL A   1      29.599  26.019  25.177  1.00  0.00     0.037 C 
ATOM     15  C   UNL A   1      30.576  24.870  23.122  1.00  0.00     0.037 C 
ATOM     16  C   UNL A   1      30.922  25.720  25.882  1.00  0.00     0.122 C 
ATOM     17  C   UNL A   1      31.811  24.542  23.970  1.00  0.00     0.122 C 
ATOM     18  N   UNL A   1      31.426  24.446  25.370  1.00  0.00    -0.325 N 
ATOM     19  C   UNL A   1      31.162  23.342  26.126  1.00  0.00     0.317 C 
ATOM     20  O   UNL A   1      30.686  23.440  27.265  1.00  0.00    -0.249 OA
ATOM     21  H   UNL A   1      30.890  21.458  26.347  1.00  0.00     0.165 HD
BRANCH  13  22
ATOM     22  C   UNL A   1      30.384  27.400  23.157  1.00  0.00     0.308 C 
ATOM     23  O   UNL A   1      30.599  27.659  21.978  1.00  0.00    -0.252 OA
BRANCH  22  24
ATOM     24  O   UNL A   1      30.540  28.284  24.178  1.00  0.00    -0.469 OA
ATOM     25  C   UNL A   1      30.186  29.634  23.873  1.00  0.00     0.282 C 
ENDBRANCH  22  24
ENDBRANCH  13  22
ENDBRANCH   8  12
ENDBRANCH   4   7
ENDBRANCH   2   3
ENDBRANCH   1   2
BRANCH   1  26
ATOM     26  C   UNL A   1      38.824  23.877  26.654  1.00  0.00     0.118 C 
BRANCH  26  27
ATOM     27  N   UNL A   1      40.173  24.007  26.117  1.00  0.00    -0.352 N 
ATOM     28  C   UNL A   1      41.143  24.944  26.362  1.00  0.00     0.251 C 
ATOM     29  H   UNL A   1      40.429  23.307  25.473  1.00  0.00     0.163 HD
ATOM     30  O   UNL A   1      42.133  24.988  25.637  1.00  0.00    -0.269 OA
BRANCH  28  31
ATOM     31  C   UNL A   1      41.004  25.901  27.480  1.00  0.00     0.039 A 
ATOM     32  C   UNL A   1      41.848  27.015  27.525  1.00  0.00     0.014 A 
ATOM     33  C   UNL A   1      40.083  25.684  28.509  1.00  0.00     0.014 A 
ATOM     34  C   UNL A   1      41.737  27.930  28.573  1.00  0.00     0.010 A 
ATOM     35  C   UNL A   1      39.913  26.642  29.503  1.00  0.00     0.010 A 
ATOM     36  C   UNL A   1      40.750  27.765  29.558  1.00  0.00    -0.014 A 
BRANCH  36  37
ATOM     37  C   UNL A   1      40.598  28.739  30.669  1.00  0.00     0.031 A 
ATOM     38  C   UNL A   1      41.473  28.630  31.890  1.00  0.00     0.074 A 
ATOM     39  C   UNL A   1      39.643  29.687  30.602  1.00  0.00     0.049 A 
ATOM     40  N   UNL A   1      41.460  29.352  32.981  1.00  0.00    -0.248 NA
ATOM     41  C   UNL A   1      42.476  27.552  31.898  1.00  0.00     0.031 C 
ATOM     42  C   UNL A   1      38.710  29.872  29.487  1.00  0.00     0.029 A 
ATOM     43  N   UNL A   1      39.297  30.673  31.490  1.00  0.00    -0.354 N 
ATOM     44  C   UNL A   1      42.437  28.806  33.808  1.00  0.00     0.074 A 
ATOM     45  C   UNL A   1      42.980  27.658  33.119  1.00  0.00     0.031 C 
ATOM     46  C   UNL A   1      37.924  30.930  29.743  1.00  0.00     0.029 A 
ATOM     47  C   UNL A   1      38.264  31.470  31.056  1.00  0.00     0.049 A 
ATOM     48  H   UNL A   1      39.747  30.798  32.357  1.00  0.00     0.167 HD
ATOM     49  C   UNL A   1      42.862  29.237  35.020  1.00  0.00     0.031 A 
ATOM     50  C   UNL A   1      37.656  32.515  31.649  1.00  0.00     0.031 A 
ATOM     51  C   UNL A   1      42.323  30.386  35.698  1.00  0.00     0.049 A 
ATOM     52  C   UNL A   1      38.134  32.966  33.003  1.00  0.00     0.074 A 
ATOM     53  C   UNL A   1      42.712  30.932  36.908  1.00  0.00     0.029 A 
ATOM     54  N   UNL A   1      41.280  31.167  35.223  1.00  0.00    -0.354 N 
ATOM     55  N   UNL A   1      39.096  32.469  33.745  1.00  0.00    -0.248 NA
ATOM     56  C   UNL A   1      37.457  34.128  33.590  1.00  0.00     0.031 C 
ATOM     57  C   UNL A   1      41.867  32.010  37.191  1.00  0.00     0.029 A 
ATOM     58  C   UNL A   1      40.999  32.180  36.124  1.00  0.00     0.049 A 
ATOM     59  H   UNL A   1      40.809  31.023  34.369  1.00  0.00     0.167 HD
ATOM     60  C   UNL A   1      39.164  33.284  34.870  1.00  0.00     0.074 A 
ATOM     61  C   UNL A   1      38.153  34.309  34.704  1.00  0.00     0.031 C 
ATOM     62  C   UNL A   1      39.991  33.195  35.942  1.00  0.00     0.031 A 
BRANCH  49  63
ATOM     63  C   UNL A   1      43.962  28.453  35.690  1.00  0.00    -0.014 A 
ATOM     64  C   UNL A   1      45.317  28.761  35.466  1.00  0.00     0.010 A 
ATOM     65  C   UNL A   1      43.639  27.409  36.577  1.00  0.00     0.010 A 
ATOM     66  C   UNL A   1      46.326  28.011  36.076  1.00  0.00     0.020 A 
ATOM     67  C   UNL A   1      44.645  26.678  37.216  1.00  0.00     0.020 A 
ATOM     68  C   UNL A   1      45.983  26.972  36.947  1.00  0.00     0.054 A 
BRANCH  68  69
ATOM     69  S   UNL A   1      47.314  26.026  37.736  1.00  0.00     0.124 S 
ATOM     70  O   UNL A   1      47.485  26.744  38.998  1.00  0.00    -0.237 OA
ATOM     71  O   UNL A   1      46.733  24.691  37.849  1.00  0.00    -0.237 OA
ATOM     72  O   UNL A   1      48.427  26.142  36.798  1.00  0.00    -0.744 OA
ENDBRANCH  68  69
ENDBRANCH  49  63
BRANCH  50  73
ATOM     73  C   UNL A   1      36.547  33.226  30.952  1.00  0.00    -0.014 A 
ATOM     74  C   UNL A   1      35.238  33.179  31.463  1.00  0.00     0.010 A 
ATOM     75  C   UNL A   1      36.797  33.962  29.779  1.00  0.00     0.010 A 
ATOM     76  C   UNL A   1      34.196  33.836  30.802  1.00  0.00     0.020 A 
ATOM     77  C   UNL A   1      35.763  34.645  29.133  1.00  0.00     0.020 A 
ATOM     78  C   UNL A   1      34.465  34.567  29.642  1.00  0.00     0.054 A 
BRANCH  78  79
ATOM     79  S   UNL A   1      33.105  35.448  28.828  1.00  0.00     0.124 S 
ATOM     80  O   UNL A   1      32.351  35.963  29.967  1.00  0.00    -0.237 OA
ATOM     81  O   UNL A   1      33.810  36.448  28.031  1.00  0.00    -0.237 OA
ATOM     82  O   UNL A   1      32.436  34.405  28.055  1.00  0.00    -0.744 OA
ENDBRANCH  78  79
ENDBRANCH  50  73
BRANCH  62  83
ATOM     83  C   UNL A   1      39.878  34.267  36.994  1.00  0.00    -0.014 A 
ATOM     84  C   UNL A   1      40.519  35.510  36.853  1.00  0.00     0.010 A 
ATOM     85  C   UNL A   1      39.077  34.035  38.127  1.00  0.00     0.010 A 
ATOM     86  C   UNL A   1      40.396  36.485  37.847  1.00  0.00     0.020 A 
ATOM     87  C   UNL A   1      38.925  35.019  39.108  1.00  0.00     0.020 A 
ATOM     88  C   UNL A   1      39.601  36.231  38.969  1.00  0.00     0.054 A 
BRANCH  88  89
ATOM     89  S   UNL A   1      39.435  37.523  40.231  1.00  0.00     0.124 S 
ATOM     90  O   UNL A   1      38.903  36.772  41.366  1.00  0.00    -0.237 OA
ATOM     91  O   UNL A   1      40.806  38.003  40.380  1.00  0.00    -0.237 OA
ATOM     92  O   UNL A   1      38.508  38.480  39.629  1.00  0.00    -0.744 OA
ENDBRANCH  88  89
ENDBRANCH  62  83
ENDBRANCH  36  37
ENDBRANCH  28  31
ENDBRANCH  26  27
ENDBRANCH   1  26
TORSDOF 16
ENDMDL
MODEL 2
REMARK VINA RESULT:     -11.9      6.044      8.101
REMARK SMILES COC(=O)C1CCN(C(=O)N[C@@H]2C=C[C@H](C(=O)NCCCNC(=O)c3ccc(-c4c5nc(c(-c6ccc(S(=O)(=O)[O-])cc6)c6ccc([nH]6)c(-c6ccc(S(=O)(=O)[O-])cc6)c6nc(c(-c7ccc(S(=O)(=O)[O-])cc7)c7ccc4[nH]7)C=C6)C=C5)cc3)C2)CC1
REMARK SMILES IDX 20 1 19 2 18 3 16 4 17 5 15 7 12 8 13 9 85 10 14 11 11 12
REMARK SMILES IDX 5 13 6 14 87 15 7 16 86 17 8 18 9 19 10 20 3 22 4 23 2 24
REMARK SMILES IDX 1 25 21 26 22 27 23 28 24 30 25 31 26 32 84 33 27 34 83 35
REMARK SMILES IDX 28 36 29 37 30 38 77 39 31 40 82 41 76 42 78 43 32 44 81 45
REMARK SMILES IDX 75 46 74 47 33 49 63 50 44 51 62 52 45 53 48 54 61 55 79 56
REMARK SMILES IDX 46 57 47 58 60 60 80 61 49 62 34 63 35 64 43 65 36 66 42 67
REMARK SMILES IDX 37 68 38 69 39 70 40 71 41 72 64 73 65 74 73 75 66 76 72 77
REMARK SMILES IDX 67 78 68 79 69 80 70 81 71 82 50 83 51 84 59 85 52 86 58 87
REMARK SMILES IDX 53 88 54 89 55 90 56 91 57 92
REMARK H PARENT 18 6 11 21 22 29 78 48 48 59
REMARK Flexibility Score: inf
ROOT
ATOM      1  C   UNL A   1      38.548  19.983  25.023  1.00  0.00     0.042 C 
ENDROOT
BRANCH   1   2
ATOM      2  C   UNL A   1      37.690  21.219  24.773  1.00  0.00     0.117 C 
BRANCH   2   3
ATOM      3  N   UNL A   1      36.712  21.435  25.826  1.00  0.00    -0.356 N 
ATOM      4  C   UNL A   1      35.365  21.283  25.880  1.00  0.00     0.227 C 
ATOM      5  O   UNL A   1      34.826  21.578  26.955  1.00  0.00    -0.274 OA
ATOM      6  H   UNL A   1      37.107  21.756  26.669  1.00  0.00     0.163 HD
BRANCH   4   7
ATOM      7  C   UNL A   1      34.502  20.700  24.753  1.00  0.00     0.103 C 
ATOM      8  C   UNL A   1      32.074  21.196  24.670  1.00  0.00     0.107 C 
ATOM      9  C   UNL A   1      32.372  19.758  24.962  1.00  0.00    -0.006 C 
ATOM     10  C   UNL A   1      33.462  21.709  24.227  1.00  0.00     0.047 C 
ATOM     11  C   UNL A   1      33.682  19.488  25.019  1.00  0.00    -0.016 C 
BRANCH   8  12
ATOM     12  N   UNL A   1      31.640  21.900  25.862  1.00  0.00    -0.332 N 
ATOM     13  C   UNL A   1      29.728  25.948  24.206  1.00  0.00     0.102 C 
ATOM     14  C   UNL A   1      29.829  25.842  25.741  1.00  0.00     0.037 C 
ATOM     15  C   UNL A   1      30.409  24.747  23.513  1.00  0.00     0.037 C 
ATOM     16  C   UNL A   1      31.260  25.534  26.181  1.00  0.00     0.122 C 
ATOM     17  C   UNL A   1      31.780  24.406  24.109  1.00  0.00     0.122 C 
ATOM     18  N   UNL A   1      31.662  24.275  25.553  1.00  0.00    -0.325 N 
ATOM     19  C   UNL A   1      31.544  23.153  26.318  1.00  0.00     0.317 C 
ATOM     20  O   UNL A   1      31.287  23.220  27.527  1.00  0.00    -0.249 OA
ATOM     21  H   UNL A   1      31.320  21.262  26.540  1.00  0.00     0.165 HD
BRANCH  13  22
ATOM     22  C   UNL A   1      30.224  27.275  23.645  1.00  0.00     0.308 C 
ATOM     23  O   UNL A   1      31.365  27.699  23.789  1.00  0.00    -0.252 OA
BRANCH  22  24
ATOM     24  O   UNL A   1      29.278  27.868  22.870  1.00  0.00    -0.469 OA
ATOM     25  C   UNL A   1      29.479  29.261  22.623  1.00  0.00     0.282 C 
ENDBRANCH  22  24
ENDBRANCH  13  22
ENDBRANCH   8  12
ENDBRANCH   4   7
ENDBRANCH   2   3
ENDBRANCH   1   2
BRANCH   1  26
ATOM     26  C   UNL A   1      39.491  20.126  26.213  1.00  0.00     0.118 C 
BRANCH  26  27
ATOM     27  N   UNL A   1      40.662  19.266  26.100  1.00  0.00    -0.352 N 
ATOM     28  C   UNL A   1      41.995  19.579  26.030  1.00  0.00     0.251 C 
ATOM     29  H   UNL A   1      40.463  18.301  26.068  1.00  0.00     0.163 HD
ATOM     30  O   UNL A   1      42.802  18.708  25.719  1.00  0.00    -0.269 OA
BRANCH  28  31
ATOM     31  C   UNL A   1      42.463  20.952  26.317  1.00  0.00     0.039 A 
ATOM     32  C   UNL A   1      42.695  21.321  27.645  1.00  0.00     0.014 A 
ATOM     33  C   UNL A   1      42.629  21.889  25.294  1.00  0.00     0.014 A 
ATOM     34  C   UNL A   1      43.135  22.613  27.940  1.00  0.00     0.010 A 
ATOM     35  C   UNL A   1      43.153  23.145  25.580  1.00  0.00     0.010 A 
ATOM     36  C   UNL A   1      43.393  23.529  26.907  1.00  0.00    -0.014 A 
BRANCH  36  37
ATOM     37  C   UNL A   1      43.884  24.900  27.197  1.00  0.00     0.031 A 
ATOM     38  C   UNL A   1      45.339  25.236  27.000  1.00  0.00     0.074 A 
ATOM     39  C   UNL A   1      43.034  25.826  27.682  1.00  0.00     0.049 A 
ATOM     40  N   UNL A   1      45.967  26.358  27.243  1.00  0.00    -0.248 NA
ATOM     41  C   UNL A   1      46.208  24.162  26.490  1.00  0.00     0.031 C 
ATOM     42  C   UNL A   1      41.609  25.613  27.949  1.00  0.00     0.029 A 
ATOM     43  N   UNL A   1      43.245  27.134  28.039  1.00  0.00    -0.354 N 
ATOM     44  C   UNL A   1      47.302  26.119  26.931  1.00  0.00     0.074 A 
ATOM     45  C   UNL A   1      47.403  24.731  26.541  1.00  0.00     0.031 C 
ATOM     46  C   UNL A   1      41.069  26.759  28.392  1.00  0.00     0.029 A 
ATOM     47  C   UNL A   1      42.113  27.774  28.485  1.00  0.00     0.049 A 
ATOM     48  H   UNL A   1      44.125  27.573  27.982  1.00  0.00     0.167 HD
ATOM     49  C   UNL A   1      48.345  26.984  26.944  1.00  0.00     0.031 A 
ATOM     50  C   UNL A   1      41.935  29.036  28.922  1.00  0.00     0.031 A 
ATOM     51  C   UNL A   1      48.236  28.367  27.325  1.00  0.00     0.049 A 
ATOM     52  C   UNL A   1      43.111  29.974  28.942  1.00  0.00     0.074 A 
ATOM     53  C   UNL A   1      49.222  29.338  27.331  1.00  0.00     0.029 A 
ATOM     54  N   UNL A   1      47.072  28.976  27.766  1.00  0.00    -0.354 N 
ATOM     55  N   UNL A   1      44.355  29.744  28.593  1.00  0.00    -0.248 NA
ATOM     56  C   UNL A   1      42.856  31.345  29.400  1.00  0.00     0.031 C 
ATOM     57  C   UNL A   1      48.665  30.520  27.829  1.00  0.00     0.029 A 
ATOM     58  C   UNL A   1      47.317  30.306  28.066  1.00  0.00     0.049 A 
ATOM     59  H   UNL A   1      46.197  28.530  27.853  1.00  0.00     0.167 HD
ATOM     60  C   UNL A   1      45.022  30.954  28.752  1.00  0.00     0.074 A 
ATOM     61  C   UNL A   1      44.040  31.913  29.218  1.00  0.00     0.031 C 
ATOM     62  C   UNL A   1      46.327  31.248  28.527  1.00  0.00     0.031 A 
BRANCH  49  63
ATOM     63  C   UNL A   1      49.695  26.450  26.536  1.00  0.00    -0.014 A 
ATOM     64  C   UNL A   1      50.534  25.804  27.463  1.00  0.00     0.010 A 
ATOM     65  C   UNL A   1      50.123  26.572  25.201  1.00  0.00     0.010 A 
ATOM     66  C   UNL A   1      51.792  25.334  27.076  1.00  0.00     0.020 A 
ATOM     67  C   UNL A   1      51.367  26.075  24.802  1.00  0.00     0.020 A 
ATOM     68  C   UNL A   1      52.202  25.476  25.746  1.00  0.00     0.054 A 
BRANCH  68  69
ATOM     69  S   UNL A   1      53.833  24.843  25.269  1.00  0.00     0.124 S 
ATOM     70  O   UNL A   1      53.546  23.433  25.015  1.00  0.00    -0.237 OA
ATOM     71  O   UNL A   1      54.152  25.641  24.088  1.00  0.00    -0.237 OA
ATOM     72  O   UNL A   1      54.665  25.108  26.440  1.00  0.00    -0.744 OA
ENDBRANCH  68  69
ENDBRANCH  49  63
BRANCH  50  73
ATOM     73  C   UNL A   1      40.583  29.493  29.348  1.00  0.00    -0.014 A 
ATOM     74  C   UNL A   1      39.541  29.612  28.412  1.00  0.00     0.010 A 
ATOM     75  C   UNL A   1      40.327  29.805  30.697  1.00  0.00     0.010 A 
ATOM     76  C   UNL A   1      38.276  30.053  28.811  1.00  0.00     0.020 A 
ATOM     77  C   UNL A   1      39.056  30.217  31.105  1.00  0.00     0.020 A 
ATOM     78  C   UNL A   1      38.040  30.351  30.156  1.00  0.00     0.054 A 
BRANCH  78  79
ATOM     79  S   UNL A   1      36.379  30.878  30.657  1.00  0.00     0.124 S 
ATOM     80  O   UNL A   1      35.638  30.781  29.402  1.00  0.00    -0.237 OA
ATOM     81  O   UNL A   1      36.030  29.892  31.676  1.00  0.00    -0.237 OA
ATOM     82  O   UNL A   1      36.587  32.234  31.158  1.00  0.00    -0.744 OA
ENDBRANCH  78  79
ENDBRANCH  50  73
BRANCH  62  83
ATOM     83  C   UNL A   1      46.760  32.677  28.727  1.00  0.00    -0.014 A 
ATOM     84  C   UNL A   1      46.675  33.626  27.694  1.00  0.00     0.010 A 
ATOM     85  C   UNL A   1      47.222  33.083  29.993  1.00  0.00     0.010 A 
ATOM     86  C   UNL A   1      47.086  34.944  27.911  1.00  0.00     0.020 A 
ATOM     87  C   UNL A   1      47.602  34.407  30.224  1.00  0.00     0.020 A 
ATOM     88  C   UNL A   1      47.548  35.325  29.174  1.00  0.00     0.054 A 
BRANCH  88  89
ATOM     89  S   UNL A   1      48.047  37.048  29.437  1.00  0.00     0.124 S 
ATOM     90  O   UNL A   1      47.550  37.697  28.227  1.00  0.00    -0.237 OA
ATOM     91  O   UNL A   1      47.350  37.399  30.672  1.00  0.00    -0.237 OA
ATOM     92  O   UNL A   1      49.503  36.975  29.551  1.00  0.00    -0.744 OA
ENDBRANCH  88  89
ENDBRANCH  62  83
ENDBRANCH  36  37
ENDBRANCH  28  31
ENDBRANCH  26  27
ENDBRANCH   1  26
TORSDOF 16
ENDMDL
MODEL 3
REMARK VINA RESULT:     -11.9      5.176     12.420
REMARK SMILES COC(=O)C1CCN(C(=O)N[C@@H]2C=C[C@H](C(=O)NCCCNC(=O)c3ccc(-c4c5nc(c(-c6ccc(S(=O)(=O)[O-])cc6)c6ccc([nH]6)c(-c6ccc(S(=O)(=O)[O-])cc6)c6nc(c(-c7ccc(S(=O)(=O)[O-])cc7)c7ccc4[nH]7)C=C6)C=C5)cc3)C2)CC1
REMARK SMILES IDX 20 1 19 2 18 3 16 4 17 5 15 7 12 8 13 9 85 10 14 11 11 12
REMARK SMILES IDX 5 13 6 14 87 15 7 16 86 17 8 18 9 19 10 20 3 22 4 23 2 24
REMARK SMILES IDX 1 25 21 26 22 27 23 28 24 30 25 31 26 32 84 33 27 34 83 35
REMARK SMILES IDX 28 36 29 37 30 38 77 39 31 40 82 41 76 42 78 43 32 44 81 45
REMARK SMILES IDX 75 46 74 47 33 49 63 50 44 51 62 52 45 53 48 54 61 55 79 56
REMARK SMILES IDX 46 57 47 58 60 60 80 61 49 62 34 63 35 64 43 65 36 66 42 67
REMARK SMILES IDX 37 68 38 69 39 70 40 71 41 72 64 73 65 74 73 75 66 76 72 77
REMARK SMILES IDX 67 78 68 79 69 80 70 81 71 82 50 83 51 84 59 85 52 86 58 87
REMARK SMILES IDX 53 88 54 89 55 90 56 91 57 92
REMARK H PARENT 18 6 11 21 22 29 78 48 48 59
REMARK Flexibility Score: inf
ROOT
ATOM      1  C   UNL A   1      34.016  34.283  28.047  1.00  0.00     0.042 C 
ENDROOT
BRANCH   1   2
ATOM      2  C   UNL A   1      33.237  34.668  29.301  1.00  0.00     0.117 C 
BRANCH   2   3
ATOM      3  N   UNL A   1      34.083  35.284  30.310  1.00  0.00    -0.356 N 
ATOM      4  C   UNL A   1      34.518  34.872  31.526  1.00  0.00     0.227 C 
ATOM      5  O   UNL A   1      35.232  35.668  32.149  1.00  0.00    -0.274 OA
ATOM      6  H   UNL A   1      34.405  36.180  30.058  1.00  0.00     0.163 HD
BRANCH   4   7
ATOM      7  C   UNL A   1      34.262  33.482  32.126  1.00  0.00     0.103 C 
ATOM      8  C   UNL A   1      35.878  32.509  33.735  1.00  0.00     0.107 C 
ATOM      9  C   UNL A   1      35.830  31.775  32.432  1.00  0.00    -0.006 C 
ATOM     10  C   UNL A   1      34.628  33.410  33.621  1.00  0.00     0.047 C 
ATOM     11  C   UNL A   1      34.967  32.303  31.556  1.00  0.00    -0.016 C 
BRANCH   8  12
ATOM     12  N   UNL A   1      37.073  33.327  33.839  1.00  0.00    -0.332 N 
ATOM     13  C   UNL A   1      40.649  30.170  33.992  1.00  0.00     0.102 C 
ATOM     14  C   UNL A   1      41.056  31.643  34.198  1.00  0.00     0.037 C 
ATOM     15  C   UNL A   1      39.114  30.016  33.913  1.00  0.00     0.037 C 
ATOM     16  C   UNL A   1      40.256  32.284  35.332  1.00  0.00     0.122 C 
ATOM     17  C   UNL A   1      38.373  30.809  34.997  1.00  0.00     0.122 C 
ATOM     18  N   UNL A   1      38.836  32.188  34.991  1.00  0.00    -0.325 N 
ATOM     19  C   UNL A   1      38.274  33.292  34.422  1.00  0.00     0.317 C 
ATOM     20  O   UNL A   1      38.882  34.369  34.369  1.00  0.00    -0.249 OA
ATOM     21  H   UNL A   1      36.964  34.159  33.324  1.00  0.00     0.165 HD
BRANCH  13  22
ATOM     22  C   UNL A   1      41.258  29.213  35.010  1.00  0.00     0.308 C 
ATOM     23  O   UNL A   1      40.843  29.073  36.156  1.00  0.00    -0.252 OA
BRANCH  22  24
ATOM     24  O   UNL A   1      42.239  28.456  34.452  1.00  0.00    -0.469 OA
ATOM     25  C   UNL A   1      42.031  27.045  34.518  1.00  0.00     0.282 C 
ENDBRANCH  22  24
ENDBRANCH  13  22
ENDBRANCH   8  12
ENDBRANCH   4   7
ENDBRANCH   2   3
ENDBRANCH   1   2
BRANCH   1  26
ATOM     26  C   UNL A   1      34.858  33.023  28.216  1.00  0.00     0.118 C 
BRANCH  26  27
ATOM     27  N   UNL A   1      34.072  31.805  28.058  1.00  0.00    -0.352 N 
ATOM     28  C   UNL A   1      34.467  30.497  27.951  1.00  0.00     0.251 C 
ATOM     29  H   UNL A   1      33.097  31.946  28.022  1.00  0.00     0.163 HD
ATOM     30  O   UNL A   1      33.650  29.648  27.606  1.00  0.00    -0.269 OA
BRANCH  28  31
ATOM     31  C   UNL A   1      35.863  30.104  28.238  1.00  0.00     0.039 A 
ATOM     32  C   UNL A   1      36.816  30.207  27.219  1.00  0.00     0.014 A 
ATOM     33  C   UNL A   1      36.229  29.591  29.485  1.00  0.00     0.014 A 
ATOM     34  C   UNL A   1      38.139  29.839  27.466  1.00  0.00     0.010 A 
ATOM     35  C   UNL A   1      37.565  29.310  29.756  1.00  0.00     0.010 A 
ATOM     36  C   UNL A   1      38.531  29.411  28.746  1.00  0.00    -0.014 A 
BRANCH  36  37
ATOM     37  C   UNL A   1      39.938  29.038  29.037  1.00  0.00     0.031 A 
ATOM     38  C   UNL A   1      40.871  30.044  29.659  1.00  0.00     0.074 A 
ATOM     39  C   UNL A   1      40.390  27.814  28.698  1.00  0.00     0.049 A 
ATOM     40  N   UNL A   1      42.142  29.924  29.944  1.00  0.00    -0.248 NA
ATOM     41  C   UNL A   1      40.308  31.367  29.978  1.00  0.00     0.031 C 
ATOM     42  C   UNL A   1      39.593  26.764  28.059  1.00  0.00     0.029 A 
ATOM     43  N   UNL A   1      41.630  27.246  28.843  1.00  0.00    -0.354 N 
ATOM     44  C   UNL A   1      42.532  31.157  30.458  1.00  0.00     0.074 A 
ATOM     45  C   UNL A   1      41.381  32.027  30.388  1.00  0.00     0.031 C 
ATOM     46  C   UNL A   1      40.354  25.669  27.901  1.00  0.00     0.029 A 
ATOM     47  C   UNL A   1      41.702  25.952  28.383  1.00  0.00     0.049 A 
ATOM     48  H   UNL A   1      42.396  27.721  29.239  1.00  0.00     0.167 HD
ATOM     49  C   UNL A   1      43.734  31.524  30.965  1.00  0.00     0.031 A 
ATOM     50  C   UNL A   1      42.737  25.091  28.351  1.00  0.00     0.031 A 
ATOM     51  C   UNL A   1      44.875  30.651  31.040  1.00  0.00     0.049 A 
ATOM     52  C   UNL A   1      44.066  25.527  28.905  1.00  0.00     0.074 A 
ATOM     53  C   UNL A   1      46.124  30.910  31.574  1.00  0.00     0.029 A 
ATOM     54  N   UNL A   1      44.905  29.348  30.566  1.00  0.00    -0.354 N 
ATOM     55  N   UNL A   1      44.401  26.679  29.436  1.00  0.00    -0.248 NA
ATOM     56  C   UNL A   1      45.152  24.539  28.873  1.00  0.00     0.031 C 
ATOM     57  C   UNL A   1      46.927  29.782  31.373  1.00  0.00     0.029 A 
ATOM     58  C   UNL A   1      46.157  28.795  30.779  1.00  0.00     0.049 A 
ATOM     59  H   UNL A   1      44.147  28.882  30.141  1.00  0.00     0.167 HD
ATOM     60  C   UNL A   1      45.726  26.541  29.835  1.00  0.00     0.074 A 
ATOM     61  C   UNL A   1      46.125  25.191  29.494  1.00  0.00     0.031 C 
ATOM     62  C   UNL A   1      46.537  27.448  30.435  1.00  0.00     0.031 A 
BRANCH  49  63
ATOM     63  C   UNL A   1      43.871  32.937  31.475  1.00  0.00    -0.014 A 
ATOM     64  C   UNL A   1      44.142  34.005  30.599  1.00  0.00     0.010 A 
ATOM     65  C   UNL A   1      43.701  33.207  32.845  1.00  0.00     0.010 A 
ATOM     66  C   UNL A   1      44.289  35.305  31.089  1.00  0.00     0.020 A 
ATOM     67  C   UNL A   1      43.813  34.512  33.335  1.00  0.00     0.020 A 
ATOM     68  C   UNL A   1      44.126  35.550  32.456  1.00  0.00     0.054 A 
BRANCH  68  69
ATOM     69  S   UNL A   1      44.307  37.250  33.061  1.00  0.00     0.124 S 
ATOM     70  O   UNL A   1      44.213  38.021  31.822  1.00  0.00    -0.237 OA
ATOM     71  O   UNL A   1      43.173  37.388  33.971  1.00  0.00    -0.237 OA
ATOM     72  O   UNL A   1      45.620  37.255  33.699  1.00  0.00    -0.744 OA
ENDBRANCH  68  69
ENDBRANCH  49  63
BRANCH  50  73
ATOM     73  C   UNL A   1      42.549  23.720  27.799  1.00  0.00    -0.014 A 
ATOM     74  C   UNL A   1      42.155  22.661  28.636  1.00  0.00     0.010 A 
ATOM     75  C   UNL A   1      42.754  23.468  26.430  1.00  0.00     0.010 A 
ATOM     76  C   UNL A   1      41.992  21.373  28.120  1.00  0.00     0.020 A 
ATOM     77  C   UNL A   1      42.561  22.187  25.904  1.00  0.00     0.020 A 
ATOM     78  C   UNL A   1      42.193  21.144  26.756  1.00  0.00     0.054 A 
BRANCH  78  79
ATOM     79  S   UNL A   1      41.930  19.473  26.102  1.00  0.00     0.124 S 
ATOM     80  O   UNL A   1      42.371  18.637  27.214  1.00  0.00    -0.237 OA
ATOM     81  O   UNL A   1      40.495  19.464  25.833  1.00  0.00    -0.237 OA
ATOM     82  O   UNL A   1      42.779  19.434  24.914  1.00  0.00    -0.744 OA
ENDBRANCH  78  79
ENDBRANCH  50  73
BRANCH  62  83
ATOM     83  C   UNL A   1      47.923  26.993  30.814  1.00  0.00    -0.014 A 
ATOM     84  C   UNL A   1      49.008  27.117  29.929  1.00  0.00     0.010 A 
ATOM     85  C   UNL A   1      48.146  26.470  32.101  1.00  0.00     0.010 A 
ATOM     86  C   UNL A   1      50.282  26.685  30.308  1.00  0.00     0.020 A 
ATOM     87  C   UNL A   1      49.424  26.068  32.496  1.00  0.00     0.020 A 
ATOM     88  C   UNL A   1      50.481  26.161  31.590  1.00  0.00     0.054 A 
BRANCH  88  89
ATOM     89  S   UNL A   1      52.148  25.635  32.068  1.00  0.00     0.124 S 
ATOM     90  O   UNL A   1      52.934  26.010  30.895  1.00  0.00    -0.237 OA
ATOM     91  O   UNL A   1      52.400  26.422  33.273  1.00  0.00    -0.237 OA
ATOM     92  O   UNL A   1      52.009  24.196  32.289  1.00  0.00    -0.744 OA
ENDBRANCH  88  89
ENDBRANCH  62  83
ENDBRANCH  36  37
ENDBRANCH  28  31
ENDBRANCH  26  27
ENDBRANCH   1  26
TORSDOF 16
ENDMDL
