MODEL 1
REMARK VINA RESULT:     -12.4      0.000      0.000
REMARK SMILES O=C(NCCCNC(=O)c1ccc(N2C(=O)N=C(O)/C(=C\c3cccs3)C2=O)cc1)c1ccc(-c2c3nc(c(-c4ccc(S(=O)(=O)[O-])cc4)c4ccc([nH]4)c(-c4ccc(S(=O)(=O)[O-])cc4)c4nc(c(-c5ccc(S(=O)(=O)[O-])cc5)c5ccc2[nH]5)C=C4)C=C3)cc1
REMARK SMILES IDX 4 1 3 2 1 3 2 4 31 6 32 7 90 8 33 9 89 10 34 11 35 12 36 13
REMARK SMILES IDX 83 14 37 15 88 16 82 17 84 18 38 19 87 20 81 21 80 22 39 24
REMARK SMILES IDX 69 25 50 26 68 27 51 28 54 29 67 30 85 31 52 32 53 33 66 35
REMARK SMILES IDX 86 36 55 37 40 38 41 39 49 40 42 41 48 42 43 43 44 44 45 45
REMARK SMILES IDX 46 46 47 47 70 48 71 49 79 50 72 51 78 52 73 53 74 54 75 55
REMARK SMILES IDX 76 56 77 57 56 58 57 59 65 60 58 61 64 62 59 63 60 64 61 65
REMARK SMILES IDX 62 66 63 67 5 68 6 69 7 70 8 71 9 73 10 74 11 75 30 76 12 77
REMARK SMILES IDX 29 78 13 79 14 80 15 81 27 82 16 83 17 84 20 85 28 86 18 87
REMARK SMILES IDX 21 88 19 89 22 91 23 92 26 93 24 94 25 95
REMARK H PARENT 3 5 84 23 54 34 7 72 19 90
REMARK Flexibility Score: inf
ROOT
ATOM      1  C   UNL A   1      33.832  28.994  26.910  1.00  0.00     0.118 C 
ENDROOT
BRANCH   1   2
ATOM      2  N   UNL A   1      33.673  30.293  27.551  1.00  0.00    -0.352 N 
ATOM      3  O   UNL A   1      34.135  31.951  29.005  1.00  0.00    -0.269 OA
ATOM      4  C   UNL A   1      34.524  30.956  28.402  1.00  0.00     0.251 C 
ATOM      5  H   UNL A   1      32.834  30.765  27.344  1.00  0.00     0.163 HD
BRANCH   4   6
ATOM      6  C   UNL A   1      35.902  30.455  28.593  1.00  0.00     0.039 A 
ATOM      7  C   UNL A   1      36.865  30.654  27.601  1.00  0.00     0.014 A 
ATOM      8  C   UNL A   1      36.240  29.799  29.779  1.00  0.00     0.014 A 
ATOM      9  C   UNL A   1      38.119  30.075  27.726  1.00  0.00     0.010 A 
ATOM     10  C   UNL A   1      37.540  29.315  29.953  1.00  0.00     0.010 A 
ATOM     11  C   UNL A   1      38.485  29.442  28.923  1.00  0.00    -0.014 A 
BRANCH  11  12
ATOM     12  C   UNL A   1      39.906  29.069  29.127  1.00  0.00     0.031 A 
ATOM     13  C   UNL A   1      40.442  27.736  28.693  1.00  0.00     0.074 A 
ATOM     14  C   UNL A   1      40.710  29.975  29.723  1.00  0.00     0.049 A 
ATOM     15  N   UNL A   1      41.655  27.265  28.827  1.00  0.00    -0.248 NA
ATOM     16  C   UNL A   1      39.508  26.811  28.033  1.00  0.00     0.031 C 
ATOM     17  C   UNL A   1      40.284  31.299  30.194  1.00  0.00     0.029 A 
ATOM     18  N   UNL A   1      42.043  29.931  30.034  1.00  0.00    -0.354 N 
ATOM     19  C   UNL A   1      41.627  25.981  28.296  1.00  0.00     0.074 A 
ATOM     20  C   UNL A   1      40.275  25.742  27.840  1.00  0.00     0.031 C 
ATOM     21  C   UNL A   1      41.339  31.950  30.700  1.00  0.00     0.029 A 
ATOM     22  C   UNL A   1      42.494  31.063  30.671  1.00  0.00     0.049 A 
ATOM     23  H   UNL A   1      42.623  29.164  29.822  1.00  0.00     0.167 HD
ATOM     24  C   UNL A   1      42.643  25.089  28.208  1.00  0.00     0.031 A 
ATOM     25  C   UNL A   1      43.690  31.348  31.217  1.00  0.00     0.031 A 
ATOM     26  C   UNL A   1      43.986  25.349  28.661  1.00  0.00     0.049 A 
ATOM     27  C   UNL A   1      44.776  30.314  31.143  1.00  0.00     0.074 A 
ATOM     28  C   UNL A   1      45.099  24.532  28.552  1.00  0.00     0.029 A 
ATOM     29  N   UNL A   1      44.397  26.496  29.325  1.00  0.00    -0.354 N 
ATOM     30  N   UNL A   1      44.753  29.140  30.560  1.00  0.00    -0.248 NA
ATOM     31  C   UNL A   1      46.047  30.639  31.804  1.00  0.00     0.031 C 
ATOM     32  C   UNL A   1      46.160  25.148  29.220  1.00  0.00     0.029 A 
ATOM     33  C   UNL A   1      45.730  26.382  29.681  1.00  0.00     0.049 A 
ATOM     34  H   UNL A   1      43.824  27.274  29.515  1.00  0.00     0.167 HD
ATOM     35  C   UNL A   1      46.009  28.589  30.777  1.00  0.00     0.074 A 
ATOM     36  C   UNL A   1      46.778  29.573  31.511  1.00  0.00     0.031 C 
ATOM     37  C   UNL A   1      46.479  27.371  30.414  1.00  0.00     0.031 A 
BRANCH  24  38
ATOM     38  C   UNL A   1      42.357  23.725  27.634  1.00  0.00    -0.014 A 
ATOM     39  C   UNL A   1      42.608  23.428  26.284  1.00  0.00     0.010 A 
ATOM     40  C   UNL A   1      41.956  22.689  28.499  1.00  0.00     0.010 A 
ATOM     41  C   UNL A   1      42.459  22.121  25.809  1.00  0.00     0.020 A 
ATOM     42  C   UNL A   1      41.828  21.377  28.034  1.00  0.00     0.020 A 
ATOM     43  C   UNL A   1      42.078  21.102  26.688  1.00  0.00     0.054 A 
BRANCH  43  44
ATOM     44  S   UNL A   1      41.973  19.403  26.060  1.00  0.00     0.124 S 
ATOM     45  O   UNL A   1      40.543  19.268  25.792  1.00  0.00    -0.237 OA
ATOM     46  O   UNL A   1      42.833  19.446  24.880  1.00  0.00    -0.237 OA
ATOM     47  O   UNL A   1      42.477  18.590  27.165  1.00  0.00    -0.744 OA
ENDBRANCH  43  44
ENDBRANCH  24  38
BRANCH  25  48
ATOM     48  C   UNL A   1      43.893  32.628  31.948  1.00  0.00    -0.014 A 
ATOM     49  C   UNL A   1      43.576  32.742  33.312  1.00  0.00     0.010 A 
ATOM     50  C   UNL A   1      44.391  33.756  31.266  1.00  0.00     0.010 A 
ATOM     51  C   UNL A   1      43.713  33.968  33.968  1.00  0.00     0.020 A 
ATOM     52  C   UNL A   1      44.567  34.972  31.928  1.00  0.00     0.020 A 
ATOM     53  C   UNL A   1      44.203  35.075  33.270  1.00  0.00     0.054 A 
BRANCH  53  54
ATOM     54  S   UNL A   1      44.369  36.657  34.142  1.00  0.00     0.124 S 
ATOM     55  O   UNL A   1      45.240  37.406  33.242  1.00  0.00    -0.237 OA
ATOM     56  O   UNL A   1      42.986  37.121  34.219  1.00  0.00    -0.237 OA
ATOM     57  O   UNL A   1      44.965  36.281  35.422  1.00  0.00    -0.744 OA
ENDBRANCH  53  54
ENDBRANCH  25  48
BRANCH  37  58
ATOM     58  C   UNL A   1      47.896  27.040  30.796  1.00  0.00    -0.014 A 
ATOM     59  C   UNL A   1      48.174  26.271  31.940  1.00  0.00     0.010 A 
ATOM     60  C   UNL A   1      48.957  27.449  29.968  1.00  0.00     0.010 A 
ATOM     61  C   UNL A   1      49.491  25.935  32.260  1.00  0.00     0.020 A 
ATOM     62  C   UNL A   1      50.272  27.087  30.268  1.00  0.00     0.020 A 
ATOM     63  C   UNL A   1      50.531  26.340  31.418  1.00  0.00     0.054 A 
BRANCH  63  64
ATOM     64  S   UNL A   1      52.224  25.832  31.823  1.00  0.00     0.124 S 
ATOM     65  O   UNL A   1      52.027  24.463  32.292  1.00  0.00    -0.237 OA
ATOM     66  O   UNL A   1      52.913  25.966  30.543  1.00  0.00    -0.237 OA
ATOM     67  O   UNL A   1      52.636  26.787  32.849  1.00  0.00    -0.744 OA
ENDBRANCH  63  64
ENDBRANCH  37  58
ENDBRANCH  11  12
ENDBRANCH   4   6
ENDBRANCH   1   2
BRANCH   1  68
ATOM     68  C   UNL A   1      32.729  28.701  25.909  1.00  0.00     0.042 C 
BRANCH  68  69
ATOM     69  C   UNL A   1      33.039  29.199  24.507  1.00  0.00     0.118 C 
BRANCH  69  70
ATOM     70  N   UNL A   1      31.852  29.246  23.663  1.00  0.00    -0.352 N 
ATOM     71  C   UNL A   1      31.272  28.238  22.937  1.00  0.00     0.251 C 
ATOM     72  H   UNL A   1      31.405  30.122  23.606  1.00  0.00     0.163 HD
ATOM     73  O   UNL A   1      30.379  28.469  22.130  1.00  0.00    -0.269 OA
BRANCH  71  74
ATOM     74  C   UNL A   1      31.750  26.859  23.134  1.00  0.00     0.039 A 
ATOM     75  C   UNL A   1      32.813  26.391  22.364  1.00  0.00     0.016 A 
ATOM     76  C   UNL A   1      31.170  26.052  24.114  1.00  0.00     0.016 A 
ATOM     77  C   UNL A   1      33.361  25.138  22.645  1.00  0.00     0.028 A 
ATOM     78  C   UNL A   1      31.720  24.805  24.393  1.00  0.00     0.028 A 
ATOM     79  C   UNL A   1      32.838  24.342  23.680  1.00  0.00     0.054 A 
BRANCH  79  80
ATOM     80  N   UNL A   1      33.448  23.090  24.029  1.00  0.00    -0.226 N 
ATOM     81  C   UNL A   1      34.567  23.109  24.878  1.00  0.00     0.358 C 
ATOM     82  C   UNL A   1      32.862  21.921  23.553  1.00  0.00     0.272 C 
ATOM     83  O   UNL A   1      34.993  24.150  25.380  1.00  0.00    -0.245 OA
ATOM     84  N   UNL A   1      35.189  21.936  25.193  1.00  0.00    -0.156 NA
ATOM     85  C   UNL A   1      33.471  20.652  24.044  1.00  0.00     0.104 C 
ATOM     86  O   UNL A   1      31.921  21.881  22.758  1.00  0.00    -0.268 OA
ATOM     87  C   UNL A   1      34.698  20.815  24.826  1.00  0.00     0.228 C 
ATOM     88  C   UNL A   1      32.792  19.537  23.702  1.00  0.00     0.038 C 
BRANCH  87  89
ATOM     89  O   UNL A   1      35.416  19.736  25.166  1.00  0.00    -0.493 OA
ATOM     90  H   UNL A   1      35.870  19.250  24.506  1.00  0.00     0.295 HD
ENDBRANCH  87  89
BRANCH  88  91
ATOM     91  C   UNL A   1      33.134  18.227  24.109  1.00  0.00     0.028 A 
ATOM     92  C   UNL A   1      33.843  17.260  23.422  1.00  0.00     0.020 A 
ATOM     93  S   UNL A   1      32.627  17.650  25.645  1.00  0.00    -0.144 S 
ATOM     94  C   UNL A   1      33.901  16.024  24.127  1.00  0.00     0.012 A 
ATOM     95  C   UNL A   1      33.271  16.097  25.348  1.00  0.00     0.065 A 
ENDBRANCH  88  91
ENDBRANCH  79  80
ENDBRANCH  71  74
ENDBRANCH  69  70
ENDBRANCH  68  69
ENDBRANCH   1  68
TORSDOF 16
ENDMDL
MODEL 2
REMARK VINA RESULT:     -12.3      2.699      8.447
REMARK SMILES O=C(NCCCNC(=O)c1ccc(N2C(=O)N=C(O)/C(=C\c3cccs3)C2=O)cc1)c1ccc(-c2c3nc(c(-c4ccc(S(=O)(=O)[O-])cc4)c4ccc([nH]4)c(-c4ccc(S(=O)(=O)[O-])cc4)c4nc(c(-c5ccc(S(=O)(=O)[O-])cc5)c5ccc2[nH]5)C=C4)C=C3)cc1
REMARK SMILES IDX 4 1 3 2 1 3 2 4 31 6 32 7 90 8 33 9 89 10 34 11 35 12 36 13
REMARK SMILES IDX 83 14 37 15 88 16 82 17 84 18 38 19 87 20 81 21 80 22 39 24
REMARK SMILES IDX 69 25 50 26 68 27 51 28 54 29 67 30 85 31 52 32 53 33 66 35
REMARK SMILES IDX 86 36 55 37 40 38 41 39 49 40 42 41 48 42 43 43 44 44 45 45
REMARK SMILES IDX 46 46 47 47 70 48 71 49 79 50 72 51 78 52 73 53 74 54 75 55
REMARK SMILES IDX 76 56 77 57 56 58 57 59 65 60 58 61 64 62 59 63 60 64 61 65
REMARK SMILES IDX 62 66 63 67 5 68 6 69 7 70 8 71 9 73 10 74 11 75 30 76 12 77
REMARK SMILES IDX 29 78 13 79 14 80 15 81 27 82 16 83 17 84 20 85 28 86 18 87
REMARK SMILES IDX 21 88 19 89 22 91 23 92 26 93 24 94 25 95
REMARK H PARENT 3 5 84 23 54 34 7 72 19 90
REMARK Flexibility Score: inf
ROOT
ATOM      1  C   UNL A   1      35.270  29.603  27.898  1.00  0.00     0.118 C 
ENDROOT
BRANCH   1   2
ATOM      2  N   UNL A   1      35.267  30.444  29.088  1.00  0.00    -0.352 N 
ATOM      3  O   UNL A   1      36.019  31.246  31.054  1.00  0.00    -0.269 OA
ATOM      4  C   UNL A   1      36.269  30.664  30.003  1.00  0.00     0.251 C 
ATOM      5  H   UNL A   1      34.426  30.925  29.262  1.00  0.00     0.163 HD
BRANCH   4   6
ATOM      6  C   UNL A   1      37.637  30.185  29.717  1.00  0.00     0.039 A 
ATOM      7  C   UNL A   1      38.146  30.247  28.417  1.00  0.00     0.014 A 
ATOM      8  C   UNL A   1      38.427  29.689  30.757  1.00  0.00     0.014 A 
ATOM      9  C   UNL A   1      39.379  29.683  28.129  1.00  0.00     0.010 A 
ATOM     10  C   UNL A   1      39.717  29.225  30.484  1.00  0.00     0.010 A 
ATOM     11  C   UNL A   1      40.197  29.211  29.165  1.00  0.00    -0.014 A 
BRANCH  11  12
ATOM     12  C   UNL A   1      41.606  28.861  28.859  1.00  0.00     0.031 A 
ATOM     13  C   UNL A   1      42.702  29.886  28.905  1.00  0.00     0.074 A 
ATOM     14  C   UNL A   1      41.874  27.579  28.532  1.00  0.00     0.049 A 
ATOM     15  N   UNL A   1      43.973  29.729  28.640  1.00  0.00    -0.248 NA
ATOM     16  C   UNL A   1      42.333  31.258  29.288  1.00  0.00     0.031 C 
ATOM     17  C   UNL A   1      40.876  26.505  28.448  1.00  0.00     0.029 A 
ATOM     18  N   UNL A   1      43.052  26.956  28.215  1.00  0.00    -0.354 N 
ATOM     19  C   UNL A   1      44.554  30.982  28.795  1.00  0.00     0.074 A 
ATOM     20  C   UNL A   1      43.495  31.893  29.174  1.00  0.00     0.031 C 
ATOM     21  C   UNL A   1      41.488  25.355  28.136  1.00  0.00     0.029 A 
ATOM     22  C   UNL A   1      42.902  25.623  27.913  1.00  0.00     0.049 A 
ATOM     23  H   UNL A   1      43.921  27.418  28.203  1.00  0.00     0.167 HD
ATOM     24  C   UNL A   1      45.851  31.330  28.628  1.00  0.00     0.031 A 
ATOM     25  C   UNL A   1      43.789  24.719  27.461  1.00  0.00     0.031 A 
ATOM     26  C   UNL A   1      46.893  30.405  28.257  1.00  0.00     0.049 A 
ATOM     27  C   UNL A   1      45.208  25.155  27.241  1.00  0.00     0.074 A 
ATOM     28  C   UNL A   1      48.250  30.651  28.130  1.00  0.00     0.029 A 
ATOM     29  N   UNL A   1      46.698  29.070  27.934  1.00  0.00    -0.354 N 
ATOM     30  N   UNL A   1      45.753  26.324  27.476  1.00  0.00    -0.248 NA
ATOM     31  C   UNL A   1      46.132  24.155  26.689  1.00  0.00     0.031 C 
ATOM     32  C   UNL A   1      48.861  29.489  27.653  1.00  0.00     0.029 A 
ATOM     33  C   UNL A   1      47.900  28.496  27.554  1.00  0.00     0.049 A 
ATOM     34  H   UNL A   1      45.833  28.602  27.970  1.00  0.00     0.167 HD
ATOM     35  C   UNL A   1      47.087  26.197  27.109  1.00  0.00     0.074 A 
ATOM     36  C   UNL A   1      47.273  24.828  26.672  1.00  0.00     0.031 C 
ATOM     37  C   UNL A   1      48.066  27.133  27.119  1.00  0.00     0.031 A 
BRANCH  24  38
ATOM     38  C   UNL A   1      46.239  32.776  28.803  1.00  0.00    -0.014 A 
ATOM     39  C   UNL A   1      46.804  33.245  30.001  1.00  0.00     0.010 A 
ATOM     40  C   UNL A   1      46.157  33.646  27.699  1.00  0.00     0.010 A 
ATOM     41  C   UNL A   1      47.276  34.559  30.092  1.00  0.00     0.020 A 
ATOM     42  C   UNL A   1      46.648  34.952  27.779  1.00  0.00     0.020 A 
ATOM     43  C   UNL A   1      47.202  35.402  28.978  1.00  0.00     0.054 A 
BRANCH  43  44
ATOM     44  S   UNL A   1      47.897  37.074  29.103  1.00  0.00     0.124 S 
ATOM     45  O   UNL A   1      47.116  37.800  28.104  1.00  0.00    -0.237 OA
ATOM     46  O   UNL A   1      47.624  37.429  30.493  1.00  0.00    -0.237 OA
ATOM     47  O   UNL A   1      49.309  36.890  28.775  1.00  0.00    -0.744 OA
ENDBRANCH  43  44
ENDBRANCH  24  38
BRANCH  25  48
ATOM     48  C   UNL A   1      43.343  23.343  27.112  1.00  0.00    -0.014 A 
ATOM     49  C   UNL A   1      42.963  22.430  28.109  1.00  0.00     0.010 A 
ATOM     50  C   UNL A   1      43.316  22.933  25.764  1.00  0.00     0.010 A 
ATOM     51  C   UNL A   1      42.606  21.122  27.770  1.00  0.00     0.020 A 
ATOM     52  C   UNL A   1      42.922  21.640  25.418  1.00  0.00     0.020 A 
ATOM     53  C   UNL A   1      42.593  20.735  26.426  1.00  0.00     0.054 A 
BRANCH  53  54
ATOM     54  S   UNL A   1      42.129  19.032  26.010  1.00  0.00     0.124 S 
ATOM     55  O   UNL A   1      40.685  19.147  25.835  1.00  0.00    -0.237 OA
ATOM     56  O   UNL A   1      42.898  18.785  24.792  1.00  0.00    -0.237 OA
ATOM     57  O   UNL A   1      42.560  18.265  27.177  1.00  0.00    -0.744 OA
ENDBRANCH  53  54
ENDBRANCH  25  48
BRANCH  37  58
ATOM     58  C   UNL A   1      49.431  26.705  26.653  1.00  0.00    -0.014 A 
ATOM     59  C   UNL A   1      50.317  26.044  27.522  1.00  0.00     0.010 A 
ATOM     60  C   UNL A   1      49.807  26.910  25.312  1.00  0.00     0.010 A 
ATOM     61  C   UNL A   1      51.564  25.614  27.064  1.00  0.00     0.020 A 
ATOM     62  C   UNL A   1      51.040  26.453  24.844  1.00  0.00     0.020 A 
ATOM     63  C   UNL A   1      51.914  25.816  25.725  1.00  0.00     0.054 A 
BRANCH  63  64
ATOM     64  S   UNL A   1      53.513  25.188  25.143  1.00  0.00     0.124 S 
ATOM     65  O   UNL A   1      53.523  25.625  23.750  1.00  0.00    -0.237 OA
ATOM     66  O   UNL A   1      54.461  25.866  26.022  1.00  0.00    -0.237 OA
ATOM     67  O   UNL A   1      53.410  23.744  25.342  1.00  0.00    -0.744 OA
ENDBRANCH  63  64
ENDBRANCH  37  58
ENDBRANCH  11  12
ENDBRANCH   4   6
ENDBRANCH   1   2
BRANCH   1  68
ATOM     68  C   UNL A   1      33.874  29.357  27.357  1.00  0.00     0.042 C 
BRANCH  68  69
ATOM     69  C   UNL A   1      33.762  29.576  25.857  1.00  0.00     0.118 C 
BRANCH  69  70
ATOM     70  N   UNL A   1      32.395  29.422  25.377  1.00  0.00    -0.352 N 
ATOM     71  C   UNL A   1      31.782  28.306  24.868  1.00  0.00     0.251 C 
ATOM     72  H   UNL A   1      31.834  30.231  25.424  1.00  0.00     0.163 HD
ATOM     73  O   UNL A   1      30.679  28.373  24.337  1.00  0.00    -0.269 OA
BRANCH  71  74
ATOM     74  C   UNL A   1      32.480  27.013  24.959  1.00  0.00     0.039 A 
ATOM     75  C   UNL A   1      32.256  26.196  26.065  1.00  0.00     0.016 A 
ATOM     76  C   UNL A   1      33.319  26.597  23.924  1.00  0.00     0.016 A 
ATOM     77  C   UNL A   1      32.803  24.911  26.088  1.00  0.00     0.028 A 
ATOM     78  C   UNL A   1      33.860  25.316  23.948  1.00  0.00     0.028 A 
ATOM     79  C   UNL A   1      33.589  24.447  25.018  1.00  0.00     0.054 A 
BRANCH  79  80
ATOM     80  N   UNL A   1      34.085  23.100  24.996  1.00  0.00    -0.226 N 
ATOM     81  C   UNL A   1      35.335  22.841  25.584  1.00  0.00     0.358 C 
ATOM     82  C   UNL A   1      33.276  22.113  24.441  1.00  0.00     0.272 C 
ATOM     83  O   UNL A   1      35.976  23.713  26.172  1.00  0.00    -0.245 OA
ATOM     84  N   UNL A   1      35.847  21.578  25.540  1.00  0.00    -0.156 NA
ATOM     85  C   UNL A   1      33.795  20.720  24.550  1.00  0.00     0.104 C 
ATOM     86  O   UNL A   1      32.208  22.325  23.863  1.00  0.00    -0.268 OA
ATOM     87  C   UNL A   1      35.156  20.606  25.080  1.00  0.00     0.228 C 
ATOM     88  C   UNL A   1      32.927  19.766  24.154  1.00  0.00     0.038 C 
BRANCH  87  89
ATOM     89  O   UNL A   1      35.779  19.420  25.057  1.00  0.00    -0.493 OA
ATOM     90  H   UNL A   1      35.301  18.637  25.245  1.00  0.00     0.295 HD
ENDBRANCH  87  89
BRANCH  88  91
ATOM     91  C   UNL A   1      33.167  18.375  24.231  1.00  0.00     0.028 A 
ATOM     92  C   UNL A   1      33.715  17.533  23.281  1.00  0.00     0.020 A 
ATOM     93  S   UNL A   1      32.731  17.511  25.649  1.00  0.00    -0.144 S 
ATOM     94  C   UNL A   1      33.704  16.170  23.692  1.00  0.00     0.012 A 
ATOM     95  C   UNL A   1      33.187  16.017  24.959  1.00  0.00     0.065 A 
ENDBRANCH  88  91
ENDBRANCH  79  80
ENDBRANCH  71  74
ENDBRANCH  69  70
ENDBRANCH  68  69
ENDBRANCH   1  68
TORSDOF 16
ENDMDL
MODEL 3
REMARK VINA RESULT:     -12.1      4.301      7.938
REMARK SMILES O=C(NCCCNC(=O)c1ccc(N2C(=O)N=C(O)/C(=C\c3cccs3)C2=O)cc1)c1ccc(-c2c3nc(c(-c4ccc(S(=O)(=O)[O-])cc4)c4ccc([nH]4)c(-c4ccc(S(=O)(=O)[O-])cc4)c4nc(c(-c5ccc(S(=O)(=O)[O-])cc5)c5ccc2[nH]5)C=C4)C=C3)cc1
REMARK SMILES IDX 4 1 3 2 1 3 2 4 31 6 32 7 90 8 33 9 89 10 34 11 35 12 36 13
REMARK SMILES IDX 83 14 37 15 88 16 82 17 84 18 38 19 87 20 81 21 80 22 39 24
REMARK SMILES IDX 69 25 50 26 68 27 51 28 54 29 67 30 85 31 52 32 53 33 66 35
REMARK SMILES IDX 86 36 55 37 40 38 41 39 49 40 42 41 48 42 43 43 44 44 45 45
REMARK SMILES IDX 46 46 47 47 70 48 71 49 79 50 72 51 78 52 73 53 74 54 75 55
REMARK SMILES IDX 76 56 77 57 56 58 57 59 65 60 58 61 64 62 59 63 60 64 61 65
REMARK SMILES IDX 62 66 63 67 5 68 6 69 7 70 8 71 9 73 10 74 11 75 30 76 12 77
REMARK SMILES IDX 29 78 13 79 14 80 15 81 27 82 16 83 17 84 20 85 28 86 18 87
REMARK SMILES IDX 21 88 19 89 22 91 23 92 26 93 24 94 25 95
REMARK H PARENT 3 5 84 23 54 34 7 72 19 90
REMARK Flexibility Score: inf
ROOT
ATOM      1  C   UNL A   1      34.809  33.019  28.618  1.00  0.00     0.118 C 
ENDROOT
BRANCH   1   2
ATOM      2  N   UNL A   1      33.979  31.917  28.148  1.00  0.00    -0.352 N 
ATOM      3  O   UNL A   1      33.540  29.902  27.240  1.00  0.00    -0.269 OA
ATOM      4  C   UNL A   1      34.342  30.635  27.810  1.00  0.00     0.251 C 
ATOM      5  H   UNL A   1      33.020  32.120  28.058  1.00  0.00     0.163 HD
BRANCH   4   6
ATOM      6  C   UNL A   1      35.703  30.154  28.128  1.00  0.00     0.039 A 
ATOM      7  C   UNL A   1      36.728  30.271  27.186  1.00  0.00     0.014 A 
ATOM      8  C   UNL A   1      35.964  29.599  29.383  1.00  0.00     0.014 A 
ATOM      9  C   UNL A   1      37.968  29.706  27.437  1.00  0.00     0.010 A 
ATOM     10  C   UNL A   1      37.248  29.133  29.679  1.00  0.00     0.010 A 
ATOM     11  C   UNL A   1      38.256  29.175  28.703  1.00  0.00    -0.014 A 
BRANCH  11  12
ATOM     12  C   UNL A   1      39.660  28.823  29.026  1.00  0.00     0.031 A 
ATOM     13  C   UNL A   1      40.258  27.507  28.618  1.00  0.00     0.074 A 
ATOM     14  C   UNL A   1      40.391  29.729  29.708  1.00  0.00     0.049 A 
ATOM     15  N   UNL A   1      41.461  27.054  28.851  1.00  0.00    -0.248 NA
ATOM     16  C   UNL A   1      39.403  26.579  27.861  1.00  0.00     0.031 C 
ATOM     17  C   UNL A   1      39.900  31.037  30.163  1.00  0.00     0.029 A 
ATOM     18  N   UNL A   1      41.692  29.702  30.136  1.00  0.00    -0.354 N 
ATOM     19  C   UNL A   1      41.505  25.780  28.297  1.00  0.00     0.074 A 
ATOM     20  C   UNL A   1      40.203  25.528  27.718  1.00  0.00     0.031 C 
ATOM     21  C   UNL A   1      40.894  31.695  30.772  1.00  0.00     0.029 A 
ATOM     22  C   UNL A   1      42.063  30.829  30.831  1.00  0.00     0.049 A 
ATOM     23  H   UNL A   1      42.302  28.949  29.963  1.00  0.00     0.167 HD
ATOM     24  C   UNL A   1      42.541  24.908  28.284  1.00  0.00     0.031 A 
ATOM     25  C   UNL A   1      43.201  31.123  31.487  1.00  0.00     0.031 A 
ATOM     26  C   UNL A   1      43.833  25.181  28.860  1.00  0.00     0.049 A 
ATOM     27  C   UNL A   1      44.308  30.109  31.491  1.00  0.00     0.074 A 
ATOM     28  C   UNL A   1      44.967  24.385  28.836  1.00  0.00     0.029 A 
ATOM     29  N   UNL A   1      44.162  26.321  29.578  1.00  0.00    -0.354 N 
ATOM     30  N   UNL A   1      44.358  28.946  30.887  1.00  0.00    -0.248 NA
ATOM     31  C   UNL A   1      45.509  30.442  32.268  1.00  0.00     0.031 C 
ATOM     32  C   UNL A   1      45.952  25.006  29.607  1.00  0.00     0.029 A 
ATOM     33  C   UNL A   1      45.461  26.223  30.050  1.00  0.00     0.049 A 
ATOM     34  H   UNL A   1      43.561  27.086  29.730  1.00  0.00     0.167 HD
ATOM     35  C   UNL A   1      45.600  28.412  31.206  1.00  0.00     0.074 A 
ATOM     36  C   UNL A   1      46.282  29.395  32.023  1.00  0.00     0.031 C 
ATOM     37  C   UNL A   1      46.123  27.210  30.864  1.00  0.00     0.031 A 
BRANCH  24  38
ATOM     38  C   UNL A   1      42.333  23.550  27.662  1.00  0.00    -0.014 A 
ATOM     39  C   UNL A   1      42.723  23.280  26.341  1.00  0.00     0.010 A 
ATOM     40  C   UNL A   1      41.859  22.495  28.466  1.00  0.00     0.010 A 
ATOM     41  C   UNL A   1      42.640  21.979  25.831  1.00  0.00     0.020 A 
ATOM     42  C   UNL A   1      41.797  21.190  27.969  1.00  0.00     0.020 A 
ATOM     43  C   UNL A   1      42.185  20.941  26.652  1.00  0.00     0.054 A 
BRANCH  43  44
ATOM     44  S   UNL A   1      42.166  19.251  25.989  1.00  0.00     0.124 S 
ATOM     45  O   UNL A   1      43.071  19.365  24.848  1.00  0.00    -0.237 OA
ATOM     46  O   UNL A   1      42.667  18.463  27.113  1.00  0.00    -0.237 OA
ATOM     47  O   UNL A   1      40.763  19.025  25.650  1.00  0.00    -0.744 OA
ENDBRANCH  43  44
ENDBRANCH  24  38
BRANCH  25  48
ATOM     48  C   UNL A   1      43.314  32.391  32.255  1.00  0.00    -0.014 A 
ATOM     49  C   UNL A   1      43.061  32.427  33.637  1.00  0.00     0.010 A 
ATOM     50  C   UNL A   1      43.661  33.586  31.594  1.00  0.00     0.010 A 
ATOM     51  C   UNL A   1      43.110  33.638  34.332  1.00  0.00     0.020 A 
ATOM     52  C   UNL A   1      43.750  34.791  32.293  1.00  0.00     0.020 A 
ATOM     53  C   UNL A   1      43.450  34.812  33.654  1.00  0.00     0.054 A 
BRANCH  53  54
ATOM     54  S   UNL A   1      43.504  36.373  34.577  1.00  0.00     0.124 S 
ATOM     55  O   UNL A   1      44.774  36.259  35.286  1.00  0.00    -0.237 OA
ATOM     56  O   UNL A   1      43.460  37.371  33.511  1.00  0.00    -0.237 OA
ATOM     57  O   UNL A   1      42.310  36.315  35.417  1.00  0.00    -0.744 OA
ENDBRANCH  53  54
ENDBRANCH  25  48
BRANCH  37  58
ATOM     58  C   UNL A   1      47.506  26.895  31.365  1.00  0.00    -0.014 A 
ATOM     59  C   UNL A   1      47.699  26.297  32.623  1.00  0.00     0.010 A 
ATOM     60  C   UNL A   1      48.621  27.143  30.543  1.00  0.00     0.010 A 
ATOM     61  C   UNL A   1      48.985  25.971  33.058  1.00  0.00     0.020 A 
ATOM     62  C   UNL A   1      49.904  26.788  30.962  1.00  0.00     0.020 A 
ATOM     63  C   UNL A   1      50.079  26.213  32.221  1.00  0.00     0.054 A 
BRANCH  63  64
ATOM     64  S   UNL A   1      51.730  25.718  32.786  1.00  0.00     0.124 S 
ATOM     65  O   UNL A   1      51.456  25.226  34.133  1.00  0.00    -0.237 OA
ATOM     66  O   UNL A   1      52.109  24.700  31.810  1.00  0.00    -0.237 OA
ATOM     67  O   UNL A   1      52.504  26.955  32.721  1.00  0.00    -0.744 OA
ENDBRANCH  63  64
ENDBRANCH  37  58
ENDBRANCH  11  12
ENDBRANCH   4   6
ENDBRANCH   1   2
BRANCH   1  68
ATOM     68  C   UNL A   1      34.913  33.063  30.131  1.00  0.00     0.042 C 
BRANCH  68  69
ATOM     69  C   UNL A   1      36.139  33.811  30.629  1.00  0.00     0.118 C 
BRANCH  69  70
ATOM     70  N   UNL A   1      35.832  34.691  31.750  1.00  0.00    -0.352 N 
ATOM     71  C   UNL A   1      36.212  34.579  33.062  1.00  0.00     0.251 C 
ATOM     72  H   UNL A   1      35.275  35.475  31.535  1.00  0.00     0.163 HD
ATOM     73  O   UNL A   1      35.729  35.299  33.928  1.00  0.00    -0.269 OA
BRANCH  71  74
ATOM     74  C   UNL A   1      37.213  33.561  33.423  1.00  0.00     0.039 A 
ATOM     75  C   UNL A   1      38.567  33.857  33.277  1.00  0.00     0.016 A 
ATOM     76  C   UNL A   1      36.804  32.333  33.947  1.00  0.00     0.016 A 
ATOM     77  C   UNL A   1      39.519  32.951  33.750  1.00  0.00     0.028 A 
ATOM     78  C   UNL A   1      37.756  31.435  34.419  1.00  0.00     0.028 A 
ATOM     79  C   UNL A   1      39.124  31.743  34.350  1.00  0.00     0.054 A 
BRANCH  79  80
ATOM     80  N   UNL A   1      40.094  30.845  34.913  1.00  0.00    -0.226 N 
ATOM     81  C   UNL A   1      40.599  31.129  36.193  1.00  0.00     0.358 C 
ATOM     82  C   UNL A   1      40.439  29.712  34.182  1.00  0.00     0.272 C 
ATOM     83  O   UNL A   1      40.187  32.075  36.866  1.00  0.00    -0.245 OA
ATOM     84  N   UNL A   1      41.550  30.314  36.733  1.00  0.00    -0.156 NA
ATOM     85  C   UNL A   1      41.361  28.762  34.868  1.00  0.00     0.104 C 
ATOM     86  O   UNL A   1      40.060  29.476  33.034  1.00  0.00    -0.268 OA
ATOM     87  C   UNL A   1      41.899  29.235  36.145  1.00  0.00     0.228 C 
ATOM     88  C   UNL A   1      41.554  27.599  34.213  1.00  0.00     0.038 C 
BRANCH  87  89
ATOM     89  O   UNL A   1      42.866  28.536  36.756  1.00  0.00    -0.493 OA
ATOM     90  H   UNL A   1      43.395  28.945  37.411  1.00  0.00     0.295 HD
ENDBRANCH  87  89
BRANCH  88  91
ATOM     91  C   UNL A   1      42.327  26.519  34.697  1.00  0.00     0.028 A 
ATOM     92  C   UNL A   1      41.927  25.433  35.454  1.00  0.00     0.020 A 
ATOM     93  S   UNL A   1      44.013  26.465  34.377  1.00  0.00    -0.144 S 
ATOM     94  C   UNL A   1      43.020  24.602  35.833  1.00  0.00     0.012 A 
ATOM     95  C   UNL A   1      44.214  25.055  35.320  1.00  0.00     0.065 A 
ENDBRANCH  88  91
ENDBRANCH  79  80
ENDBRANCH  71  74
ENDBRANCH  69  70
ENDBRANCH  68  69
ENDBRANCH   1  68
TORSDOF 16
ENDMDL
