MODEL 1
REMARK VINA RESULT:     -11.3      0.000      0.000
REMARK SMILES O=C(NCCCNC(=O)c1ccc(-c2c3nc(c(-c4ccc(S(=O)(=O)[O-])cc4)c4ccc([nH]4)c(-c4ccc(S(=O)(=O)[O-])cc4)c4nc(c(-c5ccc(S(=O)(=O)[O-])cc5)c5ccc2[nH]5)C=C4)C=C3)cc1)c1ccc(CNC(=O)c2ccccc2I)cc1
REMARK SMILES IDX 5 1 4 2 3 3 1 4 2 5 70 7 71 8 86 9 72 10 85 11 73 12 74 13
REMARK SMILES IDX 75 14 76 15 77 17 78 18 79 19 83 20 80 21 82 22 84 23 81 24
REMARK SMILES IDX 6 25 7 26 8 27 9 29 10 30 11 31 69 32 12 33 68 34 13 35
REMARK SMILES IDX 14 36 15 37 62 38 16 39 67 40 61 41 63 42 17 43 66 44 60 45
REMARK SMILES IDX 59 46 18 48 48 49 29 50 47 51 30 52 33 53 46 54 64 55 31 56
REMARK SMILES IDX 32 57 45 59 65 60 34 61 19 62 20 63 28 64 21 65 27 66 22 67
REMARK SMILES IDX 23 68 24 69 25 70 26 71 49 72 50 73 58 74 51 75 57 76 52 77
REMARK SMILES IDX 53 78 54 79 55 80 56 81 35 82 36 83 44 84 37 85 43 86 38 87
REMARK SMILES IDX 39 88 40 89 41 90 42 91
REMARK H PARENT 3 6 75 16 7 28 63 47 33 58
REMARK Flexibility Score: inf
ROOT
ATOM      1  C   UNL A   1      32.934  28.745  25.239  1.00  0.00     0.042 C 
ENDROOT
BRANCH   1   2
ATOM      2  C   UNL A   1      33.222  29.102  23.787  1.00  0.00     0.118 C 
BRANCH   2   3
ATOM      3  N   UNL A   1      32.015  29.426  23.038  1.00  0.00    -0.352 N 
ATOM      4  O   UNL A   1      30.148  29.018  21.835  1.00  0.00    -0.269 OA
ATOM      5  C   UNL A   1      31.015  28.597  22.596  1.00  0.00     0.251 C 
ATOM      6  H   UNL A   1      31.901  30.378  22.817  1.00  0.00     0.163 HD
BRANCH   5   7
ATOM      7  C   UNL A   1      30.987  27.187  23.027  1.00  0.00     0.039 A 
ATOM      8  C   UNL A   1      31.782  26.230  22.389  1.00  0.00     0.014 A 
ATOM      9  C   UNL A   1      30.173  26.827  24.102  1.00  0.00     0.014 A 
ATOM     10  C   UNL A   1      31.700  24.894  22.776  1.00  0.00     0.006 A 
ATOM     11  C   UNL A   1      30.106  25.491  24.499  1.00  0.00     0.006 A 
ATOM     12  C   UNL A   1      30.859  24.513  23.832  1.00  0.00    -0.029 A 
BRANCH  12  13
ATOM     13  C   UNL A   1      30.807  23.073  24.265  1.00  0.00     0.152 C 
BRANCH  13  14
ATOM     14  N   UNL A   1      30.915  22.932  25.702  1.00  0.00    -0.348 N 
ATOM     15  C   UNL A   1      32.025  23.009  26.503  1.00  0.00     0.252 C 
ATOM     16  H   UNL A   1      30.068  22.756  26.174  1.00  0.00     0.164 HD
ATOM     17  O   UNL A   1      31.934  22.868  27.718  1.00  0.00    -0.269 OA
BRANCH  15  18
ATOM     18  C   UNL A   1      33.364  23.152  25.903  1.00  0.00     0.053 A 
ATOM     19  C   UNL A   1      33.888  24.455  25.890  1.00  0.00     0.015 A 
ATOM     20  C   UNL A   1      34.095  22.103  25.330  1.00  0.00     0.026 A 
ATOM     21  C   UNL A   1      35.157  24.701  25.367  1.00  0.00     0.001 A 
ATOM     22  C   UNL A   1      35.382  22.353  24.835  1.00  0.00     0.015 A 
ATOM     23  I   UNL A   1      33.340  20.163  25.074  1.00  0.00    -0.043 I 
ATOM     24  C   UNL A   1      35.911  23.646  24.860  1.00  0.00     0.001 A 
ENDBRANCH  15  18
ENDBRANCH  13  14
ENDBRANCH  12  13
ENDBRANCH   5   7
ENDBRANCH   2   3
ENDBRANCH   1   2
BRANCH   1  25
ATOM     25  C   UNL A   1      34.094  29.000  26.193  1.00  0.00     0.118 C 
BRANCH  25  26
ATOM     26  N   UNL A   1      33.934  30.223  26.969  1.00  0.00    -0.352 N 
ATOM     27  C   UNL A   1      34.704  30.756  27.974  1.00  0.00     0.251 C 
ATOM     28  H   UNL A   1      33.140  30.755  26.736  1.00  0.00     0.163 HD
ATOM     29  O   UNL A   1      34.274  31.715  28.612  1.00  0.00    -0.269 OA
BRANCH  27  30
ATOM     30  C   UNL A   1      36.025  30.179  28.310  1.00  0.00     0.039 A 
ATOM     31  C   UNL A   1      37.026  30.174  27.333  1.00  0.00     0.014 A 
ATOM     32  C   UNL A   1      36.278  29.623  29.565  1.00  0.00     0.014 A 
ATOM     33  C   UNL A   1      38.299  29.691  27.644  1.00  0.00     0.010 A 
ATOM     34  C   UNL A   1      37.568  29.217  29.899  1.00  0.00     0.010 A 
ATOM     35  C   UNL A   1      38.594  29.252  28.944  1.00  0.00    -0.014 A 
BRANCH  35  36
ATOM     36  C   UNL A   1      39.971  28.852  29.334  1.00  0.00     0.031 A 
ATOM     37  C   UNL A   1      40.872  29.817  30.056  1.00  0.00     0.074 A 
ATOM     38  C   UNL A   1      40.439  27.642  28.965  1.00  0.00     0.049 A 
ATOM     39  N   UNL A   1      42.126  29.675  30.397  1.00  0.00    -0.248 NA
ATOM     40  C   UNL A   1      40.295  31.122  30.417  1.00  0.00     0.031 C 
ATOM     41  C   UNL A   1      39.681  26.630  28.222  1.00  0.00     0.029 A 
ATOM     42  N   UNL A   1      41.668  27.062  29.155  1.00  0.00    -0.354 N 
ATOM     43  C   UNL A   1      42.496  30.875  30.993  1.00  0.00     0.074 A 
ATOM     44  C   UNL A   1      41.345  31.749  30.931  1.00  0.00     0.031 C 
ATOM     45  C   UNL A   1      40.455  25.548  28.040  1.00  0.00     0.029 A 
ATOM     46  C   UNL A   1      41.772  25.802  28.614  1.00  0.00     0.049 A 
ATOM     47  H   UNL A   1      42.405  27.505  29.632  1.00  0.00     0.167 HD
ATOM     48  C   UNL A   1      43.681  31.215  31.555  1.00  0.00     0.031 A 
ATOM     49  C   UNL A   1      42.813  24.947  28.574  1.00  0.00     0.031 A 
ATOM     50  C   UNL A   1      44.821  30.340  31.633  1.00  0.00     0.049 A 
ATOM     51  C   UNL A   1      44.116  25.345  29.208  1.00  0.00     0.074 A 
ATOM     52  C   UNL A   1      46.044  30.572  32.237  1.00  0.00     0.029 A 
ATOM     53  N   UNL A   1      44.879  29.064  31.090  1.00  0.00    -0.354 N 
ATOM     54  N   UNL A   1      44.426  26.464  29.818  1.00  0.00    -0.248 NA
ATOM     55  C   UNL A   1      45.207  24.362  29.154  1.00  0.00     0.031 C 
ATOM     56  C   UNL A   1      46.857  29.452  32.024  1.00  0.00     0.029 A 
ATOM     57  C   UNL A   1      46.123  28.505  31.328  1.00  0.00     0.049 A 
ATOM     58  H   UNL A   1      44.144  28.622  30.607  1.00  0.00     0.167 HD
ATOM     59  C   UNL A   1      45.741  26.311  30.239  1.00  0.00     0.074 A 
ATOM     60  C   UNL A   1      46.163  24.987  29.828  1.00  0.00     0.031 C 
ATOM     61  C   UNL A   1      46.529  27.188  30.908  1.00  0.00     0.031 A 
BRANCH  48  62
ATOM     62  C   UNL A   1      43.805  32.601  32.131  1.00  0.00    -0.014 A 
ATOM     63  C   UNL A   1      44.189  33.687  31.326  1.00  0.00     0.010 A 
ATOM     64  C   UNL A   1      43.498  32.826  33.485  1.00  0.00     0.010 A 
ATOM     65  C   UNL A   1      44.307  34.967  31.873  1.00  0.00     0.020 A 
ATOM     66  C   UNL A   1      43.589  34.110  34.031  1.00  0.00     0.020 A 
ATOM     67  C   UNL A   1      44.011  35.169  33.225  1.00  0.00     0.054 A 
BRANCH  67  68
ATOM     68  S   UNL A   1      44.153  36.844  33.907  1.00  0.00     0.124 S 
ATOM     69  O   UNL A   1      42.782  37.336  33.783  1.00  0.00    -0.237 OA
ATOM     70  O   UNL A   1      44.610  36.599  35.272  1.00  0.00    -0.237 OA
ATOM     71  O   UNL A   1      45.128  37.492  33.033  1.00  0.00    -0.744 OA
ENDBRANCH  67  68
ENDBRANCH  48  62
BRANCH  49  72
ATOM     72  C   UNL A   1      42.657  23.622  27.918  1.00  0.00    -0.014 A 
ATOM     73  C   UNL A   1      42.946  23.467  26.551  1.00  0.00     0.010 A 
ATOM     74  C   UNL A   1      42.239  22.503  28.661  1.00  0.00     0.010 A 
ATOM     75  C   UNL A   1      42.805  22.222  25.934  1.00  0.00     0.020 A 
ATOM     76  C   UNL A   1      42.120  21.250  28.053  1.00  0.00     0.020 A 
ATOM     77  C   UNL A   1      42.393  21.120  26.689  1.00  0.00     0.054 A 
BRANCH  77  78
ATOM     78  S   UNL A   1      42.270  19.500  25.881  1.00  0.00     0.124 S 
ATOM     79  O   UNL A   1      42.602  18.591  26.973  1.00  0.00    -0.237 OA
ATOM     80  O   UNL A   1      40.879  19.474  25.434  1.00  0.00    -0.237 OA
ATOM     81  O   UNL A   1      43.260  19.580  24.808  1.00  0.00    -0.744 OA
ENDBRANCH  77  78
ENDBRANCH  49  72
BRANCH  61  82
ATOM     82  C   UNL A   1      47.920  26.737  31.260  1.00  0.00    -0.014 A 
ATOM     83  C   UNL A   1      48.168  25.993  32.427  1.00  0.00     0.010 A 
ATOM     84  C   UNL A   1      48.984  27.021  30.386  1.00  0.00     0.010 A 
ATOM     85  C   UNL A   1      49.464  25.566  32.727  1.00  0.00     0.020 A 
ATOM     86  C   UNL A   1      50.277  26.575  30.671  1.00  0.00     0.020 A 
ATOM     87  C   UNL A   1      50.511  25.863  31.849  1.00  0.00     0.054 A 
BRANCH  87  88
ATOM     88  S   UNL A   1      52.178  25.261  32.239  1.00  0.00     0.124 S 
ATOM     89  O   UNL A   1      51.954  23.826  32.390  1.00  0.00    -0.237 OA
ATOM     90  O   UNL A   1      52.948  25.656  31.062  1.00  0.00    -0.237 OA
ATOM     91  O   UNL A   1      52.523  25.971  33.467  1.00  0.00    -0.744 OA
ENDBRANCH  87  88
ENDBRANCH  61  82
ENDBRANCH  35  36
ENDBRANCH  27  30
ENDBRANCH  25  26
ENDBRANCH   1  25
TORSDOF 16
ENDMDL
MODEL 2
REMARK VINA RESULT:     -11.3      2.331      2.923
REMARK SMILES O=C(NCCCNC(=O)c1ccc(-c2c3nc(c(-c4ccc(S(=O)(=O)[O-])cc4)c4ccc([nH]4)c(-c4ccc(S(=O)(=O)[O-])cc4)c4nc(c(-c5ccc(S(=O)(=O)[O-])cc5)c5ccc2[nH]5)C=C4)C=C3)cc1)c1ccc(CNC(=O)c2ccccc2I)cc1
REMARK SMILES IDX 5 1 4 2 3 3 1 4 2 5 70 7 71 8 86 9 72 10 85 11 73 12 74 13
REMARK SMILES IDX 75 14 76 15 77 17 78 18 79 19 83 20 80 21 82 22 84 23 81 24
REMARK SMILES IDX 6 25 7 26 8 27 9 29 10 30 11 31 69 32 12 33 68 34 13 35
REMARK SMILES IDX 14 36 15 37 62 38 16 39 67 40 61 41 63 42 17 43 66 44 60 45
REMARK SMILES IDX 59 46 18 48 48 49 29 50 47 51 30 52 33 53 46 54 64 55 31 56
REMARK SMILES IDX 32 57 45 59 65 60 34 61 19 62 20 63 28 64 21 65 27 66 22 67
REMARK SMILES IDX 23 68 24 69 25 70 26 71 49 72 50 73 58 74 51 75 57 76 52 77
REMARK SMILES IDX 53 78 54 79 55 80 56 81 35 82 36 83 44 84 37 85 43 86 38 87
REMARK SMILES IDX 39 88 40 89 41 90 42 91
REMARK H PARENT 3 6 75 16 7 28 63 47 33 58
REMARK Flexibility Score: inf
ROOT
ATOM      1  C   UNL A   1      33.033  29.155  24.829  1.00  0.00     0.042 C 
ENDROOT
BRANCH   1   2
ATOM      2  C   UNL A   1      31.594  29.632  24.962  1.00  0.00     0.118 C 
BRANCH   2   3
ATOM      3  N   UNL A   1      30.975  29.915  23.674  1.00  0.00    -0.352 N 
ATOM      4  O   UNL A   1      30.217  29.468  21.595  1.00  0.00    -0.269 OA
ATOM      5  C   UNL A   1      30.573  29.046  22.691  1.00  0.00     0.251 C 
ATOM      6  H   UNL A   1      30.824  30.868  23.481  1.00  0.00     0.163 HD
BRANCH   5   7
ATOM      7  C   UNL A   1      30.580  27.594  22.948  1.00  0.00     0.039 A 
ATOM      8  C   UNL A   1      29.586  27.003  23.734  1.00  0.00     0.014 A 
ATOM      9  C   UNL A   1      31.583  26.813  22.371  1.00  0.00     0.014 A 
ATOM     10  C   UNL A   1      29.642  25.638  24.009  1.00  0.00     0.006 A 
ATOM     11  C   UNL A   1      31.626  25.443  22.634  1.00  0.00     0.006 A 
ATOM     12  C   UNL A   1      30.664  24.847  23.464  1.00  0.00    -0.029 A 
BRANCH  12  13
ATOM     13  C   UNL A   1      30.693  23.368  23.738  1.00  0.00     0.152 C 
BRANCH  13  14
ATOM     14  N   UNL A   1      30.559  23.073  25.149  1.00  0.00    -0.348 N 
ATOM     15  C   UNL A   1      31.504  23.120  26.141  1.00  0.00     0.252 C 
ATOM     16  H   UNL A   1      29.659  22.797  25.439  1.00  0.00     0.164 HD
ATOM     17  O   UNL A   1      31.213  22.838  27.300  1.00  0.00    -0.269 OA
BRANCH  15  18
ATOM     18  C   UNL A   1      32.913  23.404  25.812  1.00  0.00     0.053 A 
ATOM     19  C   UNL A   1      33.293  24.754  25.883  1.00  0.00     0.015 A 
ATOM     20  C   UNL A   1      33.845  22.440  25.408  1.00  0.00     0.026 A 
ATOM     21  C   UNL A   1      34.607  25.133  25.613  1.00  0.00     0.001 A 
ATOM     22  C   UNL A   1      35.171  22.823  25.170  1.00  0.00     0.015 A 
ATOM     23  I   UNL A   1      33.357  20.434  25.038  1.00  0.00    -0.043 I 
ATOM     24  C   UNL A   1      35.551  24.164  25.279  1.00  0.00     0.001 A 
ENDBRANCH  15  18
ENDBRANCH  13  14
ENDBRANCH  12  13
ENDBRANCH   5   7
ENDBRANCH   2   3
ENDBRANCH   1   2
BRANCH   1  25
ATOM     25  C   UNL A   1      33.889  29.380  26.070  1.00  0.00     0.118 C 
BRANCH  25  26
ATOM     26  N   UNL A   1      33.669  30.684  26.683  1.00  0.00    -0.352 N 
ATOM     27  C   UNL A   1      34.313  31.306  27.724  1.00  0.00     0.251 C 
ATOM     28  H   UNL A   1      32.936  31.204  26.285  1.00  0.00     0.163 HD
ATOM     29  O   UNL A   1      33.835  32.339  28.191  1.00  0.00    -0.269 OA
BRANCH  27  30
ATOM     30  C   UNL A   1      35.552  30.740  28.303  1.00  0.00     0.039 A 
ATOM     31  C   UNL A   1      36.786  31.189  27.821  1.00  0.00     0.014 A 
ATOM     32  C   UNL A   1      35.510  29.757  29.293  1.00  0.00     0.014 A 
ATOM     33  C   UNL A   1      37.970  30.716  28.392  1.00  0.00     0.010 A 
ATOM     34  C   UNL A   1      36.686  29.347  29.916  1.00  0.00     0.010 A 
ATOM     35  C   UNL A   1      37.929  29.826  29.476  1.00  0.00    -0.014 A 
BRANCH  35  36
ATOM     36  C   UNL A   1      39.167  29.405  30.182  1.00  0.00     0.031 A 
ATOM     37  C   UNL A   1      39.624  30.127  31.421  1.00  0.00     0.074 A 
ATOM     38  C   UNL A   1      39.925  28.420  29.659  1.00  0.00     0.049 A 
ATOM     39  N   UNL A   1      40.718  29.958  32.117  1.00  0.00    -0.248 NA
ATOM     40  C   UNL A   1      38.749  31.197  31.928  1.00  0.00     0.031 C 
ATOM     41  C   UNL A   1      39.618  27.670  28.437  1.00  0.00     0.029 A 
ATOM     42  N   UNL A   1      41.117  27.888  30.082  1.00  0.00    -0.354 N 
ATOM     43  C   UNL A   1      40.677  30.910  33.128  1.00  0.00     0.074 A 
ATOM     44  C   UNL A   1      39.467  31.680  32.932  1.00  0.00     0.031 C 
ATOM     45  C   UNL A   1      40.583  26.762  28.224  1.00  0.00     0.029 A 
ATOM     46  C   UNL A   1      41.597  26.891  29.265  1.00  0.00     0.049 A 
ATOM     47  H   UNL A   1      41.585  28.191  30.892  1.00  0.00     0.167 HD
ATOM     48  C   UNL A   1      41.555  31.115  34.139  1.00  0.00     0.031 A 
ATOM     49  C   UNL A   1      42.730  26.166  29.337  1.00  0.00     0.031 A 
ATOM     50  C   UNL A   1      42.749  30.337  34.344  1.00  0.00     0.049 A 
ATOM     51  C   UNL A   1      43.687  26.409  30.470  1.00  0.00     0.074 A 
ATOM     52  C   UNL A   1      43.669  30.429  35.374  1.00  0.00     0.029 A 
ATOM     53  N   UNL A   1      43.188  29.323  33.505  1.00  0.00    -0.354 N 
ATOM     54  N   UNL A   1      43.599  27.276  31.450  1.00  0.00    -0.248 NA
ATOM     55  C   UNL A   1      44.894  25.571  30.510  1.00  0.00     0.031 C 
ATOM     56  C   UNL A   1      44.687  29.499  35.135  1.00  0.00     0.029 A 
ATOM     57  C   UNL A   1      44.376  28.795  33.982  1.00  0.00     0.049 A 
ATOM     58  H   UNL A   1      42.723  29.024  32.691  1.00  0.00     0.167 HD
ATOM     59  C   UNL A   1      44.728  27.073  32.235  1.00  0.00     0.074 A 
ATOM     60  C   UNL A   1      45.475  25.993  31.624  1.00  0.00     0.031 C 
ATOM     61  C   UNL A   1      45.110  27.723  33.361  1.00  0.00     0.031 A 
BRANCH  48  62
ATOM     62  C   UNL A   1      41.257  32.233  35.102  1.00  0.00    -0.014 A 
ATOM     63  C   UNL A   1      40.402  32.033  36.200  1.00  0.00     0.010 A 
ATOM     64  C   UNL A   1      41.868  33.488  34.929  1.00  0.00     0.010 A 
ATOM     65  C   UNL A   1      40.129  33.081  37.084  1.00  0.00     0.020 A 
ATOM     66  C   UNL A   1      41.618  34.532  35.825  1.00  0.00     0.020 A 
ATOM     67  C   UNL A   1      40.735  34.325  36.887  1.00  0.00     0.054 A 
BRANCH  67  68
ATOM     68  S   UNL A   1      40.378  35.663  38.059  1.00  0.00     0.124 S 
ATOM     69  O   UNL A   1      39.823  36.691  37.181  1.00  0.00    -0.237 OA
ATOM     70  O   UNL A   1      39.427  35.042  38.978  1.00  0.00    -0.237 OA
ATOM     71  O   UNL A   1      41.684  35.975  38.636  1.00  0.00    -0.744 OA
ENDBRANCH  67  68
ENDBRANCH  48  62
BRANCH  49  72
ATOM     72  C   UNL A   1      43.012  25.130  28.309  1.00  0.00    -0.014 A 
ATOM     73  C   UNL A   1      43.753  25.453  27.159  1.00  0.00     0.010 A 
ATOM     74  C   UNL A   1      42.560  23.809  28.484  1.00  0.00     0.010 A 
ATOM     75  C   UNL A   1      44.023  24.480  26.193  1.00  0.00     0.020 A 
ATOM     76  C   UNL A   1      42.849  22.827  27.532  1.00  0.00     0.020 A 
ATOM     77  C   UNL A   1      43.570  23.172  26.387  1.00  0.00     0.054 A 
BRANCH  77  78
ATOM     78  S   UNL A   1      43.980  21.911  25.148  1.00  0.00     0.124 S 
ATOM     79  O   UNL A   1      42.982  20.882  25.422  1.00  0.00    -0.237 OA
ATOM     80  O   UNL A   1      43.815  22.635  23.890  1.00  0.00    -0.237 OA
ATOM     81  O   UNL A   1      45.359  21.550  25.474  1.00  0.00    -0.744 OA
ENDBRANCH  77  78
ENDBRANCH  49  72
BRANCH  61  82
ATOM     82  C   UNL A   1      46.382  27.268  34.022  1.00  0.00    -0.014 A 
ATOM     83  C   UNL A   1      47.621  27.839  33.681  1.00  0.00     0.010 A 
ATOM     84  C   UNL A   1      46.329  26.290  35.031  1.00  0.00     0.010 A 
ATOM     85  C   UNL A   1      48.790  27.416  34.320  1.00  0.00     0.020 A 
ATOM     86  C   UNL A   1      47.493  25.882  35.687  1.00  0.00     0.020 A 
ATOM     87  C   UNL A   1      48.719  26.438  35.317  1.00  0.00     0.054 A 
BRANCH  87  88
ATOM     88  S   UNL A   1      50.245  25.937  36.161  1.00  0.00     0.124 S 
ATOM     89  O   UNL A   1      49.964  26.315  37.544  1.00  0.00    -0.237 OA
ATOM     90  O   UNL A   1      50.300  24.500  35.902  1.00  0.00    -0.237 OA
ATOM     91  O   UNL A   1      51.281  26.723  35.497  1.00  0.00    -0.744 OA
ENDBRANCH  87  88
ENDBRANCH  61  82
ENDBRANCH  35  36
ENDBRANCH  27  30
ENDBRANCH  25  26
ENDBRANCH   1  25
TORSDOF 16
ENDMDL
MODEL 3
REMARK VINA RESULT:     -11.2      4.395     10.109
REMARK SMILES O=C(NCCCNC(=O)c1ccc(-c2c3nc(c(-c4ccc(S(=O)(=O)[O-])cc4)c4ccc([nH]4)c(-c4ccc(S(=O)(=O)[O-])cc4)c4nc(c(-c5ccc(S(=O)(=O)[O-])cc5)c5ccc2[nH]5)C=C4)C=C3)cc1)c1ccc(CNC(=O)c2ccccc2I)cc1
REMARK SMILES IDX 5 1 4 2 3 3 1 4 2 5 70 7 71 8 86 9 72 10 85 11 73 12 74 13
REMARK SMILES IDX 75 14 76 15 77 17 78 18 79 19 83 20 80 21 82 22 84 23 81 24
REMARK SMILES IDX 6 25 7 26 8 27 9 29 10 30 11 31 69 32 12 33 68 34 13 35
REMARK SMILES IDX 14 36 15 37 62 38 16 39 67 40 61 41 63 42 17 43 66 44 60 45
REMARK SMILES IDX 59 46 18 48 48 49 29 50 47 51 30 52 33 53 46 54 64 55 31 56
REMARK SMILES IDX 32 57 45 59 65 60 34 61 19 62 20 63 28 64 21 65 27 66 22 67
REMARK SMILES IDX 23 68 24 69 25 70 26 71 49 72 50 73 58 74 51 75 57 76 52 77
REMARK SMILES IDX 53 78 54 79 55 80 56 81 35 82 36 83 44 84 37 85 43 86 38 87
REMARK SMILES IDX 39 88 40 89 41 90 42 91
REMARK H PARENT 3 6 75 16 7 28 63 47 33 58
REMARK Flexibility Score: inf
ROOT
ATOM      1  C   UNL A   1      38.416  23.497  26.468  1.00  0.00     0.042 C 
ENDROOT
BRANCH   1   2
ATOM      2  C   UNL A   1      37.779  22.342  25.707  1.00  0.00     0.118 C 
BRANCH   2   3
ATOM      3  N   UNL A   1      37.576  22.643  24.297  1.00  0.00    -0.352 N 
ATOM      4  O   UNL A   1      36.403  23.041  22.409  1.00  0.00    -0.269 OA
ATOM      5  C   UNL A   1      36.422  22.980  23.635  1.00  0.00     0.251 C 
ATOM      6  H   UNL A   1      38.384  22.597  23.737  1.00  0.00     0.163 HD
BRANCH   5   7
ATOM      7  C   UNL A   1      35.193  23.258  24.399  1.00  0.00     0.039 A 
ATOM      8  C   UNL A   1      34.055  22.462  24.236  1.00  0.00     0.014 A 
ATOM      9  C   UNL A   1      35.192  24.314  25.312  1.00  0.00     0.014 A 
ATOM     10  C   UNL A   1      32.887  22.775  24.928  1.00  0.00     0.006 A 
ATOM     11  C   UNL A   1      34.025  24.615  26.016  1.00  0.00     0.006 A 
ATOM     12  C   UNL A   1      32.861  23.856  25.821  1.00  0.00    -0.029 A 
BRANCH  12  13
ATOM     13  C   UNL A   1      31.605  24.162  26.591  1.00  0.00     0.152 C 
BRANCH  13  14
ATOM     14  N   UNL A   1      30.600  24.797  25.763  1.00  0.00    -0.348 N 
ATOM     15  C   UNL A   1      30.559  26.075  25.270  1.00  0.00     0.252 C 
ATOM     16  H   UNL A   1      29.834  24.228  25.519  1.00  0.00     0.164 HD
ATOM     17  O   UNL A   1      29.622  26.450  24.572  1.00  0.00    -0.269 OA
BRANCH  15  18
ATOM     18  C   UNL A   1      31.588  27.056  25.664  1.00  0.00     0.053 A 
ATOM     19  C   UNL A   1      31.421  27.636  26.932  1.00  0.00     0.015 A 
ATOM     20  C   UNL A   1      32.658  27.453  24.853  1.00  0.00     0.026 A 
ATOM     21  C   UNL A   1      32.347  28.559  27.414  1.00  0.00     0.001 A 
ATOM     22  C   UNL A   1      33.603  28.358  25.356  1.00  0.00     0.015 A 
ATOM     23  I   UNL A   1      32.897  26.844  22.860  1.00  0.00    -0.043 I 
ATOM     24  C   UNL A   1      33.450  28.903  26.634  1.00  0.00     0.001 A 
ENDBRANCH  15  18
ENDBRANCH  13  14
ENDBRANCH  12  13
ENDBRANCH   5   7
ENDBRANCH   2   3
ENDBRANCH   1   2
BRANCH   1  25
ATOM     25  C   UNL A   1      39.823  23.213  26.981  1.00  0.00     0.118 C 
BRANCH  25  26
ATOM     26  N   UNL A   1      40.863  23.777  26.130  1.00  0.00    -0.352 N 
ATOM     27  C   UNL A   1      41.564  24.954  26.229  1.00  0.00     0.251 C 
ATOM     28  H   UNL A   1      41.103  23.222  25.354  1.00  0.00     0.163 HD
ATOM     29  O   UNL A   1      42.273  25.309  25.289  1.00  0.00    -0.269 OA
BRANCH  27  30
ATOM     30  C   UNL A   1      41.456  25.807  27.434  1.00  0.00     0.039 A 
ATOM     31  C   UNL A   1      42.530  26.637  27.770  1.00  0.00     0.014 A 
ATOM     32  C   UNL A   1      40.320  25.779  28.246  1.00  0.00     0.014 A 
ATOM     33  C   UNL A   1      42.430  27.496  28.867  1.00  0.00     0.010 A 
ATOM     34  C   UNL A   1      40.189  26.692  29.290  1.00  0.00     0.010 A 
ATOM     35  C   UNL A   1      41.240  27.564  29.608  1.00  0.00    -0.014 A 
BRANCH  35  36
ATOM     36  C   UNL A   1      41.062  28.557  30.699  1.00  0.00     0.031 A 
ATOM     37  C   UNL A   1      41.910  28.487  31.941  1.00  0.00     0.074 A 
ATOM     38  C   UNL A   1      40.079  29.475  30.606  1.00  0.00     0.049 A 
ATOM     39  N   UNL A   1      41.838  29.210  33.029  1.00  0.00    -0.248 NA
ATOM     40  C   UNL A   1      42.956  27.453  31.975  1.00  0.00     0.031 C 
ATOM     41  C   UNL A   1      39.158  29.620  29.475  1.00  0.00     0.029 A 
ATOM     42  N   UNL A   1      39.682  30.453  31.483  1.00  0.00    -0.354 N 
ATOM     43  C   UNL A   1      42.811  28.708  33.884  1.00  0.00     0.074 A 
ATOM     44  C   UNL A   1      43.434  27.592  33.205  1.00  0.00     0.031 C 
ATOM     45  C   UNL A   1      38.321  30.641  29.717  1.00  0.00     0.029 A 
ATOM     46  C   UNL A   1      38.616  31.196  31.034  1.00  0.00     0.049 A 
ATOM     47  H   UNL A   1      40.119  30.609  32.350  1.00  0.00     0.167 HD
ATOM     48  C   UNL A   1      43.167  29.144  35.117  1.00  0.00     0.031 A 
ATOM     49  C   UNL A   1      37.940  32.205  31.618  1.00  0.00     0.031 A 
ATOM     50  C   UNL A   1      42.559  30.264  35.785  1.00  0.00     0.049 A 
ATOM     51  C   UNL A   1      38.356  32.674  32.984  1.00  0.00     0.074 A 
ATOM     52  C   UNL A   1      42.892  30.820  37.009  1.00  0.00     0.029 A 
ATOM     53  N   UNL A   1      41.495  31.002  35.287  1.00  0.00    -0.354 N 
ATOM     54  N   UNL A   1      39.318  32.222  33.751  1.00  0.00    -0.248 NA
ATOM     55  C   UNL A   1      37.599  33.794  33.560  1.00  0.00     0.031 C 
ATOM     56  C   UNL A   1      42.002  31.868  37.270  1.00  0.00     0.029 A 
ATOM     57  C   UNL A   1      41.145  31.994  36.188  1.00  0.00     0.049 A 
ATOM     58  H   UNL A   1      41.054  30.843  34.422  1.00  0.00     0.167 HD
ATOM     59  C   UNL A   1      39.296  33.016  34.891  1.00  0.00     0.074 A 
ATOM     60  C   UNL A   1      38.235  33.985  34.707  1.00  0.00     0.031 C 
ATOM     61  C   UNL A   1      40.084  32.948  35.992  1.00  0.00     0.031 A 
BRANCH  48  62
ATOM     62  C   UNL A   1      44.267  28.400  35.826  1.00  0.00    -0.014 A 
ATOM     63  C   UNL A   1      43.982  27.290  36.640  1.00  0.00     0.010 A 
ATOM     64  C   UNL A   1      45.606  28.794  35.649  1.00  0.00     0.010 A 
ATOM     65  C   UNL A   1      45.011  26.611  37.298  1.00  0.00     0.020 A 
ATOM     66  C   UNL A   1      46.641  28.102  36.284  1.00  0.00     0.020 A 
ATOM     67  C   UNL A   1      46.335  27.026  37.120  1.00  0.00     0.054 A 
BRANCH  67  68
ATOM     68  S   UNL A   1      47.654  26.117  37.970  1.00  0.00     0.124 S 
ATOM     69  O   UNL A   1      48.805  26.993  37.760  1.00  0.00    -0.237 OA
ATOM     70  O   UNL A   1      47.163  26.046  39.344  1.00  0.00    -0.237 OA
ATOM     71  O   UNL A   1      47.706  24.840  37.263  1.00  0.00    -0.744 OA
ENDBRANCH  67  68
ENDBRANCH  48  62
BRANCH  49  72
ATOM     72  C   UNL A   1      36.807  32.849  30.903  1.00  0.00    -0.014 A 
ATOM     73  C   UNL A   1      35.481  32.498  31.211  1.00  0.00     0.010 A 
ATOM     74  C   UNL A   1      37.046  33.831  29.924  1.00  0.00     0.010 A 
ATOM     75  C   UNL A   1      34.414  33.106  30.543  1.00  0.00     0.020 A 
ATOM     76  C   UNL A   1      35.981  34.459  29.272  1.00  0.00     0.020 A 
ATOM     77  C   UNL A   1      34.671  34.083  29.578  1.00  0.00     0.054 A 
BRANCH  77  78
ATOM     78  S   UNL A   1      33.271  34.899  28.763  1.00  0.00     0.124 S 
ATOM     79  O   UNL A   1      33.925  36.002  28.067  1.00  0.00    -0.237 OA
ATOM     80  O   UNL A   1      32.738  33.839  27.911  1.00  0.00    -0.237 OA
ATOM     81  O   UNL A   1      32.407  35.285  29.877  1.00  0.00    -0.744 OA
ENDBRANCH  77  78
ENDBRANCH  49  72
BRANCH  61  82
ATOM     82  C   UNL A   1      39.846  33.966  37.074  1.00  0.00    -0.014 A 
ATOM     83  C   UNL A   1      39.127  33.635  38.236  1.00  0.00     0.010 A 
ATOM     84  C   UNL A   1      40.390  35.256  36.946  1.00  0.00     0.010 A 
ATOM     85  C   UNL A   1      38.933  34.588  39.239  1.00  0.00     0.020 A 
ATOM     86  C   UNL A   1      40.218  36.204  37.957  1.00  0.00     0.020 A 
ATOM     87  C   UNL A   1      39.477  35.868  39.092  1.00  0.00     0.054 A 
BRANCH  87  88
ATOM     88  S   UNL A   1      39.247  37.076  40.426  1.00  0.00     0.124 S 
ATOM     89  O   UNL A   1      38.454  36.316  41.389  1.00  0.00    -0.237 OA
ATOM     90  O   UNL A   1      40.618  37.370  40.836  1.00  0.00    -0.237 OA
ATOM     91  O   UNL A   1      38.548  38.181  39.776  1.00  0.00    -0.744 OA
ENDBRANCH  87  88
ENDBRANCH  61  82
ENDBRANCH  35  36
ENDBRANCH  27  30
ENDBRANCH  25  26
ENDBRANCH   1  25
TORSDOF 16
ENDMDL
