MODEL 1
REMARK VINA RESULT:     -12.1      0.000      0.000
REMARK SMILES CCc1ccnc(C(=O)c2[nH]c3ccc(OC(F)(F)F)cc3c2CC(=O)NCCCNC(=O)c2ccc(-c3c4nc(c(-c5ccc(S(=O)(=O)[O-])cc5)c5ccc([nH]5)c(-c5ccc(S(=O)(=O)[O-])cc5)c5nc(c(-c6ccc(S(=O)(=O)[O-])cc6)c6ccc3[nH]6)C=C5)C=C4)cc2)c1
REMARK SMILES IDX 28 1 27 2 25 3 26 4 24 6 23 7 10 8 11 9 12 10 22 12 13 13
REMARK SMILES IDX 21 14 14 15 15 16 8 17 9 18 7 19 3 20 4 21 94 22 5 23 6 24
REMARK SMILES IDX 2 25 1 26 16 27 17 28 18 29 19 30 20 31 29 32 30 33 31 34
REMARK SMILES IDX 32 35 33 37 34 38 35 39 93 40 36 41 92 42 37 43 38 44 39 45
REMARK SMILES IDX 86 46 40 47 91 48 85 49 87 50 41 51 90 52 84 53 83 54 42 56
REMARK SMILES IDX 72 57 53 58 71 59 54 60 57 61 70 62 88 63 55 64 56 65 69 67
REMARK SMILES IDX 89 68 58 69 43 70 44 71 52 72 45 73 51 74 46 75 47 76 48 77
REMARK SMILES IDX 49 78 50 79 73 80 74 81 82 82 75 83 81 84 76 85 77 86 78 87
REMARK SMILES IDX 79 88 80 89 59 90 60 91 68 92 61 93 67 94 62 95 63 96 64 97
REMARK SMILES IDX 65 98 66 99
REMARK H PARENT 27 5 11 11 31 36 87 55 57 66
REMARK Flexibility Score: inf
ROOT
ATOM      1  C   UNL A   1      34.620  24.874  25.111  1.00  0.00     0.117 C 
ENDROOT
BRANCH   1   2
ATOM      2  N   UNL A   1      34.262  25.524  23.864  1.00  0.00    -0.356 N 
ATOM      3  C   UNL A   1      33.372  26.534  23.631  1.00  0.00     0.224 C 
ATOM      4  O   UNL A   1      33.375  27.066  22.518  1.00  0.00    -0.275 OA
ATOM      5  H   UNL A   1      34.730  25.187  23.066  1.00  0.00     0.163 HD
BRANCH   3   6
ATOM      6  C   UNL A   1      32.487  27.068  24.744  1.00  0.00     0.138 C 
BRANCH   6   7
ATOM      7  C   UNL A   1      31.025  26.755  24.597  1.00  0.00    -0.002 A 
ATOM      8  C   UNL A   1      30.356  25.602  25.000  1.00  0.00     0.093 A 
ATOM      9  N   UNL A   1      29.017  25.791  24.746  1.00  0.00    -0.352 N 
ATOM     10  C   UNL A   1      28.813  26.970  24.076  1.00  0.00     0.046 A 
ATOM     11  H   UNL A   1      28.304  25.166  25.011  1.00  0.00     0.167 HD
ATOM     12  C   UNL A   1      30.051  27.595  23.957  1.00  0.00     0.008 A 
ATOM     13  C   UNL A   1      27.631  27.537  23.590  1.00  0.00     0.030 A 
ATOM     14  C   UNL A   1      30.105  28.845  23.307  1.00  0.00     0.057 A 
ATOM     15  C   UNL A   1      27.714  28.781  22.952  1.00  0.00     0.049 A 
ATOM     16  C   UNL A   1      28.935  29.436  22.805  1.00  0.00     0.130 A 
BRANCH   8  17
ATOM     17  C   UNL A   1      30.874  24.415  25.655  1.00  0.00     0.227 C 
ATOM     18  O   UNL A   1      30.772  24.272  26.871  1.00  0.00    -0.285 OA
BRANCH  17  19
ATOM     19  C   UNL A   1      31.510  23.341  24.800  1.00  0.00     0.113 A 
ATOM     20  C   UNL A   1      32.712  21.266  24.511  1.00  0.00    -0.044 A 
ATOM     21  C   UNL A   1      32.680  21.495  23.134  1.00  0.00     0.024 A 
ATOM     22  C   UNL A   1      32.107  22.207  25.355  1.00  0.00     0.036 A 
ATOM     23  C   UNL A   1      32.057  22.639  22.664  1.00  0.00     0.112 A 
ATOM     24  N   UNL A   1      31.482  23.562  23.460  1.00  0.00    -0.253 NA
BRANCH  20  25
ATOM     25  C   UNL A   1      33.419  20.059  25.074  1.00  0.00     0.032 C 
ATOM     26  C   UNL A   1      34.933  20.130  24.933  1.00  0.00     0.009 C 
ENDBRANCH  20  25
ENDBRANCH  17  19
ENDBRANCH   8  17
BRANCH  16  27
ATOM     27  O   UNL A   1      29.141  30.647  22.206  1.00  0.00    -0.406 OA
BRANCH  27  28
ATOM     28  C   UNL A   1      28.716  31.808  22.900  1.00  0.00     0.573 C 
ATOM     29  F   UNL A   1      27.369  31.884  22.941  1.00  0.00    -0.132 F 
ATOM     30  F   UNL A   1      29.218  31.841  24.151  1.00  0.00    -0.132 F 
ATOM     31  F   UNL A   1      29.174  32.893  22.235  1.00  0.00    -0.132 F 
ENDBRANCH  27  28
ENDBRANCH  16  27
ENDBRANCH   6   7
ENDBRANCH   3   6
ENDBRANCH   1   2
BRANCH   1  32
ATOM     32  C   UNL A   1      35.803  23.917  24.992  1.00  0.00     0.042 C 
BRANCH  32  33
ATOM     33  C   UNL A   1      36.351  23.389  26.316  1.00  0.00     0.118 C 
BRANCH  33  34
ATOM     34  N   UNL A   1      37.518  22.539  26.140  1.00  0.00    -0.352 N 
ATOM     35  C   UNL A   1      38.855  22.817  26.282  1.00  0.00     0.251 C 
ATOM     36  H   UNL A   1      37.317  21.613  25.874  1.00  0.00     0.163 HD
ATOM     37  O   UNL A   1      39.675  21.980  25.910  1.00  0.00    -0.269 OA
BRANCH  35  38
ATOM     38  C   UNL A   1      39.330  24.099  26.857  1.00  0.00     0.039 A 
ATOM     39  C   UNL A   1      39.036  24.371  28.199  1.00  0.00     0.014 A 
ATOM     40  C   UNL A   1      39.976  25.069  26.083  1.00  0.00     0.014 A 
ATOM     41  C   UNL A   1      39.425  25.585  28.775  1.00  0.00     0.010 A 
ATOM     42  C   UNL A   1      40.395  26.268  26.667  1.00  0.00     0.010 A 
ATOM     43  C   UNL A   1      40.119  26.538  28.016  1.00  0.00    -0.014 A 
BRANCH  43  44
ATOM     44  C   UNL A   1      40.542  27.825  28.620  1.00  0.00     0.031 A 
ATOM     45  C   UNL A   1      41.935  27.993  29.154  1.00  0.00     0.074 A 
ATOM     46  C   UNL A   1      39.662  28.837  28.731  1.00  0.00     0.049 A 
ATOM     47  N   UNL A   1      42.451  29.006  29.804  1.00  0.00    -0.248 NA
ATOM     48  C   UNL A   1      42.862  26.871  28.944  1.00  0.00     0.031 C 
ATOM     49  C   UNL A   1      38.269  28.801  28.286  1.00  0.00     0.029 A 
ATOM     50  N   UNL A   1      39.812  30.091  29.268  1.00  0.00    -0.354 N 
ATOM     51  C   UNL A   1      43.746  28.626  30.127  1.00  0.00     0.074 A 
ATOM     52  C   UNL A   1      43.945  27.299  29.580  1.00  0.00     0.031 C 
ATOM     53  C   UNL A   1      37.692  29.983  28.563  1.00  0.00     0.029 A 
ATOM     54  C   UNL A   1      38.670  30.851  29.215  1.00  0.00     0.049 A 
ATOM     55  H   UNL A   1      40.659  30.415  29.653  1.00  0.00     0.167 HD
ATOM     56  C   UNL A   1      44.684  29.309  30.827  1.00  0.00     0.031 A 
ATOM     57  C   UNL A   1      38.430  32.103  29.647  1.00  0.00     0.031 A 
ATOM     58  C   UNL A   1      44.521  30.641  31.339  1.00  0.00     0.049 A 
ATOM     59  C   UNL A   1      39.519  32.886  30.318  1.00  0.00     0.074 A 
ATOM     60  C   UNL A   1      45.425  31.414  32.048  1.00  0.00     0.029 A 
ATOM     61  N   UNL A   1      43.379  31.409  31.178  1.00  0.00    -0.354 N 
ATOM     62  N   UNL A   1      40.735  32.505  30.621  1.00  0.00    -0.248 NA
ATOM     63  C   UNL A   1      39.201  34.270  30.700  1.00  0.00     0.031 C 
ATOM     64  C   UNL A   1      44.829  32.656  32.310  1.00  0.00     0.029 A 
ATOM     65  C   UNL A   1      43.557  32.652  31.762  1.00  0.00     0.049 A 
ATOM     66  H   UNL A   1      42.561  31.116  30.716  1.00  0.00     0.167 HD
ATOM     67  C   UNL A   1      41.327  33.598  31.241  1.00  0.00     0.074 A 
ATOM     68  C   UNL A   1      40.341  34.661  31.256  1.00  0.00     0.031 C 
ATOM     69  C   UNL A   1      42.574  33.703  31.762  1.00  0.00     0.031 A 
BRANCH  56  70
ATOM     70  C   UNL A   1      45.970  28.584  31.091  1.00  0.00    -0.014 A 
ATOM     71  C   UNL A   1      46.145  27.833  32.265  1.00  0.00     0.010 A 
ATOM     72  C   UNL A   1      47.031  28.697  30.175  1.00  0.00     0.010 A 
ATOM     73  C   UNL A   1      47.380  27.242  32.545  1.00  0.00     0.020 A 
ATOM     74  C   UNL A   1      48.264  28.103  30.449  1.00  0.00     0.020 A 
ATOM     75  C   UNL A   1      48.438  27.399  31.645  1.00  0.00     0.054 A 
BRANCH  75  76
ATOM     76  S   UNL A   1      50.060  26.676  32.013  1.00  0.00     0.124 S 
ATOM     77  O   UNL A   1      50.529  26.301  30.682  1.00  0.00    -0.237 OA
ATOM     78  O   UNL A   1      50.787  27.776  32.644  1.00  0.00    -0.237 OA
ATOM     79  O   UNL A   1      49.732  25.563  32.900  1.00  0.00    -0.744 OA
ENDBRANCH  75  76
ENDBRANCH  56  70
BRANCH  57  80
ATOM     80  C   UNL A   1      37.080  32.682  29.456  1.00  0.00    -0.014 A 
ATOM     81  C   UNL A   1      36.134  32.628  30.494  1.00  0.00     0.010 A 
ATOM     82  C   UNL A   1      36.767  33.358  28.265  1.00  0.00     0.010 A 
ATOM     83  C   UNL A   1      34.897  33.262  30.351  1.00  0.00     0.020 A 
ATOM     84  C   UNL A   1      35.533  33.995  28.122  1.00  0.00     0.020 A 
ATOM     85  C   UNL A   1      34.606  33.946  29.168  1.00  0.00     0.054 A 
BRANCH  85  86
ATOM     86  S   UNL A   1      33.053  34.871  29.014  1.00  0.00     0.124 S 
ATOM     87  O   UNL A   1      32.332  34.090  28.014  1.00  0.00    -0.237 OA
ATOM     88  O   UNL A   1      32.501  34.828  30.367  1.00  0.00    -0.237 OA
ATOM     89  O   UNL A   1      33.504  36.192  28.580  1.00  0.00    -0.744 OA
ENDBRANCH  85  86
ENDBRANCH  57  80
BRANCH  69  90
ATOM     90  C   UNL A   1      42.937  35.016  32.390  1.00  0.00    -0.014 A 
ATOM     91  C   UNL A   1      42.688  35.240  33.755  1.00  0.00     0.010 A 
ATOM     92  C   UNL A   1      43.546  36.023  31.623  1.00  0.00     0.010 A 
ATOM     93  C   UNL A   1      43.026  36.462  34.343  1.00  0.00     0.020 A 
ATOM     94  C   UNL A   1      43.887  37.245  32.208  1.00  0.00     0.020 A 
ATOM     95  C   UNL A   1      43.613  37.462  33.562  1.00  0.00     0.054 A 
BRANCH  95  96
ATOM     96  S   UNL A   1      44.077  39.042  34.325  1.00  0.00     0.124 S 
ATOM     97  O   UNL A   1      45.430  39.240  33.811  1.00  0.00    -0.237 OA
ATOM     98  O   UNL A   1      43.071  39.971  33.816  1.00  0.00    -0.237 OA
ATOM     99  O   UNL A   1      43.986  38.762  35.756  1.00  0.00    -0.744 OA
ENDBRANCH  95  96
ENDBRANCH  69  90
ENDBRANCH  43  44
ENDBRANCH  35  38
ENDBRANCH  33  34
ENDBRANCH  32  33
ENDBRANCH   1  32
TORSDOF 19
ENDMDL
MODEL 2
REMARK VINA RESULT:     -11.7      4.017      8.880
REMARK SMILES CCc1ccnc(C(=O)c2[nH]c3ccc(OC(F)(F)F)cc3c2CC(=O)NCCCNC(=O)c2ccc(-c3c4nc(c(-c5ccc(S(=O)(=O)[O-])cc5)c5ccc([nH]5)c(-c5ccc(S(=O)(=O)[O-])cc5)c5nc(c(-c6ccc(S(=O)(=O)[O-])cc6)c6ccc3[nH]6)C=C5)C=C4)cc2)c1
REMARK SMILES IDX 28 1 27 2 25 3 26 4 24 6 23 7 10 8 11 9 12 10 22 12 13 13
REMARK SMILES IDX 21 14 14 15 15 16 8 17 9 18 7 19 3 20 4 21 94 22 5 23 6 24
REMARK SMILES IDX 2 25 1 26 16 27 17 28 18 29 19 30 20 31 29 32 30 33 31 34
REMARK SMILES IDX 32 35 33 37 34 38 35 39 93 40 36 41 92 42 37 43 38 44 39 45
REMARK SMILES IDX 86 46 40 47 91 48 85 49 87 50 41 51 90 52 84 53 83 54 42 56
REMARK SMILES IDX 72 57 53 58 71 59 54 60 57 61 70 62 88 63 55 64 56 65 69 67
REMARK SMILES IDX 89 68 58 69 43 70 44 71 52 72 45 73 51 74 46 75 47 76 48 77
REMARK SMILES IDX 49 78 50 79 73 80 74 81 82 82 75 83 81 84 76 85 77 86 78 87
REMARK SMILES IDX 79 88 80 89 59 90 60 91 68 92 61 93 67 94 62 95 63 96 64 97
REMARK SMILES IDX 65 98 66 99
REMARK H PARENT 27 5 11 11 31 36 87 55 57 66
REMARK Flexibility Score: inf
ROOT
ATOM      1  C   UNL A   1      33.781  30.072  26.909  1.00  0.00     0.117 C 
ENDROOT
BRANCH   1   2
ATOM      2  N   UNL A   1      32.758  29.346  27.638  1.00  0.00    -0.356 N 
ATOM      3  C   UNL A   1      32.158  28.155  27.346  1.00  0.00     0.224 C 
ATOM      4  O   UNL A   1      31.456  27.629  28.214  1.00  0.00    -0.275 OA
ATOM      5  H   UNL A   1      32.451  29.777  28.469  1.00  0.00     0.163 HD
BRANCH   3   6
ATOM      6  C   UNL A   1      32.440  27.437  26.037  1.00  0.00     0.138 C 
BRANCH   6   7
ATOM      7  C   UNL A   1      31.224  26.917  25.324  1.00  0.00    -0.002 A 
ATOM      8  C   UNL A   1      30.733  25.615  25.319  1.00  0.00     0.093 A 
ATOM      9  N   UNL A   1      29.553  25.621  24.610  1.00  0.00    -0.352 N 
ATOM     10  C   UNL A   1      29.333  26.853  24.048  1.00  0.00     0.046 A 
ATOM     11  H   UNL A   1      28.950  24.848  24.519  1.00  0.00     0.167 HD
ATOM     12  C   UNL A   1      30.366  27.686  24.467  1.00  0.00     0.008 A 
ATOM     13  C   UNL A   1      28.293  27.294  23.224  1.00  0.00     0.030 A 
ATOM     14  C   UNL A   1      30.359  29.026  24.027  1.00  0.00     0.057 A 
ATOM     15  C   UNL A   1      28.310  28.630  22.806  1.00  0.00     0.049 A 
ATOM     16  C   UNL A   1      29.330  29.496  23.196  1.00  0.00     0.130 A 
BRANCH   8  17
ATOM     17  C   UNL A   1      31.246  24.430  25.983  1.00  0.00     0.227 C 
ATOM     18  O   UNL A   1      31.338  24.385  27.207  1.00  0.00    -0.285 OA
BRANCH  17  19
ATOM     19  C   UNL A   1      31.630  23.239  25.133  1.00  0.00     0.113 A 
ATOM     20  C   UNL A   1      32.347  20.950  24.854  1.00  0.00    -0.044 A 
ATOM     21  C   UNL A   1      32.365  21.174  23.476  1.00  0.00     0.024 A 
ATOM     22  C   UNL A   1      31.963  22.004  25.693  1.00  0.00     0.036 A 
ATOM     23  C   UNL A   1      32.008  22.424  23.000  1.00  0.00     0.112 A 
ATOM     24  N   UNL A   1      31.650  23.455  23.792  1.00  0.00    -0.253 NA
BRANCH  20  25
ATOM     25  C   UNL A   1      32.772  19.619  25.422  1.00  0.00     0.032 C 
ATOM     26  C   UNL A   1      32.652  18.475  24.426  1.00  0.00     0.009 C 
ENDBRANCH  20  25
ENDBRANCH  17  19
ENDBRANCH   8  17
BRANCH  16  27
ATOM     27  O   UNL A   1      29.453  30.813  22.856  1.00  0.00    -0.406 OA
BRANCH  27  28
ATOM     28  C   UNL A   1      28.865  31.776  23.715  1.00  0.00     0.573 C 
ATOM     29  F   UNL A   1      27.682  31.340  24.196  1.00  0.00    -0.132 F 
ATOM     30  F   UNL A   1      29.690  32.089  24.735  1.00  0.00    -0.132 F 
ATOM     31  F   UNL A   1      28.635  32.901  23.000  1.00  0.00    -0.132 F 
ENDBRANCH  27  28
ENDBRANCH  16  27
ENDBRANCH   6   7
ENDBRANCH   3   6
ENDBRANCH   1   2
BRANCH   1  32
ATOM     32  C   UNL A   1      34.272  31.330  27.619  1.00  0.00     0.042 C 
BRANCH  32  33
ATOM     33  C   UNL A   1      35.659  31.225  28.250  1.00  0.00     0.118 C 
BRANCH  33  34
ATOM     34  N   UNL A   1      35.612  30.789  29.637  1.00  0.00    -0.352 N 
ATOM     35  C   UNL A   1      36.510  30.057  30.373  1.00  0.00     0.251 C 
ATOM     36  H   UNL A   1      34.803  31.061  30.127  1.00  0.00     0.163 HD
ATOM     37  O   UNL A   1      36.174  29.659  31.487  1.00  0.00    -0.269 OA
BRANCH  35  38
ATOM     38  C   UNL A   1      37.860  29.726  29.857  1.00  0.00     0.039 A 
ATOM     39  C   UNL A   1      38.864  29.416  30.782  1.00  0.00     0.014 A 
ATOM     40  C   UNL A   1      38.177  29.802  28.496  1.00  0.00     0.014 A 
ATOM     41  C   UNL A   1      40.165  29.140  30.347  1.00  0.00     0.010 A 
ATOM     42  C   UNL A   1      39.468  29.493  28.058  1.00  0.00     0.010 A 
ATOM     43  C   UNL A   1      40.473  29.164  28.980  1.00  0.00    -0.014 A 
BRANCH  43  44
ATOM     44  C   UNL A   1      41.847  28.866  28.508  1.00  0.00     0.031 A 
ATOM     45  C   UNL A   1      42.200  27.493  28.012  1.00  0.00     0.074 A 
ATOM     46  C   UNL A   1      42.799  29.816  28.564  1.00  0.00     0.049 A 
ATOM     47  N   UNL A   1      43.368  27.021  27.657  1.00  0.00    -0.248 NA
ATOM     48  C   UNL A   1      41.099  26.522  27.919  1.00  0.00     0.031 C 
ATOM     49  C   UNL A   1      42.605  31.181  29.053  1.00  0.00     0.029 A 
ATOM     50  N   UNL A   1      44.125  29.768  28.214  1.00  0.00    -0.354 N 
ATOM     51  C   UNL A   1      43.156  25.685  27.347  1.00  0.00     0.074 A 
ATOM     52  C   UNL A   1      41.743  25.428  27.532  1.00  0.00     0.031 C 
ATOM     53  C   UNL A   1      43.771  31.844  28.968  1.00  0.00     0.029 A 
ATOM     54  C   UNL A   1      44.793  30.947  28.431  1.00  0.00     0.049 A 
ATOM     55  H   UNL A   1      44.556  28.964  27.843  1.00  0.00     0.167 HD
ATOM     56  C   UNL A   1      44.055  24.749  26.956  1.00  0.00     0.031 A 
ATOM     57  C   UNL A   1      46.082  31.274  28.228  1.00  0.00     0.031 A 
ATOM     58  C   UNL A   1      45.451  24.994  26.724  1.00  0.00     0.049 A 
ATOM     59  C   UNL A   1      47.038  30.254  27.685  1.00  0.00     0.074 A 
ATOM     60  C   UNL A   1      46.431  24.106  26.314  1.00  0.00     0.029 A 
ATOM     61  N   UNL A   1      46.065  26.229  26.864  1.00  0.00    -0.354 N 
ATOM     62  N   UNL A   1      46.819  28.993  27.406  1.00  0.00    -0.248 NA
ATOM     63  C   UNL A   1      48.413  30.704  27.426  1.00  0.00     0.031 C 
ATOM     64  C   UNL A   1      47.639  24.809  26.198  1.00  0.00     0.029 A 
ATOM     65  C   UNL A   1      47.407  26.131  26.536  1.00  0.00     0.049 A 
ATOM     66  H   UNL A   1      45.614  27.054  27.153  1.00  0.00     0.167 HD
ATOM     67  C   UNL A   1      48.031  28.493  26.948  1.00  0.00     0.074 A 
ATOM     68  C   UNL A   1      48.977  29.592  26.973  1.00  0.00     0.031 C 
ATOM     69  C   UNL A   1      48.334  27.232  26.555  1.00  0.00     0.031 A 
BRANCH  56  70
ATOM     70  C   UNL A   1      43.526  23.356  26.783  1.00  0.00    -0.014 A 
ATOM     71  C   UNL A   1      43.174  22.577  27.898  1.00  0.00     0.010 A 
ATOM     72  C   UNL A   1      43.426  22.806  25.493  1.00  0.00     0.010 A 
ATOM     73  C   UNL A   1      42.774  21.249  27.729  1.00  0.00     0.020 A 
ATOM     74  C   UNL A   1      43.022  21.482  25.321  1.00  0.00     0.020 A 
ATOM     75  C   UNL A   1      42.721  20.703  26.443  1.00  0.00     0.054 A 
BRANCH  75  76
ATOM     76  S   UNL A   1      42.247  18.968  26.210  1.00  0.00     0.124 S 
ATOM     77  O   UNL A   1      43.216  18.526  25.211  1.00  0.00    -0.237 OA
ATOM     78  O   UNL A   1      42.415  18.388  27.541  1.00  0.00    -0.237 OA
ATOM     79  O   UNL A   1      40.865  19.062  25.748  1.00  0.00    -0.744 OA
ENDBRANCH  75  76
ENDBRANCH  56  70
BRANCH  57  80
ATOM     80  C   UNL A   1      46.536  32.645  28.557  1.00  0.00    -0.014 A 
ATOM     81  C   UNL A   1      46.443  33.669  27.599  1.00  0.00     0.010 A 
ATOM     82  C   UNL A   1      46.986  32.946  29.854  1.00  0.00     0.010 A 
ATOM     83  C   UNL A   1      46.776  34.983  27.940  1.00  0.00     0.020 A 
ATOM     84  C   UNL A   1      47.315  34.258  30.197  1.00  0.00     0.020 A 
ATOM     85  C   UNL A   1      47.205  35.270  29.238  1.00  0.00     0.054 A 
BRANCH  85  86
ATOM     86  S   UNL A   1      47.527  36.987  29.726  1.00  0.00     0.124 S 
ATOM     87  O   UNL A   1      48.136  36.819  31.042  1.00  0.00    -0.237 OA
ATOM     88  O   UNL A   1      48.419  37.474  28.676  1.00  0.00    -0.237 OA
ATOM     89  O   UNL A   1      46.192  37.582  29.720  1.00  0.00    -0.744 OA
ENDBRANCH  85  86
ENDBRANCH  57  80
BRANCH  69  90
ATOM     90  C   UNL A   1      49.747  26.978  26.119  1.00  0.00    -0.014 A 
ATOM     91  C   UNL A   1      50.130  27.223  24.789  1.00  0.00     0.010 A 
ATOM     92  C   UNL A   1      50.700  26.515  27.041  1.00  0.00     0.010 A 
ATOM     93  C   UNL A   1      51.446  26.989  24.380  1.00  0.00     0.020 A 
ATOM     94  C   UNL A   1      52.016  26.282  26.636  1.00  0.00     0.020 A 
ATOM     95  C   UNL A   1      52.379  26.508  25.304  1.00  0.00     0.054 A 
BRANCH  95  96
ATOM     96  S   UNL A   1      54.095  26.226  24.786  1.00  0.00     0.124 S 
ATOM     97  O   UNL A   1      53.948  26.037  23.345  1.00  0.00    -0.237 OA
ATOM     98  O   UNL A   1      54.776  27.454  25.191  1.00  0.00    -0.237 OA
ATOM     99  O   UNL A   1      54.479  25.034  25.538  1.00  0.00    -0.744 OA
ENDBRANCH  95  96
ENDBRANCH  69  90
ENDBRANCH  43  44
ENDBRANCH  35  38
ENDBRANCH  33  34
ENDBRANCH  32  33
ENDBRANCH   1  32
TORSDOF 19
ENDMDL
MODEL 3
REMARK VINA RESULT:     -11.7      4.342      6.128
REMARK SMILES CCc1ccnc(C(=O)c2[nH]c3ccc(OC(F)(F)F)cc3c2CC(=O)NCCCNC(=O)c2ccc(-c3c4nc(c(-c5ccc(S(=O)(=O)[O-])cc5)c5ccc([nH]5)c(-c5ccc(S(=O)(=O)[O-])cc5)c5nc(c(-c6ccc(S(=O)(=O)[O-])cc6)c6ccc3[nH]6)C=C5)C=C4)cc2)c1
REMARK SMILES IDX 28 1 27 2 25 3 26 4 24 6 23 7 10 8 11 9 12 10 22 12 13 13
REMARK SMILES IDX 21 14 14 15 15 16 8 17 9 18 7 19 3 20 4 21 94 22 5 23 6 24
REMARK SMILES IDX 2 25 1 26 16 27 17 28 18 29 19 30 20 31 29 32 30 33 31 34
REMARK SMILES IDX 32 35 33 37 34 38 35 39 93 40 36 41 92 42 37 43 38 44 39 45
REMARK SMILES IDX 86 46 40 47 91 48 85 49 87 50 41 51 90 52 84 53 83 54 42 56
REMARK SMILES IDX 72 57 53 58 71 59 54 60 57 61 70 62 88 63 55 64 56 65 69 67
REMARK SMILES IDX 89 68 58 69 43 70 44 71 52 72 45 73 51 74 46 75 47 76 48 77
REMARK SMILES IDX 49 78 50 79 73 80 74 81 82 82 75 83 81 84 76 85 77 86 78 87
REMARK SMILES IDX 79 88 80 89 59 90 60 91 68 92 61 93 67 94 62 95 63 96 64 97
REMARK SMILES IDX 65 98 66 99
REMARK H PARENT 27 5 11 11 31 36 87 55 57 66
REMARK Flexibility Score: inf
ROOT
ATOM      1  C   UNL A   1      37.593  22.074  25.424  1.00  0.00     0.117 C 
ENDROOT
BRANCH   1   2
ATOM      2  N   UNL A   1      36.484  22.501  26.256  1.00  0.00    -0.356 N 
ATOM      3  C   UNL A   1      35.379  23.234  25.928  1.00  0.00     0.224 C 
ATOM      4  O   UNL A   1      34.465  23.309  26.753  1.00  0.00    -0.275 OA
ATOM      5  H   UNL A   1      36.535  22.221  27.199  1.00  0.00     0.163 HD
BRANCH   3   6
ATOM      6  C   UNL A   1      35.226  23.841  24.544  1.00  0.00     0.138 C 
BRANCH   6   7
ATOM      7  C   UNL A   1      34.083  23.296  23.735  1.00  0.00    -0.002 A 
ATOM      8  C   UNL A   1      33.250  23.992  22.863  1.00  0.00     0.093 A 
ATOM      9  N   UNL A   1      32.406  23.075  22.279  1.00  0.00    -0.352 N 
ATOM     10  C   UNL A   1      32.577  21.835  22.838  1.00  0.00     0.046 A 
ATOM     11  H   UNL A   1      31.768  23.282  21.558  1.00  0.00     0.167 HD
ATOM     12  C   UNL A   1      33.613  21.939  23.761  1.00  0.00     0.008 A 
ATOM     13  C   UNL A   1      31.913  20.632  22.580  1.00  0.00     0.030 A 
ATOM     14  C   UNL A   1      33.992  20.780  24.470  1.00  0.00     0.057 A 
ATOM     15  C   UNL A   1      32.312  19.496  23.296  1.00  0.00     0.049 A 
ATOM     16  C   UNL A   1      33.339  19.560  24.236  1.00  0.00     0.130 A 
BRANCH   8  17
ATOM     17  C   UNL A   1      33.255  25.398  22.504  1.00  0.00     0.227 C 
ATOM     18  O   UNL A   1      33.631  25.762  21.392  1.00  0.00    -0.285 OA
BRANCH  17  19
ATOM     19  C   UNL A   1      32.753  26.401  23.519  1.00  0.00     0.113 A 
ATOM     20  C   UNL A   1      33.096  28.106  25.195  1.00  0.00    -0.044 A 
ATOM     21  C   UNL A   1      31.712  28.141  25.375  1.00  0.00     0.024 A 
ATOM     22  C   UNL A   1      33.621  27.223  24.242  1.00  0.00     0.036 A 
ATOM     23  C   UNL A   1      30.921  27.301  24.609  1.00  0.00     0.112 A 
ATOM     24  N   UNL A   1      31.407  26.436  23.697  1.00  0.00    -0.253 NA
BRANCH  20  25
ATOM     25  C   UNL A   1      34.003  28.967  26.039  1.00  0.00     0.032 C 
ATOM     26  C   UNL A   1      33.674  28.910  27.524  1.00  0.00     0.009 C 
ENDBRANCH  20  25
ENDBRANCH  17  19
ENDBRANCH   8  17
BRANCH  16  27
ATOM     27  O   UNL A   1      33.816  18.525  24.990  1.00  0.00    -0.406 OA
BRANCH  27  28
ATOM     28  C   UNL A   1      33.974  17.265  24.360  1.00  0.00     0.573 C 
ATOM     29  F   UNL A   1      34.860  16.495  25.027  1.00  0.00    -0.132 F 
ATOM     30  F   UNL A   1      32.794  16.621  24.253  1.00  0.00    -0.132 F 
ATOM     31  F   UNL A   1      34.455  17.469  23.113  1.00  0.00    -0.132 F 
ENDBRANCH  27  28
ENDBRANCH  16  27
ENDBRANCH   6   7
ENDBRANCH   3   6
ENDBRANCH   1   2
BRANCH   1  32
ATOM     32  C   UNL A   1      38.915  21.940  26.176  1.00  0.00     0.042 C 
BRANCH  32  33
ATOM     33  C   UNL A   1      39.513  23.250  26.684  1.00  0.00     0.118 C 
BRANCH  33  34
ATOM     34  N   UNL A   1      40.790  23.561  26.061  1.00  0.00    -0.352 N 
ATOM     35  C   UNL A   1      41.629  24.634  26.233  1.00  0.00     0.251 C 
ATOM     36  H   UNL A   1      41.103  22.895  25.407  1.00  0.00     0.163 HD
ATOM     37  O   UNL A   1      42.579  24.769  25.464  1.00  0.00    -0.269 OA
BRANCH  35  38
ATOM     38  C   UNL A   1      41.413  25.632  27.308  1.00  0.00     0.039 A 
ATOM     39  C   UNL A   1      42.252  26.752  27.348  1.00  0.00     0.014 A 
ATOM     40  C   UNL A   1      40.466  25.444  28.320  1.00  0.00     0.014 A 
ATOM     41  C   UNL A   1      42.117  27.700  28.368  1.00  0.00     0.010 A 
ATOM     42  C   UNL A   1      40.308  26.408  29.320  1.00  0.00     0.010 A 
ATOM     43  C   UNL A   1      41.134  27.541  29.355  1.00  0.00    -0.014 A 
BRANCH  43  44
ATOM     44  C   UNL A   1      40.977  28.544  30.436  1.00  0.00     0.031 A 
ATOM     45  C   UNL A   1      41.881  28.519  31.635  1.00  0.00     0.074 A 
ATOM     46  C   UNL A   1      39.992  29.458  30.367  1.00  0.00     0.049 A 
ATOM     47  N   UNL A   1      41.829  29.248  32.721  1.00  0.00    -0.248 NA
ATOM     48  C   UNL A   1      42.974  27.535  31.617  1.00  0.00     0.031 C 
ATOM     49  C   UNL A   1      39.022  29.578  29.279  1.00  0.00     0.029 A 
ATOM     50  N   UNL A   1      39.639  30.454  31.244  1.00  0.00    -0.354 N 
ATOM     51  C   UNL A   1      42.848  28.779  33.539  1.00  0.00     0.074 A 
ATOM     52  C   UNL A   1      43.517  27.719  32.813  1.00  0.00     0.031 C 
ATOM     53  C   UNL A   1      38.186  30.595  29.550  1.00  0.00     0.029 A 
ATOM     54  C   UNL A   1      38.554  31.187  30.834  1.00  0.00     0.049 A 
ATOM     55  H   UNL A   1      40.120  30.626  32.086  1.00  0.00     0.167 HD
ATOM     56  C   UNL A   1      43.191  29.182  34.787  1.00  0.00     0.031 A 
ATOM     57  C   UNL A   1      37.919  32.216  31.424  1.00  0.00     0.031 A 
ATOM     58  C   UNL A   1      42.569  30.260  35.504  1.00  0.00     0.049 A 
ATOM     59  C   UNL A   1      38.387  32.723  32.756  1.00  0.00     0.074 A 
ATOM     60  C   UNL A   1      42.862  30.743  36.768  1.00  0.00     0.029 A 
ATOM     61  N   UNL A   1      41.534  31.038  35.010  1.00  0.00    -0.354 N 
ATOM     62  N   UNL A   1      39.349  32.260  33.516  1.00  0.00    -0.248 NA
ATOM     63  C   UNL A   1      37.687  33.893  33.304  1.00  0.00     0.031 C 
ATOM     64  C   UNL A   1      42.007  31.822  37.034  1.00  0.00     0.029 A 
ATOM     65  C   UNL A   1      41.185  32.006  35.936  1.00  0.00     0.049 A 
ATOM     66  H   UNL A   1      41.110  30.920  34.130  1.00  0.00     0.167 HD
ATOM     67  C   UNL A   1      39.363  33.075  34.641  1.00  0.00     0.074 A 
ATOM     68  C   UNL A   1      38.325  34.070  34.454  1.00  0.00     0.031 C 
ATOM     69  C   UNL A   1      40.158  32.995  35.735  1.00  0.00     0.031 A 
BRANCH  56  70
ATOM     70  C   UNL A   1      44.291  28.409  35.451  1.00  0.00    -0.014 A 
ATOM     71  C   UNL A   1      44.004  27.278  36.234  1.00  0.00     0.010 A 
ATOM     72  C   UNL A   1      45.620  28.850  35.330  1.00  0.00     0.010 A 
ATOM     73  C   UNL A   1      45.028  26.625  36.925  1.00  0.00     0.020 A 
ATOM     74  C   UNL A   1      46.645  28.196  36.015  1.00  0.00     0.020 A 
ATOM     75  C   UNL A   1      46.338  27.101  36.828  1.00  0.00     0.054 A 
BRANCH  75  76
ATOM     76  S   UNL A   1      47.671  26.291  37.755  1.00  0.00     0.124 S 
ATOM     77  O   UNL A   1      47.228  26.473  39.134  1.00  0.00    -0.237 OA
ATOM     78  O   UNL A   1      47.638  24.914  37.265  1.00  0.00    -0.237 OA
ATOM     79  O   UNL A   1      48.854  27.055  37.368  1.00  0.00    -0.744 OA
ENDBRANCH  75  76
ENDBRANCH  56  70
BRANCH  57  80
ATOM     80  C   UNL A   1      36.754  32.828  30.742  1.00  0.00    -0.014 A 
ATOM     81  C   UNL A   1      35.454  32.603  31.225  1.00  0.00     0.010 A 
ATOM     82  C   UNL A   1      36.952  33.700  29.659  1.00  0.00     0.010 A 
ATOM     83  C   UNL A   1      34.365  33.258  30.645  1.00  0.00     0.020 A 
ATOM     84  C   UNL A   1      35.865  34.359  29.081  1.00  0.00     0.020 A 
ATOM     85  C   UNL A   1      34.578  34.136  29.579  1.00  0.00     0.054 A 
BRANCH  85  86
ATOM     86  S   UNL A   1      33.190  35.083  28.894  1.00  0.00     0.124 S 
ATOM     87  O   UNL A   1      33.874  36.195  28.241  1.00  0.00    -0.237 OA
ATOM     88  O   UNL A   1      32.542  34.127  27.998  1.00  0.00    -0.237 OA
ATOM     89  O   UNL A   1      32.415  35.429  30.084  1.00  0.00    -0.744 OA
ENDBRANCH  85  86
ENDBRANCH  57  80
BRANCH  69  90
ATOM     90  C   UNL A   1      39.934  34.015  36.812  1.00  0.00    -0.014 A 
ATOM     91  C   UNL A   1      39.010  33.764  37.842  1.00  0.00     0.010 A 
ATOM     92  C   UNL A   1      40.659  35.218  36.810  1.00  0.00     0.010 A 
ATOM     93  C   UNL A   1      38.799  34.712  38.847  1.00  0.00     0.020 A 
ATOM     94  C   UNL A   1      40.451  36.167  37.815  1.00  0.00     0.020 A 
ATOM     95  C   UNL A   1      39.513  35.913  38.821  1.00  0.00     0.054 A 
BRANCH  95  96
ATOM     96  S   UNL A   1      39.262  37.137  40.137  1.00  0.00     0.124 S 
ATOM     97  O   UNL A   1      38.526  36.363  41.132  1.00  0.00    -0.237 OA
ATOM     98  O   UNL A   1      40.624  37.510  40.515  1.00  0.00    -0.237 OA
ATOM     99  O   UNL A   1      38.499  38.190  39.472  1.00  0.00    -0.744 OA
ENDBRANCH  95  96
ENDBRANCH  69  90
ENDBRANCH  43  44
ENDBRANCH  35  38
ENDBRANCH  33  34
ENDBRANCH  32  33
ENDBRANCH   1  32
TORSDOF 19
ENDMDL
