MODEL 1
REMARK VINA RESULT:     -14.2      0.000      0.000
REMARK SMILES Cc1ccn2c([C@@H]3CCCC[C@@H]3C(=O)NCCCNC(=O)c3ccc(-c4c5nc(c(-c6ccc(S(=O)(=O)[O-])cc6)c6ccc([nH]6)c(-c6ccc(S(=O)(=O)[O-])cc6)c6nc(c(-c7ccc(S(=O)(=O)[O-])cc7)c7ccc4[nH]7)C=C6)C=C5)cc3)nnc2c1
REMARK SMILES IDX 18 1 17 2 16 3 15 4 13 5 14 6 12 8 7 9 8 10 9 11 11 12 10 13
REMARK SMILES IDX 6 14 1 15 2 16 3 17 85 18 4 19 84 20 5 21 83 22 82 23 19 24
REMARK SMILES IDX 20 25 21 27 22 28 23 29 81 30 24 31 80 32 25 33 26 34 27 35
REMARK SMILES IDX 74 36 28 37 79 38 73 39 75 40 29 41 78 42 72 43 71 44 30 46
REMARK SMILES IDX 60 47 41 48 59 49 42 50 45 51 58 52 76 53 43 54 44 55 57 57
REMARK SMILES IDX 77 58 46 59 31 60 32 61 40 62 33 63 39 64 34 65 35 66 36 67
REMARK SMILES IDX 37 68 38 69 61 70 62 71 70 72 63 73 69 74 64 75 65 76 66 77
REMARK SMILES IDX 67 78 68 79 47 80 48 81 56 82 49 83 55 84 50 85 51 86 52 87
REMARK SMILES IDX 53 88 54 89
REMARK H PARENT 15 7 19 26 75 45 45 56
REMARK Flexibility Score: inf
ROOT
ATOM      1  C   UNL A   1      33.781  29.853  26.332  1.00  0.00     0.118 C 
ENDROOT
BRANCH   1   2
ATOM      2  C   UNL A   1      33.961  28.188  25.864  1.00  0.00     0.042 C 
BRANCH   2   3
ATOM      3  C   UNL A   1      33.803  27.109  23.957  1.00  0.00     0.117 C 
BRANCH   3   4
ATOM      4  N   UNL A   1      32.851  25.961  23.472  1.00  0.00    -0.356 N 
ATOM      5  C   UNL A   1      32.429  24.782  23.979  1.00  0.00     0.223 C 
ATOM      6  O   UNL A   1      31.634  24.189  23.239  1.00  0.00    -0.275 OA
ATOM      7  H   UNL A   1      32.468  26.146  22.583  1.00  0.00     0.163 HD
BRANCH   5   8
ATOM      8  C   UNL A   1      32.791  24.233  25.385  1.00  0.00     0.089 C 
ATOM      9  C   UNL A   1      32.709  22.718  25.754  1.00  0.00     0.071 C 
ATOM     10  C   UNL A   1      31.289  22.151  25.829  1.00  0.00     0.012 C 
ATOM     11  C   UNL A   1      30.371  22.999  26.705  1.00  0.00     0.001 C 
ATOM     12  C   UNL A   1      31.899  24.987  26.403  1.00  0.00     0.014 C 
ATOM     13  C   UNL A   1      30.453  24.479  26.356  1.00  0.00     0.001 C 
BRANCH   9  14
ATOM     14  C   UNL A   1      33.648  21.881  24.955  1.00  0.00     0.141 A 
ATOM     15  C   UNL A   1      39.644  22.154  26.336  1.00  0.00     0.044 C 
ATOM     16  C   UNL A   1      38.251  22.004  25.787  1.00  0.00    -0.046 A 
ATOM     17  C   UNL A   1      37.374  23.682  25.619  1.00  0.00     0.022 A 
ATOM     18  C   UNL A   1      37.469  20.610  25.400  1.00  0.00     0.053 A 
ATOM     19  C   UNL A   1      35.859  23.775  25.126  1.00  0.00     0.095 A 
ATOM     20  C   UNL A   1      35.719  20.664  24.845  1.00  0.00     0.161 A 
ATOM     21  N   UNL A   1      34.953  22.263  24.770  1.00  0.00    -0.286 N 
ATOM     22  N   UNL A   1      34.708  19.842  24.677  1.00  0.00    -0.130 NA
ATOM     23  N   UNL A   1      33.499  20.581  24.712  1.00  0.00    -0.134 NA
ENDBRANCH   9  14
ENDBRANCH   5   8
ENDBRANCH   3   4
ENDBRANCH   2   3
ENDBRANCH   1   2
BRANCH   1  24
ATOM     24  N   UNL A   1      33.960  30.050  27.768  1.00  0.00    -0.352 N 
ATOM     25  C   UNL A   1      34.635  31.076  28.367  1.00  0.00     0.251 C 
ATOM     26  H   UNL A   1      33.555  29.377  28.363  1.00  0.00     0.163 HD
ATOM     27  O   UNL A   1      34.139  32.108  28.782  1.00  0.00    -0.269 OA
BRANCH  25  28
ATOM     28  C   UNL A   1      35.949  30.582  28.778  1.00  0.00     0.039 A 
ATOM     29  C   UNL A   1      36.865  31.561  29.189  1.00  0.00     0.014 A 
ATOM     30  C   UNL A   1      36.335  29.328  28.308  1.00  0.00     0.014 A 
ATOM     31  C   UNL A   1      38.199  31.347  28.964  1.00  0.00     0.010 A 
ATOM     32  C   UNL A   1      37.681  29.073  28.185  1.00  0.00     0.010 A 
ATOM     33  C   UNL A   1      38.594  30.095  28.477  1.00  0.00    -0.014 A 
BRANCH  33  34
ATOM     34  C   UNL A   1      39.976  29.726  28.729  1.00  0.00     0.031 A 
ATOM     35  C   UNL A   1      40.235  29.772  30.207  1.00  0.00     0.074 A 
ATOM     36  C   UNL A   1      40.758  29.220  27.756  1.00  0.00     0.049 A 
ATOM     37  N   UNL A   1      41.072  30.531  30.833  1.00  0.00    -0.248 NA
ATOM     38  C   UNL A   1      39.236  29.141  31.113  1.00  0.00     0.031 C 
ATOM     39  C   UNL A   1      40.418  28.979  26.353  1.00  0.00     0.029 A 
ATOM     40  N   UNL A   1      41.990  28.670  27.845  1.00  0.00    -0.354 N 
ATOM     41  C   UNL A   1      40.881  30.250  32.183  1.00  0.00     0.074 A 
ATOM     42  C   UNL A   1      39.589  29.640  32.296  1.00  0.00     0.031 C 
ATOM     43  C   UNL A   1      41.284  28.078  25.830  1.00  0.00     0.029 A 
ATOM     44  C   UNL A   1      42.308  27.785  26.818  1.00  0.00     0.049 A 
ATOM     45  H   UNL A   1      42.613  28.879  28.578  1.00  0.00     0.167 HD
ATOM     46  C   UNL A   1      41.934  30.220  33.045  1.00  0.00     0.031 A 
ATOM     47  C   UNL A   1      43.279  26.830  26.853  1.00  0.00     0.031 A 
ATOM     48  C   UNL A   1      43.057  30.936  32.500  1.00  0.00     0.049 A 
ATOM     49  C   UNL A   1      44.184  27.194  27.980  1.00  0.00     0.074 A 
ATOM     50  C   UNL A   1      43.235  32.247  32.106  1.00  0.00     0.029 A 
ATOM     51  N   UNL A   1      44.007  30.191  31.838  1.00  0.00    -0.354 N 
ATOM     52  N   UNL A   1      44.907  28.281  27.978  1.00  0.00    -0.248 NA
ATOM     53  C   UNL A   1      43.861  26.658  29.296  1.00  0.00     0.031 C 
ATOM     54  C   UNL A   1      43.949  32.160  30.880  1.00  0.00     0.029 A 
ATOM     55  C   UNL A   1      44.301  30.827  30.657  1.00  0.00     0.049 A 
ATOM     56  H   UNL A   1      44.404  29.349  32.156  1.00  0.00     0.167 HD
ATOM     57  C   UNL A   1      44.749  28.810  29.251  1.00  0.00     0.074 A 
ATOM     58  C   UNL A   1      44.139  27.734  30.039  1.00  0.00     0.031 C 
ATOM     59  C   UNL A   1      44.804  30.159  29.470  1.00  0.00     0.031 A 
BRANCH  46  60
ATOM     60  C   UNL A   1      42.058  29.197  34.146  1.00  0.00    -0.014 A 
ATOM     61  C   UNL A   1      41.642  29.425  35.476  1.00  0.00     0.010 A 
ATOM     62  C   UNL A   1      42.385  27.873  33.803  1.00  0.00     0.010 A 
ATOM     63  C   UNL A   1      41.577  28.406  36.424  1.00  0.00     0.020 A 
ATOM     64  C   UNL A   1      42.286  26.831  34.738  1.00  0.00     0.020 A 
ATOM     65  C   UNL A   1      41.896  27.110  36.046  1.00  0.00     0.054 A 
BRANCH  65  66
ATOM     66  S   UNL A   1      41.760  25.807  37.291  1.00  0.00     0.124 S 
ATOM     67  O   UNL A   1      42.766  26.222  38.265  1.00  0.00    -0.237 OA
ATOM     68  O   UNL A   1      40.372  25.932  37.725  1.00  0.00    -0.237 OA
ATOM     69  O   UNL A   1      42.076  24.591  36.547  1.00  0.00    -0.744 OA
ENDBRANCH  65  66
ENDBRANCH  46  60
BRANCH  47  70
ATOM     70  C   UNL A   1      43.186  25.428  26.342  1.00  0.00    -0.014 A 
ATOM     71  C   UNL A   1      43.123  24.351  27.250  1.00  0.00     0.010 A 
ATOM     72  C   UNL A   1      43.486  25.121  24.997  1.00  0.00     0.010 A 
ATOM     73  C   UNL A   1      43.450  23.045  26.865  1.00  0.00     0.020 A 
ATOM     74  C   UNL A   1      43.814  23.809  24.600  1.00  0.00     0.020 A 
ATOM     75  C   UNL A   1      43.842  22.789  25.552  1.00  0.00     0.054 A 
BRANCH  75  76
ATOM     76  S   UNL A   1      44.500  21.138  25.165  1.00  0.00     0.124 S 
ATOM     77  O   UNL A   1      43.530  20.266  25.822  1.00  0.00    -0.237 OA
ATOM     78  O   UNL A   1      44.468  21.118  23.704  1.00  0.00    -0.237 OA
ATOM     79  O   UNL A   1      45.836  21.147  25.755  1.00  0.00    -0.744 OA
ENDBRANCH  75  76
ENDBRANCH  47  70
BRANCH  59  80
ATOM     80  C   UNL A   1      45.222  31.080  28.334  1.00  0.00    -0.014 A 
ATOM     81  C   UNL A   1      46.467  31.717  28.475  1.00  0.00     0.010 A 
ATOM     82  C   UNL A   1      44.368  31.516  27.297  1.00  0.00     0.010 A 
ATOM     83  C   UNL A   1      46.835  32.781  27.653  1.00  0.00     0.020 A 
ATOM     84  C   UNL A   1      44.747  32.571  26.443  1.00  0.00     0.020 A 
ATOM     85  C   UNL A   1      45.971  33.210  26.644  1.00  0.00     0.054 A 
BRANCH  85  86
ATOM     86  S   UNL A   1      46.494  34.620  25.630  1.00  0.00     0.124 S 
ATOM     87  O   UNL A   1      46.207  35.756  26.505  1.00  0.00    -0.237 OA
ATOM     88  O   UNL A   1      47.914  34.349  25.414  1.00  0.00    -0.237 OA
ATOM     89  O   UNL A   1      45.660  34.529  24.435  1.00  0.00    -0.744 OA
ENDBRANCH  85  86
ENDBRANCH  59  80
ENDBRANCH  33  34
ENDBRANCH  25  28
ENDBRANCH   1  24
TORSDOF 14
ENDMDL
MODEL 2
REMARK VINA RESULT:     -14.1      2.599      9.548
REMARK SMILES Cc1ccn2c([C@@H]3CCCC[C@@H]3C(=O)NCCCNC(=O)c3ccc(-c4c5nc(c(-c6ccc(S(=O)(=O)[O-])cc6)c6ccc([nH]6)c(-c6ccc(S(=O)(=O)[O-])cc6)c6nc(c(-c7ccc(S(=O)(=O)[O-])cc7)c7ccc4[nH]7)C=C6)C=C5)cc3)nnc2c1
REMARK SMILES IDX 18 1 17 2 16 3 15 4 13 5 14 6 12 8 7 9 8 10 9 11 11 12 10 13
REMARK SMILES IDX 6 14 1 15 2 16 3 17 85 18 4 19 84 20 5 21 83 22 82 23 19 24
REMARK SMILES IDX 20 25 21 27 22 28 23 29 81 30 24 31 80 32 25 33 26 34 27 35
REMARK SMILES IDX 74 36 28 37 79 38 73 39 75 40 29 41 78 42 72 43 71 44 30 46
REMARK SMILES IDX 60 47 41 48 59 49 42 50 45 51 58 52 76 53 43 54 44 55 57 57
REMARK SMILES IDX 77 58 46 59 31 60 32 61 40 62 33 63 39 64 34 65 35 66 36 67
REMARK SMILES IDX 37 68 38 69 61 70 62 71 70 72 63 73 69 74 64 75 65 76 66 77
REMARK SMILES IDX 67 78 68 79 47 80 48 81 56 82 49 83 55 84 50 85 51 86 52 87
REMARK SMILES IDX 53 88 54 89
REMARK H PARENT 15 7 19 26 75 45 45 56
REMARK Flexibility Score: inf
ROOT
ATOM      1  C   UNL A   1      36.715  22.505  26.016  1.00  0.00     0.118 C 
ENDROOT
BRANCH   1   2
ATOM      2  C   UNL A   1      35.494  23.731  26.187  1.00  0.00     0.042 C 
BRANCH   2   3
ATOM      3  C   UNL A   1      33.313  23.693  26.453  1.00  0.00     0.117 C 
BRANCH   3   4
ATOM      4  N   UNL A   1      32.194  24.745  26.135  1.00  0.00    -0.356 N 
ATOM      5  C   UNL A   1      32.172  26.022  25.694  1.00  0.00     0.223 C 
ATOM      6  O   UNL A   1      31.027  26.472  25.559  1.00  0.00    -0.275 OA
ATOM      7  H   UNL A   1      31.291  24.388  26.294  1.00  0.00     0.163 HD
BRANCH   5   8
ATOM      8  C   UNL A   1      33.421  26.848  25.284  1.00  0.00     0.089 C 
ATOM      9  C   UNL A   1      33.364  28.375  24.964  1.00  0.00     0.071 C 
ATOM     10  C   UNL A   1      32.624  28.734  23.672  1.00  0.00     0.012 C 
ATOM     11  C   UNL A   1      33.117  27.922  22.478  1.00  0.00     0.001 C 
ATOM     12  C   UNL A   1      34.026  26.155  24.037  1.00  0.00     0.014 C 
ATOM     13  C   UNL A   1      33.183  26.432  22.786  1.00  0.00     0.001 C 
BRANCH   9  14
ATOM     14  C   UNL A   1      32.949  29.193  26.140  1.00  0.00     0.141 A 
ATOM     15  C   UNL A   1      36.992  33.253  28.397  1.00  0.00     0.044 C 
ATOM     16  C   UNL A   1      35.900  32.275  28.059  1.00  0.00    -0.046 A 
ATOM     17  C   UNL A   1      36.587  30.533  27.732  1.00  0.00     0.022 A 
ATOM     18  C   UNL A   1      34.291  32.580  27.911  1.00  0.00     0.053 A 
ATOM     19  C   UNL A   1      35.628  29.339  27.282  1.00  0.00     0.095 A 
ATOM     20  C   UNL A   1      33.150  31.243  27.380  1.00  0.00     0.161 A 
ATOM     21  N   UNL A   1      33.876  29.661  27.037  1.00  0.00    -0.286 N 
ATOM     22  N   UNL A   1      31.921  31.109  26.932  1.00  0.00    -0.130 NA
ATOM     23  N   UNL A   1      31.814  29.881  26.232  1.00  0.00    -0.134 NA
ENDBRANCH   9  14
ENDBRANCH   5   8
ENDBRANCH   3   4
ENDBRANCH   2   3
ENDBRANCH   1   2
BRANCH   1  24
ATOM     24  N   UNL A   1      38.028  23.066  25.713  1.00  0.00    -0.352 N 
ATOM     25  C   UNL A   1      39.216  22.698  26.280  1.00  0.00     0.251 C 
ATOM     26  H   UNL A   1      38.061  23.779  25.035  1.00  0.00     0.163 HD
ATOM     27  O   UNL A   1      40.000  21.885  25.826  1.00  0.00    -0.269 OA
BRANCH  25  28
ATOM     28  C   UNL A   1      39.574  23.701  27.285  1.00  0.00     0.039 A 
ATOM     29  C   UNL A   1      38.875  24.913  27.208  1.00  0.00     0.014 A 
ATOM     30  C   UNL A   1      40.824  23.579  27.890  1.00  0.00     0.014 A 
ATOM     31  C   UNL A   1      39.511  26.064  27.592  1.00  0.00     0.010 A 
ATOM     32  C   UNL A   1      41.417  24.721  28.375  1.00  0.00     0.010 A 
ATOM     33  C   UNL A   1      40.774  25.953  28.187  1.00  0.00    -0.014 A 
BRANCH  33  34
ATOM     34  C   UNL A   1      41.182  27.070  29.019  1.00  0.00     0.031 A 
ATOM     35  C   UNL A   1      42.429  27.680  28.446  1.00  0.00     0.074 A 
ATOM     36  C   UNL A   1      40.386  27.551  29.993  1.00  0.00     0.049 A 
ATOM     37  N   UNL A   1      43.590  27.763  29.007  1.00  0.00    -0.248 NA
ATOM     38  C   UNL A   1      42.475  27.932  26.980  1.00  0.00     0.031 C 
ATOM     39  C   UNL A   1      39.063  27.073  30.401  1.00  0.00     0.029 A 
ATOM     40  N   UNL A   1      40.521  28.671  30.739  1.00  0.00    -0.354 N 
ATOM     41  C   UNL A   1      44.419  28.336  28.047  1.00  0.00     0.074 A 
ATOM     42  C   UNL A   1      43.774  28.144  26.781  1.00  0.00     0.031 C 
ATOM     43  C   UNL A   1      38.420  28.056  31.075  1.00  0.00     0.029 A 
ATOM     44  C   UNL A   1      39.331  29.172  31.258  1.00  0.00     0.049 A 
ATOM     45  H   UNL A   1      41.394  29.098  30.900  1.00  0.00     0.167 HD
ATOM     46  C   UNL A   1      45.388  29.223  28.402  1.00  0.00     0.031 A 
ATOM     47  C   UNL A   1      39.121  30.444  31.700  1.00  0.00     0.031 A 
ATOM     48  C   UNL A   1      45.706  29.095  29.800  1.00  0.00     0.049 A 
ATOM     49  C   UNL A   1      40.470  31.039  31.921  1.00  0.00     0.074 A 
ATOM     50  C   UNL A   1      46.186  28.050  30.563  1.00  0.00     0.029 A 
ATOM     51  N   UNL A   1      45.067  29.956  30.663  1.00  0.00    -0.354 N 
ATOM     52  N   UNL A   1      41.293  30.595  32.832  1.00  0.00    -0.248 NA
ATOM     53  C   UNL A   1      41.090  31.725  30.795  1.00  0.00     0.031 C 
ATOM     54  C   UNL A   1      45.406  28.085  31.751  1.00  0.00     0.029 A 
ATOM     55  C   UNL A   1      44.598  29.225  31.727  1.00  0.00     0.049 A 
ATOM     56  H   UNL A   1      44.965  30.927  30.540  1.00  0.00     0.167 HD
ATOM     57  C   UNL A   1      42.524  30.537  32.193  1.00  0.00     0.074 A 
ATOM     58  C   UNL A   1      42.349  31.302  30.955  1.00  0.00     0.031 C 
ATOM     59  C   UNL A   1      43.461  29.605  32.545  1.00  0.00     0.031 A 
BRANCH  46  60
ATOM     60  C   UNL A   1      45.707  30.452  27.589  1.00  0.00    -0.014 A 
ATOM     61  C   UNL A   1      44.744  31.417  27.218  1.00  0.00     0.010 A 
ATOM     62  C   UNL A   1      47.056  30.791  27.379  1.00  0.00     0.010 A 
ATOM     63  C   UNL A   1      45.092  32.639  26.646  1.00  0.00     0.020 A 
ATOM     64  C   UNL A   1      47.421  32.034  26.840  1.00  0.00     0.020 A 
ATOM     65  C   UNL A   1      46.434  32.943  26.465  1.00  0.00     0.054 A 
BRANCH  65  66
ATOM     66  S   UNL A   1      46.850  34.554  25.760  1.00  0.00     0.124 S 
ATOM     67  O   UNL A   1      45.894  34.651  24.659  1.00  0.00    -0.237 OA
ATOM     68  O   UNL A   1      46.614  35.457  26.882  1.00  0.00    -0.237 OA
ATOM     69  O   UNL A   1      48.246  34.401  25.362  1.00  0.00    -0.744 OA
ENDBRANCH  65  66
ENDBRANCH  46  60
BRANCH  47  70
ATOM     70  C   UNL A   1      37.916  31.297  31.458  1.00  0.00    -0.014 A 
ATOM     71  C   UNL A   1      38.008  32.698  31.588  1.00  0.00     0.010 A 
ATOM     72  C   UNL A   1      36.622  30.736  31.424  1.00  0.00     0.010 A 
ATOM     73  C   UNL A   1      36.873  33.494  31.787  1.00  0.00     0.020 A 
ATOM     74  C   UNL A   1      35.473  31.530  31.621  1.00  0.00     0.020 A 
ATOM     75  C   UNL A   1      35.615  32.899  31.851  1.00  0.00     0.054 A 
BRANCH  75  76
ATOM     76  S   UNL A   1      34.208  33.932  32.362  1.00  0.00     0.124 S 
ATOM     77  O   UNL A   1      33.654  34.345  31.075  1.00  0.00    -0.237 OA
ATOM     78  O   UNL A   1      33.386  32.996  33.125  1.00  0.00    -0.237 OA
ATOM     79  O   UNL A   1      34.825  34.997  33.148  1.00  0.00    -0.744 OA
ENDBRANCH  75  76
ENDBRANCH  47  70
BRANCH  59  80
ATOM     80  C   UNL A   1      43.223  28.736  33.770  1.00  0.00    -0.014 A 
ATOM     81  C   UNL A   1      43.999  29.033  34.904  1.00  0.00     0.010 A 
ATOM     82  C   UNL A   1      42.477  27.536  33.773  1.00  0.00     0.010 A 
ATOM     83  C   UNL A   1      44.075  28.151  35.982  1.00  0.00     0.020 A 
ATOM     84  C   UNL A   1      42.526  26.656  34.871  1.00  0.00     0.020 A 
ATOM     85  C   UNL A   1      43.345  26.962  35.959  1.00  0.00     0.054 A 
BRANCH  85  86
ATOM     86  S   UNL A   1      43.514  25.843  37.377  1.00  0.00     0.124 S 
ATOM     87  O   UNL A   1      44.771  25.156  37.084  1.00  0.00    -0.237 OA
ATOM     88  O   UNL A   1      43.562  26.767  38.509  1.00  0.00    -0.237 OA
ATOM     89  O   UNL A   1      42.319  25.005  37.314  1.00  0.00    -0.744 OA
ENDBRANCH  85  86
ENDBRANCH  59  80
ENDBRANCH  33  34
ENDBRANCH  25  28
ENDBRANCH   1  24
TORSDOF 14
ENDMDL
MODEL 3
REMARK VINA RESULT:     -14.1      2.498      9.071
REMARK SMILES Cc1ccn2c([C@@H]3CCCC[C@@H]3C(=O)NCCCNC(=O)c3ccc(-c4c5nc(c(-c6ccc(S(=O)(=O)[O-])cc6)c6ccc([nH]6)c(-c6ccc(S(=O)(=O)[O-])cc6)c6nc(c(-c7ccc(S(=O)(=O)[O-])cc7)c7ccc4[nH]7)C=C6)C=C5)cc3)nnc2c1
REMARK SMILES IDX 18 1 17 2 16 3 15 4 13 5 14 6 12 8 7 9 8 10 9 11 11 12 10 13
REMARK SMILES IDX 6 14 1 15 2 16 3 17 85 18 4 19 84 20 5 21 83 22 82 23 19 24
REMARK SMILES IDX 20 25 21 27 22 28 23 29 81 30 24 31 80 32 25 33 26 34 27 35
REMARK SMILES IDX 74 36 28 37 79 38 73 39 75 40 29 41 78 42 72 43 71 44 30 46
REMARK SMILES IDX 60 47 41 48 59 49 42 50 45 51 58 52 76 53 43 54 44 55 57 57
REMARK SMILES IDX 77 58 46 59 31 60 32 61 40 62 33 63 39 64 34 65 35 66 36 67
REMARK SMILES IDX 37 68 38 69 61 70 62 71 70 72 63 73 69 74 64 75 65 76 66 77
REMARK SMILES IDX 67 78 68 79 47 80 48 81 56 82 49 83 55 84 50 85 51 86 52 87
REMARK SMILES IDX 53 88 54 89
REMARK H PARENT 15 7 19 26 75 45 45 56
REMARK Flexibility Score: inf
ROOT
ATOM      1  C   UNL A   1      37.340  21.480  25.711  1.00  0.00     0.118 C 
ENDROOT
BRANCH   1   2
ATOM      2  C   UNL A   1      36.040  22.520  26.213  1.00  0.00     0.042 C 
BRANCH   2   3
ATOM      3  C   UNL A   1      35.196  24.396  25.441  1.00  0.00     0.117 C 
BRANCH   3   4
ATOM      4  N   UNL A   1      34.660  24.806  24.026  1.00  0.00    -0.356 N 
ATOM      5  C   UNL A   1      33.861  25.785  23.546  1.00  0.00     0.223 C 
ATOM      6  O   UNL A   1      33.721  25.742  22.316  1.00  0.00    -0.275 OA
ATOM      7  H   UNL A   1      34.986  24.207  23.316  1.00  0.00     0.163 HD
BRANCH   5   8
ATOM      8  C   UNL A   1      33.244  26.932  24.392  1.00  0.00     0.089 C 
ATOM      9  C   UNL A   1      31.717  27.038  24.695  1.00  0.00     0.071 C 
ATOM     10  C   UNL A   1      30.843  27.377  23.484  1.00  0.00     0.012 C 
ATOM     11  C   UNL A   1      31.357  28.595  22.722  1.00  0.00     0.001 C 
ATOM     12  C   UNL A   1      33.656  28.260  23.711  1.00  0.00     0.014 C 
ATOM     13  C   UNL A   1      32.849  28.501  22.430  1.00  0.00     0.001 C 
BRANCH   9  14
ATOM     14  C   UNL A   1      31.209  25.889  25.498  1.00  0.00     0.141 A 
ATOM     15  C   UNL A   1      32.770  20.208  23.707  1.00  0.00     0.044 C 
ATOM     16  C   UNL A   1      32.210  21.490  24.261  1.00  0.00    -0.046 A 
ATOM     17  C   UNL A   1      31.570  22.633  22.884  1.00  0.00     0.022 A 
ATOM     18  C   UNL A   1      32.158  21.966  25.834  1.00  0.00     0.053 A 
ATOM     19  C   UNL A   1      30.995  24.084  23.218  1.00  0.00     0.095 A 
ATOM     20  C   UNL A   1      31.521  23.633  26.267  1.00  0.00     0.161 A 
ATOM     21  N   UNL A   1      30.997  24.663  24.921  1.00  0.00    -0.286 N 
ATOM     22  N   UNL A   1      31.521  24.458  27.290  1.00  0.00    -0.130 NA
ATOM     23  N   UNL A   1      31.304  25.778  26.821  1.00  0.00    -0.134 NA
ENDBRANCH   9  14
ENDBRANCH   5   8
ENDBRANCH   3   4
ENDBRANCH   2   3
ENDBRANCH   1   2
BRANCH   1  24
ATOM     24  N   UNL A   1      38.577  22.215  25.465  1.00  0.00    -0.352 N 
ATOM     25  C   UNL A   1      39.754  22.070  26.146  1.00  0.00     0.251 C 
ATOM     26  H   UNL A   1      38.563  22.880  24.740  1.00  0.00     0.163 HD
ATOM     27  O   UNL A   1      40.685  21.358  25.813  1.00  0.00    -0.269 OA
BRANCH  25  28
ATOM     28  C   UNL A   1      39.874  23.177  27.095  1.00  0.00     0.039 A 
ATOM     29  C   UNL A   1      39.187  24.349  26.750  1.00  0.00     0.014 A 
ATOM     30  C   UNL A   1      40.967  23.161  27.958  1.00  0.00     0.014 A 
ATOM     31  C   UNL A   1      39.709  25.554  27.139  1.00  0.00     0.010 A 
ATOM     32  C   UNL A   1      41.426  24.366  28.438  1.00  0.00     0.010 A 
ATOM     33  C   UNL A   1      40.817  25.548  27.995  1.00  0.00    -0.014 A 
BRANCH  33  34
ATOM     34  C   UNL A   1      41.021  26.756  28.775  1.00  0.00     0.031 A 
ATOM     35  C   UNL A   1      42.226  27.483  28.251  1.00  0.00     0.074 A 
ATOM     36  C   UNL A   1      40.099  27.188  29.656  1.00  0.00     0.049 A 
ATOM     37  N   UNL A   1      43.321  27.744  28.885  1.00  0.00    -0.248 NA
ATOM     38  C   UNL A   1      42.354  27.652  26.778  1.00  0.00     0.031 C 
ATOM     39  C   UNL A   1      38.816  26.573  30.002  1.00  0.00     0.029 A 
ATOM     40  N   UNL A   1      40.040  28.358  30.332  1.00  0.00    -0.354 N 
ATOM     41  C   UNL A   1      44.146  28.360  27.948  1.00  0.00     0.074 A 
ATOM     42  C   UNL A   1      43.630  28.013  26.657  1.00  0.00     0.031 C 
ATOM     43  C   UNL A   1      38.008  27.505  30.561  1.00  0.00     0.029 A 
ATOM     44  C   UNL A   1      38.761  28.736  30.731  1.00  0.00     0.049 A 
ATOM     45  H   UNL A   1      40.839  28.900  30.525  1.00  0.00     0.167 HD
ATOM     46  C   UNL A   1      44.970  29.381  28.309  1.00  0.00     0.031 A 
ATOM     47  C   UNL A   1      38.364  29.995  31.070  1.00  0.00     0.031 A 
ATOM     48  C   UNL A   1      45.192  29.376  29.731  1.00  0.00     0.049 A 
ATOM     49  C   UNL A   1      39.609  30.766  31.344  1.00  0.00     0.074 A 
ATOM     50  C   UNL A   1      45.734  28.446  30.595  1.00  0.00     0.029 A 
ATOM     51  N   UNL A   1      44.388  30.199  30.488  1.00  0.00    -0.354 N 
ATOM     52  N   UNL A   1      40.407  30.484  32.338  1.00  0.00    -0.248 NA
ATOM     53  C   UNL A   1      40.228  31.458  30.220  1.00  0.00     0.031 C 
ATOM     54  C   UNL A   1      44.865  28.452  31.721  1.00  0.00     0.029 A 
ATOM     55  C   UNL A   1      43.930  29.478  31.563  1.00  0.00     0.049 A 
ATOM     56  H   UNL A   1      44.179  31.140  30.292  1.00  0.00     0.167 HD
ATOM     57  C   UNL A   1      41.682  30.543  31.793  1.00  0.00     0.074 A 
ATOM     58  C   UNL A   1      41.512  31.207  30.496  1.00  0.00     0.031 C 
ATOM     59  C   UNL A   1      42.695  29.760  32.272  1.00  0.00     0.031 A 
BRANCH  46  60
ATOM     60  C   UNL A   1      45.200  30.590  27.439  1.00  0.00    -0.014 A 
ATOM     61  C   UNL A   1      44.166  31.445  26.997  1.00  0.00     0.010 A 
ATOM     62  C   UNL A   1      46.519  31.037  27.240  1.00  0.00     0.010 A 
ATOM     63  C   UNL A   1      44.420  32.662  26.368  1.00  0.00     0.020 A 
ATOM     64  C   UNL A   1      46.787  32.278  26.644  1.00  0.00     0.020 A 
ATOM     65  C   UNL A   1      45.734  33.075  26.199  1.00  0.00     0.054 A 
BRANCH  65  66
ATOM     66  S   UNL A   1      46.024  34.679  25.419  1.00  0.00     0.124 S 
ATOM     67  O   UNL A   1      47.471  34.654  25.222  1.00  0.00    -0.237 OA
ATOM     68  O   UNL A   1      45.220  34.587  24.204  1.00  0.00    -0.237 OA
ATOM     69  O   UNL A   1      45.546  35.634  26.415  1.00  0.00    -0.744 OA
ENDBRANCH  65  66
ENDBRANCH  46  60
BRANCH  47  70
ATOM     70  C   UNL A   1      37.087  30.674  30.687  1.00  0.00    -0.014 A 
ATOM     71  C   UNL A   1      36.738  30.799  29.327  1.00  0.00     0.010 A 
ATOM     72  C   UNL A   1      36.384  31.476  31.611  1.00  0.00     0.010 A 
ATOM     73  C   UNL A   1      35.812  31.756  28.892  1.00  0.00     0.020 A 
ATOM     74  C   UNL A   1      35.448  32.440  31.181  1.00  0.00     0.020 A 
ATOM     75  C   UNL A   1      35.208  32.605  29.817  1.00  0.00     0.054 A 
BRANCH  75  76
ATOM     76  S   UNL A   1      34.214  33.989  29.183  1.00  0.00     0.124 S 
ATOM     77  O   UNL A   1      33.501  34.423  30.381  1.00  0.00    -0.237 OA
ATOM     78  O   UNL A   1      35.233  34.913  28.692  1.00  0.00    -0.237 OA
ATOM     79  O   UNL A   1      33.384  33.377  28.148  1.00  0.00    -0.744 OA
ENDBRANCH  75  76
ENDBRANCH  47  70
BRANCH  59  80
ATOM     80  C   UNL A   1      42.469  28.941  33.534  1.00  0.00    -0.014 A 
ATOM     81  C   UNL A   1      43.162  29.363  34.681  1.00  0.00     0.010 A 
ATOM     82  C   UNL A   1      41.824  27.685  33.573  1.00  0.00     0.010 A 
ATOM     83  C   UNL A   1      43.258  28.550  35.810  1.00  0.00     0.020 A 
ATOM     84  C   UNL A   1      41.891  26.872  34.721  1.00  0.00     0.020 A 
ATOM     85  C   UNL A   1      42.629  27.304  35.824  1.00  0.00     0.054 A 
BRANCH  85  86
ATOM     86  S   UNL A   1      42.819  26.281  37.310  1.00  0.00     0.124 S 
ATOM     87  O   UNL A   1      43.357  25.036  36.765  1.00  0.00    -0.237 OA
ATOM     88  O   UNL A   1      43.758  27.060  38.116  1.00  0.00    -0.237 OA
ATOM     89  O   UNL A   1      41.468  26.189  37.856  1.00  0.00    -0.744 OA
ENDBRANCH  85  86
ENDBRANCH  59  80
ENDBRANCH  33  34
ENDBRANCH  25  28
ENDBRANCH   1  24
TORSDOF 14
ENDMDL
