MODEL 1
REMARK VINA RESULT:      -9.5      0.000      0.000
REMARK SMILES CC[C@H](CCO)CNc1cc(C(=O)NCCCNC(=O)c2ccc(-c3c4nc(c(-c5ccc(S(=O)(=O)[O-])cc5)c5ccc([nH]5)c(-c5ccc(S(=O)(=O)[O-])cc5)c5nc(c(-c6ccc(S(=O)(=O)[O-])cc6)c6ccc3[nH]6)C=C5)C=C4)cc2)ccn1
REMARK SMILES IDX 12 1 13 2 14 3 11 5 9 6 10 7 83 8 82 9 81 10 8 11 7 13 3 14
REMARK SMILES IDX 2 15 1 16 4 17 5 18 6 19 15 21 16 22 17 23 18 24 19 25 20 27
REMARK SMILES IDX 21 28 22 29 80 30 23 31 79 32 24 33 25 34 26 35 73 36 27 37
REMARK SMILES IDX 78 38 72 39 74 40 28 41 77 42 71 43 70 44 29 46 59 47 40 48
REMARK SMILES IDX 58 49 41 50 44 51 57 52 75 53 42 54 43 55 56 57 76 58 45 59
REMARK SMILES IDX 30 60 31 61 39 62 32 63 38 64 33 65 34 66 35 67 36 68 37 69
REMARK SMILES IDX 60 70 61 71 69 72 62 73 68 74 63 75 64 76 65 77 66 78 67 79
REMARK SMILES IDX 46 80 47 81 55 82 48 83 54 84 49 85 50 86 51 87 52 88 53 89
REMARK H PARENT 14 4 8 12 6 20 18 26 74 45 44 56
REMARK Flexibility Score: inf
ROOT
ATOM      1  C   UNL A   1      33.167  35.918  29.295  1.00  0.00     0.251 C 
ATOM      2  O   UNL A   1      32.149  36.460  28.861  1.00  0.00    -0.269 OA
ATOM      3  N   UNL A   1      33.976  35.290  28.384  1.00  0.00    -0.352 N 
ATOM      4  H   UNL A   1      33.628  35.324  27.463  1.00  0.00     0.163 HD
ENDROOT
BRANCH   1   5
ATOM      5  C   UNL A   1      33.484  36.046  30.743  1.00  0.00     0.044 A 
ATOM      6  C   UNL A   1      34.426  35.318  32.822  1.00  0.00     0.126 A 
ATOM      7  C   UNL A   1      33.976  35.022  31.546  1.00  0.00     0.060 A 
ATOM      8  N   UNL A   1      34.242  36.526  33.383  1.00  0.00    -0.240 NA
ATOM      9  C   UNL A   1      33.656  37.483  32.636  1.00  0.00     0.114 A 
ATOM     10  C   UNL A   1      33.293  37.304  31.318  1.00  0.00     0.034 A 
BRANCH   6  11
ATOM     11  N   UNL A   1      35.156  34.431  33.586  1.00  0.00    -0.370 N 
ATOM     12  H   UNL A   1      35.683  34.762  34.349  1.00  0.00     0.162 HD
BRANCH  11  13
ATOM     13  C   UNL A   1      35.155  33.007  33.273  1.00  0.00     0.118 C 
BRANCH  13  14
ATOM     14  C   UNL A   1      36.530  32.368  33.541  1.00  0.00     0.010 C 
BRANCH  14  15
ATOM     15  C   UNL A   1      37.654  33.430  33.411  1.00  0.00     0.002 C 
ATOM     16  C   UNL A   1      38.506  33.617  34.665  1.00  0.00     0.004 C 
ENDBRANCH  14  15
BRANCH  14  17
ATOM     17  C   UNL A   1      36.908  31.118  32.705  1.00  0.00     0.033 C 
BRANCH  17  18
ATOM     18  C   UNL A   1      37.899  30.124  33.296  1.00  0.00     0.156 C 
BRANCH  18  19
ATOM     19  O   UNL A   1      37.780  30.075  34.708  1.00  0.00    -0.396 OA
ATOM     20  H   UNL A   1      36.854  29.919  34.949  1.00  0.00     0.210 HD
ENDBRANCH  18  19
ENDBRANCH  17  18
ENDBRANCH  14  17
ENDBRANCH  13  14
ENDBRANCH  11  13
ENDBRANCH   6  11
ENDBRANCH   1   5
BRANCH   3  21
ATOM     21  C   UNL A   1      35.240  34.585  28.497  1.00  0.00     0.118 C 
BRANCH  21  22
ATOM     22  C   UNL A   1      35.110  33.144  28.001  1.00  0.00     0.042 C 
BRANCH  22  23
ATOM     23  C   UNL A   1      34.702  32.171  29.106  1.00  0.00     0.118 C 
BRANCH  23  24
ATOM     24  N   UNL A   1      34.152  30.938  28.560  1.00  0.00    -0.352 N 
ATOM     25  C   UNL A   1      34.790  29.835  28.052  1.00  0.00     0.251 C 
ATOM     26  H   UNL A   1      33.168  30.889  28.554  1.00  0.00     0.163 HD
ATOM     27  O   UNL A   1      34.140  29.006  27.421  1.00  0.00    -0.269 OA
BRANCH  25  28
ATOM     28  C   UNL A   1      36.242  29.642  28.256  1.00  0.00     0.039 A 
ATOM     29  C   UNL A   1      36.692  29.202  29.504  1.00  0.00     0.014 A 
ATOM     30  C   UNL A   1      37.161  29.941  27.246  1.00  0.00     0.014 A 
ATOM     31  C   UNL A   1      38.059  29.016  29.723  1.00  0.00     0.010 A 
ATOM     32  C   UNL A   1      38.517  29.687  27.443  1.00  0.00     0.010 A 
ATOM     33  C   UNL A   1      38.980  29.229  28.685  1.00  0.00    -0.014 A 
BRANCH  33  34
ATOM     34  C   UNL A   1      40.431  28.976  28.878  1.00  0.00     0.031 A 
ATOM     35  C   UNL A   1      41.019  27.633  28.537  1.00  0.00     0.074 A 
ATOM     36  C   UNL A   1      41.205  29.938  29.418  1.00  0.00     0.049 A 
ATOM     37  N   UNL A   1      42.245  27.207  28.696  1.00  0.00    -0.248 NA
ATOM     38  C   UNL A   1      40.106  26.632  27.962  1.00  0.00     0.031 C 
ATOM     39  C   UNL A   1      40.744  31.268  29.825  1.00  0.00     0.029 A 
ATOM     40  N   UNL A   1      42.543  29.944  29.726  1.00  0.00    -0.354 N 
ATOM     41  C   UNL A   1      42.248  25.887  28.259  1.00  0.00     0.074 A 
ATOM     42  C   UNL A   1      40.891  25.568  27.872  1.00  0.00     0.031 C 
ATOM     43  C   UNL A   1      41.784  31.966  30.306  1.00  0.00     0.029 A 
ATOM     44  C   UNL A   1      42.975  31.124  30.284  1.00  0.00     0.049 A 
ATOM     45  H   UNL A   1      43.136  29.176  29.563  1.00  0.00     0.167 HD
ATOM     46  C   UNL A   1      43.289  25.023  28.172  1.00  0.00     0.031 A 
ATOM     47  C   UNL A   1      44.191  31.486  30.738  1.00  0.00     0.031 A 
ATOM     48  C   UNL A   1      44.639  25.350  28.550  1.00  0.00     0.049 A 
ATOM     49  C   UNL A   1      45.328  30.505  30.641  1.00  0.00     0.074 A 
ATOM     50  C   UNL A   1      45.773  24.564  28.452  1.00  0.00     0.029 A 
ATOM     51  N   UNL A   1      45.037  26.560  29.099  1.00  0.00    -0.354 N 
ATOM     52  N   UNL A   1      45.322  29.281  30.167  1.00  0.00    -0.248 NA
ATOM     53  C   UNL A   1      46.638  30.957  31.128  1.00  0.00     0.031 C 
ATOM     54  C   UNL A   1      46.848  25.278  28.991  1.00  0.00     0.029 A 
ATOM     55  C   UNL A   1      46.396  26.533  29.366  1.00  0.00     0.049 A 
ATOM     56  H   UNL A   1      44.442  27.324  29.274  1.00  0.00     0.167 HD
ATOM     57  C   UNL A   1      46.633  28.829  30.272  1.00  0.00     0.074 A 
ATOM     58  C   UNL A   1      47.405  29.916  30.839  1.00  0.00     0.031 C 
ATOM     59  C   UNL A   1      47.150  27.624  29.929  1.00  0.00     0.031 A 
BRANCH  46  60
ATOM     60  C   UNL A   1      43.008  23.639  27.647  1.00  0.00    -0.014 A 
ATOM     61  C   UNL A   1      42.590  22.607  28.507  1.00  0.00     0.010 A 
ATOM     62  C   UNL A   1      43.113  23.378  26.268  1.00  0.00     0.010 A 
ATOM     63  C   UNL A   1      42.320  21.331  28.005  1.00  0.00     0.020 A 
ATOM     64  C   UNL A   1      42.815  22.111  25.757  1.00  0.00     0.020 A 
ATOM     65  C   UNL A   1      42.436  21.091  26.633  1.00  0.00     0.054 A 
BRANCH  65  66
ATOM     66  S   UNL A   1      42.049  19.432  26.007  1.00  0.00     0.124 S 
ATOM     67  O   UNL A   1      42.429  18.589  27.137  1.00  0.00    -0.237 OA
ATOM     68  O   UNL A   1      40.616  19.516  25.742  1.00  0.00    -0.237 OA
ATOM     69  O   UNL A   1      42.894  19.302  24.822  1.00  0.00    -0.744 OA
ENDBRANCH  65  66
ENDBRANCH  46  60
BRANCH  47  70
ATOM     70  C   UNL A   1      44.397  32.841  31.317  1.00  0.00    -0.014 A 
ATOM     71  C   UNL A   1      44.238  33.059  32.698  1.00  0.00     0.010 A 
ATOM     72  C   UNL A   1      44.759  33.922  30.493  1.00  0.00     0.010 A 
ATOM     73  C   UNL A   1      44.414  34.336  33.239  1.00  0.00     0.020 A 
ATOM     74  C   UNL A   1      44.965  35.194  31.034  1.00  0.00     0.020 A 
ATOM     75  C   UNL A   1      44.776  35.396  32.402  1.00  0.00     0.054 A 
BRANCH  75  76
ATOM     76  S   UNL A   1      45.036  37.036  33.132  1.00  0.00     0.124 S 
ATOM     77  O   UNL A   1      46.127  37.561  32.318  1.00  0.00    -0.237 OA
ATOM     78  O   UNL A   1      43.737  37.677  32.939  1.00  0.00    -0.237 OA
ATOM     79  O   UNL A   1      45.377  36.742  34.523  1.00  0.00    -0.744 OA
ENDBRANCH  75  76
ENDBRANCH  47  70
BRANCH  59  80
ATOM     80  C   UNL A   1      48.631  27.426  30.119  1.00  0.00    -0.014 A 
ATOM     81  C   UNL A   1      49.553  27.815  29.133  1.00  0.00     0.010 A 
ATOM     82  C   UNL A   1      49.107  26.890  31.330  1.00  0.00     0.010 A 
ATOM     83  C   UNL A   1      50.924  27.644  29.341  1.00  0.00     0.020 A 
ATOM     84  C   UNL A   1      50.477  26.745  31.554  1.00  0.00     0.020 A 
ATOM     85  C   UNL A   1      51.377  27.110  30.552  1.00  0.00     0.054 A 
BRANCH  85  86
ATOM     86  S   UNL A   1      53.164  26.940  30.816  1.00  0.00     0.124 S 
ATOM     87  O   UNL A   1      53.542  28.292  31.217  1.00  0.00    -0.237 OA
ATOM     88  O   UNL A   1      53.238  25.928  31.868  1.00  0.00    -0.237 OA
ATOM     89  O   UNL A   1      53.668  26.512  29.513  1.00  0.00    -0.744 OA
ENDBRANCH  85  86
ENDBRANCH  59  80
ENDBRANCH  33  34
ENDBRANCH  25  28
ENDBRANCH  23  24
ENDBRANCH  22  23
ENDBRANCH  21  22
ENDBRANCH   3  21
TORSDOF 20
ENDMDL
MODEL 2
REMARK VINA RESULT:      -9.4      0.898      8.402
REMARK SMILES CC[C@H](CCO)CNc1cc(C(=O)NCCCNC(=O)c2ccc(-c3c4nc(c(-c5ccc(S(=O)(=O)[O-])cc5)c5ccc([nH]5)c(-c5ccc(S(=O)(=O)[O-])cc5)c5nc(c(-c6ccc(S(=O)(=O)[O-])cc6)c6ccc3[nH]6)C=C5)C=C4)cc2)ccn1
REMARK SMILES IDX 12 1 13 2 14 3 11 5 9 6 10 7 83 8 82 9 81 10 8 11 7 13 3 14
REMARK SMILES IDX 2 15 1 16 4 17 5 18 6 19 15 21 16 22 17 23 18 24 19 25 20 27
REMARK SMILES IDX 21 28 22 29 80 30 23 31 79 32 24 33 25 34 26 35 73 36 27 37
REMARK SMILES IDX 78 38 72 39 74 40 28 41 77 42 71 43 70 44 29 46 59 47 40 48
REMARK SMILES IDX 58 49 41 50 44 51 57 52 75 53 42 54 43 55 56 57 76 58 45 59
REMARK SMILES IDX 30 60 31 61 39 62 32 63 38 64 33 65 34 66 35 67 36 68 37 69
REMARK SMILES IDX 60 70 61 71 69 72 62 73 68 74 63 75 64 76 65 77 66 78 67 79
REMARK SMILES IDX 46 80 47 81 55 82 48 83 54 84 49 85 50 86 51 87 52 88 53 89
REMARK H PARENT 14 4 8 12 6 20 18 26 74 45 44 56
REMARK Flexibility Score: inf
ROOT
ATOM      1  C   UNL A   1      33.202  35.935  29.366  1.00  0.00     0.251 C 
ATOM      2  O   UNL A   1      32.155  36.443  28.962  1.00  0.00    -0.269 OA
ATOM      3  N   UNL A   1      34.036  35.391  28.424  1.00  0.00    -0.352 N 
ATOM      4  H   UNL A   1      33.681  35.449  27.507  1.00  0.00     0.163 HD
ENDROOT
BRANCH   1   5
ATOM      5  C   UNL A   1      33.523  36.014  30.817  1.00  0.00     0.044 A 
ATOM      6  C   UNL A   1      34.404  35.184  32.884  1.00  0.00     0.126 A 
ATOM      7  C   UNL A   1      33.939  34.944  31.601  1.00  0.00     0.060 A 
ATOM      8  N   UNL A   1      34.303  36.391  33.467  1.00  0.00    -0.240 NA
ATOM      9  C   UNL A   1      33.788  37.401  32.737  1.00  0.00     0.114 A 
ATOM     10  C   UNL A   1      33.419  37.271  31.415  1.00  0.00     0.034 A 
BRANCH   6  11
ATOM     11  N   UNL A   1      35.068  34.234  33.632  1.00  0.00    -0.370 N 
ATOM     12  H   UNL A   1      34.563  33.494  34.043  1.00  0.00     0.162 HD
BRANCH  11  13
ATOM     13  C   UNL A   1      36.512  34.314  33.822  1.00  0.00     0.118 C 
BRANCH  13  14
ATOM     14  C   UNL A   1      37.095  32.970  34.294  1.00  0.00     0.010 C 
BRANCH  14  15
ATOM     15  C   UNL A   1      38.006  33.182  35.532  1.00  0.00     0.002 C 
ATOM     16  C   UNL A   1      37.269  33.575  36.811  1.00  0.00     0.004 C 
ENDBRANCH  14  15
BRANCH  14  17
ATOM     17  C   UNL A   1      37.849  32.113  33.244  1.00  0.00     0.033 C 
BRANCH  17  18
ATOM     18  C   UNL A   1      37.527  30.627  33.156  1.00  0.00     0.156 C 
BRANCH  18  19
ATOM     19  O   UNL A   1      38.715  29.862  33.041  1.00  0.00    -0.396 OA
ATOM     20  H   UNL A   1      38.545  29.083  32.488  1.00  0.00     0.210 HD
ENDBRANCH  18  19
ENDBRANCH  17  18
ENDBRANCH  14  17
ENDBRANCH  13  14
ENDBRANCH  11  13
ENDBRANCH   6  11
ENDBRANCH   1   5
BRANCH   3  21
ATOM     21  C   UNL A   1      35.335  34.747  28.498  1.00  0.00     0.118 C 
BRANCH  21  22
ATOM     22  C   UNL A   1      35.259  33.300  28.009  1.00  0.00     0.042 C 
BRANCH  22  23
ATOM     23  C   UNL A   1      34.522  32.383  28.984  1.00  0.00     0.118 C 
BRANCH  23  24
ATOM     24  N   UNL A   1      33.958  31.223  28.307  1.00  0.00    -0.352 N 
ATOM     25  C   UNL A   1      34.577  30.102  27.812  1.00  0.00     0.251 C 
ATOM     26  H   UNL A   1      32.982  31.247  28.186  1.00  0.00     0.163 HD
ATOM     27  O   UNL A   1      33.951  29.357  27.063  1.00  0.00    -0.269 OA
BRANCH  25  28
ATOM     28  C   UNL A   1      35.978  29.793  28.169  1.00  0.00     0.039 A 
ATOM     29  C   UNL A   1      36.258  29.344  29.462  1.00  0.00     0.014 A 
ATOM     30  C   UNL A   1      37.018  29.992  27.257  1.00  0.00     0.014 A 
ATOM     31  C   UNL A   1      37.574  29.049  29.825  1.00  0.00     0.010 A 
ATOM     32  C   UNL A   1      38.320  29.629  27.597  1.00  0.00     0.010 A 
ATOM     33  C   UNL A   1      38.612  29.161  28.887  1.00  0.00    -0.014 A 
BRANCH  33  34
ATOM     34  C   UNL A   1      40.008  28.791  29.234  1.00  0.00     0.031 A 
ATOM     35  C   UNL A   1      40.913  29.788  29.907  1.00  0.00     0.074 A 
ATOM     36  C   UNL A   1      40.476  27.575  28.887  1.00  0.00     0.049 A 
ATOM     37  N   UNL A   1      42.175  29.668  30.228  1.00  0.00    -0.248 NA
ATOM     38  C   UNL A   1      40.330  31.097  30.243  1.00  0.00     0.031 C 
ATOM     39  C   UNL A   1      39.707  26.536  28.198  1.00  0.00     0.029 A 
ATOM     40  N   UNL A   1      41.715  27.010  29.060  1.00  0.00    -0.354 N 
ATOM     41  C   UNL A   1      42.542  30.887  30.787  1.00  0.00     0.074 A 
ATOM     42  C   UNL A   1      41.382  31.749  30.717  1.00  0.00     0.031 C 
ATOM     43  C   UNL A   1      40.483  25.454  28.028  1.00  0.00     0.029 A 
ATOM     44  C   UNL A   1      41.814  25.735  28.554  1.00  0.00     0.049 A 
ATOM     45  H   UNL A   1      42.461  27.474  29.503  1.00  0.00     0.167 HD
ATOM     46  C   UNL A   1      43.732  31.251  31.325  1.00  0.00     0.031 A 
ATOM     47  C   UNL A   1      42.862  24.890  28.508  1.00  0.00     0.031 A 
ATOM     48  C   UNL A   1      44.879  30.386  31.399  1.00  0.00     0.049 A 
ATOM     49  C   UNL A   1      44.176  25.322  29.100  1.00  0.00     0.074 A 
ATOM     50  C   UNL A   1      46.113  30.642  31.970  1.00  0.00     0.029 A 
ATOM     51  N   UNL A   1      44.935  29.098  30.886  1.00  0.00    -0.354 N 
ATOM     52  N   UNL A   1      44.484  26.459  29.680  1.00  0.00    -0.248 NA
ATOM     53  C   UNL A   1      45.279  24.354  29.046  1.00  0.00     0.031 C 
ATOM     54  C   UNL A   1      46.933  29.529  31.755  1.00  0.00     0.029 A 
ATOM     55  C   UNL A   1      46.190  28.555  31.107  1.00  0.00     0.049 A 
ATOM     56  H   UNL A   1      44.193  28.638  30.432  1.00  0.00     0.167 HD
ATOM     57  C   UNL A   1      45.809  26.330  30.084  1.00  0.00     0.074 A 
ATOM     58  C   UNL A   1      46.235  25.000  29.697  1.00  0.00     0.031 C 
ATOM     59  C   UNL A   1      46.599  27.230  30.718  1.00  0.00     0.031 A 
BRANCH  46  60
ATOM     60  C   UNL A   1      43.853  32.649  31.875  1.00  0.00    -0.014 A 
ATOM     61  C   UNL A   1      44.175  33.734  31.038  1.00  0.00     0.010 A 
ATOM     62  C   UNL A   1      43.591  32.891  33.236  1.00  0.00     0.010 A 
ATOM     63  C   UNL A   1      44.271  35.027  31.559  1.00  0.00     0.020 A 
ATOM     64  C   UNL A   1      43.657  34.188  33.755  1.00  0.00     0.020 A 
ATOM     65  C   UNL A   1      44.012  35.245  32.915  1.00  0.00     0.054 A 
BRANCH  65  66
ATOM     66  S   UNL A   1      44.115  36.940  33.556  1.00  0.00     0.124 S 
ATOM     67  O   UNL A   1      45.552  37.195  33.500  1.00  0.00    -0.237 OA
ATOM     68  O   UNL A   1      43.307  37.693  32.601  1.00  0.00    -0.237 OA
ATOM     69  O   UNL A   1      43.553  36.838  34.901  1.00  0.00    -0.744 OA
ENDBRANCH  65  66
ENDBRANCH  46  60
BRANCH  47  70
ATOM     70  C   UNL A   1      42.709  23.547  27.884  1.00  0.00    -0.014 A 
ATOM     71  C   UNL A   1      42.166  22.476  28.617  1.00  0.00     0.010 A 
ATOM     72  C   UNL A   1      43.099  23.332  26.550  1.00  0.00     0.010 A 
ATOM     73  C   UNL A   1      42.040  21.211  28.036  1.00  0.00     0.020 A 
ATOM     74  C   UNL A   1      42.946  22.076  25.956  1.00  0.00     0.020 A 
ATOM     75  C   UNL A   1      42.431  21.019  26.708  1.00  0.00     0.054 A 
BRANCH  75  76
ATOM     76  S   UNL A   1      42.222  19.378  25.963  1.00  0.00     0.124 S 
ATOM     77  O   UNL A   1      42.724  18.502  27.016  1.00  0.00    -0.237 OA
ATOM     78  O   UNL A   1      40.781  19.321  25.725  1.00  0.00    -0.237 OA
ATOM     79  O   UNL A   1      43.043  19.444  24.756  1.00  0.00    -0.744 OA
ENDBRANCH  75  76
ENDBRANCH  47  70
BRANCH  59  80
ATOM     80  C   UNL A   1      47.997  26.797  31.073  1.00  0.00    -0.014 A 
ATOM     81  C   UNL A   1      48.263  26.077  32.250  1.00  0.00     0.010 A 
ATOM     82  C   UNL A   1      49.051  27.069  30.182  1.00  0.00     0.010 A 
ATOM     83  C   UNL A   1      49.564  25.665  32.547  1.00  0.00     0.020 A 
ATOM     84  C   UNL A   1      50.349  26.632  30.460  1.00  0.00     0.020 A 
ATOM     85  C   UNL A   1      50.599  25.945  31.648  1.00  0.00     0.054 A 
BRANCH  85  86
ATOM     86  S   UNL A   1      52.272  25.358  32.034  1.00  0.00     0.124 S 
ATOM     87  O   UNL A   1      53.014  25.747  30.838  1.00  0.00    -0.237 OA
ATOM     88  O   UNL A   1      52.601  26.102  33.248  1.00  0.00    -0.237 OA
ATOM     89  O   UNL A   1      52.100  23.919  32.220  1.00  0.00    -0.744 OA
ENDBRANCH  85  86
ENDBRANCH  59  80
ENDBRANCH  33  34
ENDBRANCH  25  28
ENDBRANCH  23  24
ENDBRANCH  22  23
ENDBRANCH  21  22
ENDBRANCH   3  21
TORSDOF 20
ENDMDL
MODEL 3
REMARK VINA RESULT:      -9.4      5.077     11.455
REMARK SMILES CC[C@H](CCO)CNc1cc(C(=O)NCCCNC(=O)c2ccc(-c3c4nc(c(-c5ccc(S(=O)(=O)[O-])cc5)c5ccc([nH]5)c(-c5ccc(S(=O)(=O)[O-])cc5)c5nc(c(-c6ccc(S(=O)(=O)[O-])cc6)c6ccc3[nH]6)C=C5)C=C4)cc2)ccn1
REMARK SMILES IDX 12 1 13 2 14 3 11 5 9 6 10 7 83 8 82 9 81 10 8 11 7 13 3 14
REMARK SMILES IDX 2 15 1 16 4 17 5 18 6 19 15 21 16 22 17 23 18 24 19 25 20 27
REMARK SMILES IDX 21 28 22 29 80 30 23 31 79 32 24 33 25 34 26 35 73 36 27 37
REMARK SMILES IDX 78 38 72 39 74 40 28 41 77 42 71 43 70 44 29 46 59 47 40 48
REMARK SMILES IDX 58 49 41 50 44 51 57 52 75 53 42 54 43 55 56 57 76 58 45 59
REMARK SMILES IDX 30 60 31 61 39 62 32 63 38 64 33 65 34 66 35 67 36 68 37 69
REMARK SMILES IDX 60 70 61 71 69 72 62 73 68 74 63 75 64 76 65 77 66 78 67 79
REMARK SMILES IDX 46 80 47 81 55 82 48 83 54 84 49 85 50 86 51 87 52 88 53 89
REMARK H PARENT 14 4 8 12 6 20 18 26 74 45 44 56
REMARK Flexibility Score: inf
ROOT
ATOM      1  C   UNL A   1      32.618  23.982  24.077  1.00  0.00     0.251 C 
ATOM      2  O   UNL A   1      31.924  23.819  23.072  1.00  0.00    -0.269 OA
ATOM      3  N   UNL A   1      32.540  25.201  24.699  1.00  0.00    -0.352 N 
ATOM      4  H   UNL A   1      31.939  25.834  24.243  1.00  0.00     0.163 HD
ENDROOT
BRANCH   1   5
ATOM      5  C   UNL A   1      33.421  22.837  24.585  1.00  0.00     0.044 A 
ATOM      6  C   UNL A   1      33.719  20.679  25.583  1.00  0.00     0.126 A 
ATOM      7  C   UNL A   1      32.920  21.787  25.347  1.00  0.00     0.060 A 
ATOM      8  N   UNL A   1      35.023  20.655  25.256  1.00  0.00    -0.240 NA
ATOM      9  C   UNL A   1      35.531  21.729  24.620  1.00  0.00     0.114 A 
ATOM     10  C   UNL A   1      34.774  22.817  24.239  1.00  0.00     0.034 A 
BRANCH   6  11
ATOM     11  N   UNL A   1      33.230  19.498  26.101  1.00  0.00    -0.370 N 
ATOM     12  H   UNL A   1      33.271  19.335  27.071  1.00  0.00     0.162 HD
BRANCH  11  13
ATOM     13  C   UNL A   1      32.652  18.486  25.224  1.00  0.00     0.118 C 
BRANCH  13  14
ATOM     14  C   UNL A   1      33.727  17.524  24.685  1.00  0.00     0.010 C 
BRANCH  14  15
ATOM     15  C   UNL A   1      33.512  17.269  23.169  1.00  0.00     0.002 C 
ATOM     16  C   UNL A   1      32.443  18.144  22.517  1.00  0.00     0.004 C 
ENDBRANCH  14  15
BRANCH  14  17
ATOM     17  C   UNL A   1      33.897  16.167  25.415  1.00  0.00     0.033 C 
BRANCH  17  18
ATOM     18  C   UNL A   1      32.690  15.245  25.520  1.00  0.00     0.156 C 
BRANCH  18  19
ATOM     19  O   UNL A   1      33.096  13.887  25.548  1.00  0.00    -0.396 OA
ATOM     20  H   UNL A   1      33.487  13.684  26.412  1.00  0.00     0.210 HD
ENDBRANCH  18  19
ENDBRANCH  17  18
ENDBRANCH  14  17
ENDBRANCH  13  14
ENDBRANCH  11  13
ENDBRANCH   6  11
ENDBRANCH   1   5
BRANCH   3  21
ATOM     21  C   UNL A   1      33.161  25.751  25.890  1.00  0.00     0.118 C 
BRANCH  21  22
ATOM     22  C   UNL A   1      32.903  27.255  25.997  1.00  0.00     0.042 C 
BRANCH  22  23
ATOM     23  C   UNL A   1      34.168  28.052  26.315  1.00  0.00     0.118 C 
BRANCH  23  24
ATOM     24  N   UNL A   1      33.882  29.471  26.474  1.00  0.00    -0.352 N 
ATOM     25  C   UNL A   1      34.462  30.402  27.299  1.00  0.00     0.251 C 
ATOM     26  H   UNL A   1      33.160  29.817  25.900  1.00  0.00     0.163 HD
ATOM     27  O   UNL A   1      33.911  31.488  27.453  1.00  0.00    -0.269 OA
BRANCH  25  28
ATOM     28  C   UNL A   1      35.730  30.105  27.998  1.00  0.00     0.039 A 
ATOM     29  C   UNL A   1      35.676  29.533  29.273  1.00  0.00     0.014 A 
ATOM     30  C   UNL A   1      36.965  30.432  27.431  1.00  0.00     0.014 A 
ATOM     31  C   UNL A   1      36.860  29.246  29.957  1.00  0.00     0.010 A 
ATOM     32  C   UNL A   1      38.145  30.081  28.083  1.00  0.00     0.010 A 
ATOM     33  C   UNL A   1      38.104  29.491  29.355  1.00  0.00    -0.014 A 
BRANCH  33  34
ATOM     34  C   UNL A   1      39.373  29.134  30.039  1.00  0.00     0.031 A 
ATOM     35  C   UNL A   1      39.830  29.910  31.245  1.00  0.00     0.074 A 
ATOM     36  C   UNL A   1      40.142  28.148  29.535  1.00  0.00     0.049 A 
ATOM     37  N   UNL A   1      40.936  29.786  31.933  1.00  0.00    -0.248 NA
ATOM     38  C   UNL A   1      38.940  30.978  31.727  1.00  0.00     0.031 C 
ATOM     39  C   UNL A   1      39.825  27.348  28.349  1.00  0.00     0.029 A 
ATOM     40  N   UNL A   1      41.354  27.656  29.951  1.00  0.00    -0.354 N 
ATOM     41  C   UNL A   1      40.883  30.768  32.916  1.00  0.00     0.074 A 
ATOM     42  C   UNL A   1      39.659  31.510  32.706  1.00  0.00     0.031 C 
ATOM     43  C   UNL A   1      40.804  26.452  28.148  1.00  0.00     0.029 A 
ATOM     44  C   UNL A   1      41.838  26.639  29.160  1.00  0.00     0.049 A 
ATOM     45  H   UNL A   1      41.832  27.997  30.741  1.00  0.00     0.167 HD
ATOM     46  C   UNL A   1      41.765  31.019  33.914  1.00  0.00     0.031 A 
ATOM     47  C   UNL A   1      42.989  25.944  29.233  1.00  0.00     0.031 A 
ATOM     48  C   UNL A   1      42.977  30.271  34.123  1.00  0.00     0.049 A 
ATOM     49  C   UNL A   1      43.957  26.250  30.343  1.00  0.00     0.074 A 
ATOM     50  C   UNL A   1      43.911  30.413  35.134  1.00  0.00     0.029 A 
ATOM     51  N   UNL A   1      43.424  29.242  33.307  1.00  0.00    -0.354 N 
ATOM     52  N   UNL A   1      43.859  27.142  31.300  1.00  0.00    -0.248 NA
ATOM     53  C   UNL A   1      45.186  25.446  30.392  1.00  0.00     0.031 C 
ATOM     54  C   UNL A   1      44.949  29.506  34.900  1.00  0.00     0.029 A 
ATOM     55  C   UNL A   1      44.632  28.755  33.779  1.00  0.00     0.049 A 
ATOM     56  H   UNL A   1      42.953  28.908  32.511  1.00  0.00     0.167 HD
ATOM     57  C   UNL A   1      44.999  26.987  32.081  1.00  0.00     0.074 A 
ATOM     58  C   UNL A   1      45.763  25.905  31.493  1.00  0.00     0.031 C 
ATOM     59  C   UNL A   1      45.378  27.676  33.184  1.00  0.00     0.031 A 
BRANCH  46  60
ATOM     60  C   UNL A   1      41.452  32.152  34.857  1.00  0.00    -0.014 A 
ATOM     61  C   UNL A   1      41.923  33.454  34.610  1.00  0.00     0.010 A 
ATOM     62  C   UNL A   1      40.633  31.923  35.978  1.00  0.00     0.010 A 
ATOM     63  C   UNL A   1      41.613  34.498  35.486  1.00  0.00     0.020 A 
ATOM     64  C   UNL A   1      40.296  32.971  36.841  1.00  0.00     0.020 A 
ATOM     65  C   UNL A   1      40.803  34.250  36.597  1.00  0.00     0.054 A 
BRANCH  65  66
ATOM     66  S   UNL A   1      40.394  35.632  37.698  1.00  0.00     0.124 S 
ATOM     67  O   UNL A   1      41.691  35.932  38.298  1.00  0.00    -0.237 OA
ATOM     68  O   UNL A   1      39.883  36.639  36.773  1.00  0.00    -0.237 OA
ATOM     69  O   UNL A   1      39.402  35.067  38.611  1.00  0.00    -0.744 OA
ENDBRANCH  65  66
ENDBRANCH  46  60
BRANCH  47  70
ATOM     70  C   UNL A   1      43.284  24.885  28.230  1.00  0.00    -0.014 A 
ATOM     71  C   UNL A   1      42.863  23.560  28.444  1.00  0.00     0.010 A 
ATOM     72  C   UNL A   1      43.982  25.197  27.049  1.00  0.00     0.010 A 
ATOM     73  C   UNL A   1      43.157  22.563  27.510  1.00  0.00     0.020 A 
ATOM     74  C   UNL A   1      44.252  24.208  26.098  1.00  0.00     0.020 A 
ATOM     75  C   UNL A   1      43.850  22.894  26.342  1.00  0.00     0.054 A 
BRANCH  75  76
ATOM     76  S   UNL A   1      44.187  21.591  25.125  1.00  0.00     0.124 S 
ATOM     77  O   UNL A   1      43.102  20.650  25.382  1.00  0.00    -0.237 OA
ATOM     78  O   UNL A   1      44.111  22.315  23.858  1.00  0.00    -0.237 OA
ATOM     79  O   UNL A   1      45.523  21.122  25.487  1.00  0.00    -0.744 OA
ENDBRANCH  75  76
ENDBRANCH  47  70
BRANCH  59  80
ATOM     80  C   UNL A   1      46.659  27.258  33.857  1.00  0.00    -0.014 A 
ATOM     81  C   UNL A   1      47.887  27.857  33.527  1.00  0.00     0.010 A 
ATOM     82  C   UNL A   1      46.622  26.288  34.875  1.00  0.00     0.010 A 
ATOM     83  C   UNL A   1      49.060  27.471  34.181  1.00  0.00     0.020 A 
ATOM     84  C   UNL A   1      47.786  25.920  35.552  1.00  0.00     0.020 A 
ATOM     85  C   UNL A   1      49.001  26.504  35.190  1.00  0.00     0.054 A 
BRANCH  85  86
ATOM     86  S   UNL A   1      50.530  26.053  36.056  1.00  0.00     0.124 S 
ATOM     87  O   UNL A   1      50.019  25.377  37.245  1.00  0.00    -0.237 OA
ATOM     88  O   UNL A   1      51.207  25.194  35.086  1.00  0.00    -0.237 OA
ATOM     89  O   UNL A   1      51.182  27.338  36.301  1.00  0.00    -0.744 OA
ENDBRANCH  85  86
ENDBRANCH  59  80
ENDBRANCH  33  34
ENDBRANCH  25  28
ENDBRANCH  23  24
ENDBRANCH  22  23
ENDBRANCH  21  22
ENDBRANCH   3  21
TORSDOF 20
ENDMDL
