MODEL 1
REMARK VINA RESULT:     -12.6      0.000      0.000
REMARK SMILES Cc1ccccc1[C@@H]1[NH2+][C@@H](C(=O)NCCCNC(=O)c2ccc(-c3c4nc(c(-c5ccc(S(=O)(=O)[O-])cc5)c5ccc([nH]5)c(-c5ccc(S(=O)(=O)[O-])cc5)c5nc(c(-c6ccc(S(=O)(=O)[O-])cc6)c6ccc3[nH]6)C=C5)C=C4)cc2)CC2=c3ccccc3=N[C@H]21
REMARK SMILES IDX 16 1 15 2 14 3 13 4 11 5 12 6 10 8 8 9 9 10 89 11 81 14
REMARK SMILES IDX 88 15 80 16 82 17 87 18 83 19 86 20 84 21 85 22 7 23 1 24
REMARK SMILES IDX 2 25 3 26 4 27 6 28 5 29 17 30 18 31 19 33 20 34 21 35 79 36
REMARK SMILES IDX 22 37 78 38 23 39 24 40 25 41 72 42 26 43 77 44 71 45 73 46
REMARK SMILES IDX 27 47 76 48 70 49 69 50 28 52 58 53 39 54 57 55 40 56 43 57
REMARK SMILES IDX 56 58 74 59 41 60 42 61 55 63 75 64 44 65 29 66 30 67 38 68
REMARK SMILES IDX 31 69 37 70 32 71 33 72 34 73 35 74 36 75 59 76 60 77 68 78
REMARK SMILES IDX 61 79 67 80 62 81 63 82 64 83 65 84 66 85 45 86 46 87 54 88
REMARK SMILES IDX 47 89 53 90 48 91 49 92 50 93 51 94 52 95
REMARK H PARENT 13 7 9 12 9 13 17 32 73 51 43 62
REMARK Flexibility Score: inf
ROOT
ATOM      1  C   UNL A   1      48.215  34.429  26.547  1.00  0.00     0.118 C 
ENDROOT
BRANCH   1   2
ATOM      2  C   UNL A   1      48.402  35.578  25.582  1.00  0.00     0.042 C 
BRANCH   2   3
ATOM      3  C   UNL A   1      47.717  36.845  26.063  1.00  0.00     0.118 C 
BRANCH   3   4
ATOM      4  N   UNL A   1      47.236  37.714  25.002  1.00  0.00    -0.351 N 
ATOM      5  C   UNL A   1      47.077  39.067  24.926  1.00  0.00     0.278 C 
ATOM      6  O   UNL A   1      47.136  39.538  23.781  1.00  0.00    -0.268 OA
ATOM      7  H   UNL A   1      46.976  37.235  24.181  1.00  0.00     0.163 HD
BRANCH   5   8
ATOM      8  C   UNL A   1      46.689  39.997  26.134  1.00  0.00     0.277 C 
ATOM      9  C   UNL A   1      44.481  41.270  26.592  1.00  0.00     0.243 C 
ATOM     10  N   UNL A   1      45.195  40.000  26.291  1.00  0.00    -0.327 N 
ATOM     11  C   UNL A   1      45.270  42.616  26.663  1.00  0.00     0.196 C 
ATOM     12  H   UNL A   1      44.806  39.642  25.419  1.00  0.00     0.347 HD
ATOM     13  H   UNL A   1      45.047  39.443  27.134  1.00  0.00     0.347 HD
ATOM     14  C   UNL A   1      46.485  42.461  25.833  1.00  0.00    -0.024 C 
ATOM     15  N   UNL A   1      44.534  43.758  26.035  1.00  0.00    -0.270 NA
ATOM     16  C   UNL A   1      47.368  41.361  26.239  1.00  0.00     0.109 C 
ATOM     17  C   UNL A   1      46.505  43.284  24.797  1.00  0.00     0.002 A 
ATOM     18  C   UNL A   1      45.292  44.078  25.028  1.00  0.00     0.066 A 
ATOM     19  C   UNL A   1      47.325  43.457  23.647  1.00  0.00     0.010 A 
ATOM     20  C   UNL A   1      45.054  45.179  24.072  1.00  0.00     0.028 A 
ATOM     21  C   UNL A   1      46.997  44.418  22.770  1.00  0.00     0.001 A 
ATOM     22  C   UNL A   1      45.876  45.310  23.016  1.00  0.00     0.002 A 
BRANCH   9  23
ATOM     23  C   UNL A   1      43.570  41.138  27.820  1.00  0.00     0.015 A 
ATOM     24  C   UNL A   1      41.636  39.929  26.610  1.00  0.00     0.045 C 
ATOM     25  C   UNL A   1      42.339  40.439  27.837  1.00  0.00    -0.042 A 
ATOM     26  C   UNL A   1      41.744  40.135  29.077  1.00  0.00     0.004 A 
ATOM     27  C   UNL A   1      42.297  40.583  30.274  1.00  0.00     0.000 A 
ATOM     28  C   UNL A   1      44.062  41.652  29.038  1.00  0.00     0.010 A 
ATOM     29  C   UNL A   1      43.435  41.376  30.251  1.00  0.00     0.001 A 
ENDBRANCH   9  23
ENDBRANCH   5   8
ENDBRANCH   3   4
ENDBRANCH   2   3
ENDBRANCH   1   2
BRANCH   1  30
ATOM     30  N   UNL A   1      47.182  33.533  26.053  1.00  0.00    -0.352 N 
ATOM     31  C   UNL A   1      46.888  32.308  26.648  1.00  0.00     0.251 C 
ATOM     32  H   UNL A   1      46.666  33.805  25.260  1.00  0.00     0.163 HD
ATOM     33  O   UNL A   1      47.120  31.239  26.127  1.00  0.00    -0.269 OA
BRANCH  31  34
ATOM     34  C   UNL A   1      46.200  32.432  27.960  1.00  0.00     0.039 A 
ATOM     35  C   UNL A   1      46.288  31.289  28.766  1.00  0.00     0.014 A 
ATOM     36  C   UNL A   1      45.053  33.213  27.938  1.00  0.00     0.014 A 
ATOM     37  C   UNL A   1      45.129  30.722  29.255  1.00  0.00     0.010 A 
ATOM     38  C   UNL A   1      43.886  32.588  28.288  1.00  0.00     0.010 A 
ATOM     39  C   UNL A   1      43.938  31.320  28.881  1.00  0.00    -0.014 A 
BRANCH  39  40
ATOM     40  C   UNL A   1      42.645  30.752  29.156  1.00  0.00     0.031 A 
ATOM     41  C   UNL A   1      42.206  29.740  28.195  1.00  0.00     0.074 A 
ATOM     42  C   UNL A   1      42.094  31.047  30.351  1.00  0.00     0.049 A 
ATOM     43  N   UNL A   1      41.007  29.314  28.072  1.00  0.00    -0.248 NA
ATOM     44  C   UNL A   1      43.125  29.155  27.212  1.00  0.00     0.031 C 
ATOM     45  C   UNL A   1      41.013  30.398  31.081  1.00  0.00     0.029 A 
ATOM     46  N   UNL A   1      42.294  32.249  31.042  1.00  0.00    -0.354 N 
ATOM     47  C   UNL A   1      41.094  28.150  27.339  1.00  0.00     0.074 A 
ATOM     48  C   UNL A   1      42.372  28.192  26.683  1.00  0.00     0.031 C 
ATOM     49  C   UNL A   1      40.443  31.311  31.895  1.00  0.00     0.029 A 
ATOM     50  C   UNL A   1      41.032  32.599  31.548  1.00  0.00     0.049 A 
ATOM     51  H   UNL A   1      43.140  32.742  31.150  1.00  0.00     0.167 HD
ATOM     52  C   UNL A   1      40.171  27.182  27.575  1.00  0.00     0.031 A 
ATOM     53  C   UNL A   1      40.349  33.617  30.938  1.00  0.00     0.031 A 
ATOM     54  C   UNL A   1      39.145  27.690  28.491  1.00  0.00     0.049 A 
ATOM     55  C   UNL A   1      39.054  33.138  30.297  1.00  0.00     0.074 A 
ATOM     56  C   UNL A   1      38.923  27.535  29.849  1.00  0.00     0.029 A 
ATOM     57  N   UNL A   1      38.437  28.821  28.109  1.00  0.00    -0.354 N 
ATOM     58  N   UNL A   1      38.835  31.923  29.865  1.00  0.00    -0.248 NA
ATOM     59  C   UNL A   1      37.890  33.998  30.140  1.00  0.00     0.031 C 
ATOM     60  C   UNL A   1      38.107  28.621  30.285  1.00  0.00     0.029 A 
ATOM     61  C   UNL A   1      37.826  29.422  29.192  1.00  0.00     0.049 A 
ATOM     62  H   UNL A   1      38.378  29.154  27.184  1.00  0.00     0.167 HD
ATOM     63  C   UNL A   1      37.534  31.804  29.427  1.00  0.00     0.074 A 
ATOM     64  C   UNL A   1      37.001  33.148  29.596  1.00  0.00     0.031 C 
ATOM     65  C   UNL A   1      37.014  30.618  28.970  1.00  0.00     0.031 A 
BRANCH  52  66
ATOM     66  C   UNL A   1      40.372  25.725  27.241  1.00  0.00    -0.014 A 
ATOM     67  C   UNL A   1      39.255  24.867  27.255  1.00  0.00     0.010 A 
ATOM     68  C   UNL A   1      41.613  25.119  26.954  1.00  0.00     0.010 A 
ATOM     69  C   UNL A   1      39.369  23.487  27.040  1.00  0.00     0.020 A 
ATOM     70  C   UNL A   1      41.748  23.735  26.758  1.00  0.00     0.020 A 
ATOM     71  C   UNL A   1      40.620  22.926  26.800  1.00  0.00     0.054 A 
BRANCH  71  72
ATOM     72  S   UNL A   1      40.741  21.145  26.509  1.00  0.00     0.124 S 
ATOM     73  O   UNL A   1      39.524  20.866  25.751  1.00  0.00    -0.237 OA
ATOM     74  O   UNL A   1      41.990  21.037  25.760  1.00  0.00    -0.237 OA
ATOM     75  O   UNL A   1      40.773  20.573  27.854  1.00  0.00    -0.744 OA
ENDBRANCH  71  72
ENDBRANCH  52  66
BRANCH  53  76
ATOM     76  C   UNL A   1      41.234  34.723  30.427  1.00  0.00    -0.014 A 
ATOM     77  C   UNL A   1      42.277  35.184  31.270  1.00  0.00     0.010 A 
ATOM     78  C   UNL A   1      41.274  35.107  29.076  1.00  0.00     0.010 A 
ATOM     79  C   UNL A   1      43.372  35.899  30.767  1.00  0.00     0.020 A 
ATOM     80  C   UNL A   1      42.362  35.854  28.570  1.00  0.00     0.020 A 
ATOM     81  C   UNL A   1      43.422  36.215  29.412  1.00  0.00     0.054 A 
BRANCH  81  82
ATOM     82  S   UNL A   1      44.869  37.102  28.746  1.00  0.00     0.124 S 
ATOM     83  O   UNL A   1      45.949  36.122  28.861  1.00  0.00    -0.237 OA
ATOM     84  O   UNL A   1      44.466  37.405  27.380  1.00  0.00    -0.237 OA
ATOM     85  O   UNL A   1      44.971  38.252  29.637  1.00  0.00    -0.744 OA
ENDBRANCH  81  82
ENDBRANCH  53  76
BRANCH  65  86
ATOM     86  C   UNL A   1      35.697  30.409  28.229  1.00  0.00    -0.014 A 
ATOM     87  C   UNL A   1      34.706  31.376  28.036  1.00  0.00     0.010 A 
ATOM     88  C   UNL A   1      35.437  29.140  27.639  1.00  0.00     0.010 A 
ATOM     89  C   UNL A   1      33.571  31.121  27.247  1.00  0.00     0.020 A 
ATOM     90  C   UNL A   1      34.326  28.875  26.838  1.00  0.00     0.020 A 
ATOM     91  C   UNL A   1      33.399  29.879  26.639  1.00  0.00     0.054 A 
BRANCH  91  92
ATOM     92  S   UNL A   1      31.948  29.598  25.605  1.00  0.00     0.124 S 
ATOM     93  O   UNL A   1      32.551  29.329  24.302  1.00  0.00    -0.237 OA
ATOM     94  O   UNL A   1      31.321  28.450  26.257  1.00  0.00    -0.237 OA
ATOM     95  O   UNL A   1      31.199  30.849  25.699  1.00  0.00    -0.744 OA
ENDBRANCH  91  92
ENDBRANCH  65  86
ENDBRANCH  39  40
ENDBRANCH  31  34
ENDBRANCH   1  30
TORSDOF 14
ENDMDL
MODEL 2
REMARK VINA RESULT:     -12.6      4.019      8.987
REMARK SMILES Cc1ccccc1[C@@H]1[NH2+][C@@H](C(=O)NCCCNC(=O)c2ccc(-c3c4nc(c(-c5ccc(S(=O)(=O)[O-])cc5)c5ccc([nH]5)c(-c5ccc(S(=O)(=O)[O-])cc5)c5nc(c(-c6ccc(S(=O)(=O)[O-])cc6)c6ccc3[nH]6)C=C5)C=C4)cc2)CC2=c3ccccc3=N[C@H]21
REMARK SMILES IDX 16 1 15 2 14 3 13 4 11 5 12 6 10 8 8 9 9 10 89 11 81 14
REMARK SMILES IDX 88 15 80 16 82 17 87 18 83 19 86 20 84 21 85 22 7 23 1 24
REMARK SMILES IDX 2 25 3 26 4 27 6 28 5 29 17 30 18 31 19 33 20 34 21 35 79 36
REMARK SMILES IDX 22 37 78 38 23 39 24 40 25 41 72 42 26 43 77 44 71 45 73 46
REMARK SMILES IDX 27 47 76 48 70 49 69 50 28 52 58 53 39 54 57 55 40 56 43 57
REMARK SMILES IDX 56 58 74 59 41 60 42 61 55 63 75 64 44 65 29 66 30 67 38 68
REMARK SMILES IDX 31 69 37 70 32 71 33 72 34 73 35 74 36 75 59 76 60 77 68 78
REMARK SMILES IDX 61 79 67 80 62 81 63 82 64 83 65 84 66 85 45 86 46 87 54 88
REMARK SMILES IDX 47 89 53 90 48 91 49 92 50 93 51 94 52 95
REMARK H PARENT 13 7 9 12 9 13 17 32 73 51 43 62
REMARK Flexibility Score: inf
ROOT
ATOM      1  C   UNL A   1      46.292  29.797  26.202  1.00  0.00     0.118 C 
ENDROOT
BRANCH   1   2
ATOM      2  C   UNL A   1      46.877  28.424  26.442  1.00  0.00     0.042 C 
BRANCH   2   3
ATOM      3  C   UNL A   1      48.087  28.470  27.360  1.00  0.00     0.118 C 
BRANCH   3   4
ATOM      4  N   UNL A   1      49.283  27.847  26.819  1.00  0.00    -0.351 N 
ATOM      5  C   UNL A   1      49.501  26.631  26.242  1.00  0.00     0.278 C 
ATOM      6  O   UNL A   1      50.458  26.589  25.454  1.00  0.00    -0.268 OA
ATOM      7  H   UNL A   1      50.089  28.411  26.880  1.00  0.00     0.163 HD
BRANCH   5   8
ATOM      8  C   UNL A   1      48.741  25.306  26.618  1.00  0.00     0.277 C 
ATOM      9  C   UNL A   1      46.206  24.782  26.545  1.00  0.00     0.243 C 
ATOM     10  N   UNL A   1      47.442  25.255  25.866  1.00  0.00    -0.327 N 
ATOM     11  C   UNL A   1      46.237  24.416  28.064  1.00  0.00     0.196 C 
ATOM     12  H   UNL A   1      47.254  26.202  25.538  1.00  0.00     0.347 HD
ATOM     13  H   UNL A   1      47.609  24.538  25.158  1.00  0.00     0.347 HD
ATOM     14  C   UNL A   1      47.349  25.174  28.679  1.00  0.00    -0.024 C 
ATOM     15  N   UNL A   1      45.019  24.879  28.800  1.00  0.00    -0.270 NA
ATOM     16  C   UNL A   1      48.669  24.911  28.092  1.00  0.00     0.109 C 
ATOM     17  C   UNL A   1      46.936  26.041  29.588  1.00  0.00     0.002 A 
ATOM     18  C   UNL A   1      45.495  25.756  29.634  1.00  0.00     0.066 A 
ATOM     19  C   UNL A   1      47.533  27.081  30.353  1.00  0.00     0.010 A 
ATOM     20  C   UNL A   1      44.723  26.514  30.640  1.00  0.00     0.028 A 
ATOM     21  C   UNL A   1      46.754  27.793  31.181  1.00  0.00     0.001 A 
ATOM     22  C   UNL A   1      45.346  27.469  31.351  1.00  0.00     0.002 A 
BRANCH   9  23
ATOM     23  C   UNL A   1      45.510  23.664  25.757  1.00  0.00     0.015 A 
ATOM     24  C   UNL A   1      43.408  25.026  25.131  1.00  0.00     0.045 C 
ATOM     25  C   UNL A   1      44.302  23.820  25.037  1.00  0.00    -0.042 A 
ATOM     26  C   UNL A   1      43.920  22.822  24.120  1.00  0.00     0.004 A 
ATOM     27  C   UNL A   1      44.661  21.652  23.973  1.00  0.00     0.000 A 
ATOM     28  C   UNL A   1      46.194  22.435  25.654  1.00  0.00     0.010 A 
ATOM     29  C   UNL A   1      45.777  21.441  24.771  1.00  0.00     0.001 A 
ENDBRANCH   9  23
ENDBRANCH   5   8
ENDBRANCH   3   4
ENDBRANCH   2   3
ENDBRANCH   1   2
BRANCH   1  30
ATOM     30  N   UNL A   1      47.268  30.817  26.549  1.00  0.00    -0.352 N 
ATOM     31  C   UNL A   1      46.923  32.139  26.823  1.00  0.00     0.251 C 
ATOM     32  H   UNL A   1      48.217  30.562  26.593  1.00  0.00     0.163 HD
ATOM     33  O   UNL A   1      47.208  33.068  26.100  1.00  0.00    -0.269 OA
BRANCH  31  34
ATOM     34  C   UNL A   1      46.224  32.315  28.124  1.00  0.00     0.039 A 
ATOM     35  C   UNL A   1      46.277  31.194  28.962  1.00  0.00     0.014 A 
ATOM     36  C   UNL A   1      45.095  33.121  28.068  1.00  0.00     0.014 A 
ATOM     37  C   UNL A   1      45.101  30.667  29.454  1.00  0.00     0.010 A 
ATOM     38  C   UNL A   1      43.911  32.533  28.422  1.00  0.00     0.010 A 
ATOM     39  C   UNL A   1      43.928  31.281  29.050  1.00  0.00    -0.014 A 
BRANCH  39  40
ATOM     40  C   UNL A   1      42.619  30.750  29.327  1.00  0.00     0.031 A 
ATOM     41  C   UNL A   1      42.195  29.674  28.430  1.00  0.00     0.074 A 
ATOM     42  C   UNL A   1      42.036  31.141  30.478  1.00  0.00     0.049 A 
ATOM     43  N   UNL A   1      40.995  29.254  28.302  1.00  0.00    -0.248 NA
ATOM     44  C   UNL A   1      43.136  29.006  27.523  1.00  0.00     0.031 C 
ATOM     45  C   UNL A   1      40.925  30.561  31.221  1.00  0.00     0.029 A 
ATOM     46  N   UNL A   1      42.232  32.389  31.083  1.00  0.00    -0.354 N 
ATOM     47  C   UNL A   1      41.088  28.037  27.662  1.00  0.00     0.074 A 
ATOM     48  C   UNL A   1      42.385  28.015  27.045  1.00  0.00     0.031 C 
ATOM     49  C   UNL A   1      40.343  31.539  31.946  1.00  0.00     0.029 A 
ATOM     50  C   UNL A   1      40.960  32.791  31.521  1.00  0.00     0.049 A 
ATOM     51  H   UNL A   1      43.081  32.879  31.181  1.00  0.00     0.167 HD
ATOM     52  C   UNL A   1      40.144  27.100  27.941  1.00  0.00     0.031 A 
ATOM     53  C   UNL A   1      40.310  33.767  30.816  1.00  0.00     0.031 A 
ATOM     54  C   UNL A   1      39.099  27.688  28.783  1.00  0.00     0.049 A 
ATOM     55  C   UNL A   1      39.029  33.257  30.173  1.00  0.00     0.074 A 
ATOM     56  C   UNL A   1      38.834  27.638  30.142  1.00  0.00     0.029 A 
ATOM     57  N   UNL A   1      38.418  28.795  28.296  1.00  0.00    -0.354 N 
ATOM     58  N   UNL A   1      38.806  32.015  29.826  1.00  0.00    -0.248 NA
ATOM     59  C   UNL A   1      37.882  34.116  29.915  1.00  0.00     0.031 C 
ATOM     60  C   UNL A   1      38.019  28.763  30.470  1.00  0.00     0.029 A 
ATOM     61  C   UNL A   1      37.783  29.483  29.311  1.00  0.00     0.049 A 
ATOM     62  H   UNL A   1      38.392  29.058  27.348  1.00  0.00     0.167 HD
ATOM     63  C   UNL A   1      37.518  31.879  29.358  1.00  0.00     0.074 A 
ATOM     64  C   UNL A   1      36.999  33.238  29.409  1.00  0.00     0.031 C 
ATOM     65  C   UNL A   1      36.995  30.668  28.975  1.00  0.00     0.031 A 
BRANCH  52  66
ATOM     66  C   UNL A   1      40.336  25.620  27.724  1.00  0.00    -0.014 A 
ATOM     67  C   UNL A   1      41.414  24.977  28.362  1.00  0.00     0.010 A 
ATOM     68  C   UNL A   1      39.543  24.810  26.885  1.00  0.00     0.010 A 
ATOM     69  C   UNL A   1      41.712  23.625  28.147  1.00  0.00     0.020 A 
ATOM     70  C   UNL A   1      39.841  23.459  26.640  1.00  0.00     0.020 A 
ATOM     71  C   UNL A   1      40.926  22.873  27.278  1.00  0.00     0.054 A 
BRANCH  71  72
ATOM     72  S   UNL A   1      41.319  21.126  27.027  1.00  0.00     0.124 S 
ATOM     73  O   UNL A   1      42.774  21.147  26.893  1.00  0.00    -0.237 OA
ATOM     74  O   UNL A   1      40.808  20.514  28.250  1.00  0.00    -0.237 OA
ATOM     75  O   UNL A   1      40.594  20.776  25.808  1.00  0.00    -0.744 OA
ENDBRANCH  71  72
ENDBRANCH  52  66
BRANCH  53  76
ATOM     76  C   UNL A   1      41.225  34.822  30.252  1.00  0.00    -0.014 A 
ATOM     77  C   UNL A   1      42.396  35.146  30.983  1.00  0.00     0.010 A 
ATOM     78  C   UNL A   1      41.142  35.275  28.925  1.00  0.00     0.010 A 
ATOM     79  C   UNL A   1      43.486  35.794  30.383  1.00  0.00     0.020 A 
ATOM     80  C   UNL A   1      42.227  35.953  28.324  1.00  0.00     0.020 A 
ATOM     81  C   UNL A   1      43.405  36.178  29.048  1.00  0.00     0.054 A 
BRANCH  81  82
ATOM     82  S   UNL A   1      44.839  36.976  28.252  1.00  0.00     0.124 S 
ATOM     83  O   UNL A   1      44.739  36.539  26.859  1.00  0.00    -0.237 OA
ATOM     84  O   UNL A   1      44.584  38.393  28.464  1.00  0.00    -0.237 OA
ATOM     85  O   UNL A   1      45.963  36.424  29.000  1.00  0.00    -0.744 OA
ENDBRANCH  81  82
ENDBRANCH  53  76
BRANCH  65  86
ATOM     86  C   UNL A   1      35.698  30.419  28.211  1.00  0.00    -0.014 A 
ATOM     87  C   UNL A   1      34.661  31.341  28.040  1.00  0.00     0.010 A 
ATOM     88  C   UNL A   1      35.510  29.160  27.573  1.00  0.00     0.010 A 
ATOM     89  C   UNL A   1      33.550  31.057  27.228  1.00  0.00     0.020 A 
ATOM     90  C   UNL A   1      34.423  28.868  26.750  1.00  0.00     0.020 A 
ATOM     91  C   UNL A   1      33.447  29.831  26.575  1.00  0.00     0.054 A 
BRANCH  91  92
ATOM     92  S   UNL A   1      32.023  29.513  25.514  1.00  0.00     0.124 S 
ATOM     93  O   UNL A   1      31.264  30.756  25.644  1.00  0.00    -0.237 OA
ATOM     94  O   UNL A   1      32.650  29.294  24.213  1.00  0.00    -0.237 OA
ATOM     95  O   UNL A   1      31.396  28.335  26.107  1.00  0.00    -0.744 OA
ENDBRANCH  91  92
ENDBRANCH  65  86
ENDBRANCH  39  40
ENDBRANCH  31  34
ENDBRANCH   1  30
TORSDOF 14
ENDMDL
MODEL 3
REMARK VINA RESULT:     -12.5      7.643     13.228
REMARK SMILES Cc1ccccc1[C@@H]1[NH2+][C@@H](C(=O)NCCCNC(=O)c2ccc(-c3c4nc(c(-c5ccc(S(=O)(=O)[O-])cc5)c5ccc([nH]5)c(-c5ccc(S(=O)(=O)[O-])cc5)c5nc(c(-c6ccc(S(=O)(=O)[O-])cc6)c6ccc3[nH]6)C=C5)C=C4)cc2)CC2=c3ccccc3=N[C@H]21
REMARK SMILES IDX 16 1 15 2 14 3 13 4 11 5 12 6 10 8 8 9 9 10 89 11 81 14
REMARK SMILES IDX 88 15 80 16 82 17 87 18 83 19 86 20 84 21 85 22 7 23 1 24
REMARK SMILES IDX 2 25 3 26 4 27 6 28 5 29 17 30 18 31 19 33 20 34 21 35 79 36
REMARK SMILES IDX 22 37 78 38 23 39 24 40 25 41 72 42 26 43 77 44 71 45 73 46
REMARK SMILES IDX 27 47 76 48 70 49 69 50 28 52 58 53 39 54 57 55 40 56 43 57
REMARK SMILES IDX 56 58 74 59 41 60 42 61 55 63 75 64 44 65 29 66 30 67 38 68
REMARK SMILES IDX 31 69 37 70 32 71 33 72 34 73 35 74 36 75 59 76 60 77 68 78
REMARK SMILES IDX 61 79 67 80 62 81 63 82 64 83 65 84 66 85 45 86 46 87 54 88
REMARK SMILES IDX 47 89 53 90 48 91 49 92 50 93 51 94 52 95
REMARK H PARENT 13 7 9 12 9 13 17 32 73 51 43 62
REMARK Flexibility Score: inf
ROOT
ATOM      1  C   UNL A   1      34.811  32.361  29.026  1.00  0.00     0.118 C 
ENDROOT
BRANCH   1   2
ATOM      2  C   UNL A   1      34.573  31.835  27.628  1.00  0.00     0.042 C 
BRANCH   2   3
ATOM      3  C   UNL A   1      33.224  31.149  27.498  1.00  0.00     0.118 C 
BRANCH   3   4
ATOM      4  N   UNL A   1      33.278  29.697  27.530  1.00  0.00    -0.351 N 
ATOM      5  C   UNL A   1      33.453  28.764  26.549  1.00  0.00     0.278 C 
ATOM      6  O   UNL A   1      33.946  27.691  26.929  1.00  0.00    -0.268 OA
ATOM      7  H   UNL A   1      33.167  29.313  28.430  1.00  0.00     0.163 HD
BRANCH   5   8
ATOM      8  C   UNL A   1      32.950  28.911  25.066  1.00  0.00     0.277 C 
ATOM      9  C   UNL A   1      30.931  27.794  23.892  1.00  0.00     0.243 C 
ATOM     10  N   UNL A   1      31.481  28.601  25.013  1.00  0.00    -0.327 N 
ATOM     11  C   UNL A   1      31.888  27.195  22.812  1.00  0.00     0.196 C 
ATOM     12  H   UNL A   1      31.254  28.104  25.874  1.00  0.00     0.347 HD
ATOM     13  H   UNL A   1      31.053  29.517  24.874  1.00  0.00     0.347 HD
ATOM     14  C   UNL A   1      33.221  27.048  23.436  1.00  0.00    -0.024 C 
ATOM     15  N   UNL A   1      31.512  25.805  22.405  1.00  0.00    -0.270 NA
ATOM     16  C   UNL A   1      33.797  28.295  23.954  1.00  0.00     0.109 C 
ATOM     17  C   UNL A   1      33.615  25.787  23.510  1.00  0.00     0.002 A 
ATOM     18  C   UNL A   1      32.526  25.097  22.807  1.00  0.00     0.066 A 
ATOM     19  C   UNL A   1      34.697  25.089  24.115  1.00  0.00     0.010 A 
ATOM     20  C   UNL A   1      32.698  23.640  22.630  1.00  0.00     0.028 A 
ATOM     21  C   UNL A   1      34.742  23.754  23.994  1.00  0.00     0.001 A 
ATOM     22  C   UNL A   1      33.754  23.037  23.205  1.00  0.00     0.002 A 
BRANCH   9  23
ATOM     23  C   UNL A   1      29.750  28.493  23.207  1.00  0.00     0.015 A 
ATOM     24  C   UNL A   1      27.961  26.758  23.882  1.00  0.00     0.045 C 
ATOM     25  C   UNL A   1      28.402  28.073  23.300  1.00  0.00    -0.042 A 
ATOM     26  C   UNL A   1      27.382  28.951  22.883  1.00  0.00     0.004 A 
ATOM     27  C   UNL A   1      27.680  30.182  22.305  1.00  0.00     0.000 A 
ATOM     28  C   UNL A   1      30.026  29.706  22.540  1.00  0.00     0.010 A 
ATOM     29  C   UNL A   1      29.003  30.542  22.096  1.00  0.00     0.001 A 
ENDBRANCH   9  23
ENDBRANCH   5   8
ENDBRANCH   3   4
ENDBRANCH   2   3
ENDBRANCH   1   2
BRANCH   1  30
ATOM     30  N   UNL A   1      35.363  31.308  29.862  1.00  0.00    -0.352 N 
ATOM     31  C   UNL A   1      36.204  30.310  29.375  1.00  0.00     0.251 C 
ATOM     32  H   UNL A   1      35.132  31.300  30.819  1.00  0.00     0.163 HD
ATOM     33  O   UNL A   1      35.880  29.146  29.289  1.00  0.00    -0.269 OA
BRANCH  31  34
ATOM     34  C   UNL A   1      37.565  30.794  29.027  1.00  0.00     0.039 A 
ATOM     35  C   UNL A   1      38.172  30.098  27.973  1.00  0.00     0.014 A 
ATOM     36  C   UNL A   1      38.306  31.258  30.105  1.00  0.00     0.014 A 
ATOM     37  C   UNL A   1      39.422  29.546  28.164  1.00  0.00     0.010 A 
ATOM     38  C   UNL A   1      39.477  30.598  30.367  1.00  0.00     0.010 A 
ATOM     39  C   UNL A   1      39.984  29.699  29.419  1.00  0.00    -0.014 A 
BRANCH  39  40
ATOM     40  C   UNL A   1      41.192  29.036  29.833  1.00  0.00     0.031 A 
ATOM     41  C   UNL A   1      41.308  27.646  29.390  1.00  0.00     0.074 A 
ATOM     42  C   UNL A   1      42.151  29.808  30.382  1.00  0.00     0.049 A 
ATOM     43  N   UNL A   1      42.133  26.791  29.862  1.00  0.00    -0.248 NA
ATOM     44  C   UNL A   1      40.413  27.080  28.375  1.00  0.00     0.031 C 
ATOM     45  C   UNL A   1      43.572  29.555  30.582  1.00  0.00     0.029 A 
ATOM     46  N   UNL A   1      41.906  30.965  31.134  1.00  0.00    -0.354 N 
ATOM     47  C   UNL A   1      42.165  25.757  28.950  1.00  0.00     0.074 A 
ATOM     48  C   UNL A   1      40.971  25.890  28.161  1.00  0.00     0.031 C 
ATOM     49  C   UNL A   1      43.995  30.307  31.619  1.00  0.00     0.029 A 
ATOM     50  C   UNL A   1      42.803  30.902  32.212  1.00  0.00     0.049 A 
ATOM     51  H   UNL A   1      41.245  31.671  30.946  1.00  0.00     0.167 HD
ATOM     52  C   UNL A   1      43.325  25.062  28.821  1.00  0.00     0.031 A 
ATOM     53  C   UNL A   1      42.312  30.569  33.446  1.00  0.00     0.031 A 
ATOM     54  C   UNL A   1      44.276  25.493  29.850  1.00  0.00     0.049 A 
ATOM     55  C   UNL A   1      42.879  29.253  33.956  1.00  0.00     0.074 A 
ATOM     56  C   UNL A   1      45.368  26.345  29.838  1.00  0.00     0.029 A 
ATOM     57  N   UNL A   1      43.894  25.372  31.179  1.00  0.00    -0.354 N 
ATOM     58  N   UNL A   1      43.311  28.278  33.199  1.00  0.00    -0.248 NA
ATOM     59  C   UNL A   1      43.040  28.963  35.374  1.00  0.00     0.031 C 
ATOM     60  C   UNL A   1      45.605  26.771  31.179  1.00  0.00     0.029 A 
ATOM     61  C   UNL A   1      44.667  26.168  32.000  1.00  0.00     0.049 A 
ATOM     62  H   UNL A   1      43.163  24.793  31.496  1.00  0.00     0.167 HD
ATOM     63  C   UNL A   1      43.841  27.273  33.978  1.00  0.00     0.074 A 
ATOM     64  C   UNL A   1      43.612  27.747  35.335  1.00  0.00     0.031 C 
ATOM     65  C   UNL A   1      44.418  26.148  33.441  1.00  0.00     0.031 A 
BRANCH  52  66
ATOM     66  C   UNL A   1      43.693  24.254  27.601  1.00  0.00    -0.014 A 
ATOM     67  C   UNL A   1      43.289  22.906  27.537  1.00  0.00     0.010 A 
ATOM     68  C   UNL A   1      44.461  24.722  26.515  1.00  0.00     0.010 A 
ATOM     69  C   UNL A   1      43.661  22.065  26.480  1.00  0.00     0.020 A 
ATOM     70  C   UNL A   1      44.862  23.886  25.460  1.00  0.00     0.020 A 
ATOM     71  C   UNL A   1      44.455  22.559  25.449  1.00  0.00     0.054 A 
BRANCH  71  72
ATOM     72  S   UNL A   1      44.910  21.458  24.087  1.00  0.00     0.124 S 
ATOM     73  O   UNL A   1      44.466  22.208  22.915  1.00  0.00    -0.237 OA
ATOM     74  O   UNL A   1      46.356  21.342  24.252  1.00  0.00    -0.237 OA
ATOM     75  O   UNL A   1      44.154  20.237  24.359  1.00  0.00    -0.744 OA
ENDBRANCH  71  72
ENDBRANCH  52  66
BRANCH  53  76
ATOM     76  C   UNL A   1      40.928  31.101  33.712  1.00  0.00    -0.014 A 
ATOM     77  C   UNL A   1      40.669  32.463  33.416  1.00  0.00     0.010 A 
ATOM     78  C   UNL A   1      39.822  30.266  33.948  1.00  0.00     0.010 A 
ATOM     79  C   UNL A   1      39.365  32.948  33.248  1.00  0.00     0.020 A 
ATOM     80  C   UNL A   1      38.504  30.758  33.808  1.00  0.00     0.020 A 
ATOM     81  C   UNL A   1      38.285  32.088  33.425  1.00  0.00     0.054 A 
BRANCH  81  82
ATOM     82  S   UNL A   1      36.589  32.703  33.158  1.00  0.00     0.124 S 
ATOM     83  O   UNL A   1      36.771  33.785  32.191  1.00  0.00    -0.237 OA
ATOM     84  O   UNL A   1      35.894  31.534  32.640  1.00  0.00    -0.237 OA
ATOM     85  O   UNL A   1      36.192  33.123  34.498  1.00  0.00    -0.744 OA
ENDBRANCH  81  82
ENDBRANCH  53  76
BRANCH  65  86
ATOM     86  C   UNL A   1      44.803  24.866  34.173  1.00  0.00    -0.014 A 
ATOM     87  C   UNL A   1      43.984  24.148  35.050  1.00  0.00     0.010 A 
ATOM     88  C   UNL A   1      46.089  24.303  33.937  1.00  0.00     0.010 A 
ATOM     89  C   UNL A   1      44.388  22.918  35.595  1.00  0.00     0.020 A 
ATOM     90  C   UNL A   1      46.500  23.075  34.455  1.00  0.00     0.020 A 
ATOM     91  C   UNL A   1      45.635  22.382  35.280  1.00  0.00     0.054 A 
BRANCH  91  92
ATOM     92  S   UNL A   1      46.107  20.784  35.971  1.00  0.00     0.124 S 
ATOM     93  O   UNL A   1      45.672  20.913  37.361  1.00  0.00    -0.237 OA
ATOM     94  O   UNL A   1      45.331  19.853  35.155  1.00  0.00    -0.237 OA
ATOM     95  O   UNL A   1      47.553  20.726  35.773  1.00  0.00    -0.744 OA
ENDBRANCH  91  92
ENDBRANCH  65  86
ENDBRANCH  39  40
ENDBRANCH  31  34
ENDBRANCH   1  30
TORSDOF 14
ENDMDL
