MODEL 1
REMARK VINA RESULT:     -12.5      0.000      0.000
REMARK SMILES O=C(NCCCNC(=O)c1ccc2c(c1)[C@@H]1C=CC[C@@H]1[C@H](c1ccncc1)N2)c1ccc(-c2c3nc(c(-c4ccc(S(=O)(=O)[O-])cc4)c4ccc([nH]4)c(-c4ccc(S(=O)(=O)[O-])cc4)c4nc(c(-c5ccc(S(=O)(=O)[O-])cc5)c5ccc2[nH]5)C=C4)C=C3)cc1
REMARK SMILES IDX 4 1 3 2 1 3 2 4 29 6 30 7 88 8 31 9 87 10 32 11 33 12 34 13
REMARK SMILES IDX 81 14 35 15 86 16 80 17 82 18 36 19 85 20 79 21 78 22 37 24
REMARK SMILES IDX 67 25 48 26 66 27 49 28 52 29 65 30 83 31 50 32 51 33 64 35
REMARK SMILES IDX 84 36 53 37 38 38 39 39 47 40 40 41 46 42 41 43 42 44 43 45
REMARK SMILES IDX 44 46 45 47 68 48 69 49 77 50 70 51 76 52 71 53 72 54 73 55
REMARK SMILES IDX 74 56 75 57 54 58 55 59 63 60 56 61 62 62 57 63 58 64 59 65
REMARK SMILES IDX 60 66 61 67 5 68 6 69 7 70 8 71 9 73 10 74 11 75 15 76 12 77
REMARK SMILES IDX 14 78 13 79 16 80 28 81 17 82 20 83 21 84 18 86 19 87 22 88
REMARK SMILES IDX 23 89 27 90 24 91 26 92 25 93
REMARK H PARENT 3 5 82 23 52 34 7 72 28 85
REMARK Flexibility Score: inf
ROOT
ATOM      1  C   UNL A   1      34.047  28.193  26.179  1.00  0.00     0.118 C 
ENDROOT
BRANCH   1   2
ATOM      2  N   UNL A   1      33.669  29.486  26.740  1.00  0.00    -0.352 N 
ATOM      3  O   UNL A   1      33.727  31.263  28.117  1.00  0.00    -0.269 OA
ATOM      4  C   UNL A   1      34.320  30.298  27.637  1.00  0.00     0.251 C 
ATOM      5  H   UNL A   1      32.804  29.834  26.423  1.00  0.00     0.163 HD
BRANCH   4   6
ATOM      6  C   UNL A   1      35.713  30.009  28.041  1.00  0.00     0.039 A 
ATOM      7  C   UNL A   1      36.764  30.200  27.147  1.00  0.00     0.014 A 
ATOM      8  C   UNL A   1      35.981  29.561  29.339  1.00  0.00     0.014 A 
ATOM      9  C   UNL A   1      38.040  29.764  27.476  1.00  0.00     0.010 A 
ATOM     10  C   UNL A   1      37.293  29.240  29.712  1.00  0.00     0.010 A 
ATOM     11  C   UNL A   1      38.329  29.302  28.771  1.00  0.00    -0.014 A 
BRANCH  11  12
ATOM     12  C   UNL A   1      39.740  28.974  29.100  1.00  0.00     0.031 A 
ATOM     13  C   UNL A   1      40.353  27.653  28.724  1.00  0.00     0.074 A 
ATOM     14  C   UNL A   1      40.497  29.934  29.671  1.00  0.00     0.049 A 
ATOM     15  N   UNL A   1      41.601  27.268  28.844  1.00  0.00    -0.248 NA
ATOM     16  C   UNL A   1      39.465  26.630  28.152  1.00  0.00     0.031 C 
ATOM     17  C   UNL A   1      40.005  31.248  30.103  1.00  0.00     0.029 A 
ATOM     18  N   UNL A   1      41.840  29.983  29.941  1.00  0.00    -0.354 N 
ATOM     19  C   UNL A   1      41.644  25.960  28.374  1.00  0.00     0.074 A 
ATOM     20  C   UNL A   1      40.293  25.606  27.995  1.00  0.00     0.031 C 
ATOM     21  C   UNL A   1      41.041  31.998  30.503  1.00  0.00     0.029 A 
ATOM     22  C   UNL A   1      42.257  31.200  30.425  1.00  0.00     0.049 A 
ATOM     23  H   UNL A   1      42.446  29.219  29.802  1.00  0.00     0.167 HD
ATOM     24  C   UNL A   1      42.714  25.135  28.264  1.00  0.00     0.031 A 
ATOM     25  C   UNL A   1      43.483  31.632  30.776  1.00  0.00     0.031 A 
ATOM     26  C   UNL A   1      44.057  25.493  28.645  1.00  0.00     0.049 A 
ATOM     27  C   UNL A   1      44.648  30.701  30.632  1.00  0.00     0.074 A 
ATOM     28  C   UNL A   1      45.207  24.725  28.571  1.00  0.00     0.029 A 
ATOM     29  N   UNL A   1      44.433  26.723  29.164  1.00  0.00    -0.354 N 
ATOM     30  N   UNL A   1      44.665  29.471  30.177  1.00  0.00    -0.248 NA
ATOM     31  C   UNL A   1      45.958  31.213  31.049  1.00  0.00     0.031 C 
ATOM     32  C   UNL A   1      46.271  25.477  29.081  1.00  0.00     0.029 A 
ATOM     33  C   UNL A   1      45.794  26.731  29.426  1.00  0.00     0.049 A 
ATOM     34  H   UNL A   1      43.823  27.479  29.323  1.00  0.00     0.167 HD
ATOM     35  C   UNL A   1      45.988  29.060  30.258  1.00  0.00     0.074 A 
ATOM     36  C   UNL A   1      46.746  30.187  30.765  1.00  0.00     0.031 C 
ATOM     37  C   UNL A   1      46.527  27.854  29.951  1.00  0.00     0.031 A 
BRANCH  24  38
ATOM     38  C   UNL A   1      42.477  23.750  27.719  1.00  0.00    -0.014 A 
ATOM     39  C   UNL A   1      42.623  23.478  26.347  1.00  0.00     0.010 A 
ATOM     40  C   UNL A   1      42.167  22.695  28.596  1.00  0.00     0.010 A 
ATOM     41  C   UNL A   1      42.438  22.182  25.858  1.00  0.00     0.020 A 
ATOM     42  C   UNL A   1      42.003  21.392  28.114  1.00  0.00     0.020 A 
ATOM     43  C   UNL A   1      42.128  21.146  26.745  1.00  0.00     0.054 A 
BRANCH  43  44
ATOM     44  S   UNL A   1      41.929  19.466  26.088  1.00  0.00     0.124 S 
ATOM     45  O   UNL A   1      42.757  19.514  24.885  1.00  0.00    -0.237 OA
ATOM     46  O   UNL A   1      42.447  18.634  27.172  1.00  0.00    -0.237 OA
ATOM     47  O   UNL A   1      40.493  19.353  25.852  1.00  0.00    -0.744 OA
ENDBRANCH  43  44
ENDBRANCH  24  38
BRANCH  25  48
ATOM     48  C   UNL A   1      43.651  33.006  31.321  1.00  0.00    -0.014 A 
ATOM     49  C   UNL A   1      43.936  34.091  30.475  1.00  0.00     0.010 A 
ATOM     50  C   UNL A   1      43.500  33.235  32.701  1.00  0.00     0.010 A 
ATOM     51  C   UNL A   1      44.084  35.378  31.002  1.00  0.00     0.020 A 
ATOM     52  C   UNL A   1      43.617  34.522  33.228  1.00  0.00     0.020 A 
ATOM     53  C   UNL A   1      43.925  35.584  32.376  1.00  0.00     0.054 A 
BRANCH  53  54
ATOM     54  S   UNL A   1      44.070  37.266  33.041  1.00  0.00     0.124 S 
ATOM     55  O   UNL A   1      42.974  37.304  34.003  1.00  0.00    -0.237 OA
ATOM     56  O   UNL A   1      45.414  37.269  33.612  1.00  0.00    -0.237 OA
ATOM     57  O   UNL A   1      43.902  38.111  31.861  1.00  0.00    -0.744 OA
ENDBRANCH  53  54
ENDBRANCH  25  48
BRANCH  37  58
ATOM     58  C   UNL A   1      48.008  27.704  30.161  1.00  0.00    -0.014 A 
ATOM     59  C   UNL A   1      48.919  28.049  29.147  1.00  0.00     0.010 A 
ATOM     60  C   UNL A   1      48.494  27.215  31.386  1.00  0.00     0.010 A 
ATOM     61  C   UNL A   1      50.289  27.858  29.336  1.00  0.00     0.020 A 
ATOM     62  C   UNL A   1      49.866  27.047  31.588  1.00  0.00     0.020 A 
ATOM     63  C   UNL A   1      50.754  27.350  30.552  1.00  0.00     0.054 A 
BRANCH  63  64
ATOM     64  S   UNL A   1      52.537  27.116  30.780  1.00  0.00     0.124 S 
ATOM     65  O   UNL A   1      52.893  28.279  31.589  1.00  0.00    -0.237 OA
ATOM     66  O   UNL A   1      52.611  25.829  31.466  1.00  0.00    -0.237 OA
ATOM     67  O   UNL A   1      53.063  27.119  29.418  1.00  0.00    -0.744 OA
ENDBRANCH  63  64
ENDBRANCH  37  58
ENDBRANCH  11  12
ENDBRANCH   4   6
ENDBRANCH   1   2
BRANCH   1  68
ATOM     68  C   UNL A   1      32.982  27.128  26.384  1.00  0.00     0.042 C 
BRANCH  68  69
ATOM     69  C   UNL A   1      32.083  26.935  25.175  1.00  0.00     0.118 C 
BRANCH  69  70
ATOM     70  N   UNL A   1      32.776  27.193  23.917  1.00  0.00    -0.352 N 
ATOM     71  C   UNL A   1      33.404  26.326  23.056  1.00  0.00     0.251 C 
ATOM     72  H   UNL A   1      32.796  28.138  23.642  1.00  0.00     0.163 HD
ATOM     73  O   UNL A   1      34.111  26.760  22.152  1.00  0.00    -0.269 OA
BRANCH  71  74
ATOM     74  C   UNL A   1      33.234  24.867  23.215  1.00  0.00     0.040 A 
ATOM     75  C   UNL A   1      32.755  24.110  22.148  1.00  0.00     0.016 A 
ATOM     76  C   UNL A   1      33.550  24.245  24.421  1.00  0.00     0.020 A 
ATOM     77  C   UNL A   1      32.635  22.724  22.286  1.00  0.00     0.027 A 
ATOM     78  C   UNL A   1      33.537  22.847  24.524  1.00  0.00    -0.017 A 
ATOM     79  C   UNL A   1      33.004  22.081  23.477  1.00  0.00     0.038 A 
ATOM     80  C   UNL A   1      34.139  22.194  25.747  1.00  0.00     0.049 C 
ATOM     81  N   UNL A   1      32.918  20.696  23.564  1.00  0.00    -0.378 N 
ATOM     82  C   UNL A   1      35.594  22.560  25.936  1.00  0.00    -0.023 C 
ATOM     83  C   UNL A   1      34.248  20.664  25.638  1.00  0.00     0.031 C 
ATOM     84  C   UNL A   1      33.071  20.064  24.868  1.00  0.00     0.114 C 
ATOM     85  H   UNL A   1      32.757  20.153  22.760  1.00  0.00     0.161 HD
ATOM     86  C   UNL A   1      36.415  21.575  25.548  1.00  0.00    -0.030 C 
ATOM     87  C   UNL A   1      35.647  20.390  25.056  1.00  0.00     0.034 C 
BRANCH  84  88
ATOM     88  C   UNL A   1      33.152  18.547  24.779  1.00  0.00    -0.022 A 
ATOM     89  C   UNL A   1      33.657  17.959  23.609  1.00  0.00     0.026 A 
ATOM     90  C   UNL A   1      32.744  17.690  25.807  1.00  0.00     0.026 A 
ATOM     91  C   UNL A   1      33.740  16.578  23.525  1.00  0.00     0.111 A 
ATOM     92  C   UNL A   1      32.883  16.320  25.636  1.00  0.00     0.111 A 
ATOM     93  N   UNL A   1      33.378  15.745  24.520  1.00  0.00    -0.265 NA
ENDBRANCH  84  88
ENDBRANCH  71  74
ENDBRANCH  69  70
ENDBRANCH  68  69
ENDBRANCH   1  68
TORSDOF 14
ENDMDL
MODEL 2
REMARK VINA RESULT:     -12.4      5.017      9.996
REMARK SMILES O=C(NCCCNC(=O)c1ccc2c(c1)[C@@H]1C=CC[C@@H]1[C@H](c1ccncc1)N2)c1ccc(-c2c3nc(c(-c4ccc(S(=O)(=O)[O-])cc4)c4ccc([nH]4)c(-c4ccc(S(=O)(=O)[O-])cc4)c4nc(c(-c5ccc(S(=O)(=O)[O-])cc5)c5ccc2[nH]5)C=C4)C=C3)cc1
REMARK SMILES IDX 4 1 3 2 1 3 2 4 29 6 30 7 88 8 31 9 87 10 32 11 33 12 34 13
REMARK SMILES IDX 81 14 35 15 86 16 80 17 82 18 36 19 85 20 79 21 78 22 37 24
REMARK SMILES IDX 67 25 48 26 66 27 49 28 52 29 65 30 83 31 50 32 51 33 64 35
REMARK SMILES IDX 84 36 53 37 38 38 39 39 47 40 40 41 46 42 41 43 42 44 43 45
REMARK SMILES IDX 44 46 45 47 68 48 69 49 77 50 70 51 76 52 71 53 72 54 73 55
REMARK SMILES IDX 74 56 75 57 54 58 55 59 63 60 56 61 62 62 57 63 58 64 59 65
REMARK SMILES IDX 60 66 61 67 5 68 6 69 7 70 8 71 9 73 10 74 11 75 15 76 12 77
REMARK SMILES IDX 14 78 13 79 16 80 28 81 17 82 20 83 21 84 18 86 19 87 22 88
REMARK SMILES IDX 23 89 27 90 24 91 26 92 25 93
REMARK H PARENT 3 5 82 23 52 34 7 72 28 85
REMARK Flexibility Score: inf
ROOT
ATOM      1  C   UNL A   1      38.526  24.077  26.482  1.00  0.00     0.118 C 
ENDROOT
BRANCH   1   2
ATOM      2  N   UNL A   1      39.791  24.452  25.857  1.00  0.00    -0.352 N 
ATOM      3  O   UNL A   1      41.567  25.732  25.341  1.00  0.00    -0.269 OA
ATOM      4  C   UNL A   1      40.644  25.497  26.120  1.00  0.00     0.251 C 
ATOM      5  H   UNL A   1      40.080  23.859  25.127  1.00  0.00     0.163 HD
BRANCH   4   6
ATOM      6  C   UNL A   1      40.449  26.346  27.316  1.00  0.00     0.039 A 
ATOM      7  C   UNL A   1      41.029  27.610  27.390  1.00  0.00     0.014 A 
ATOM      8  C   UNL A   1      39.655  25.884  28.372  1.00  0.00     0.014 A 
ATOM      9  C   UNL A   1      40.984  28.322  28.580  1.00  0.00     0.010 A 
ATOM     10  C   UNL A   1      39.505  26.664  29.527  1.00  0.00     0.010 A 
ATOM     11  C   UNL A   1      40.200  27.874  29.656  1.00  0.00    -0.014 A 
BRANCH  11  12
ATOM     12  C   UNL A   1      40.087  28.747  30.853  1.00  0.00     0.031 A 
ATOM     13  C   UNL A   1      41.029  28.616  32.019  1.00  0.00     0.074 A 
ATOM     14  C   UNL A   1      39.166  29.732  30.834  1.00  0.00     0.049 A 
ATOM     15  N   UNL A   1      41.125  29.377  33.081  1.00  0.00    -0.248 NA
ATOM     16  C   UNL A   1      41.976  27.490  32.005  1.00  0.00     0.031 C 
ATOM     17  C   UNL A   1      38.181  29.942  29.767  1.00  0.00     0.029 A 
ATOM     18  N   UNL A   1      38.936  30.768  31.701  1.00  0.00    -0.354 N 
ATOM     19  C   UNL A   1      42.130  28.820  33.863  1.00  0.00     0.074 A 
ATOM     20  C   UNL A   1      42.595  27.639  33.168  1.00  0.00     0.031 C 
ATOM     21  C   UNL A   1      37.513  31.080  30.000  1.00  0.00     0.029 A 
ATOM     22  C   UNL A   1      37.970  31.643  31.264  1.00  0.00     0.049 A 
ATOM     23  H   UNL A   1      39.416  30.875  32.554  1.00  0.00     0.167 HD
ATOM     24  C   UNL A   1      42.624  29.258  35.047  1.00  0.00     0.031 A 
ATOM     25  C   UNL A   1      37.493  32.774  31.817  1.00  0.00     0.031 A 
ATOM     26  C   UNL A   1      42.156  30.435  35.734  1.00  0.00     0.049 A 
ATOM     27  C   UNL A   1      38.066  33.240  33.121  1.00  0.00     0.074 A 
ATOM     28  C   UNL A   1      42.594  30.960  36.939  1.00  0.00     0.029 A 
ATOM     29  N   UNL A   1      41.152  31.275  35.277  1.00  0.00    -0.354 N 
ATOM     30  N   UNL A   1      39.023  32.699  33.837  1.00  0.00    -0.248 NA
ATOM     31  C   UNL A   1      37.496  34.465  33.693  1.00  0.00     0.031 C 
ATOM     32  C   UNL A   1      41.828  32.095  37.228  1.00  0.00     0.029 A 
ATOM     33  C   UNL A   1      40.947  32.306  36.180  1.00  0.00     0.049 A 
ATOM     34  H   UNL A   1      40.657  31.156  34.434  1.00  0.00     0.167 HD
ATOM     35  C   UNL A   1      39.167  33.518  34.948  1.00  0.00     0.074 A 
ATOM     36  C   UNL A   1      38.229  34.611  34.788  1.00  0.00     0.031 C 
ATOM     37  C   UNL A   1      39.994  33.373  36.013  1.00  0.00     0.031 A 
BRANCH  24  38
ATOM     38  C   UNL A   1      43.725  28.453  35.688  1.00  0.00    -0.014 A 
ATOM     39  C   UNL A   1      43.430  27.401  36.574  1.00  0.00     0.010 A 
ATOM     40  C   UNL A   1      45.066  28.708  35.351  1.00  0.00     0.010 A 
ATOM     41  C   UNL A   1      44.458  26.636  37.132  1.00  0.00     0.020 A 
ATOM     42  C   UNL A   1      46.097  27.931  35.890  1.00  0.00     0.020 A 
ATOM     43  C   UNL A   1      45.787  26.906  36.788  1.00  0.00     0.054 A 
BRANCH  43  44
ATOM     44  S   UNL A   1      47.099  25.875  37.499  1.00  0.00     0.124 S 
ATOM     45  O   UNL A   1      48.219  26.152  36.602  1.00  0.00    -0.237 OA
ATOM     46  O   UNL A   1      47.231  26.411  38.851  1.00  0.00    -0.237 OA
ATOM     47  O   UNL A   1      46.558  24.521  37.419  1.00  0.00    -0.744 OA
ENDBRANCH  43  44
ENDBRANCH  24  38
BRANCH  25  48
ATOM     48  C   UNL A   1      36.396  33.518  31.142  1.00  0.00    -0.014 A 
ATOM     49  C   UNL A   1      36.493  33.881  29.789  1.00  0.00     0.010 A 
ATOM     50  C   UNL A   1      35.230  33.846  31.858  1.00  0.00     0.010 A 
ATOM     51  C   UNL A   1      35.449  34.575  29.168  1.00  0.00     0.020 A 
ATOM     52  C   UNL A   1      34.173  34.512  31.235  1.00  0.00     0.020 A 
ATOM     53  C   UNL A   1      34.297  34.887  29.896  1.00  0.00     0.054 A 
BRANCH  53  54
ATOM     54  S   UNL A   1      32.930  35.742  29.065  1.00  0.00     0.124 S 
ATOM     55  O   UNL A   1      32.389  34.688  28.213  1.00  0.00    -0.237 OA
ATOM     56  O   UNL A   1      32.082  36.151  30.182  1.00  0.00    -0.237 OA
ATOM     57  O   UNL A   1      33.594  36.840  28.364  1.00  0.00    -0.744 OA
ENDBRANCH  53  54
ENDBRANCH  25  48
BRANCH  37  58
ATOM     58  C   UNL A   1      39.909  34.428  37.081  1.00  0.00    -0.014 A 
ATOM     59  C   UNL A   1      39.084  34.251  38.207  1.00  0.00     0.010 A 
ATOM     60  C   UNL A   1      40.664  35.607  36.959  1.00  0.00     0.010 A 
ATOM     61  C   UNL A   1      38.976  35.259  39.167  1.00  0.00     0.020 A 
ATOM     62  C   UNL A   1      40.579  36.607  37.931  1.00  0.00     0.020 A 
ATOM     63  C   UNL A   1      39.718  36.435  39.018  1.00  0.00     0.054 A 
BRANCH  63  64
ATOM     64  S   UNL A   1      39.569  37.729  40.279  1.00  0.00     0.124 S 
ATOM     65  O   UNL A   1      38.616  38.647  39.659  1.00  0.00    -0.237 OA
ATOM     66  O   UNL A   1      39.069  36.996  41.439  1.00  0.00    -0.237 OA
ATOM     67  O   UNL A   1      40.931  38.240  40.412  1.00  0.00    -0.744 OA
ENDBRANCH  63  64
ENDBRANCH  37  58
ENDBRANCH  11  12
ENDBRANCH   4   6
ENDBRANCH   1   2
BRANCH   1  68
ATOM     68  C   UNL A   1      37.832  22.932  25.762  1.00  0.00     0.042 C 
BRANCH  68  69
ATOM     69  C   UNL A   1      36.343  23.162  25.562  1.00  0.00     0.118 C 
BRANCH  69  70
ATOM     70  N   UNL A   1      35.537  22.533  26.603  1.00  0.00    -0.352 N 
ATOM     71  C   UNL A   1      34.248  22.790  27.005  1.00  0.00     0.251 C 
ATOM     72  H   UNL A   1      35.987  21.809  27.095  1.00  0.00     0.163 HD
ATOM     73  O   UNL A   1      33.815  22.293  28.040  1.00  0.00    -0.269 OA
BRANCH  71  74
ATOM     74  C   UNL A   1      33.379  23.669  26.196  1.00  0.00     0.040 A 
ATOM     75  C   UNL A   1      32.137  23.204  25.769  1.00  0.00     0.016 A 
ATOM     76  C   UNL A   1      33.791  24.956  25.859  1.00  0.00     0.020 A 
ATOM     77  C   UNL A   1      31.298  24.051  25.040  1.00  0.00     0.027 A 
ATOM     78  C   UNL A   1      32.908  25.843  25.227  1.00  0.00    -0.017 A 
ATOM     79  C   UNL A   1      31.679  25.368  24.745  1.00  0.00     0.038 A 
ATOM     80  C   UNL A   1      33.283  27.303  25.119  1.00  0.00     0.049 C 
ATOM     81  N   UNL A   1      30.801  26.200  24.060  1.00  0.00    -0.378 N 
ATOM     82  C   UNL A   1      33.528  27.935  26.470  1.00  0.00    -0.023 C 
ATOM     83  C   UNL A   1      32.144  28.194  24.597  1.00  0.00     0.031 C 
ATOM     84  C   UNL A   1      31.292  27.474  23.551  1.00  0.00     0.114 C 
ATOM     85  H   UNL A   1      29.864  25.933  23.922  1.00  0.00     0.161 HD
ATOM     86  C   UNL A   1      32.493  28.684  26.871  1.00  0.00    -0.030 C 
ATOM     87  C   UNL A   1      31.400  28.691  25.850  1.00  0.00     0.034 C 
BRANCH  84  88
ATOM     88  C   UNL A   1      30.180  28.357  23.005  1.00  0.00    -0.022 A 
ATOM     89  C   UNL A   1      28.846  28.024  23.284  1.00  0.00     0.026 A 
ATOM     90  C   UNL A   1      30.410  29.495  22.225  1.00  0.00     0.026 A 
ATOM     91  C   UNL A   1      27.829  28.827  22.795  1.00  0.00     0.111 A 
ATOM     92  C   UNL A   1      29.326  30.248  21.795  1.00  0.00     0.111 A 
ATOM     93  N   UNL A   1      28.040  29.942  22.069  1.00  0.00    -0.265 NA
ENDBRANCH  84  88
ENDBRANCH  71  74
ENDBRANCH  69  70
ENDBRANCH  68  69
ENDBRANCH   1  68
TORSDOF 14
ENDMDL
MODEL 3
REMARK VINA RESULT:     -12.4      2.751      8.674
REMARK SMILES O=C(NCCCNC(=O)c1ccc2c(c1)[C@@H]1C=CC[C@@H]1[C@H](c1ccncc1)N2)c1ccc(-c2c3nc(c(-c4ccc(S(=O)(=O)[O-])cc4)c4ccc([nH]4)c(-c4ccc(S(=O)(=O)[O-])cc4)c4nc(c(-c5ccc(S(=O)(=O)[O-])cc5)c5ccc2[nH]5)C=C4)C=C3)cc1
REMARK SMILES IDX 4 1 3 2 1 3 2 4 29 6 30 7 88 8 31 9 87 10 32 11 33 12 34 13
REMARK SMILES IDX 81 14 35 15 86 16 80 17 82 18 36 19 85 20 79 21 78 22 37 24
REMARK SMILES IDX 67 25 48 26 66 27 49 28 52 29 65 30 83 31 50 32 51 33 64 35
REMARK SMILES IDX 84 36 53 37 38 38 39 39 47 40 40 41 46 42 41 43 42 44 43 45
REMARK SMILES IDX 44 46 45 47 68 48 69 49 77 50 70 51 76 52 71 53 72 54 73 55
REMARK SMILES IDX 74 56 75 57 54 58 55 59 63 60 56 61 62 62 57 63 58 64 59 65
REMARK SMILES IDX 60 66 61 67 5 68 6 69 7 70 8 71 9 73 10 74 11 75 15 76 12 77
REMARK SMILES IDX 14 78 13 79 16 80 28 81 17 82 20 83 21 84 18 86 19 87 22 88
REMARK SMILES IDX 23 89 27 90 24 91 26 92 25 93
REMARK H PARENT 3 5 82 23 52 34 7 72 28 85
REMARK Flexibility Score: inf
ROOT
ATOM      1  C   UNL A   1      35.225  29.376  27.657  1.00  0.00     0.118 C 
ENDROOT
BRANCH   1   2
ATOM      2  N   UNL A   1      35.363  29.766  29.057  1.00  0.00    -0.352 N 
ATOM      3  O   UNL A   1      36.287  29.918  31.102  1.00  0.00    -0.269 OA
ATOM      4  C   UNL A   1      36.447  29.709  29.900  1.00  0.00     0.251 C 
ATOM      5  H   UNL A   1      34.544  30.131  29.464  1.00  0.00     0.163 HD
BRANCH   4   6
ATOM      6  C   UNL A   1      37.790  29.379  29.378  1.00  0.00     0.039 A 
ATOM      7  C   UNL A   1      38.750  28.799  30.204  1.00  0.00     0.014 A 
ATOM      8  C   UNL A   1      38.093  29.630  28.034  1.00  0.00     0.014 A 
ATOM      9  C   UNL A   1      40.054  28.655  29.754  1.00  0.00     0.010 A 
ATOM     10  C   UNL A   1      39.379  29.363  27.545  1.00  0.00     0.010 A 
ATOM     11  C   UNL A   1      40.382  28.909  28.411  1.00  0.00    -0.014 A 
BRANCH  11  12
ATOM     12  C   UNL A   1      41.766  28.609  27.958  1.00  0.00     0.031 A 
ATOM     13  C   UNL A   1      42.849  29.652  27.983  1.00  0.00     0.074 A 
ATOM     14  C   UNL A   1      42.055  27.340  27.605  1.00  0.00     0.049 A 
ATOM     15  N   UNL A   1      44.126  29.510  27.726  1.00  0.00    -0.248 NA
ATOM     16  C   UNL A   1      42.460  31.028  28.328  1.00  0.00     0.031 C 
ATOM     17  C   UNL A   1      41.080  26.247  27.519  1.00  0.00     0.029 A 
ATOM     18  N   UNL A   1      43.248  26.738  27.302  1.00  0.00    -0.354 N 
ATOM     19  C   UNL A   1      44.689  30.773  27.867  1.00  0.00     0.074 A 
ATOM     20  C   UNL A   1      43.610  31.677  28.203  1.00  0.00     0.031 C 
ATOM     21  C   UNL A   1      41.723  25.099  27.270  1.00  0.00     0.029 A 
ATOM     22  C   UNL A   1      43.144  25.382  27.107  1.00  0.00     0.049 A 
ATOM     23  H   UNL A   1      44.098  27.231  27.230  1.00  0.00     0.167 HD
ATOM     24  C   UNL A   1      45.987  31.142  27.734  1.00  0.00     0.031 A 
ATOM     25  C   UNL A   1      44.082  24.459  26.823  1.00  0.00     0.031 A 
ATOM     26  C   UNL A   1      47.057  30.237  27.399  1.00  0.00     0.049 A 
ATOM     27  C   UNL A   1      45.510  24.895  26.694  1.00  0.00     0.074 A 
ATOM     28  C   UNL A   1      48.404  30.517  27.241  1.00  0.00     0.029 A 
ATOM     29  N   UNL A   1      46.905  28.877  27.175  1.00  0.00    -0.354 N 
ATOM     30  N   UNL A   1      46.018  26.096  26.840  1.00  0.00    -0.248 NA
ATOM     31  C   UNL A   1      46.490  23.856  26.360  1.00  0.00     0.031 C 
ATOM     32  C   UNL A   1      49.060  29.333  26.886  1.00  0.00     0.029 A 
ATOM     33  C   UNL A   1      48.130  28.306  26.869  1.00  0.00     0.049 A 
ATOM     34  H   UNL A   1      46.051  28.389  27.225  1.00  0.00     0.167 HD
ATOM     35  C   UNL A   1      47.380  25.955  26.612  1.00  0.00     0.074 A 
ATOM     36  C   UNL A   1      47.620  24.548  26.360  1.00  0.00     0.031 C 
ATOM     37  C   UNL A   1      48.345  26.908  26.600  1.00  0.00     0.031 A 
BRANCH  24  38
ATOM     38  C   UNL A   1      46.326  32.596  27.942  1.00  0.00    -0.014 A 
ATOM     39  C   UNL A   1      46.746  33.068  29.198  1.00  0.00     0.010 A 
ATOM     40  C   UNL A   1      46.286  33.487  26.854  1.00  0.00     0.010 A 
ATOM     41  C   UNL A   1      47.095  34.411  29.369  1.00  0.00     0.020 A 
ATOM     42  C   UNL A   1      46.656  34.826  27.015  1.00  0.00     0.020 A 
ATOM     43  C   UNL A   1      47.047  35.283  28.276  1.00  0.00     0.054 A 
BRANCH  43  44
ATOM     44  S   UNL A   1      47.541  37.012  28.518  1.00  0.00     0.124 S 
ATOM     45  O   UNL A   1      46.771  37.381  29.703  1.00  0.00    -0.237 OA
ATOM     46  O   UNL A   1      48.985  36.909  28.715  1.00  0.00    -0.237 OA
ATOM     47  O   UNL A   1      47.130  37.667  27.279  1.00  0.00    -0.744 OA
ENDBRANCH  43  44
ENDBRANCH  24  38
BRANCH  25  48
ATOM     48  C   UNL A   1      43.682  23.042  26.616  1.00  0.00    -0.014 A 
ATOM     49  C   UNL A   1      44.008  22.363  25.430  1.00  0.00     0.010 A 
ATOM     50  C   UNL A   1      42.988  22.356  27.630  1.00  0.00     0.010 A 
ATOM     51  C   UNL A   1      43.630  21.028  25.255  1.00  0.00     0.020 A 
ATOM     52  C   UNL A   1      42.636  21.015  27.472  1.00  0.00     0.020 A 
ATOM     53  C   UNL A   1      42.945  20.363  26.277  1.00  0.00     0.054 A 
BRANCH  53  54
ATOM     54  S   UNL A   1      42.506  18.617  26.057  1.00  0.00     0.124 S 
ATOM     55  O   UNL A   1      43.391  18.220  24.967  1.00  0.00    -0.237 OA
ATOM     56  O   UNL A   1      42.813  18.042  27.364  1.00  0.00    -0.237 OA
ATOM     57  O   UNL A   1      41.083  18.665  25.726  1.00  0.00    -0.744 OA
ENDBRANCH  53  54
ENDBRANCH  25  48
BRANCH  37  58
ATOM     58  C   UNL A   1      49.745  26.446  26.302  1.00  0.00    -0.014 A 
ATOM     59  C   UNL A   1      50.578  25.961  27.327  1.00  0.00     0.010 A 
ATOM     60  C   UNL A   1      50.232  26.496  24.985  1.00  0.00     0.010 A 
ATOM     61  C   UNL A   1      51.892  25.582  27.046  1.00  0.00     0.020 A 
ATOM     62  C   UNL A   1      51.537  26.093  24.696  1.00  0.00     0.020 A 
ATOM     63  C   UNL A   1      52.367  25.659  25.733  1.00  0.00     0.054 A 
BRANCH  63  64
ATOM     64  S   UNL A   1      54.074  25.155  25.389  1.00  0.00     0.124 S 
ATOM     65  O   UNL A   1      53.904  23.758  24.997  1.00  0.00    -0.237 OA
ATOM     66  O   UNL A   1      54.470  26.064  24.316  1.00  0.00    -0.237 OA
ATOM     67  O   UNL A   1      54.760  25.367  26.661  1.00  0.00    -0.744 OA
ENDBRANCH  63  64
ENDBRANCH  37  58
ENDBRANCH  11  12
ENDBRANCH   4   6
ENDBRANCH   1   2
BRANCH   1  68
ATOM     68  C   UNL A   1      33.934  29.878  27.031  1.00  0.00     0.042 C 
BRANCH  68  69
ATOM     69  C   UNL A   1      33.332  28.905  26.031  1.00  0.00     0.118 C 
BRANCH  69  70
ATOM     70  N   UNL A   1      33.695  29.224  24.654  1.00  0.00    -0.352 N 
ATOM     71  C   UNL A   1      33.914  28.397  23.580  1.00  0.00     0.251 C 
ATOM     72  H   UNL A   1      33.798  30.185  24.466  1.00  0.00     0.163 HD
ATOM     73  O   UNL A   1      34.415  28.842  22.552  1.00  0.00    -0.269 OA
BRANCH  71  74
ATOM     74  C   UNL A   1      33.552  26.966  23.657  1.00  0.00     0.040 A 
ATOM     75  C   UNL A   1      32.679  26.427  22.714  1.00  0.00     0.016 A 
ATOM     76  C   UNL A   1      34.076  26.157  24.661  1.00  0.00     0.020 A 
ATOM     77  C   UNL A   1      32.371  25.064  22.762  1.00  0.00     0.027 A 
ATOM     78  C   UNL A   1      33.857  24.773  24.645  1.00  0.00    -0.017 A 
ATOM     79  C   UNL A   1      32.937  24.228  23.735  1.00  0.00     0.038 A 
ATOM     80  C   UNL A   1      34.651  23.891  25.580  1.00  0.00     0.049 C 
ATOM     81  N   UNL A   1      32.647  22.869  23.726  1.00  0.00    -0.378 N 
ATOM     82  C   UNL A   1      36.142  24.026  25.370  1.00  0.00    -0.023 C 
ATOM     83  C   UNL A   1      34.468  22.387  25.314  1.00  0.00     0.031 C 
ATOM     84  C   UNL A   1      33.042  22.058  24.870  1.00  0.00     0.114 C 
ATOM     85  H   UNL A   1      32.184  22.461  22.960  1.00  0.00     0.161 HD
ATOM     86  C   UNL A   1      36.649  22.997  24.678  1.00  0.00    -0.030 C 
ATOM     87  C   UNL A   1      35.588  22.002  24.331  1.00  0.00     0.034 C 
BRANCH  84  88
ATOM     88  C   UNL A   1      32.840  20.569  24.633  1.00  0.00    -0.022 A 
ATOM     89  C   UNL A   1      33.006  19.679  25.706  1.00  0.00     0.026 A 
ATOM     90  C   UNL A   1      32.499  20.024  23.391  1.00  0.00     0.026 A 
ATOM     91  C   UNL A   1      32.817  18.323  25.498  1.00  0.00     0.111 A 
ATOM     92  C   UNL A   1      32.313  18.652  23.285  1.00  0.00     0.111 A 
ATOM     93  N   UNL A   1      32.459  17.790  24.313  1.00  0.00    -0.265 NA
ENDBRANCH  84  88
ENDBRANCH  71  74
ENDBRANCH  69  70
ENDBRANCH  68  69
ENDBRANCH   1  68
TORSDOF 14
ENDMDL
