MODEL 1
REMARK VINA RESULT:     -11.5      0.000      0.000
REMARK SMILES O=C(CCCN1C(=O)C(=O)/C(=C(/[O-])c2ccccc2)[C@@H]1/C=C/c1ccccc1)NCCCNC(=O)c1ccc(-c2c3nc(c(-c4ccc(S(=O)(=O)[O-])cc4)c4ccc([nH]4)c(-c4ccc(S(=O)(=O)[O-])cc4)c4nc(c(-c5ccc(S(=O)(=O)[O-])cc5)c5ccc2[nH]5)C=C4)C=C3)cc1
REMARK SMILES IDX 30 1 29 2 1 3 2 4 3 6 4 7 5 8 6 9 7 10 20 11 8 12 9 13 11 14
REMARK SMILES IDX 10 15 12 16 13 17 21 18 22 19 23 20 24 21 28 22 25 23 27 24
REMARK SMILES IDX 26 25 14 26 15 27 19 28 16 29 18 30 17 31 31 32 32 33 33 34
REMARK SMILES IDX 34 35 35 37 36 38 37 39 95 40 38 41 94 42 39 43 40 44 41 45
REMARK SMILES IDX 88 46 42 47 93 48 87 49 89 50 43 51 92 52 86 53 85 54 44 56
REMARK SMILES IDX 74 57 55 58 73 59 56 60 59 61 72 62 90 63 57 64 58 65 71 67
REMARK SMILES IDX 91 68 60 69 45 70 46 71 54 72 47 73 53 74 48 75 49 76 50 77
REMARK SMILES IDX 51 78 52 79 75 80 76 81 84 82 77 83 83 84 78 85 79 86 80 87
REMARK SMILES IDX 81 88 82 89 61 90 62 91 70 92 63 93 69 94 64 95 65 96 66 97
REMARK SMILES IDX 67 98 68 99
REMARK H PARENT 29 5 33 36 89 55 59 66
REMARK Flexibility Score: inf
ROOT
ATOM      1  C   UNL A   1      38.936  24.352  26.546  1.00  0.00     0.117 C 
ENDROOT
BRANCH   1   2
ATOM      2  N   UNL A   1      37.557  23.854  26.590  1.00  0.00    -0.356 N 
ATOM      3  O   UNL A   1      37.297  23.217  24.407  1.00  0.00    -0.275 OA
ATOM      4  C   UNL A   1      36.837  23.373  25.531  1.00  0.00     0.220 C 
ATOM      5  H   UNL A   1      37.106  23.867  27.465  1.00  0.00     0.163 HD
BRANCH   4   6
ATOM      6  C   UNL A   1      35.370  23.121  25.862  1.00  0.00     0.102 C 
BRANCH   6   7
ATOM      7  C   UNL A   1      34.434  24.341  25.817  1.00  0.00     0.031 C 
BRANCH   7   8
ATOM      8  C   UNL A   1      34.525  25.278  24.589  1.00  0.00     0.121 C 
BRANCH   8   9
ATOM      9  N   UNL A   1      33.265  25.902  24.184  1.00  0.00    -0.325 N 
ATOM     10  C   UNL A   1      32.558  25.519  23.068  1.00  0.00     0.295 C 
ATOM     11  C   UNL A   1      32.507  26.838  25.008  1.00  0.00     0.143 C 
ATOM     12  O   UNL A   1      32.762  24.582  22.327  1.00  0.00    -0.265 OA
ATOM     13  C   UNL A   1      31.471  26.570  22.867  1.00  0.00     0.248 C 
ATOM     14  C   UNL A   1      31.430  27.409  24.102  1.00  0.00     0.024 C 
ATOM     15  O   UNL A   1      30.867  26.700  21.826  1.00  0.00    -0.283 OA
ATOM     16  C   UNL A   1      30.685  28.522  24.290  1.00  0.00    -0.092 C 
ATOM     17  O   UNL A   1      30.737  29.291  25.443  1.00  0.00    -0.872 OA
BRANCH  11  18
ATOM     18  C   UNL A   1      33.469  27.854  25.537  1.00  0.00     0.003 C 
ATOM     19  C   UNL A   1      33.498  28.212  26.826  1.00  0.00     0.006 C 
BRANCH  19  20
ATOM     20  C   UNL A   1      34.322  29.307  27.278  1.00  0.00    -0.026 A 
ATOM     21  C   UNL A   1      33.535  30.918  27.440  1.00  0.00     0.008 A 
ATOM     22  C   UNL A   1      36.091  29.117  27.630  1.00  0.00     0.008 A 
ATOM     23  C   UNL A   1      34.513  32.328  27.931  1.00  0.00     0.001 A 
ATOM     24  C   UNL A   1      37.070  30.576  28.123  1.00  0.00     0.001 A 
ATOM     25  C   UNL A   1      36.265  32.167  28.312  1.00  0.00     0.000 A 
ENDBRANCH  19  20
ENDBRANCH  11  18
BRANCH  16  26
ATOM     26  C   UNL A   1      29.797  29.135  23.285  1.00  0.00    -0.033 A 
ATOM     27  C   UNL A   1      30.328  30.051  22.360  1.00  0.00     0.007 A 
ATOM     28  C   UNL A   1      28.426  28.863  23.244  1.00  0.00     0.007 A 
ATOM     29  C   UNL A   1      29.514  30.645  21.393  1.00  0.00     0.001 A 
ATOM     30  C   UNL A   1      27.615  29.442  22.265  1.00  0.00     0.001 A 
ATOM     31  C   UNL A   1      28.159  30.331  21.340  1.00  0.00     0.000 A 
ENDBRANCH  16  26
ENDBRANCH   8   9
ENDBRANCH   7   8
ENDBRANCH   6   7
ENDBRANCH   4   6
ENDBRANCH   1   2
BRANCH   1  32
ATOM     32  C   UNL A   1      40.232  23.258  27.048  1.00  0.00     0.042 C 
BRANCH  32  33
ATOM     33  C   UNL A   1      40.556  21.096  26.944  1.00  0.00     0.118 C 
BRANCH  33  34
ATOM     34  N   UNL A   1      41.442  20.176  25.892  1.00  0.00    -0.352 N 
ATOM     35  C   UNL A   1      42.713  20.338  25.417  1.00  0.00     0.251 C 
ATOM     36  H   UNL A   1      40.976  19.379  25.552  1.00  0.00     0.163 HD
ATOM     37  O   UNL A   1      43.219  19.510  24.670  1.00  0.00    -0.269 OA
BRANCH  35  38
ATOM     38  C   UNL A   1      43.419  21.570  25.755  1.00  0.00     0.039 A 
ATOM     39  C   UNL A   1      43.200  22.677  24.936  1.00  0.00     0.014 A 
ATOM     40  C   UNL A   1      44.177  21.652  26.923  1.00  0.00     0.014 A 
ATOM     41  C   UNL A   1      43.698  23.909  25.331  1.00  0.00     0.010 A 
ATOM     42  C   UNL A   1      44.606  22.898  27.353  1.00  0.00     0.010 A 
ATOM     43  C   UNL A   1      44.364  24.032  26.561  1.00  0.00    -0.014 A 
BRANCH  43  44
ATOM     44  C   UNL A   1      44.798  25.362  27.030  1.00  0.00     0.031 A 
ATOM     45  C   UNL A   1      46.153  25.875  26.644  1.00  0.00     0.074 A 
ATOM     46  C   UNL A   1      43.972  26.083  27.811  1.00  0.00     0.049 A 
ATOM     47  N   UNL A   1      46.712  27.014  26.946  1.00  0.00    -0.248 NA
ATOM     48  C   UNL A   1      46.995  24.984  25.828  1.00  0.00     0.031 C 
ATOM     49  C   UNL A   1      42.643  25.654  28.260  1.00  0.00     0.029 A 
ATOM     50  N   UNL A   1      44.118  27.330  28.358  1.00  0.00    -0.354 N 
ATOM     51  C   UNL A   1      47.973  26.976  26.365  1.00  0.00     0.074 A 
ATOM     52  C   UNL A   1      48.119  25.680  25.744  1.00  0.00     0.031 C 
ATOM     53  C   UNL A   1      42.082  26.640  28.977  1.00  0.00     0.029 A 
ATOM     54  C   UNL A   1      43.028  27.745  29.085  1.00  0.00     0.049 A 
ATOM     55  H   UNL A   1      44.928  27.878  28.242  1.00  0.00     0.167 HD
ATOM     56  C   UNL A   1      48.914  27.946  26.337  1.00  0.00     0.031 A 
ATOM     57  C   UNL A   1      42.821  28.888  29.768  1.00  0.00     0.031 A 
ATOM     58  C   UNL A   1      48.751  29.226  26.972  1.00  0.00     0.049 A 
ATOM     59  C   UNL A   1      43.903  29.932  29.759  1.00  0.00     0.074 A 
ATOM     60  C   UNL A   1      49.624  30.297  26.981  1.00  0.00     0.029 A 
ATOM     61  N   UNL A   1      47.645  29.601  27.722  1.00  0.00    -0.354 N 
ATOM     62  N   UNL A   1      45.064  29.908  29.146  1.00  0.00    -0.248 NA
ATOM     63  C   UNL A   1      43.648  31.159  30.524  1.00  0.00     0.031 C 
ATOM     64  C   UNL A   1      49.079  31.293  27.797  1.00  0.00     0.029 A 
ATOM     65  C   UNL A   1      47.829  30.876  28.228  1.00  0.00     0.049 A 
ATOM     66  H   UNL A   1      46.847  29.043  27.871  1.00  0.00     0.167 HD
ATOM     67  C   UNL A   1      45.667  31.128  29.430  1.00  0.00     0.074 A 
ATOM     68  C   UNL A   1      44.732  31.872  30.252  1.00  0.00     0.031 C 
ATOM     69  C   UNL A   1      46.881  31.593  29.046  1.00  0.00     0.031 A 
BRANCH  56  70
ATOM     70  C   UNL A   1      50.203  27.647  25.620  1.00  0.00    -0.014 A 
ATOM     71  C   UNL A   1      50.332  27.846  24.233  1.00  0.00     0.010 A 
ATOM     72  C   UNL A   1      51.315  27.190  26.350  1.00  0.00     0.010 A 
ATOM     73  C   UNL A   1      51.535  27.557  23.584  1.00  0.00     0.020 A 
ATOM     74  C   UNL A   1      52.531  26.933  25.711  1.00  0.00     0.020 A 
ATOM     75  C   UNL A   1      52.628  27.104  24.329  1.00  0.00     0.054 A 
BRANCH  75  76
ATOM     76  S   UNL A   1      54.186  26.772  23.463  1.00  0.00     0.124 S 
ATOM     77  O   UNL A   1      54.828  28.084  23.483  1.00  0.00    -0.237 OA
ATOM     78  O   UNL A   1      54.808  25.756  24.307  1.00  0.00    -0.237 OA
ATOM     79  O   UNL A   1      53.760  26.309  22.144  1.00  0.00    -0.744 OA
ENDBRANCH  75  76
ENDBRANCH  56  70
BRANCH  57  80
ATOM     80  C   UNL A   1      41.547  29.095  30.511  1.00  0.00    -0.014 A 
ATOM     81  C   UNL A   1      41.382  28.598  31.815  1.00  0.00     0.010 A 
ATOM     82  C   UNL A   1      40.489  29.806  29.915  1.00  0.00     0.010 A 
ATOM     83  C   UNL A   1      40.178  28.788  32.500  1.00  0.00     0.020 A 
ATOM     84  C   UNL A   1      39.296  30.029  30.608  1.00  0.00     0.020 A 
ATOM     85  C   UNL A   1      39.144  29.506  31.893  1.00  0.00     0.054 A 
BRANCH  85  86
ATOM     86  S   UNL A   1      37.608  29.779  32.819  1.00  0.00     0.124 S 
ATOM     87  O   UNL A   1      36.727  30.325  31.792  1.00  0.00    -0.237 OA
ATOM     88  O   UNL A   1      37.282  28.434  33.287  1.00  0.00    -0.237 OA
ATOM     89  O   UNL A   1      38.003  30.717  33.868  1.00  0.00    -0.744 OA
ENDBRANCH  85  86
ENDBRANCH  57  80
BRANCH  69  90
ATOM     90  C   UNL A   1      47.259  32.985  29.479  1.00  0.00    -0.014 A 
ATOM     91  C   UNL A   1      46.910  34.110  28.712  1.00  0.00     0.010 A 
ATOM     92  C   UNL A   1      47.910  33.169  30.713  1.00  0.00     0.010 A 
ATOM     93  C   UNL A   1      47.231  35.394  29.160  1.00  0.00     0.020 A 
ATOM     94  C   UNL A   1      48.198  34.451  31.181  1.00  0.00     0.020 A 
ATOM     95  C   UNL A   1      47.866  35.556  30.396  1.00  0.00     0.054 A 
BRANCH  95  96
ATOM     96  S   UNL A   1      48.212  37.237  30.980  1.00  0.00     0.124 S 
ATOM     97  O   UNL A   1      48.263  37.989  29.729  1.00  0.00    -0.237 OA
ATOM     98  O   UNL A   1      47.064  37.517  31.838  1.00  0.00    -0.237 OA
ATOM     99  O   UNL A   1      49.488  37.105  31.679  1.00  0.00    -0.744 OA
ENDBRANCH  95  96
ENDBRANCH  69  90
ENDBRANCH  43  44
ENDBRANCH  35  38
ENDBRANCH  33  34
ENDBRANCH  32  33
ENDBRANCH   1  32
TORSDOF 19
ENDMDL
MODEL 2
REMARK VINA RESULT:     -11.4      1.692      8.505
REMARK SMILES O=C(CCCN1C(=O)C(=O)/C(=C(/[O-])c2ccccc2)[C@@H]1/C=C/c1ccccc1)NCCCNC(=O)c1ccc(-c2c3nc(c(-c4ccc(S(=O)(=O)[O-])cc4)c4ccc([nH]4)c(-c4ccc(S(=O)(=O)[O-])cc4)c4nc(c(-c5ccc(S(=O)(=O)[O-])cc5)c5ccc2[nH]5)C=C4)C=C3)cc1
REMARK SMILES IDX 30 1 29 2 1 3 2 4 3 6 4 7 5 8 6 9 7 10 20 11 8 12 9 13 11 14
REMARK SMILES IDX 10 15 12 16 13 17 21 18 22 19 23 20 24 21 28 22 25 23 27 24
REMARK SMILES IDX 26 25 14 26 15 27 19 28 16 29 18 30 17 31 31 32 32 33 33 34
REMARK SMILES IDX 34 35 35 37 36 38 37 39 95 40 38 41 94 42 39 43 40 44 41 45
REMARK SMILES IDX 88 46 42 47 93 48 87 49 89 50 43 51 92 52 86 53 85 54 44 56
REMARK SMILES IDX 74 57 55 58 73 59 56 60 59 61 72 62 90 63 57 64 58 65 71 67
REMARK SMILES IDX 91 68 60 69 45 70 46 71 54 72 47 73 53 74 48 75 49 76 50 77
REMARK SMILES IDX 51 78 52 79 75 80 76 81 84 82 77 83 83 84 78 85 79 86 80 87
REMARK SMILES IDX 81 88 82 89 61 90 62 91 70 92 63 93 69 94 64 95 65 96 66 97
REMARK SMILES IDX 67 98 68 99
REMARK H PARENT 29 5 33 36 89 55 59 66
REMARK Flexibility Score: inf
ROOT
ATOM      1  C   UNL A   1      39.126  23.902  26.565  1.00  0.00     0.117 C 
ENDROOT
BRANCH   1   2
ATOM      2  N   UNL A   1      37.728  23.463  26.647  1.00  0.00    -0.356 N 
ATOM      3  O   UNL A   1      37.681  21.969  24.914  1.00  0.00    -0.275 OA
ATOM      4  C   UNL A   1      37.108  22.580  25.807  1.00  0.00     0.220 C 
ATOM      5  H   UNL A   1      37.184  23.841  27.376  1.00  0.00     0.163 HD
BRANCH   4   6
ATOM      6  C   UNL A   1      35.603  22.484  26.035  1.00  0.00     0.102 C 
BRANCH   6   7
ATOM      7  C   UNL A   1      34.849  23.812  26.226  1.00  0.00     0.031 C 
BRANCH   7   8
ATOM      8  C   UNL A   1      35.233  25.000  25.312  1.00  0.00     0.121 C 
BRANCH   8   9
ATOM      9  N   UNL A   1      34.113  25.825  24.857  1.00  0.00    -0.325 N 
ATOM     10  C   UNL A   1      33.618  26.887  25.577  1.00  0.00     0.295 C 
ATOM     11  C   UNL A   1      33.534  25.762  23.520  1.00  0.00     0.143 C 
ATOM     12  O   UNL A   1      34.057  27.386  26.591  1.00  0.00    -0.265 OA
ATOM     13  C   UNL A   1      32.319  27.301  24.892  1.00  0.00     0.248 C 
ATOM     14  C   UNL A   1      32.263  26.591  23.579  1.00  0.00     0.024 C 
ATOM     15  O   UNL A   1      31.489  28.001  25.428  1.00  0.00    -0.283 OA
ATOM     16  C   UNL A   1      31.226  26.592  22.712  1.00  0.00    -0.092 C 
ATOM     17  O   UNL A   1      31.214  25.863  21.533  1.00  0.00    -0.872 OA
BRANCH  11  18
ATOM     18  C   UNL A   1      33.312  24.319  23.191  1.00  0.00     0.003 C 
ATOM     19  C   UNL A   1      32.436  23.558  23.855  1.00  0.00     0.006 C 
BRANCH  19  20
ATOM     20  C   UNL A   1      32.359  22.135  23.625  1.00  0.00    -0.026 A 
ATOM     21  C   UNL A   1      32.646  21.057  25.038  1.00  0.00     0.008 A 
ATOM     22  C   UNL A   1      32.038  21.426  21.988  1.00  0.00     0.008 A 
ATOM     23  C   UNL A   1      32.630  19.287  24.810  1.00  0.00     0.001 A 
ATOM     24  C   UNL A   1      32.036  19.613  21.779  1.00  0.00     0.001 A 
ATOM     25  C   UNL A   1      32.289  18.552  23.202  1.00  0.00     0.000 A 
ENDBRANCH  19  20
ENDBRANCH  11  18
BRANCH  16  26
ATOM     26  C   UNL A   1      29.933  27.272  22.927  1.00  0.00    -0.033 A 
ATOM     27  C   UNL A   1      29.767  28.596  22.487  1.00  0.00     0.007 A 
ATOM     28  C   UNL A   1      28.872  26.650  23.591  1.00  0.00     0.007 A 
ATOM     29  C   UNL A   1      28.555  29.265  22.671  1.00  0.00     0.001 A 
ATOM     30  C   UNL A   1      27.653  27.310  23.758  1.00  0.00     0.001 A 
ATOM     31  C   UNL A   1      27.494  28.615  23.297  1.00  0.00     0.000 A 
ENDBRANCH  16  26
ENDBRANCH   8   9
ENDBRANCH   7   8
ENDBRANCH   6   7
ENDBRANCH   4   6
ENDBRANCH   1   2
BRANCH   1  32
ATOM     32  C   UNL A   1      40.359  22.901  27.342  1.00  0.00     0.042 C 
BRANCH  32  33
ATOM     33  C   UNL A   1      40.900  20.781  27.268  1.00  0.00     0.118 C 
BRANCH  33  34
ATOM     34  N   UNL A   1      41.689  19.897  26.113  1.00  0.00    -0.352 N 
ATOM     35  C   UNL A   1      42.873  20.123  25.470  1.00  0.00     0.251 C 
ATOM     36  H   UNL A   1      41.228  19.070  25.845  1.00  0.00     0.163 HD
ATOM     37  O   UNL A   1      43.322  19.313  24.667  1.00  0.00    -0.269 OA
BRANCH  35  38
ATOM     38  C   UNL A   1      43.547  21.397  25.701  1.00  0.00     0.039 A 
ATOM     39  C   UNL A   1      43.375  22.393  24.741  1.00  0.00     0.014 A 
ATOM     40  C   UNL A   1      44.223  21.632  26.898  1.00  0.00     0.014 A 
ATOM     41  C   UNL A   1      43.837  23.672  25.015  1.00  0.00     0.010 A 
ATOM     42  C   UNL A   1      44.614  22.927  27.201  1.00  0.00     0.010 A 
ATOM     43  C   UNL A   1      44.417  23.953  26.262  1.00  0.00    -0.014 A 
BRANCH  43  44
ATOM     44  C   UNL A   1      44.810  25.337  26.593  1.00  0.00     0.031 A 
ATOM     45  C   UNL A   1      43.783  26.288  27.128  1.00  0.00     0.074 A 
ATOM     46  C   UNL A   1      46.085  25.721  26.390  1.00  0.00     0.049 A 
ATOM     47  N   UNL A   1      43.930  27.534  27.484  1.00  0.00    -0.248 NA
ATOM     48  C   UNL A   1      42.409  25.777  27.264  1.00  0.00     0.031 C 
ATOM     49  C   UNL A   1      47.150  24.870  25.849  1.00  0.00     0.029 A 
ATOM     50  N   UNL A   1      46.706  26.919  26.625  1.00  0.00    -0.354 N 
ATOM     51  C   UNL A   1      42.669  27.961  27.878  1.00  0.00     0.074 A 
ATOM     52  C   UNL A   1      41.758  26.860  27.663  1.00  0.00     0.031 C 
ATOM     53  C   UNL A   1      48.299  25.562  25.833  1.00  0.00     0.029 A 
ATOM     54  C   UNL A   1      48.044  26.916  26.310  1.00  0.00     0.049 A 
ATOM     55  H   UNL A   1      46.238  27.708  26.984  1.00  0.00     0.167 HD
ATOM     56  C   UNL A   1      42.310  29.158  28.393  1.00  0.00     0.031 A 
ATOM     57  C   UNL A   1      48.958  27.903  26.392  1.00  0.00     0.031 A 
ATOM     58  C   UNL A   1      43.233  30.244  28.589  1.00  0.00     0.049 A 
ATOM     59  C   UNL A   1      48.523  29.240  26.925  1.00  0.00     0.074 A 
ATOM     60  C   UNL A   1      42.988  31.490  29.134  1.00  0.00     0.029 A 
ATOM     61  N   UNL A   1      44.575  30.215  28.235  1.00  0.00    -0.354 N 
ATOM     62  N   UNL A   1      47.340  29.606  27.360  1.00  0.00    -0.248 NA
ATOM     63  C   UNL A   1      49.544  30.293  26.989  1.00  0.00     0.031 C 
ATOM     64  C   UNL A   1      44.163  32.241  29.041  1.00  0.00     0.029 A 
ATOM     65  C   UNL A   1      45.163  31.435  28.516  1.00  0.00     0.049 A 
ATOM     66  H   UNL A   1      45.039  29.441  27.842  1.00  0.00     0.167 HD
ATOM     67  C   UNL A   1      47.480  30.925  27.774  1.00  0.00     0.074 A 
ATOM     68  C   UNL A   1      48.868  31.283  27.556  1.00  0.00     0.031 C 
ATOM     69  C   UNL A   1      46.549  31.766  28.288  1.00  0.00     0.031 A 
BRANCH  56  70
ATOM     70  C   UNL A   1      40.863  29.358  28.754  1.00  0.00    -0.014 A 
ATOM     71  C   UNL A   1      40.440  29.386  30.096  1.00  0.00     0.010 A 
ATOM     72  C   UNL A   1      39.912  29.552  27.735  1.00  0.00     0.010 A 
ATOM     73  C   UNL A   1      39.091  29.566  30.411  1.00  0.00     0.020 A 
ATOM     74  C   UNL A   1      38.568  29.768  28.047  1.00  0.00     0.020 A 
ATOM     75  C   UNL A   1      38.163  29.758  29.383  1.00  0.00     0.054 A 
BRANCH  75  76
ATOM     76  S   UNL A   1      36.425  30.026  29.825  1.00  0.00     0.124 S 
ATOM     77  O   UNL A   1      36.314  29.278  31.075  1.00  0.00    -0.237 OA
ATOM     78  O   UNL A   1      36.351  31.479  29.954  1.00  0.00    -0.237 OA
ATOM     79  O   UNL A   1      35.688  29.463  28.696  1.00  0.00    -0.744 OA
ENDBRANCH  75  76
ENDBRANCH  56  70
BRANCH  57  80
ATOM     80  C   UNL A   1      50.362  27.659  25.959  1.00  0.00    -0.014 A 
ATOM     81  C   UNL A   1      50.746  27.839  24.618  1.00  0.00     0.010 A 
ATOM     82  C   UNL A   1      51.331  27.251  26.895  1.00  0.00     0.010 A 
ATOM     83  C   UNL A   1      52.064  27.596  24.219  1.00  0.00     0.020 A 
ATOM     84  C   UNL A   1      52.657  27.041  26.507  1.00  0.00     0.020 A 
ATOM     85  C   UNL A   1      53.012  27.203  25.167  1.00  0.00     0.054 A 
BRANCH  85  86
ATOM     86  S   UNL A   1      54.725  26.938  24.633  1.00  0.00     0.124 S 
ATOM     87  O   UNL A   1      54.808  27.784  23.447  1.00  0.00    -0.237 OA
ATOM     88  O   UNL A   1      55.488  27.395  25.793  1.00  0.00    -0.237 OA
ATOM     89  O   UNL A   1      54.788  25.499  24.382  1.00  0.00    -0.744 OA
ENDBRANCH  85  86
ENDBRANCH  57  80
BRANCH  69  90
ATOM     90  C   UNL A   1      47.003  33.145  28.685  1.00  0.00    -0.014 A 
ATOM     91  C   UNL A   1      47.530  33.403  29.963  1.00  0.00     0.010 A 
ATOM     92  C   UNL A   1      46.968  34.182  27.734  1.00  0.00     0.010 A 
ATOM     93  C   UNL A   1      47.989  34.681  30.290  1.00  0.00     0.020 A 
ATOM     94  C   UNL A   1      47.460  35.450  28.046  1.00  0.00     0.020 A 
ATOM     95  C   UNL A   1      47.958  35.694  29.326  1.00  0.00     0.054 A 
BRANCH  95  96
ATOM     96  S   UNL A   1      48.619  37.325  29.760  1.00  0.00     0.124 S 
ATOM     97  O   UNL A   1      47.473  37.954  30.411  1.00  0.00    -0.237 OA
ATOM     98  O   UNL A   1      49.737  36.991  30.639  1.00  0.00    -0.237 OA
ATOM     99  O   UNL A   1      48.996  37.901  28.471  1.00  0.00    -0.744 OA
ENDBRANCH  95  96
ENDBRANCH  69  90
ENDBRANCH  43  44
ENDBRANCH  35  38
ENDBRANCH  33  34
ENDBRANCH  32  33
ENDBRANCH   1  32
TORSDOF 19
ENDMDL
MODEL 3
REMARK VINA RESULT:     -11.2      1.526      3.554
REMARK SMILES O=C(CCCN1C(=O)C(=O)/C(=C(/[O-])c2ccccc2)[C@@H]1/C=C/c1ccccc1)NCCCNC(=O)c1ccc(-c2c3nc(c(-c4ccc(S(=O)(=O)[O-])cc4)c4ccc([nH]4)c(-c4ccc(S(=O)(=O)[O-])cc4)c4nc(c(-c5ccc(S(=O)(=O)[O-])cc5)c5ccc2[nH]5)C=C4)C=C3)cc1
REMARK SMILES IDX 30 1 29 2 1 3 2 4 3 6 4 7 5 8 6 9 7 10 20 11 8 12 9 13 11 14
REMARK SMILES IDX 10 15 12 16 13 17 21 18 22 19 23 20 24 21 28 22 25 23 27 24
REMARK SMILES IDX 26 25 14 26 15 27 19 28 16 29 18 30 17 31 31 32 32 33 33 34
REMARK SMILES IDX 34 35 35 37 36 38 37 39 95 40 38 41 94 42 39 43 40 44 41 45
REMARK SMILES IDX 88 46 42 47 93 48 87 49 89 50 43 51 92 52 86 53 85 54 44 56
REMARK SMILES IDX 74 57 55 58 73 59 56 60 59 61 72 62 90 63 57 64 58 65 71 67
REMARK SMILES IDX 91 68 60 69 45 70 46 71 54 72 47 73 53 74 48 75 49 76 50 77
REMARK SMILES IDX 51 78 52 79 75 80 76 81 84 82 77 83 83 84 78 85 79 86 80 87
REMARK SMILES IDX 81 88 82 89 61 90 62 91 70 92 63 93 69 94 64 95 65 96 66 97
REMARK SMILES IDX 67 98 68 99
REMARK H PARENT 29 5 33 36 89 55 59 66
REMARK Flexibility Score: inf
ROOT
ATOM      1  C   UNL A   1      39.079  23.370  26.531  1.00  0.00     0.117 C 
ENDROOT
BRANCH   1   2
ATOM      2  N   UNL A   1      37.627  23.157  26.542  1.00  0.00    -0.356 N 
ATOM      3  O   UNL A   1      37.419  21.769  24.733  1.00  0.00    -0.275 OA
ATOM      4  C   UNL A   1      36.912  22.423  25.636  1.00  0.00     0.220 C 
ATOM      5  H   UNL A   1      37.119  23.582  27.270  1.00  0.00     0.163 HD
BRANCH   4   6
ATOM      6  C   UNL A   1      35.402  22.559  25.806  1.00  0.00     0.102 C 
BRANCH   6   7
ATOM      7  C   UNL A   1      34.879  23.939  26.242  1.00  0.00     0.031 C 
BRANCH   7   8
ATOM      8  C   UNL A   1      35.252  25.162  25.371  1.00  0.00     0.121 C 
BRANCH   8   9
ATOM      9  N   UNL A   1      34.120  25.958  24.895  1.00  0.00    -0.325 N 
ATOM     10  C   UNL A   1      33.612  27.033  25.585  1.00  0.00     0.295 C 
ATOM     11  C   UNL A   1      33.538  25.847  23.562  1.00  0.00     0.143 C 
ATOM     12  O   UNL A   1      34.046  27.567  26.583  1.00  0.00    -0.265 OA
ATOM     13  C   UNL A   1      32.306  27.409  24.892  1.00  0.00     0.248 C 
ATOM     14  C   UNL A   1      32.256  26.661  23.600  1.00  0.00     0.024 C 
ATOM     15  O   UNL A   1      31.466  28.112  25.409  1.00  0.00    -0.283 OA
ATOM     16  C   UNL A   1      31.217  26.622  22.736  1.00  0.00    -0.092 C 
ATOM     17  O   UNL A   1      31.213  25.859  21.579  1.00  0.00    -0.872 OA
BRANCH  11  18
ATOM     18  C   UNL A   1      33.336  24.393  23.276  1.00  0.00     0.003 C 
ATOM     19  C   UNL A   1      32.381  23.670  23.871  1.00  0.00     0.006 C 
BRANCH  19  20
ATOM     20  C   UNL A   1      32.312  22.239  23.698  1.00  0.00    -0.026 A 
ATOM     21  C   UNL A   1      32.525  21.221  25.167  1.00  0.00     0.008 A 
ATOM     22  C   UNL A   1      32.072  21.461  22.078  1.00  0.00     0.008 A 
ATOM     23  C   UNL A   1      32.516  19.443  25.014  1.00  0.00     0.001 A 
ATOM     24  C   UNL A   1      32.075  19.641  21.946  1.00  0.00     0.001 A 
ATOM     25  C   UNL A   1      32.254  18.641  23.424  1.00  0.00     0.000 A 
ENDBRANCH  19  20
ENDBRANCH  11  18
BRANCH  16  26
ATOM     26  C   UNL A   1      29.916  27.289  22.934  1.00  0.00    -0.033 A 
ATOM     27  C   UNL A   1      29.719  28.586  22.428  1.00  0.00     0.007 A 
ATOM     28  C   UNL A   1      28.875  26.686  23.647  1.00  0.00     0.007 A 
ATOM     29  C   UNL A   1      28.498  29.242  22.595  1.00  0.00     0.001 A 
ATOM     30  C   UNL A   1      27.647  27.333  23.798  1.00  0.00     0.001 A 
ATOM     31  C   UNL A   1      27.458  28.609  23.271  1.00  0.00     0.000 A 
ENDBRANCH  16  26
ENDBRANCH   8   9
ENDBRANCH   7   8
ENDBRANCH   6   7
ENDBRANCH   4   6
ENDBRANCH   1   2
BRANCH   1  32
ATOM     32  C   UNL A   1      40.112  22.092  27.184  1.00  0.00     0.042 C 
BRANCH  32  33
ATOM     33  C   UNL A   1      40.767  20.125  26.484  1.00  0.00     0.118 C 
BRANCH  33  34
ATOM     34  N   UNL A   1      42.087  19.668  25.597  1.00  0.00    -0.352 N 
ATOM     35  C   UNL A   1      43.263  20.318  25.346  1.00  0.00     0.251 C 
ATOM     36  H   UNL A   1      42.014  18.779  25.181  1.00  0.00     0.163 HD
ATOM     37  O   UNL A   1      44.153  19.785  24.694  1.00  0.00    -0.269 OA
BRANCH  35  38
ATOM     38  C   UNL A   1      43.393  21.698  25.802  1.00  0.00     0.039 A 
ATOM     39  C   UNL A   1      43.880  21.901  27.092  1.00  0.00     0.014 A 
ATOM     40  C   UNL A   1      43.157  22.757  24.925  1.00  0.00     0.014 A 
ATOM     41  C   UNL A   1      44.198  23.191  27.491  1.00  0.00     0.010 A 
ATOM     42  C   UNL A   1      43.548  24.033  25.300  1.00  0.00     0.010 A 
ATOM     43  C   UNL A   1      44.075  24.254  26.582  1.00  0.00    -0.014 A 
BRANCH  43  44
ATOM     44  C   UNL A   1      44.515  25.607  26.973  1.00  0.00     0.031 A 
ATOM     45  C   UNL A   1      45.911  26.050  26.658  1.00  0.00     0.074 A 
ATOM     46  C   UNL A   1      43.653  26.413  27.623  1.00  0.00     0.049 A 
ATOM     47  N   UNL A   1      46.482  27.196  26.909  1.00  0.00    -0.248 NA
ATOM     48  C   UNL A   1      46.785  25.071  25.990  1.00  0.00     0.031 C 
ATOM     49  C   UNL A   1      42.279  26.059  27.995  1.00  0.00     0.029 A 
ATOM     50  N   UNL A   1      43.797  27.698  28.075  1.00  0.00    -0.354 N 
ATOM     51  C   UNL A   1      47.782  27.076  26.438  1.00  0.00     0.074 A 
ATOM     52  C   UNL A   1      47.935  25.728  25.940  1.00  0.00     0.031 C 
ATOM     53  C   UNL A   1      41.696  27.116  28.581  1.00  0.00     0.029 A 
ATOM     54  C   UNL A   1      42.666  28.201  28.674  1.00  0.00     0.049 A 
ATOM     55  H   UNL A   1      44.631  28.212  27.980  1.00  0.00     0.167 HD
ATOM     56  C   UNL A   1      48.755  28.015  26.407  1.00  0.00     0.031 A 
ATOM     57  C   UNL A   1      42.444  29.402  29.241  1.00  0.00     0.031 A 
ATOM     58  C   UNL A   1      48.584  29.348  26.919  1.00  0.00     0.049 A 
ATOM     59  C   UNL A   1      43.557  30.414  29.235  1.00  0.00     0.074 A 
ATOM     60  C   UNL A   1      49.488  30.393  26.910  1.00  0.00     0.029 A 
ATOM     61  N   UNL A   1      47.435  29.814  27.543  1.00  0.00    -0.354 N 
ATOM     62  N   UNL A   1      44.761  30.308  28.722  1.00  0.00    -0.248 NA
ATOM     63  C   UNL A   1      43.282  31.707  29.872  1.00  0.00     0.031 C 
ATOM     64  C   UNL A   1      48.914  31.468  27.594  1.00  0.00     0.029 A 
ATOM     65  C   UNL A   1      47.620  31.122  27.955  1.00  0.00     0.049 A 
ATOM     66  H   UNL A   1      46.610  29.292  27.672  1.00  0.00     0.167 HD
ATOM     67  C   UNL A   1      45.379  31.531  28.952  1.00  0.00     0.074 A 
ATOM     68  C   UNL A   1      44.407  32.366  29.631  1.00  0.00     0.031 C 
ATOM     69  C   UNL A   1      46.634  31.931  28.631  1.00  0.00     0.031 A 
BRANCH  56  70
ATOM     70  C   UNL A   1      50.086  27.622  25.824  1.00  0.00    -0.014 A 
ATOM     71  C   UNL A   1      51.116  27.106  26.633  1.00  0.00     0.010 A 
ATOM     72  C   UNL A   1      50.301  27.742  24.440  1.00  0.00     0.010 A 
ATOM     73  C   UNL A   1      52.347  26.754  26.074  1.00  0.00     0.020 A 
ATOM     74  C   UNL A   1      51.518  27.357  23.872  1.00  0.00     0.020 A 
ATOM     75  C   UNL A   1      52.538  26.879  24.696  1.00  0.00     0.054 A 
BRANCH  75  76
ATOM     76  S   UNL A   1      54.135  26.379  23.996  1.00  0.00     0.124 S 
ATOM     77  O   UNL A   1      54.367  25.098  24.659  1.00  0.00    -0.237 OA
ATOM     78  O   UNL A   1      53.844  26.303  22.566  1.00  0.00    -0.237 OA
ATOM     79  O   UNL A   1      55.041  27.457  24.390  1.00  0.00    -0.744 OA
ENDBRANCH  75  76
ENDBRANCH  56  70
BRANCH  57  80
ATOM     80  C   UNL A   1      41.123  29.706  29.858  1.00  0.00    -0.014 A 
ATOM     81  C   UNL A   1      40.053  30.178  29.079  1.00  0.00     0.010 A 
ATOM     82  C   UNL A   1      40.926  29.513  31.239  1.00  0.00     0.010 A 
ATOM     83  C   UNL A   1      38.820  30.471  29.669  1.00  0.00     0.020 A 
ATOM     84  C   UNL A   1      39.685  29.771  31.828  1.00  0.00     0.020 A 
ATOM     85  C   UNL A   1      38.643  30.262  31.039  1.00  0.00     0.054 A 
BRANCH  85  86
ATOM     86  S   UNL A   1      37.020  30.605  31.775  1.00  0.00     0.124 S 
ATOM     87  O   UNL A   1      36.553  31.728  30.968  1.00  0.00    -0.237 OA
ATOM     88  O   UNL A   1      36.313  29.343  31.576  1.00  0.00    -0.237 OA
ATOM     89  O   UNL A   1      37.336  30.923  33.166  1.00  0.00    -0.744 OA
ENDBRANCH  85  86
ENDBRANCH  57  80
BRANCH  69  90
ATOM     90  C   UNL A   1      47.022  33.343  28.977  1.00  0.00    -0.014 A 
ATOM     91  C   UNL A   1      47.629  33.657  30.206  1.00  0.00     0.010 A 
ATOM     92  C   UNL A   1      46.841  34.361  28.020  1.00  0.00     0.010 A 
ATOM     93  C   UNL A   1      48.022  34.968  30.482  1.00  0.00     0.020 A 
ATOM     94  C   UNL A   1      47.268  35.664  28.279  1.00  0.00     0.020 A 
ATOM     95  C   UNL A   1      47.846  35.961  29.513  1.00  0.00     0.054 A 
BRANCH  95  96
ATOM     96  S   UNL A   1      48.425  37.641  29.876  1.00  0.00     0.124 S 
ATOM     97  O   UNL A   1      49.154  37.981  28.658  1.00  0.00    -0.237 OA
ATOM     98  O   UNL A   1      47.176  38.368  30.087  1.00  0.00    -0.237 OA
ATOM     99  O   UNL A   1      49.251  37.473  31.070  1.00  0.00    -0.744 OA
ENDBRANCH  95  96
ENDBRANCH  69  90
ENDBRANCH  43  44
ENDBRANCH  35  38
ENDBRANCH  33  34
ENDBRANCH  32  33
ENDBRANCH   1  32
TORSDOF 19
ENDMDL
