MODEL 1
REMARK VINA RESULT:     -13.1      0.000      0.000
REMARK SMILES O=C(CCC(=O)N1CCc2[nH]c3ccc(F)cc3c2C1)NCCCNC(=O)c1ccc(-c2c3nc(c(-c4ccc(S(=O)(=O)[O-])cc4)c4ccc([nH]4)c(-c4ccc(S(=O)(=O)[O-])cc4)c4nc(c(-c5ccc(S(=O)(=O)[O-])cc5)c5ccc2[nH]5)C=C4)C=C3)cc1
REMARK SMILES IDX 23 1 22 2 21 3 1 4 2 5 3 7 4 8 5 9 6 10 7 11 8 12 20 13 9 14
REMARK SMILES IDX 19 15 10 16 18 17 11 18 12 19 17 20 13 22 15 23 14 24 16 25
REMARK SMILES IDX 24 26 25 27 26 28 27 30 28 31 29 32 87 33 30 34 86 35 31 36
REMARK SMILES IDX 32 37 33 38 80 39 34 40 85 41 79 42 81 43 35 44 84 45 78 46
REMARK SMILES IDX 77 47 36 49 66 50 47 51 65 52 48 53 51 54 64 55 82 56 49 57
REMARK SMILES IDX 50 58 63 60 83 61 52 62 37 63 38 64 46 65 39 66 45 67 40 68
REMARK SMILES IDX 41 69 42 70 43 71 44 72 67 73 68 74 76 75 69 76 75 77 70 78
REMARK SMILES IDX 71 79 72 80 73 81 74 82 53 83 54 84 62 85 55 86 61 87 56 88
REMARK SMILES IDX 57 89 58 90 59 91 60 92
REMARK H PARENT 21 6 11 21 25 29 81 48 51 59
REMARK Flexibility Score: inf
ROOT
ATOM      1  C   UNL A   1      36.829  21.571  24.495  1.00  0.00     0.042 C 
ENDROOT
BRANCH   1   2
ATOM      2  C   UNL A   1      35.417  21.354  25.078  1.00  0.00     0.117 C 
BRANCH   2   3
ATOM      3  N   UNL A   1      34.539  22.510  25.281  1.00  0.00    -0.356 N 
ATOM      4  O   UNL A   1      34.449  22.569  27.546  1.00  0.00    -0.275 OA
ATOM      5  C   UNL A   1      34.017  22.962  26.464  1.00  0.00     0.220 C 
ATOM      6  H   UNL A   1      34.295  23.019  24.475  1.00  0.00     0.163 HD
BRANCH   5   7
ATOM      7  C   UNL A   1      32.752  23.878  26.416  1.00  0.00     0.110 C 
BRANCH   7   8
ATOM      8  C   UNL A   1      32.190  24.502  25.117  1.00  0.00     0.110 C 
BRANCH   8   9
ATOM      9  C   UNL A   1      32.995  25.564  24.263  1.00  0.00     0.223 C 
ATOM     10  O   UNL A   1      33.907  25.201  23.519  1.00  0.00    -0.275 OA
BRANCH   9  11
ATOM     11  N   UNL A   1      32.529  26.876  24.258  1.00  0.00    -0.338 N 
ATOM     12  C   UNL A   1      32.707  27.616  25.466  1.00  0.00     0.126 C 
ATOM     13  C   UNL A   1      31.685  27.463  23.149  1.00  0.00     0.157 C 
ATOM     14  C   UNL A   1      32.695  29.104  25.409  1.00  0.00     0.075 C 
ATOM     15  C   UNL A   1      31.061  28.797  23.560  1.00  0.00     0.000 A 
ATOM     16  C   UNL A   1      31.543  29.494  24.637  1.00  0.00     0.023 A 
ATOM     17  C   UNL A   1      30.031  29.660  23.040  1.00  0.00     0.008 A 
ATOM     18  N   UNL A   1      30.772  30.552  24.949  1.00  0.00    -0.358 N 
ATOM     19  C   UNL A   1      29.887  30.743  23.932  1.00  0.00     0.046 A 
ATOM     20  C   UNL A   1      29.209  29.672  21.899  1.00  0.00     0.050 A 
ATOM     21  H   UNL A   1      30.837  31.092  25.769  1.00  0.00     0.166 HD
ATOM     22  C   UNL A   1      29.003  31.809  23.765  1.00  0.00     0.030 A 
ATOM     23  C   UNL A   1      28.347  30.762  21.702  1.00  0.00     0.123 A 
ATOM     24  C   UNL A   1      28.239  31.811  22.608  1.00  0.00     0.041 A 
ATOM     25  F   UNL A   1      27.603  30.804  20.587  1.00  0.00    -0.207 F 
ENDBRANCH   9  11
ENDBRANCH   8   9
ENDBRANCH   7   8
ENDBRANCH   5   7
ENDBRANCH   2   3
ENDBRANCH   1   2
BRANCH   1  26
ATOM     26  C   UNL A   1      38.071  21.264  25.348  1.00  0.00     0.118 C 
BRANCH  26  27
ATOM     27  N   UNL A   1      38.782  22.448  25.805  1.00  0.00    -0.352 N 
ATOM     28  C   UNL A   1      39.701  22.458  26.850  1.00  0.00     0.251 C 
ATOM     29  H   UNL A   1      38.600  23.299  25.345  1.00  0.00     0.163 HD
ATOM     30  O   UNL A   1      40.262  21.483  27.330  1.00  0.00    -0.269 OA
BRANCH  28  31
ATOM     31  C   UNL A   1      39.940  23.817  27.380  1.00  0.00     0.039 A 
ATOM     32  C   UNL A   1      38.953  24.735  27.047  1.00  0.00     0.014 A 
ATOM     33  C   UNL A   1      41.082  24.216  28.094  1.00  0.00     0.014 A 
ATOM     34  C   UNL A   1      39.166  26.065  27.299  1.00  0.00     0.010 A 
ATOM     35  C   UNL A   1      41.273  25.576  28.396  1.00  0.00     0.010 A 
ATOM     36  C   UNL A   1      40.316  26.503  27.983  1.00  0.00    -0.014 A 
BRANCH  36  37
ATOM     37  C   UNL A   1      40.258  27.926  28.323  1.00  0.00     0.031 A 
ATOM     38  C   UNL A   1      41.472  28.683  27.889  1.00  0.00     0.074 A 
ATOM     39  C   UNL A   1      39.381  28.571  29.108  1.00  0.00     0.049 A 
ATOM     40  N   UNL A   1      42.481  29.003  28.635  1.00  0.00    -0.248 NA
ATOM     41  C   UNL A   1      41.663  28.931  26.459  1.00  0.00     0.031 C 
ATOM     42  C   UNL A   1      38.030  28.223  29.537  1.00  0.00     0.029 A 
ATOM     43  N   UNL A   1      39.602  29.777  29.707  1.00  0.00    -0.354 N 
ATOM     44  C   UNL A   1      43.426  29.567  27.791  1.00  0.00     0.074 A 
ATOM     45  C   UNL A   1      42.899  29.434  26.452  1.00  0.00     0.031 C 
ATOM     46  C   UNL A   1      37.484  29.289  30.178  1.00  0.00     0.029 A 
ATOM     47  C   UNL A   1      38.505  30.312  30.349  1.00  0.00     0.049 A 
ATOM     48  H   UNL A   1      40.475  30.230  29.682  1.00  0.00     0.167 HD
ATOM     49  C   UNL A   1      44.554  30.173  28.254  1.00  0.00     0.031 A 
ATOM     50  C   UNL A   1      38.453  31.526  30.949  1.00  0.00     0.031 A 
ATOM     51  C   UNL A   1      44.836  29.837  29.623  1.00  0.00     0.049 A 
ATOM     52  C   UNL A   1      39.836  31.884  31.362  1.00  0.00     0.074 A 
ATOM     53  C   UNL A   1      45.209  28.681  30.281  1.00  0.00     0.029 A 
ATOM     54  N   UNL A   1      44.436  30.714  30.602  1.00  0.00    -0.354 N 
ATOM     55  N   UNL A   1      40.480  31.285  32.323  1.00  0.00    -0.248 NA
ATOM     56  C   UNL A   1      40.657  32.685  30.467  1.00  0.00     0.031 C 
ATOM     57  C   UNL A   1      44.576  28.757  31.555  1.00  0.00     0.029 A 
ATOM     58  C   UNL A   1      43.872  29.963  31.604  1.00  0.00     0.049 A 
ATOM     59  H   UNL A   1      44.535  31.692  30.589  1.00  0.00     0.167 HD
ATOM     60  C   UNL A   1      41.811  31.302  31.931  1.00  0.00     0.074 A 
ATOM     61  C   UNL A   1      41.869  32.262  30.835  1.00  0.00     0.031 C 
ATOM     62  C   UNL A   1      42.697  30.354  32.360  1.00  0.00     0.031 A 
BRANCH  49  63
ATOM     63  C   UNL A   1      45.282  31.260  27.518  1.00  0.00    -0.014 A 
ATOM     64  C   UNL A   1      44.668  32.481  27.176  1.00  0.00     0.010 A 
ATOM     65  C   UNL A   1      46.682  31.180  27.365  1.00  0.00     0.010 A 
ATOM     66  C   UNL A   1      45.399  33.567  26.699  1.00  0.00     0.020 A 
ATOM     67  C   UNL A   1      47.432  32.282  26.930  1.00  0.00     0.020 A 
ATOM     68  C   UNL A   1      46.781  33.470  26.600  1.00  0.00     0.054 A 
BRANCH  68  69
ATOM     69  S   UNL A   1      47.703  34.956  26.139  1.00  0.00     0.124 S 
ATOM     70  O   UNL A   1      48.486  34.483  25.001  1.00  0.00    -0.237 OA
ATOM     71  O   UNL A   1      46.634  35.898  25.821  1.00  0.00    -0.237 OA
ATOM     72  O   UNL A   1      48.470  35.270  27.341  1.00  0.00    -0.744 OA
ENDBRANCH  68  69
ENDBRANCH  49  63
BRANCH  50  73
ATOM     73  C   UNL A   1      37.434  32.569  30.666  1.00  0.00    -0.014 A 
ATOM     74  C   UNL A   1      36.235  32.602  31.403  1.00  0.00     0.010 A 
ATOM     75  C   UNL A   1      37.502  33.317  29.473  1.00  0.00     0.010 A 
ATOM     76  C   UNL A   1      35.112  33.280  30.925  1.00  0.00     0.020 A 
ATOM     77  C   UNL A   1      36.377  33.998  28.987  1.00  0.00     0.020 A 
ATOM     78  C   UNL A   1      35.177  33.941  29.699  1.00  0.00     0.054 A 
BRANCH  78  79
ATOM     79  S   UNL A   1      33.645  34.635  29.019  1.00  0.00     0.124 S 
ATOM     80  O   UNL A   1      34.108  35.908  28.471  1.00  0.00    -0.237 OA
ATOM     81  O   UNL A   1      33.258  33.631  28.031  1.00  0.00    -0.237 OA
ATOM     82  O   UNL A   1      32.764  34.735  30.179  1.00  0.00    -0.744 OA
ENDBRANCH  78  79
ENDBRANCH  50  73
BRANCH  62  83
ATOM     83  C   UNL A   1      42.300  29.435  33.496  1.00  0.00    -0.014 A 
ATOM     84  C   UNL A   1      42.741  29.757  34.794  1.00  0.00     0.010 A 
ATOM     85  C   UNL A   1      41.681  28.185  33.293  1.00  0.00     0.010 A 
ATOM     86  C   UNL A   1      42.609  28.847  35.847  1.00  0.00     0.020 A 
ATOM     87  C   UNL A   1      41.520  27.279  34.351  1.00  0.00     0.020 A 
ATOM     88  C   UNL A   1      42.013  27.607  35.616  1.00  0.00     0.054 A 
BRANCH  88  89
ATOM     89  S   UNL A   1      41.933  26.417  36.983  1.00  0.00     0.124 S 
ATOM     90  O   UNL A   1      40.632  26.719  37.577  1.00  0.00    -0.237 OA
ATOM     91  O   UNL A   1      42.025  25.129  36.300  1.00  0.00    -0.237 OA
ATOM     92  O   UNL A   1      43.084  26.758  37.816  1.00  0.00    -0.744 OA
ENDBRANCH  88  89
ENDBRANCH  62  83
ENDBRANCH  36  37
ENDBRANCH  28  31
ENDBRANCH  26  27
ENDBRANCH   1  26
TORSDOF 16
ENDMDL
MODEL 2
REMARK VINA RESULT:     -13.0      3.196     10.260
REMARK SMILES O=C(CCC(=O)N1CCc2[nH]c3ccc(F)cc3c2C1)NCCCNC(=O)c1ccc(-c2c3nc(c(-c4ccc(S(=O)(=O)[O-])cc4)c4ccc([nH]4)c(-c4ccc(S(=O)(=O)[O-])cc4)c4nc(c(-c5ccc(S(=O)(=O)[O-])cc5)c5ccc2[nH]5)C=C4)C=C3)cc1
REMARK SMILES IDX 23 1 22 2 21 3 1 4 2 5 3 7 4 8 5 9 6 10 7 11 8 12 20 13 9 14
REMARK SMILES IDX 19 15 10 16 18 17 11 18 12 19 17 20 13 22 15 23 14 24 16 25
REMARK SMILES IDX 24 26 25 27 26 28 27 30 28 31 29 32 87 33 30 34 86 35 31 36
REMARK SMILES IDX 32 37 33 38 80 39 34 40 85 41 79 42 81 43 35 44 84 45 78 46
REMARK SMILES IDX 77 47 36 49 66 50 47 51 65 52 48 53 51 54 64 55 82 56 49 57
REMARK SMILES IDX 50 58 63 60 83 61 52 62 37 63 38 64 46 65 39 66 45 67 40 68
REMARK SMILES IDX 41 69 42 70 43 71 44 72 67 73 68 74 76 75 69 76 75 77 70 78
REMARK SMILES IDX 71 79 72 80 73 81 74 82 53 83 54 84 62 85 55 86 61 87 56 88
REMARK SMILES IDX 57 89 58 90 59 91 60 92
REMARK H PARENT 21 6 11 21 25 29 81 48 51 59
REMARK Flexibility Score: inf
ROOT
ATOM      1  C   UNL A   1      32.224  30.168  26.072  1.00  0.00     0.042 C 
ENDROOT
BRANCH   1   2
ATOM      2  C   UNL A   1      33.290  29.378  25.285  1.00  0.00     0.117 C 
BRANCH   2   3
ATOM      3  N   UNL A   1      33.466  27.947  25.553  1.00  0.00    -0.356 N 
ATOM      4  O   UNL A   1      33.703  27.157  23.441  1.00  0.00    -0.275 OA
ATOM      5  C   UNL A   1      33.534  26.930  24.638  1.00  0.00     0.220 C 
ATOM      6  H   UNL A   1      33.545  27.688  26.499  1.00  0.00     0.163 HD
BRANCH   5   7
ATOM      7  C   UNL A   1      33.239  25.475  25.122  1.00  0.00     0.110 C 
BRANCH   7   8
ATOM      8  C   UNL A   1      34.293  24.557  25.783  1.00  0.00     0.110 C 
BRANCH   8   9
ATOM      9  C   UNL A   1      34.919  23.306  25.044  1.00  0.00     0.223 C 
ATOM     10  O   UNL A   1      34.297  22.742  24.142  1.00  0.00    -0.275 OA
BRANCH   9  11
ATOM     11  N   UNL A   1      36.242  22.981  25.331  1.00  0.00    -0.338 N 
ATOM     12  C   UNL A   1      36.585  21.596  25.255  1.00  0.00     0.126 C 
ATOM     13  C   UNL A   1      37.241  23.959  25.906  1.00  0.00     0.157 C 
ATOM     14  C   UNL A   1      38.012  21.216  25.066  1.00  0.00     0.075 C 
ATOM     15  C   UNL A   1      38.499  23.251  26.410  1.00  0.00     0.000 A 
ATOM     16  C   UNL A   1      38.785  21.968  26.020  1.00  0.00     0.023 A 
ATOM     17  C   UNL A   1      39.632  23.611  27.225  1.00  0.00     0.008 A 
ATOM     18  N   UNL A   1      39.833  21.452  26.689  1.00  0.00    -0.358 N 
ATOM     19  C   UNL A   1      40.440  22.464  27.369  1.00  0.00     0.046 A 
ATOM     20  C   UNL A   1      40.092  24.785  27.846  1.00  0.00     0.050 A 
ATOM     21  H   UNL A   1      40.111  20.508  26.687  1.00  0.00     0.166 HD
ATOM     22  C   UNL A   1      41.644  22.412  28.071  1.00  0.00     0.030 A 
ATOM     23  C   UNL A   1      41.323  24.753  28.519  1.00  0.00     0.123 A 
ATOM     24  C   UNL A   1      42.089  23.599  28.634  1.00  0.00     0.041 A 
ATOM     25  F   UNL A   1      41.791  25.885  29.064  1.00  0.00    -0.207 F 
ENDBRANCH   9  11
ENDBRANCH   8   9
ENDBRANCH   7   8
ENDBRANCH   5   7
ENDBRANCH   2   3
ENDBRANCH   1   2
BRANCH   1  26
ATOM     26  C   UNL A   1      32.652  31.168  27.160  1.00  0.00     0.118 C 
BRANCH  26  27
ATOM     27  N   UNL A   1      33.968  30.904  27.720  1.00  0.00    -0.352 N 
ATOM     28  C   UNL A   1      34.927  31.882  27.966  1.00  0.00     0.251 C 
ATOM     29  H   UNL A   1      34.196  29.972  27.937  1.00  0.00     0.163 HD
ATOM     30  O   UNL A   1      34.731  33.087  28.038  1.00  0.00    -0.269 OA
BRANCH  28  31
ATOM     31  C   UNL A   1      36.285  31.318  28.118  1.00  0.00     0.039 A 
ATOM     32  C   UNL A   1      36.405  30.009  27.671  1.00  0.00     0.014 A 
ATOM     33  C   UNL A   1      37.369  31.974  28.723  1.00  0.00     0.014 A 
ATOM     34  C   UNL A   1      37.551  29.311  27.950  1.00  0.00     0.010 A 
ATOM     35  C   UNL A   1      38.562  31.270  28.962  1.00  0.00     0.010 A 
ATOM     36  C   UNL A   1      38.645  29.929  28.586  1.00  0.00    -0.014 A 
BRANCH  36  37
ATOM     37  C   UNL A   1      39.834  29.074  28.614  1.00  0.00     0.031 A 
ATOM     38  C   UNL A   1      40.256  28.702  29.999  1.00  0.00     0.074 A 
ATOM     39  C   UNL A   1      40.667  28.755  27.611  1.00  0.00     0.049 A 
ATOM     40  N   UNL A   1      41.194  29.267  30.690  1.00  0.00    -0.248 NA
ATOM     41  C   UNL A   1      39.433  27.749  30.744  1.00  0.00     0.031 C 
ATOM     42  C   UNL A   1      40.491  28.779  26.163  1.00  0.00     0.029 A 
ATOM     43  N   UNL A   1      41.948  28.309  27.767  1.00  0.00    -0.354 N 
ATOM     44  C   UNL A   1      41.143  28.697  31.954  1.00  0.00     0.074 A 
ATOM     45  C   UNL A   1      39.995  27.819  31.953  1.00  0.00     0.031 C 
ATOM     46  C   UNL A   1      41.565  28.187  25.579  1.00  0.00     0.029 A 
ATOM     47  C   UNL A   1      42.564  27.908  26.600  1.00  0.00     0.049 A 
ATOM     48  H   UNL A   1      42.396  28.276  28.642  1.00  0.00     0.167 HD
ATOM     49  C   UNL A   1      42.091  28.930  32.903  1.00  0.00     0.031 A 
ATOM     50  C   UNL A   1      43.800  27.359  26.505  1.00  0.00     0.031 A 
ATOM     51  C   UNL A   1      42.900  30.080  32.600  1.00  0.00     0.049 A 
ATOM     52  C   UNL A   1      44.593  27.834  27.670  1.00  0.00     0.074 A 
ATOM     53  C   UNL A   1      42.666  31.438  32.526  1.00  0.00     0.029 A 
ATOM     54  N   UNL A   1      44.117  29.875  31.996  1.00  0.00    -0.354 N 
ATOM     55  N   UNL A   1      45.001  29.064  27.813  1.00  0.00    -0.248 NA
ATOM     56  C   UNL A   1      44.641  27.019  28.873  1.00  0.00     0.031 C 
ATOM     57  C   UNL A   1      43.513  31.907  31.482  1.00  0.00     0.029 A 
ATOM     58  C   UNL A   1      44.227  30.809  30.995  1.00  0.00     0.049 A 
ATOM     59  H   UNL A   1      44.783  29.192  32.235  1.00  0.00     0.167 HD
ATOM     60  C   UNL A   1      44.978  29.295  29.181  1.00  0.00     0.074 A 
ATOM     61  C   UNL A   1      44.847  27.973  29.784  1.00  0.00     0.031 C 
ATOM     62  C   UNL A   1      44.813  30.551  29.693  1.00  0.00     0.031 A 
BRANCH  49  63
ATOM     63  C   UNL A   1      42.428  27.967  34.004  1.00  0.00    -0.014 A 
ATOM     64  C   UNL A   1      43.324  26.896  33.819  1.00  0.00     0.010 A 
ATOM     65  C   UNL A   1      42.039  28.260  35.328  1.00  0.00     0.010 A 
ATOM     66  C   UNL A   1      43.807  26.144  34.890  1.00  0.00     0.020 A 
ATOM     67  C   UNL A   1      42.554  27.539  36.415  1.00  0.00     0.020 A 
ATOM     68  C   UNL A   1      43.437  26.485  36.185  1.00  0.00     0.054 A 
BRANCH  68  69
ATOM     69  S   UNL A   1      44.219  25.592  37.549  1.00  0.00     0.124 S 
ATOM     70  O   UNL A   1      43.963  24.202  37.185  1.00  0.00    -0.237 OA
ATOM     71  O   UNL A   1      45.610  26.025  37.447  1.00  0.00    -0.237 OA
ATOM     72  O   UNL A   1      43.504  26.073  38.728  1.00  0.00    -0.744 OA
ENDBRANCH  68  69
ENDBRANCH  49  63
BRANCH  50  73
ATOM     73  C   UNL A   1      44.108  26.072  25.830  1.00  0.00    -0.014 A 
ATOM     74  C   UNL A   1      43.061  25.242  25.384  1.00  0.00     0.010 A 
ATOM     75  C   UNL A   1      45.402  25.523  25.917  1.00  0.00     0.010 A 
ATOM     76  C   UNL A   1      43.277  23.888  25.121  1.00  0.00     0.020 A 
ATOM     77  C   UNL A   1      45.624  24.163  25.656  1.00  0.00     0.020 A 
ATOM     78  C   UNL A   1      44.549  23.347  25.297  1.00  0.00     0.054 A 
BRANCH  78  79
ATOM     79  S   UNL A   1      44.743  21.550  25.141  1.00  0.00     0.124 S 
ATOM     80  O   UNL A   1      44.660  21.361  23.695  1.00  0.00    -0.237 OA
ATOM     81  O   UNL A   1      46.062  21.325  25.727  1.00  0.00    -0.237 OA
ATOM     82  O   UNL A   1      43.623  21.012  25.909  1.00  0.00    -0.744 OA
ENDBRANCH  78  79
ENDBRANCH  50  73
BRANCH  62  83
ATOM     83  C   UNL A   1      44.937  31.745  28.770  1.00  0.00    -0.014 A 
ATOM     84  C   UNL A   1      44.126  31.780  27.619  1.00  0.00     0.010 A 
ATOM     85  C   UNL A   1      45.950  32.717  28.902  1.00  0.00     0.010 A 
ATOM     86  C   UNL A   1      44.343  32.726  26.613  1.00  0.00     0.020 A 
ATOM     87  C   UNL A   1      46.154  33.685  27.909  1.00  0.00     0.020 A 
ATOM     88  C   UNL A   1      45.367  33.663  26.757  1.00  0.00     0.054 A 
BRANCH  88  89
ATOM     89  S   UNL A   1      45.676  34.822  25.395  1.00  0.00     0.124 S 
ATOM     90  O   UNL A   1      44.728  34.363  24.381  1.00  0.00    -0.237 OA
ATOM     91  O   UNL A   1      45.371  36.118  25.996  1.00  0.00    -0.237 OA
ATOM     92  O   UNL A   1      47.083  34.610  25.063  1.00  0.00    -0.744 OA
ENDBRANCH  88  89
ENDBRANCH  62  83
ENDBRANCH  36  37
ENDBRANCH  28  31
ENDBRANCH  26  27
ENDBRANCH   1  26
TORSDOF 16
ENDMDL
MODEL 3
REMARK VINA RESULT:     -13.0      1.881      2.666
REMARK SMILES O=C(CCC(=O)N1CCc2[nH]c3ccc(F)cc3c2C1)NCCCNC(=O)c1ccc(-c2c3nc(c(-c4ccc(S(=O)(=O)[O-])cc4)c4ccc([nH]4)c(-c4ccc(S(=O)(=O)[O-])cc4)c4nc(c(-c5ccc(S(=O)(=O)[O-])cc5)c5ccc2[nH]5)C=C4)C=C3)cc1
REMARK SMILES IDX 23 1 22 2 21 3 1 4 2 5 3 7 4 8 5 9 6 10 7 11 8 12 20 13 9 14
REMARK SMILES IDX 19 15 10 16 18 17 11 18 12 19 17 20 13 22 15 23 14 24 16 25
REMARK SMILES IDX 24 26 25 27 26 28 27 30 28 31 29 32 87 33 30 34 86 35 31 36
REMARK SMILES IDX 32 37 33 38 80 39 34 40 85 41 79 42 81 43 35 44 84 45 78 46
REMARK SMILES IDX 77 47 36 49 66 50 47 51 65 52 48 53 51 54 64 55 82 56 49 57
REMARK SMILES IDX 50 58 63 60 83 61 52 62 37 63 38 64 46 65 39 66 45 67 40 68
REMARK SMILES IDX 41 69 42 70 43 71 44 72 67 73 68 74 76 75 69 76 75 77 70 78
REMARK SMILES IDX 71 79 72 80 73 81 74 82 53 83 54 84 62 85 55 86 61 87 56 88
REMARK SMILES IDX 57 89 58 90 59 91 60 92
REMARK H PARENT 21 6 11 21 25 29 81 48 51 59
REMARK Flexibility Score: inf
ROOT
ATOM      1  C   UNL A   1      36.789  21.795  24.535  1.00  0.00     0.042 C 
ENDROOT
BRANCH   1   2
ATOM      2  C   UNL A   1      35.413  21.195  24.890  1.00  0.00     0.117 C 
BRANCH   2   3
ATOM      3  N   UNL A   1      34.204  21.768  24.291  1.00  0.00    -0.356 N 
ATOM      4  O   UNL A   1      33.815  23.492  25.712  1.00  0.00    -0.275 OA
ATOM      5  C   UNL A   1      33.423  22.776  24.792  1.00  0.00     0.220 C 
ATOM      6  H   UNL A   1      33.920  21.385  23.430  1.00  0.00     0.163 HD
BRANCH   5   7
ATOM      7  C   UNL A   1      31.956  22.906  24.273  1.00  0.00     0.110 C 
BRANCH   7   8
ATOM      8  C   UNL A   1      31.517  23.897  23.169  1.00  0.00     0.110 C 
BRANCH   8   9
ATOM      9  C   UNL A   1      32.352  25.190  22.803  1.00  0.00     0.223 C 
ATOM     10  O   UNL A   1      32.998  25.237  21.755  1.00  0.00    -0.275 OA
BRANCH   9  11
ATOM     11  N   UNL A   1      32.194  26.312  23.613  1.00  0.00    -0.338 N 
ATOM     12  C   UNL A   1      31.277  27.304  23.149  1.00  0.00     0.126 C 
ATOM     13  C   UNL A   1      33.070  26.616  24.806  1.00  0.00     0.157 C 
ATOM     14  C   UNL A   1      30.690  28.259  24.130  1.00  0.00     0.075 C 
ATOM     15  C   UNL A   1      32.874  28.050  25.301  1.00  0.00     0.000 A 
ATOM     16  C   UNL A   1      31.775  28.776  24.924  1.00  0.00     0.023 A 
ATOM     17  C   UNL A   1      33.565  28.936  26.204  1.00  0.00     0.008 A 
ATOM     18  N   UNL A   1      31.852  30.062  25.315  1.00  0.00    -0.358 N 
ATOM     19  C   UNL A   1      32.893  30.176  26.187  1.00  0.00     0.046 A 
ATOM     20  C   UNL A   1      34.674  28.834  27.061  1.00  0.00     0.050 A 
ATOM     21  H   UNL A   1      31.261  30.792  25.022  1.00  0.00     0.166 HD
ATOM     22  C   UNL A   1      33.243  31.290  26.949  1.00  0.00     0.030 A 
ATOM     23  C   UNL A   1      35.009  29.936  27.862  1.00  0.00     0.123 A 
ATOM     24  C   UNL A   1      34.315  31.140  27.815  1.00  0.00     0.041 A 
ATOM     25  F   UNL A   1      36.032  29.823  28.722  1.00  0.00    -0.207 F 
ENDBRANCH   9  11
ENDBRANCH   8   9
ENDBRANCH   7   8
ENDBRANCH   5   7
ENDBRANCH   2   3
ENDBRANCH   1   2
BRANCH   1  26
ATOM     26  C   UNL A   1      38.045  21.358  25.308  1.00  0.00     0.118 C 
BRANCH  26  27
ATOM     27  N   UNL A   1      38.827  22.464  25.839  1.00  0.00    -0.352 N 
ATOM     28  C   UNL A   1      39.725  22.354  26.896  1.00  0.00     0.251 C 
ATOM     29  H   UNL A   1      38.712  23.348  25.423  1.00  0.00     0.163 HD
ATOM     30  O   UNL A   1      40.208  21.319  27.332  1.00  0.00    -0.269 OA
BRANCH  28  31
ATOM     31  C   UNL A   1      40.047  23.664  27.502  1.00  0.00     0.039 A 
ATOM     32  C   UNL A   1      39.041  24.611  27.369  1.00  0.00     0.014 A 
ATOM     33  C   UNL A   1      41.273  23.996  28.103  1.00  0.00     0.014 A 
ATOM     34  C   UNL A   1      39.302  25.914  27.700  1.00  0.00     0.010 A 
ATOM     35  C   UNL A   1      41.519  25.325  28.489  1.00  0.00     0.010 A 
ATOM     36  C   UNL A   1      40.533  26.289  28.272  1.00  0.00    -0.014 A 
BRANCH  36  37
ATOM     37  C   UNL A   1      40.539  27.679  28.732  1.00  0.00     0.031 A 
ATOM     38  C   UNL A   1      41.679  28.474  28.183  1.00  0.00     0.074 A 
ATOM     39  C   UNL A   1      39.795  28.253  29.691  1.00  0.00     0.049 A 
ATOM     40  N   UNL A   1      42.791  28.737  28.791  1.00  0.00    -0.248 NA
ATOM     41  C   UNL A   1      41.653  28.839  26.765  1.00  0.00     0.031 C 
ATOM     42  C   UNL A   1      38.523  27.865  30.290  1.00  0.00     0.029 A 
ATOM     43  N   UNL A   1      40.115  29.407  30.345  1.00  0.00    -0.354 N 
ATOM     44  C   UNL A   1      43.602  29.373  27.862  1.00  0.00     0.074 A 
ATOM     45  C   UNL A   1      42.878  29.347  26.612  1.00  0.00     0.031 C 
ATOM     46  C   UNL A   1      38.089  28.873  31.091  1.00  0.00     0.029 A 
ATOM     47  C   UNL A   1      39.132  29.883  31.188  1.00  0.00     0.049 A 
ATOM     48  H   UNL A   1      40.977  29.865  30.225  1.00  0.00     0.167 HD
ATOM     49  C   UNL A   1      44.792  29.943  28.197  1.00  0.00     0.031 A 
ATOM     50  C   UNL A   1      39.180  31.044  31.886  1.00  0.00     0.031 A 
ATOM     51  C   UNL A   1      45.276  29.498  29.475  1.00  0.00     0.049 A 
ATOM     52  C   UNL A   1      40.612  31.373  32.112  1.00  0.00     0.074 A 
ATOM     53  C   UNL A   1      45.734  28.294  29.973  1.00  0.00     0.029 A 
ATOM     54  N   UNL A   1      45.035  30.290  30.572  1.00  0.00    -0.354 N 
ATOM     55  N   UNL A   1      41.390  30.701  32.913  1.00  0.00    -0.248 NA
ATOM     56  C   UNL A   1      41.295  32.248  31.172  1.00  0.00     0.031 C 
ATOM     57  C   UNL A   1      45.303  28.263  31.330  1.00  0.00     0.029 A 
ATOM     58  C   UNL A   1      44.623  29.457  31.583  1.00  0.00     0.049 A 
ATOM     59  H   UNL A   1      45.139  31.267  30.623  1.00  0.00     0.167 HD
ATOM     60  C   UNL A   1      42.647  30.756  32.327  1.00  0.00     0.074 A 
ATOM     61  C   UNL A   1      42.545  31.803  31.316  1.00  0.00     0.031 C 
ATOM     62  C   UNL A   1      43.579  29.779  32.537  1.00  0.00     0.031 A 
BRANCH  49  63
ATOM     63  C   UNL A   1      45.409  31.091  27.450  1.00  0.00    -0.014 A 
ATOM     64  C   UNL A   1      44.704  32.280  27.179  1.00  0.00     0.010 A 
ATOM     65  C   UNL A   1      46.800  31.099  27.213  1.00  0.00     0.010 A 
ATOM     66  C   UNL A   1      45.340  33.420  26.691  1.00  0.00     0.020 A 
ATOM     67  C   UNL A   1      47.456  32.255  26.765  1.00  0.00     0.020 A 
ATOM     68  C   UNL A   1      46.717  33.409  26.508  1.00  0.00     0.054 A 
BRANCH  68  69
ATOM     69  S   UNL A   1      47.520  34.959  26.035  1.00  0.00     0.124 S 
ATOM     70  O   UNL A   1      48.452  34.512  25.005  1.00  0.00    -0.237 OA
ATOM     71  O   UNL A   1      46.394  35.760  25.563  1.00  0.00    -0.237 OA
ATOM     72  O   UNL A   1      48.132  35.421  27.278  1.00  0.00    -0.744 OA
ENDBRANCH  68  69
ENDBRANCH  49  63
BRANCH  50  73
ATOM     73  C   UNL A   1      38.138  32.102  31.846  1.00  0.00    -0.014 A 
ATOM     74  C   UNL A   1      37.810  32.813  33.017  1.00  0.00     0.010 A 
ATOM     75  C   UNL A   1      37.257  32.183  30.750  1.00  0.00     0.010 A 
ATOM     76  C   UNL A   1      36.603  33.506  33.126  1.00  0.00     0.020 A 
ATOM     77  C   UNL A   1      36.042  32.877  30.855  1.00  0.00     0.020 A 
ATOM     78  C   UNL A   1      35.708  33.501  32.058  1.00  0.00     0.054 A 
BRANCH  78  79
ATOM     79  S   UNL A   1      34.070  34.239  32.311  1.00  0.00     0.124 S 
ATOM     80  O   UNL A   1      33.562  34.323  30.944  1.00  0.00    -0.237 OA
ATOM     81  O   UNL A   1      33.411  33.254  33.165  1.00  0.00    -0.237 OA
ATOM     82  O   UNL A   1      34.361  35.519  32.951  1.00  0.00    -0.744 OA
ENDBRANCH  78  79
ENDBRANCH  50  73
BRANCH  62  83
ATOM     83  C   UNL A   1      43.352  28.769  33.642  1.00  0.00    -0.014 A 
ATOM     84  C   UNL A   1      42.325  27.821  33.470  1.00  0.00     0.010 A 
ATOM     85  C   UNL A   1      43.980  28.851  34.901  1.00  0.00     0.010 A 
ATOM     86  C   UNL A   1      41.908  27.009  34.530  1.00  0.00     0.020 A 
ATOM     87  C   UNL A   1      43.586  28.021  35.959  1.00  0.00     0.020 A 
ATOM     88  C   UNL A   1      42.531  27.125  35.773  1.00  0.00     0.054 A 
BRANCH  88  89
ATOM     89  S   UNL A   1      41.911  26.119  37.149  1.00  0.00     0.124 S 
ATOM     90  O   UNL A   1      42.970  26.274  38.145  1.00  0.00    -0.237 OA
ATOM     91  O   UNL A   1      40.642  26.764  37.479  1.00  0.00    -0.237 OA
ATOM     92  O   UNL A   1      41.792  24.778  36.581  1.00  0.00    -0.744 OA
ENDBRANCH  88  89
ENDBRANCH  62  83
ENDBRANCH  36  37
ENDBRANCH  28  31
ENDBRANCH  26  27
ENDBRANCH   1  26
TORSDOF 16
ENDMDL
