MODEL 1
REMARK VINA RESULT:     -12.4      0.000      0.000
REMARK SMILES O=C(C[C@H](Cc1ccc(Cl)cc1)C(=O)Nc1cc(Cl)ccc1Cl)NCCCNC(=O)c1ccc(-c2c3nc(c(-c4ccc(S(=O)(=O)[O-])cc4)c4ccc([nH]4)c(-c4ccc(S(=O)(=O)[O-])cc4)c4nc(c(-c5ccc(S(=O)(=O)[O-])cc5)c5ccc2[nH]5)C=C4)C=C3)cc1
REMARK SMILES IDX 26 1 25 2 24 3 1 4 2 5 3 7 4 8 13 9 14 10 15 11 16 13 17 14
REMARK SMILES IDX 22 15 18 16 21 17 23 18 19 19 20 20 5 21 6 22 7 23 12 24
REMARK SMILES IDX 8 25 11 26 9 27 10 28 27 29 28 30 29 31 30 33 31 34 32 35
REMARK SMILES IDX 90 36 33 37 89 38 34 39 35 40 36 41 83 42 37 43 88 44 82 45
REMARK SMILES IDX 84 46 38 47 87 48 81 49 80 50 39 52 69 53 50 54 68 55 51 56
REMARK SMILES IDX 54 57 67 58 85 59 52 60 53 61 66 63 86 64 55 65 40 66 41 67
REMARK SMILES IDX 49 68 42 69 48 70 43 71 44 72 45 73 46 74 47 75 70 76 71 77
REMARK SMILES IDX 79 78 72 79 78 80 73 81 74 82 75 83 76 84 77 85 56 86 57 87
REMARK SMILES IDX 65 88 58 89 64 90 59 91 60 92 61 93 62 94 63 95
REMARK H PARENT 24 6 15 12 28 32 84 51 54 62
REMARK Flexibility Score: inf
ROOT
ATOM      1  C   UNL A   1      34.224  30.335  27.347  1.00  0.00     0.042 C 
ENDROOT
BRANCH   1   2
ATOM      2  C   UNL A   1      34.458  28.927  26.814  1.00  0.00     0.117 C 
BRANCH   2   3
ATOM      3  N   UNL A   1      33.273  28.095  26.859  1.00  0.00    -0.356 N 
ATOM      4  O   UNL A   1      34.151  26.353  25.641  1.00  0.00    -0.275 OA
ATOM      5  C   UNL A   1      33.235  26.843  26.292  1.00  0.00     0.220 C 
ATOM      6  H   UNL A   1      32.467  28.438  27.311  1.00  0.00     0.163 HD
BRANCH   5   7
ATOM      7  C   UNL A   1      31.977  26.066  26.598  1.00  0.00     0.113 C 
BRANCH   7   8
ATOM      8  C   UNL A   1      31.678  24.956  25.570  1.00  0.00     0.092 C 
BRANCH   8   9
ATOM      9  C   UNL A   1      31.430  23.602  26.317  1.00  0.00     0.228 C 
ATOM     10  O   UNL A   1      30.693  23.588  27.310  1.00  0.00    -0.274 OA
ATOM     11  N   UNL A   1      31.878  22.388  25.828  1.00  0.00    -0.324 N 
ATOM     12  H   UNL A   1      31.241  21.639  25.789  1.00  0.00     0.169 HD
BRANCH  11  13
ATOM     13  C   UNL A   1      33.199  22.166  25.379  1.00  0.00     0.061 A 
ATOM     14  C   UNL A   1      34.456  22.608  26.565  1.00  0.00     0.048 A 
ATOM     15  C   UNL A   1      33.584  22.314  23.671  1.00  0.00     0.064 A 
ATOM     16  C   UNL A   1      36.203  23.390  25.908  1.00  0.00     0.043 A 
ATOM     17  C   UNL A   1      35.128  22.948  23.059  1.00  0.00     0.024 A 
ATOM     18  Cl  UNL A   1      32.339  22.010  22.512  1.00  0.00    -0.082 Cl
ATOM     19  Cl  UNL A   1      37.733  24.100  26.601  1.00  0.00    -0.084 Cl
ATOM     20  C   UNL A   1      36.433  23.499  24.115  1.00  0.00     0.022 A 
ENDBRANCH  11  13
ENDBRANCH   8   9
BRANCH   8  21
ATOM     21  C   UNL A   1      30.824  25.351  24.314  1.00  0.00     0.049 C 
BRANCH  21  22
ATOM     22  C   UNL A   1      30.229  26.745  24.285  1.00  0.00    -0.047 A 
ATOM     23  C   UNL A   1      31.180  28.014  23.491  1.00  0.00     0.005 A 
ATOM     24  C   UNL A   1      28.445  26.807  24.136  1.00  0.00     0.005 A 
ATOM     25  C   UNL A   1      30.449  29.302  22.489  1.00  0.00     0.021 A 
ATOM     26  C   UNL A   1      27.625  28.229  22.957  1.00  0.00     0.021 A 
ATOM     27  C   UNL A   1      28.719  29.437  22.203  1.00  0.00     0.041 A 
ATOM     28  Cl  UNL A   1      28.088  30.673  21.200  1.00  0.00    -0.084 Cl
ENDBRANCH  21  22
ENDBRANCH   8  21
ENDBRANCH   7   8
ENDBRANCH   5   7
ENDBRANCH   2   3
ENDBRANCH   1   2
BRANCH   1  29
ATOM     29  C   UNL A   1      35.455  31.010  27.948  1.00  0.00     0.118 C 
BRANCH  29  30
ATOM     30  N   UNL A   1      35.370  31.203  29.389  1.00  0.00    -0.352 N 
ATOM     31  C   UNL A   1      36.266  30.865  30.374  1.00  0.00     0.251 C 
ATOM     32  H   UNL A   1      34.546  31.640  29.705  1.00  0.00     0.163 HD
ATOM     33  O   UNL A   1      35.961  31.040  31.551  1.00  0.00    -0.269 OA
BRANCH  31  34
ATOM     34  C   UNL A   1      37.571  30.259  30.030  1.00  0.00     0.039 A 
ATOM     35  C   UNL A   1      37.976  30.268  28.691  1.00  0.00     0.014 A 
ATOM     36  C   UNL A   1      38.390  29.683  31.005  1.00  0.00     0.014 A 
ATOM     37  C   UNL A   1      39.236  29.777  28.341  1.00  0.00     0.010 A 
ATOM     38  C   UNL A   1      39.664  29.231  30.661  1.00  0.00     0.010 A 
ATOM     39  C   UNL A   1      40.104  29.290  29.330  1.00  0.00    -0.014 A 
BRANCH  39  40
ATOM     40  C   UNL A   1      41.494  28.891  29.002  1.00  0.00     0.031 A 
ATOM     41  C   UNL A   1      42.606  29.899  29.022  1.00  0.00     0.074 A 
ATOM     42  C   UNL A   1      41.740  27.626  28.608  1.00  0.00     0.049 A 
ATOM     43  N   UNL A   1      43.856  29.750  28.664  1.00  0.00    -0.248 NA
ATOM     44  C   UNL A   1      42.265  31.253  29.486  1.00  0.00     0.031 C 
ATOM     45  C   UNL A   1      40.741  26.557  28.516  1.00  0.00     0.029 A 
ATOM     46  N   UNL A   1      42.903  27.030  28.194  1.00  0.00    -0.354 N 
ATOM     47  C   UNL A   1      44.448  30.994  28.839  1.00  0.00     0.074 A 
ATOM     48  C   UNL A   1      43.416  31.891  29.317  1.00  0.00     0.031 C 
ATOM     49  C   UNL A   1      41.339  25.436  28.082  1.00  0.00     0.029 A 
ATOM     50  C   UNL A   1      42.749  25.713  27.834  1.00  0.00     0.049 A 
ATOM     51  H   UNL A   1      43.768  27.501  28.159  1.00  0.00     0.167 HD
ATOM     52  C   UNL A   1      45.736  31.357  28.624  1.00  0.00     0.031 A 
ATOM     53  C   UNL A   1      43.639  24.829  27.345  1.00  0.00     0.031 A 
ATOM     54  C   UNL A   1      46.769  30.469  28.164  1.00  0.00     0.049 A 
ATOM     55  C   UNL A   1      45.060  25.253  27.119  1.00  0.00     0.074 A 
ATOM     56  C   UNL A   1      48.114  30.737  27.972  1.00  0.00     0.029 A 
ATOM     57  N   UNL A   1      46.574  29.140  27.825  1.00  0.00    -0.354 N 
ATOM     58  N   UNL A   1      45.608  26.426  27.323  1.00  0.00    -0.248 NA
ATOM     59  C   UNL A   1      45.980  24.234  26.594  1.00  0.00     0.031 C 
ATOM     60  C   UNL A   1      48.728  29.574  27.491  1.00  0.00     0.029 A 
ATOM     61  C   UNL A   1      47.770  28.577  27.409  1.00  0.00     0.049 A 
ATOM     62  H   UNL A   1      45.714  28.665  27.872  1.00  0.00     0.167 HD
ATOM     63  C   UNL A   1      46.941  26.286  26.959  1.00  0.00     0.074 A 
ATOM     64  C   UNL A   1      47.119  24.912  26.532  1.00  0.00     0.031 C 
ATOM     65  C   UNL A   1      47.929  27.213  26.977  1.00  0.00     0.031 A 
BRANCH  52  66
ATOM     66  C   UNL A   1      46.090  32.795  28.877  1.00  0.00    -0.014 A 
ATOM     67  C   UNL A   1      46.528  33.216  30.146  1.00  0.00     0.010 A 
ATOM     68  C   UNL A   1      45.996  33.732  27.835  1.00  0.00     0.010 A 
ATOM     69  C   UNL A   1      46.826  34.560  30.378  1.00  0.00     0.020 A 
ATOM     70  C   UNL A   1      46.307  35.075  28.061  1.00  0.00     0.020 A 
ATOM     71  C   UNL A   1      46.701  35.484  29.337  1.00  0.00     0.054 A 
BRANCH  71  72
ATOM     72  S   UNL A   1      47.089  37.228  29.655  1.00  0.00     0.124 S 
ATOM     73  O   UNL A   1      48.549  37.213  29.651  1.00  0.00    -0.237 OA
ATOM     74  O   UNL A   1      46.466  37.914  28.526  1.00  0.00    -0.237 OA
ATOM     75  O   UNL A   1      46.469  37.484  30.952  1.00  0.00    -0.744 OA
ENDBRANCH  71  72
ENDBRANCH  52  66
BRANCH  53  76
ATOM     76  C   UNL A   1      43.201  23.445  27.037  1.00  0.00    -0.014 A 
ATOM     77  C   UNL A   1      43.171  22.994  25.706  1.00  0.00     0.010 A 
ATOM     78  C   UNL A   1      42.848  22.563  28.073  1.00  0.00     0.010 A 
ATOM     79  C   UNL A   1      42.792  21.681  25.416  1.00  0.00     0.020 A 
ATOM     80  C   UNL A   1      42.482  21.245  27.786  1.00  0.00     0.020 A 
ATOM     81  C   UNL A   1      42.450  20.814  26.458  1.00  0.00     0.054 A 
BRANCH  81  82
ATOM     82  S   UNL A   1      42.034  19.090  26.077  1.00  0.00     0.124 S 
ATOM     83  O   UNL A   1      42.799  18.857  24.857  1.00  0.00    -0.237 OA
ATOM     84  O   UNL A   1      42.501  18.375  27.263  1.00  0.00    -0.237 OA
ATOM     85  O   UNL A   1      40.583  19.124  25.915  1.00  0.00    -0.744 OA
ENDBRANCH  81  82
ENDBRANCH  53  76
BRANCH  65  86
ATOM     86  C   UNL A   1      49.290  26.768  26.528  1.00  0.00    -0.014 A 
ATOM     87  C   UNL A   1      50.204  26.222  27.445  1.00  0.00     0.010 A 
ATOM     88  C   UNL A   1      49.646  26.864  25.172  1.00  0.00     0.010 A 
ATOM     89  C   UNL A   1      51.464  25.798  27.016  1.00  0.00     0.020 A 
ATOM     90  C   UNL A   1      50.900  26.428  24.738  1.00  0.00     0.020 A 
ATOM     91  C   UNL A   1      51.806  25.910  25.665  1.00  0.00     0.054 A 
BRANCH  91  92
ATOM     92  S   UNL A   1      53.430  25.317  25.112  1.00  0.00     0.124 S 
ATOM     93  O   UNL A   1      53.446  25.737  23.714  1.00  0.00    -0.237 OA
ATOM     94  O   UNL A   1      54.357  26.028  25.991  1.00  0.00    -0.237 OA
ATOM     95  O   UNL A   1      53.359  23.874  25.331  1.00  0.00    -0.744 OA
ENDBRANCH  91  92
ENDBRANCH  65  86
ENDBRANCH  39  40
ENDBRANCH  31  34
ENDBRANCH  29  30
ENDBRANCH   1  29
TORSDOF 18
ENDMDL
MODEL 2
REMARK VINA RESULT:     -12.4      1.389      2.128
REMARK SMILES O=C(C[C@H](Cc1ccc(Cl)cc1)C(=O)Nc1cc(Cl)ccc1Cl)NCCCNC(=O)c1ccc(-c2c3nc(c(-c4ccc(S(=O)(=O)[O-])cc4)c4ccc([nH]4)c(-c4ccc(S(=O)(=O)[O-])cc4)c4nc(c(-c5ccc(S(=O)(=O)[O-])cc5)c5ccc2[nH]5)C=C4)C=C3)cc1
REMARK SMILES IDX 26 1 25 2 24 3 1 4 2 5 3 7 4 8 13 9 14 10 15 11 16 13 17 14
REMARK SMILES IDX 22 15 18 16 21 17 23 18 19 19 20 20 5 21 6 22 7 23 12 24
REMARK SMILES IDX 8 25 11 26 9 27 10 28 27 29 28 30 29 31 30 33 31 34 32 35
REMARK SMILES IDX 90 36 33 37 89 38 34 39 35 40 36 41 83 42 37 43 88 44 82 45
REMARK SMILES IDX 84 46 38 47 87 48 81 49 80 50 39 52 69 53 50 54 68 55 51 56
REMARK SMILES IDX 54 57 67 58 85 59 52 60 53 61 66 63 86 64 55 65 40 66 41 67
REMARK SMILES IDX 49 68 42 69 48 70 43 71 44 72 45 73 46 74 47 75 70 76 71 77
REMARK SMILES IDX 79 78 72 79 78 80 73 81 74 82 75 83 76 84 77 85 56 86 57 87
REMARK SMILES IDX 65 88 58 89 64 90 59 91 60 92 61 93 62 94 63 95
REMARK H PARENT 24 6 15 12 28 32 84 51 54 62
REMARK Flexibility Score: inf
ROOT
ATOM      1  C   UNL A   1      33.735  29.395  26.835  1.00  0.00     0.042 C 
ENDROOT
BRANCH   1   2
ATOM      2  C   UNL A   1      33.612  28.478  25.624  1.00  0.00     0.117 C 
BRANCH   2   3
ATOM      3  N   UNL A   1      32.606  27.448  25.787  1.00  0.00    -0.356 N 
ATOM      4  O   UNL A   1      34.068  25.673  25.762  1.00  0.00    -0.275 OA
ATOM      5  C   UNL A   1      32.931  26.115  25.882  1.00  0.00     0.220 C 
ATOM      6  H   UNL A   1      31.658  27.711  25.831  1.00  0.00     0.163 HD
BRANCH   5   7
ATOM      7  C   UNL A   1      31.765  25.220  26.226  1.00  0.00     0.113 C 
BRANCH   7   8
ATOM      8  C   UNL A   1      31.889  23.800  25.639  1.00  0.00     0.092 C 
BRANCH   8   9
ATOM      9  C   UNL A   1      32.212  22.784  26.786  1.00  0.00     0.228 C 
ATOM     10  O   UNL A   1      32.200  23.175  27.959  1.00  0.00    -0.274 OA
ATOM     11  N   UNL A   1      32.364  21.428  26.559  1.00  0.00    -0.324 N 
ATOM     12  H   UNL A   1      31.874  20.802  27.139  1.00  0.00     0.169 HD
BRANCH  11  13
ATOM     13  C   UNL A   1      33.182  20.893  25.538  1.00  0.00     0.061 A 
ATOM     14  C   UNL A   1      32.582  19.359  24.853  1.00  0.00     0.048 A 
ATOM     15  C   UNL A   1      34.917  21.165  25.568  1.00  0.00     0.064 A 
ATOM     16  C   UNL A   1      33.914  17.947  24.278  1.00  0.00     0.043 A 
ATOM     17  C   UNL A   1      36.112  19.967  25.023  1.00  0.00     0.024 A 
ATOM     18  Cl  UNL A   1      35.519  22.588  26.340  1.00  0.00    -0.082 Cl
ATOM     19  Cl  UNL A   1      33.910  16.235  23.651  1.00  0.00    -0.084 Cl
ATOM     20  C   UNL A   1      35.669  18.376  24.397  1.00  0.00     0.022 A 
ENDBRANCH  11  13
ENDBRANCH   8   9
BRANCH   8  21
ATOM     21  C   UNL A   1      30.909  23.416  24.476  1.00  0.00     0.049 C 
BRANCH  21  22
ATOM     22  C   UNL A   1      30.582  24.488  23.455  1.00  0.00    -0.047 A 
ATOM     23  C   UNL A   1      29.348  25.681  23.903  1.00  0.00     0.005 A 
ATOM     24  C   UNL A   1      31.964  25.035  22.456  1.00  0.00     0.005 A 
ATOM     25  C   UNL A   1      29.460  27.413  23.471  1.00  0.00     0.021 A 
ATOM     26  C   UNL A   1      32.118  27.003  22.019  1.00  0.00     0.021 A 
ATOM     27  C   UNL A   1      30.798  28.094  22.555  1.00  0.00     0.041 A 
ATOM     28  Cl  UNL A   1      30.863  29.770  22.209  1.00  0.00    -0.084 Cl
ENDBRANCH  21  22
ENDBRANCH   8  21
ENDBRANCH   7   8
ENDBRANCH   5   7
ENDBRANCH   2   3
ENDBRANCH   1   2
BRANCH   1  29
ATOM     29  C   UNL A   1      35.080  29.334  27.554  1.00  0.00     0.118 C 
BRANCH  29  30
ATOM     30  N   UNL A   1      35.140  30.165  28.749  1.00  0.00    -0.352 N 
ATOM     31  C   UNL A   1      36.192  30.400  29.602  1.00  0.00     0.251 C 
ATOM     32  H   UNL A   1      34.302  30.626  28.982  1.00  0.00     0.163 HD
ATOM     33  O   UNL A   1      36.008  31.074  30.613  1.00  0.00    -0.269 OA
BRANCH  31  34
ATOM     34  C   UNL A   1      37.525  29.819  29.333  1.00  0.00     0.039 A 
ATOM     35  C   UNL A   1      38.008  29.843  28.020  1.00  0.00     0.014 A 
ATOM     36  C   UNL A   1      38.296  29.252  30.351  1.00  0.00     0.014 A 
ATOM     37  C   UNL A   1      39.295  29.375  27.743  1.00  0.00     0.010 A 
ATOM     38  C   UNL A   1      39.595  28.824  30.081  1.00  0.00     0.010 A 
ATOM     39  C   UNL A   1      40.111  28.898  28.779  1.00  0.00    -0.014 A 
BRANCH  39  40
ATOM     40  C   UNL A   1      41.525  28.524  28.532  1.00  0.00     0.031 A 
ATOM     41  C   UNL A   1      42.609  29.564  28.559  1.00  0.00     0.074 A 
ATOM     42  C   UNL A   1      41.822  27.252  28.203  1.00  0.00     0.049 A 
ATOM     43  N   UNL A   1      43.877  29.435  28.265  1.00  0.00    -0.248 NA
ATOM     44  C   UNL A   1      42.212  30.925  28.949  1.00  0.00     0.031 C 
ATOM     45  C   UNL A   1      40.857  26.152  28.111  1.00  0.00     0.029 A 
ATOM     46  N   UNL A   1      43.019  26.672  27.868  1.00  0.00    -0.354 N 
ATOM     47  C   UNL A   1      44.428  30.701  28.413  1.00  0.00     0.074 A 
ATOM     48  C   UNL A   1      43.351  31.588  28.805  1.00  0.00     0.031 C 
ATOM     49  C   UNL A   1      41.503  25.031  27.753  1.00  0.00     0.029 A 
ATOM     50  C   UNL A   1      42.916  25.338  27.558  1.00  0.00     0.049 A 
ATOM     51  H   UNL A   1      43.872  27.166  27.852  1.00  0.00     0.167 HD
ATOM     52  C   UNL A   1      45.715  31.092  28.242  1.00  0.00     0.031 A 
ATOM     53  C   UNL A   1      43.850  24.459  27.148  1.00  0.00     0.031 A 
ATOM     54  C   UNL A   1      46.791  30.214  27.867  1.00  0.00     0.049 A 
ATOM     55  C   UNL A   1      45.269  24.913  26.968  1.00  0.00     0.074 A 
ATOM     56  C   UNL A   1      48.135  30.512  27.725  1.00  0.00     0.029 A 
ATOM     57  N   UNL A   1      46.647  28.867  27.576  1.00  0.00    -0.354 N 
ATOM     58  N   UNL A   1      45.776  26.109  27.146  1.00  0.00    -0.248 NA
ATOM     59  C   UNL A   1      46.239  23.900  26.529  1.00  0.00     0.031 C 
ATOM     60  C   UNL A   1      48.802  29.348  27.322  1.00  0.00     0.029 A 
ATOM     61  C   UNL A   1      47.875  28.322  27.239  1.00  0.00     0.049 A 
ATOM     62  H   UNL A   1      45.797  28.371  27.605  1.00  0.00     0.167 HD
ATOM     63  C   UNL A   1      47.128  25.991  26.850  1.00  0.00     0.074 A 
ATOM     64  C   UNL A   1      47.361  24.607  26.490  1.00  0.00     0.031 C 
ATOM     65  C   UNL A   1      48.089  26.946  26.873  1.00  0.00     0.031 A 
BRANCH  52  66
ATOM     66  C   UNL A   1      46.019  32.547  28.449  1.00  0.00    -0.014 A 
ATOM     67  C   UNL A   1      45.970  33.454  27.375  1.00  0.00     0.010 A 
ATOM     68  C   UNL A   1      46.346  33.018  29.733  1.00  0.00     0.010 A 
ATOM     69  C   UNL A   1      46.283  34.800  27.573  1.00  0.00     0.020 A 
ATOM     70  C   UNL A   1      46.646  34.367  29.937  1.00  0.00     0.020 A 
ATOM     71  C   UNL A   1      46.632  35.246  28.852  1.00  0.00     0.054 A 
BRANCH  71  72
ATOM     72  S   UNL A   1      47.041  36.997  29.093  1.00  0.00     0.124 S 
ATOM     73  O   UNL A   1      46.528  37.239  30.439  1.00  0.00    -0.237 OA
ATOM     74  O   UNL A   1      48.495  37.015  28.964  1.00  0.00    -0.237 OA
ATOM     75  O   UNL A   1      46.316  37.668  28.018  1.00  0.00    -0.744 OA
ENDBRANCH  71  72
ENDBRANCH  52  66
BRANCH  53  76
ATOM     76  C   UNL A   1      43.463  23.052  26.879  1.00  0.00    -0.014 A 
ATOM     77  C   UNL A   1      43.761  22.463  25.638  1.00  0.00     0.010 A 
ATOM     78  C   UNL A   1      42.830  22.287  27.873  1.00  0.00     0.010 A 
ATOM     79  C   UNL A   1      43.428  21.128  25.395  1.00  0.00     0.020 A 
ATOM     80  C   UNL A   1      42.510  20.947  27.637  1.00  0.00     0.020 A 
ATOM     81  C   UNL A   1      42.805  20.378  26.396  1.00  0.00     0.054 A 
BRANCH  81  82
ATOM     82  S   UNL A   1      42.448  18.625  26.098  1.00  0.00     0.124 S 
ATOM     83  O   UNL A   1      41.035  18.661  25.737  1.00  0.00    -0.237 OA
ATOM     84  O   UNL A   1      43.369  18.286  25.015  1.00  0.00    -0.237 OA
ATOM     85  O   UNL A   1      42.755  17.998  27.381  1.00  0.00    -0.744 OA
ENDBRANCH  81  82
ENDBRANCH  53  76
BRANCH  65  86
ATOM     86  C   UNL A   1      49.481  26.521  26.506  1.00  0.00    -0.014 A 
ATOM     87  C   UNL A   1      50.310  25.890  27.448  1.00  0.00     0.010 A 
ATOM     88  C   UNL A   1      49.951  26.723  25.197  1.00  0.00     0.010 A 
ATOM     89  C   UNL A   1      51.600  25.486  27.094  1.00  0.00     0.020 A 
ATOM     90  C   UNL A   1      51.235  26.307  24.836  1.00  0.00     0.020 A 
ATOM     91  C   UNL A   1      52.056  25.703  25.791  1.00  0.00     0.054 A 
BRANCH  91  92
ATOM     92  S   UNL A   1      53.717  25.136  25.330  1.00  0.00     0.124 S 
ATOM     93  O   UNL A   1      53.564  23.685  25.369  1.00  0.00    -0.237 OA
ATOM     94  O   UNL A   1      53.904  25.711  23.999  1.00  0.00    -0.237 OA
ATOM     95  O   UNL A   1      54.572  25.704  26.371  1.00  0.00    -0.744 OA
ENDBRANCH  91  92
ENDBRANCH  65  86
ENDBRANCH  39  40
ENDBRANCH  31  34
ENDBRANCH  29  30
ENDBRANCH   1  29
TORSDOF 18
ENDMDL
MODEL 3
REMARK VINA RESULT:     -12.2      6.119     11.575
REMARK SMILES O=C(C[C@H](Cc1ccc(Cl)cc1)C(=O)Nc1cc(Cl)ccc1Cl)NCCCNC(=O)c1ccc(-c2c3nc(c(-c4ccc(S(=O)(=O)[O-])cc4)c4ccc([nH]4)c(-c4ccc(S(=O)(=O)[O-])cc4)c4nc(c(-c5ccc(S(=O)(=O)[O-])cc5)c5ccc2[nH]5)C=C4)C=C3)cc1
REMARK SMILES IDX 26 1 25 2 24 3 1 4 2 5 3 7 4 8 13 9 14 10 15 11 16 13 17 14
REMARK SMILES IDX 22 15 18 16 21 17 23 18 19 19 20 20 5 21 6 22 7 23 12 24
REMARK SMILES IDX 8 25 11 26 9 27 10 28 27 29 28 30 29 31 30 33 31 34 32 35
REMARK SMILES IDX 90 36 33 37 89 38 34 39 35 40 36 41 83 42 37 43 88 44 82 45
REMARK SMILES IDX 84 46 38 47 87 48 81 49 80 50 39 52 69 53 50 54 68 55 51 56
REMARK SMILES IDX 54 57 67 58 85 59 52 60 53 61 66 63 86 64 55 65 40 66 41 67
REMARK SMILES IDX 49 68 42 69 48 70 43 71 44 72 45 73 46 74 47 75 70 76 71 77
REMARK SMILES IDX 79 78 72 79 78 80 73 81 74 82 75 83 76 84 77 85 56 86 57 87
REMARK SMILES IDX 65 88 58 89 64 90 59 91 60 92 61 93 62 94 63 95
REMARK H PARENT 24 6 15 12 28 32 84 51 54 62
REMARK Flexibility Score: inf
ROOT
ATOM      1  C   UNL A   1      38.078  23.560  26.366  1.00  0.00     0.042 C 
ENDROOT
BRANCH   1   2
ATOM      2  C   UNL A   1      37.741  22.393  25.447  1.00  0.00     0.117 C 
BRANCH   2   3
ATOM      3  N   UNL A   1      36.337  22.329  25.097  1.00  0.00    -0.356 N 
ATOM      4  O   UNL A   1      36.584  23.117  22.950  1.00  0.00    -0.275 OA
ATOM      5  C   UNL A   1      35.878  22.665  23.845  1.00  0.00     0.220 C 
ATOM      6  H   UNL A   1      35.689  22.034  25.778  1.00  0.00     0.163 HD
BRANCH   5   7
ATOM      7  C   UNL A   1      34.415  22.363  23.623  1.00  0.00     0.113 C 
BRANCH   7   8
ATOM      8  C   UNL A   1      33.507  23.602  23.757  1.00  0.00     0.092 C 
BRANCH   8   9
ATOM      9  C   UNL A   1      32.954  24.002  22.348  1.00  0.00     0.228 C 
ATOM     10  O   UNL A   1      33.550  23.619  21.335  1.00  0.00    -0.274 OA
ATOM     11  N   UNL A   1      31.740  24.643  22.178  1.00  0.00    -0.324 N 
ATOM     12  H   UNL A   1      31.113  24.283  21.510  1.00  0.00     0.169 HD
BRANCH  11  13
ATOM     13  C   UNL A   1      31.349  25.785  22.914  1.00  0.00     0.061 A 
ATOM     14  C   UNL A   1      29.629  25.793  23.387  1.00  0.00     0.048 A 
ATOM     15  C   UNL A   1      32.136  27.329  22.627  1.00  0.00     0.064 A 
ATOM     16  C   UNL A   1      28.626  27.550  23.432  1.00  0.00     0.043 A 
ATOM     17  C   UNL A   1      31.297  28.894  22.708  1.00  0.00     0.024 A 
ATOM     18  Cl  UNL A   1      33.764  27.333  22.047  1.00  0.00    -0.082 Cl
ATOM     19  Cl  UNL A   1      26.926  28.151  23.709  1.00  0.00    -0.084 Cl
ATOM     20  C   UNL A   1      29.578  29.050  23.085  1.00  0.00     0.022 A 
ENDBRANCH  11  13
ENDBRANCH   8   9
BRANCH   8  21
ATOM     21  C   UNL A   1      32.599  23.691  25.034  1.00  0.00     0.049 C 
BRANCH  21  22
ATOM     22  C   UNL A   1      32.786  24.889  25.943  1.00  0.00    -0.047 A 
ATOM     23  C   UNL A   1      34.117  25.997  25.557  1.00  0.00     0.005 A 
ATOM     24  C   UNL A   1      31.275  25.583  26.609  1.00  0.00     0.005 A 
ATOM     25  C   UNL A   1      33.993  27.772  25.728  1.00  0.00     0.021 A 
ATOM     26  C   UNL A   1      31.116  27.594  26.746  1.00  0.00     0.021 A 
ATOM     27  C   UNL A   1      32.544  28.587  26.302  1.00  0.00     0.041 A 
ATOM     28  Cl  UNL A   1      32.478  30.295  26.405  1.00  0.00    -0.084 Cl
ENDBRANCH  21  22
ENDBRANCH   8  21
ENDBRANCH   7   8
ENDBRANCH   5   7
ENDBRANCH   2   3
ENDBRANCH   1   2
BRANCH   1  29
ATOM     29  C   UNL A   1      39.504  23.558  26.914  1.00  0.00     0.118 C 
BRANCH  29  30
ATOM     30  N   UNL A   1      40.486  24.102  25.986  1.00  0.00    -0.352 N 
ATOM     31  C   UNL A   1      41.267  25.227  26.096  1.00  0.00     0.251 C 
ATOM     32  H   UNL A   1      40.608  23.587  25.155  1.00  0.00     0.163 HD
ATOM     33  O   UNL A   1      41.978  25.561  25.151  1.00  0.00    -0.269 OA
BRANCH  31  34
ATOM     34  C   UNL A   1      41.228  26.056  27.320  1.00  0.00     0.039 A 
ATOM     35  C   UNL A   1      42.263  26.970  27.538  1.00  0.00     0.014 A 
ATOM     36  C   UNL A   1      40.191  25.939  28.250  1.00  0.00     0.014 A 
ATOM     37  C   UNL A   1      42.218  27.824  28.643  1.00  0.00     0.010 A 
ATOM     38  C   UNL A   1      40.125  26.819  29.329  1.00  0.00     0.010 A 
ATOM     39  C   UNL A   1      41.128  27.780  29.525  1.00  0.00    -0.014 A 
BRANCH  39  40
ATOM     40  C   UNL A   1      40.990  28.766  30.624  1.00  0.00     0.031 A 
ATOM     41  C   UNL A   1      41.858  28.678  31.846  1.00  0.00     0.074 A 
ATOM     42  C   UNL A   1      40.022  29.701  30.553  1.00  0.00     0.049 A 
ATOM     43  N   UNL A   1      41.805  29.388  32.944  1.00  0.00    -0.248 NA
ATOM     44  C   UNL A   1      42.907  27.647  31.841  1.00  0.00     0.031 C 
ATOM     45  C   UNL A   1      39.092  29.875  29.434  1.00  0.00     0.029 A 
ATOM     46  N   UNL A   1      39.649  30.670  31.449  1.00  0.00    -0.354 N 
ATOM     47  C   UNL A   1      42.798  28.878  33.770  1.00  0.00     0.074 A 
ATOM     48  C   UNL A   1      43.426  27.787  33.053  1.00  0.00     0.031 C 
ATOM     49  C   UNL A   1      38.262  30.894  29.709  1.00  0.00     0.029 A 
ATOM     50  C   UNL A   1      38.578  31.422  31.031  1.00  0.00     0.049 A 
ATOM     51  H   UNL A   1      40.105  30.812  32.311  1.00  0.00     0.167 HD
ATOM     52  C   UNL A   1      43.159  29.283  35.012  1.00  0.00     0.031 A 
ATOM     53  C   UNL A   1      37.913  32.417  31.647  1.00  0.00     0.031 A 
ATOM     54  C   UNL A   1      42.550  30.375  35.723  1.00  0.00     0.049 A 
ATOM     55  C   UNL A   1      38.332  32.851  33.021  1.00  0.00     0.074 A 
ATOM     56  C   UNL A   1      42.888  30.891  36.963  1.00  0.00     0.029 A 
ATOM     57  N   UNL A   1      41.478  31.120  35.259  1.00  0.00    -0.354 N 
ATOM     58  N   UNL A   1      39.297  32.378  33.772  1.00  0.00    -0.248 NA
ATOM     59  C   UNL A   1      37.570  33.951  33.631  1.00  0.00     0.031 C 
ATOM     60  C   UNL A   1      42.002  31.934  37.259  1.00  0.00     0.029 A 
ATOM     61  C   UNL A   1      41.130  32.082  36.193  1.00  0.00     0.049 A 
ATOM     62  H   UNL A   1      41.030  30.986  34.393  1.00  0.00     0.167 HD
ATOM     63  C   UNL A   1      39.265  33.128  34.941  1.00  0.00     0.074 A 
ATOM     64  C   UNL A   1      38.193  34.092  34.794  1.00  0.00     0.031 C 
ATOM     65  C   UNL A   1      40.054  33.026  36.037  1.00  0.00     0.031 A 
BRANCH  52  66
ATOM     66  C   UNL A   1      44.264  28.521  35.684  1.00  0.00    -0.014 A 
ATOM     67  C   UNL A   1      45.611  28.847  35.446  1.00  0.00     0.010 A 
ATOM     68  C   UNL A   1      43.955  27.476  36.571  1.00  0.00     0.010 A 
ATOM     69  C   UNL A   1      46.633  28.112  36.053  1.00  0.00     0.020 A 
ATOM     70  C   UNL A   1      44.974  26.749  37.191  1.00  0.00     0.020 A 
ATOM     71  C   UNL A   1      46.307  27.058  36.912  1.00  0.00     0.054 A 
BRANCH  71  72
ATOM     72  S   UNL A   1      47.644  26.111  37.691  1.00  0.00     0.124 S 
ATOM     73  O   UNL A   1      47.644  26.654  39.046  1.00  0.00    -0.237 OA
ATOM     74  O   UNL A   1      47.182  24.731  37.569  1.00  0.00    -0.237 OA
ATOM     75  O   UNL A   1      48.814  26.445  36.883  1.00  0.00    -0.744 OA
ENDBRANCH  71  72
ENDBRANCH  52  66
BRANCH  53  76
ATOM     76  C   UNL A   1      36.774  33.072  30.959  1.00  0.00    -0.014 A 
ATOM     77  C   UNL A   1      35.458  32.842  31.396  1.00  0.00     0.010 A 
ATOM     78  C   UNL A   1      37.002  33.956  29.889  1.00  0.00     0.010 A 
ATOM     79  C   UNL A   1      34.386  33.484  30.770  1.00  0.00     0.020 A 
ATOM     80  C   UNL A   1      35.933  34.610  29.273  1.00  0.00     0.020 A 
ATOM     81  C   UNL A   1      34.630  34.365  29.713  1.00  0.00     0.054 A 
BRANCH  81  82
ATOM     82  S   UNL A   1      33.239  35.252  28.959  1.00  0.00     0.124 S 
ATOM     83  O   UNL A   1      33.915  36.345  28.269  1.00  0.00    -0.237 OA
ATOM     84  O   UNL A   1      32.635  34.238  28.098  1.00  0.00    -0.237 OA
ATOM     85  O   UNL A   1      32.427  35.640  30.110  1.00  0.00    -0.744 OA
ENDBRANCH  81  82
ENDBRANCH  53  76
BRANCH  65  86
ATOM     86  C   UNL A   1      39.789  33.986  37.160  1.00  0.00    -0.014 A 
ATOM     87  C   UNL A   1      38.991  33.609  38.253  1.00  0.00     0.010 A 
ATOM     88  C   UNL A   1      40.373  35.265  37.139  1.00  0.00     0.010 A 
ATOM     89  C   UNL A   1      38.760  34.505  39.300  1.00  0.00     0.020 A 
ATOM     90  C   UNL A   1      40.156  36.158  38.191  1.00  0.00     0.020 A 
ATOM     91  C   UNL A   1      39.339  35.777  39.259  1.00  0.00     0.054 A 
BRANCH  91  92
ATOM     92  S   UNL A   1      39.067  36.917  40.644  1.00  0.00     0.124 S 
ATOM     93  O   UNL A   1      38.235  37.947  40.029  1.00  0.00    -0.237 OA
ATOM     94  O   UNL A   1      38.396  36.077  41.635  1.00  0.00    -0.237 OA
ATOM     95  O   UNL A   1      40.418  37.339  41.009  1.00  0.00    -0.744 OA
ENDBRANCH  91  92
ENDBRANCH  65  86
ENDBRANCH  39  40
ENDBRANCH  31  34
ENDBRANCH  29  30
ENDBRANCH   1  29
TORSDOF 18
ENDMDL
