MODEL 1
REMARK VINA RESULT:     -10.4      0.000      0.000
REMARK SMILES COc1ccc(Br)cc1S(=O)(=O)N(C)CC(=O)NCCCNC(=O)c1ccc(-c2c3nc(c(-c4ccc(S(=O)(=O)[O-])cc4)c4ccc([nH]4)c(-c4ccc(S(=O)(=O)[O-])cc4)c4nc(c(-c5ccc(S(=O)(=O)[O-])cc5)c5ccc2[nH]5)C=C4)C=C3)cc1
REMARK SMILES IDX 19 1 18 2 16 3 17 4 15 6 13 7 14 8 10 9 11 10 12 11 9 12
REMARK SMILES IDX 3 13 4 14 5 15 8 16 6 17 7 18 2 19 1 20 20 21 21 22 22 23
REMARK SMILES IDX 23 24 24 26 25 27 26 28 84 29 27 30 83 31 28 32 29 33 30 34
REMARK SMILES IDX 77 35 31 36 82 37 76 38 78 39 32 40 81 41 75 42 74 43 33 45
REMARK SMILES IDX 63 46 44 47 62 48 45 49 48 50 61 51 79 52 46 53 47 54 60 56
REMARK SMILES IDX 80 57 49 58 34 59 35 60 43 61 36 62 42 63 37 64 38 65 39 66
REMARK SMILES IDX 40 67 41 68 64 69 65 70 73 71 66 72 72 73 67 74 68 75 69 76
REMARK SMILES IDX 70 77 71 78 50 79 51 80 59 81 52 82 58 83 53 84 54 85 55 86
REMARK SMILES IDX 56 87 57 88
REMARK H PARENT 18 5 22 25 78 44 48 55
REMARK Flexibility Score: inf
ROOT
ATOM      1  C   UNL A   1      31.409  27.893  25.571  1.00  0.00     0.117 C 
ENDROOT
BRANCH   1   2
ATOM      2  N   UNL A   1      31.078  28.064  24.168  1.00  0.00    -0.355 N 
ATOM      3  C   UNL A   1      30.963  27.158  23.149  1.00  0.00     0.235 C 
ATOM      4  O   UNL A   1      30.570  27.591  22.062  1.00  0.00    -0.274 OA
ATOM      5  H   UNL A   1      30.908  28.997  23.902  1.00  0.00     0.163 HD
BRANCH   3   6
ATOM      6  C   UNL A   1      31.249  25.667  23.347  1.00  0.00     0.202 C 
BRANCH   6   7
ATOM      7  N   UNL A   1      32.658  25.176  23.167  1.00  0.00    -0.191 NA
ATOM      8  C   UNL A   1      33.467  26.083  22.352  1.00  0.00     0.125 C 
BRANCH   7   9
ATOM      9  S   UNL A   1      32.744  23.502  22.881  1.00  0.00     0.247 S 
ATOM     10  O   UNL A   1      33.477  23.360  21.632  1.00  0.00    -0.207 OA
ATOM     11  O   UNL A   1      31.400  22.988  23.015  1.00  0.00    -0.207 OA
BRANCH   9  12
ATOM     12  C   UNL A   1      33.724  22.609  24.073  1.00  0.00     0.125 A 
ATOM     13  C   UNL A   1      33.380  21.445  24.764  1.00  0.00     0.138 A 
ATOM     14  C   UNL A   1      34.253  20.975  25.766  1.00  0.00     0.049 A 
ATOM     15  C   UNL A   1      35.439  21.644  26.075  1.00  0.00     0.019 A 
ATOM     16  C   UNL A   1      34.946  23.258  24.367  1.00  0.00     0.041 A 
ATOM     17  C   UNL A   1      35.790  22.777  25.360  1.00  0.00     0.019 A 
ATOM     18  Br  UNL A   1      37.409  23.672  25.741  1.00  0.00    -0.051 Br
BRANCH  13  19
ATOM     19  O   UNL A   1      32.260  20.738  24.433  1.00  0.00    -0.495 OA
ATOM     20  C   UNL A   1      32.482  19.585  23.614  1.00  0.00     0.278 C 
ENDBRANCH  13  19
ENDBRANCH   9  12
ENDBRANCH   7   9
ENDBRANCH   6   7
ENDBRANCH   3   6
ENDBRANCH   1   2
BRANCH   1  21
ATOM     21  C   UNL A   1      32.917  27.907  25.821  1.00  0.00     0.042 C 
BRANCH  21  22
ATOM     22  C   UNL A   1      33.321  28.260  27.247  1.00  0.00     0.118 C 
BRANCH  22  23
ATOM     23  N   UNL A   1      33.314  29.698  27.475  1.00  0.00    -0.352 N 
ATOM     24  C   UNL A   1      34.269  30.527  28.012  1.00  0.00     0.251 C 
ATOM     25  H   UNL A   1      32.485  30.151  27.200  1.00  0.00     0.163 HD
ATOM     26  O   UNL A   1      33.940  31.677  28.304  1.00  0.00    -0.269 OA
BRANCH  24  27
ATOM     27  C   UNL A   1      35.667  30.084  28.255  1.00  0.00     0.039 A 
ATOM     28  C   UNL A   1      36.029  29.702  29.555  1.00  0.00     0.014 A 
ATOM     29  C   UNL A   1      36.652  30.122  27.265  1.00  0.00     0.014 A 
ATOM     30  C   UNL A   1      37.348  29.338  29.849  1.00  0.00     0.010 A 
ATOM     31  C   UNL A   1      37.951  29.684  27.539  1.00  0.00     0.010 A 
ATOM     32  C   UNL A   1      38.322  29.312  28.838  1.00  0.00    -0.014 A 
BRANCH  32  33
ATOM     33  C   UNL A   1      39.738  28.965  29.139  1.00  0.00     0.031 A 
ATOM     34  C   UNL A   1      40.644  29.976  29.798  1.00  0.00     0.074 A 
ATOM     35  C   UNL A   1      40.232  27.759  28.791  1.00  0.00     0.049 A 
ATOM     36  N   UNL A   1      41.915  29.878  30.094  1.00  0.00    -0.248 NA
ATOM     37  C   UNL A   1      40.044  31.273  30.150  1.00  0.00     0.031 C 
ATOM     38  C   UNL A   1      39.482  26.696  28.120  1.00  0.00     0.029 A 
ATOM     39  N   UNL A   1      41.488  27.227  28.954  1.00  0.00    -0.354 N 
ATOM     40  C   UNL A   1      42.274  31.107  30.637  1.00  0.00     0.074 A 
ATOM     41  C   UNL A   1      41.095  31.946  30.595  1.00  0.00     0.031 C 
ATOM     42  C   UNL A   1      40.284  25.631  27.955  1.00  0.00     0.029 A 
ATOM     43  C   UNL A   1      41.612  25.944  28.478  1.00  0.00     0.049 A 
ATOM     44  H   UNL A   1      42.230  27.720  29.374  1.00  0.00     0.167 HD
ATOM     45  C   UNL A   1      43.467  31.503  31.143  1.00  0.00     0.031 A 
ATOM     46  C   UNL A   1      42.669  25.111  28.464  1.00  0.00     0.031 A 
ATOM     47  C   UNL A   1      44.636  30.668  31.218  1.00  0.00     0.049 A 
ATOM     48  C   UNL A   1      43.976  25.557  29.058  1.00  0.00     0.074 A 
ATOM     49  C   UNL A   1      45.876  30.965  31.755  1.00  0.00     0.029 A 
ATOM     50  N   UNL A   1      44.706  29.366  30.748  1.00  0.00    -0.354 N 
ATOM     51  N   UNL A   1      44.282  26.711  29.599  1.00  0.00    -0.248 NA
ATOM     52  C   UNL A   1      45.075  24.581  29.051  1.00  0.00     0.031 C 
ATOM     53  C   UNL A   1      46.705  29.850  31.588  1.00  0.00     0.029 A 
ATOM     54  C   UNL A   1      45.969  28.847  30.979  1.00  0.00     0.049 A 
ATOM     55  H   UNL A   1      43.967  28.881  30.314  1.00  0.00     0.167 HD
ATOM     56  C   UNL A   1      45.601  26.593  30.019  1.00  0.00     0.074 A 
ATOM     57  C   UNL A   1      46.033  25.253  29.677  1.00  0.00     0.031 C 
ATOM     58  C   UNL A   1      46.384  27.511  30.635  1.00  0.00     0.031 A 
BRANCH  45  59
ATOM     59  C   UNL A   1      43.561  32.916  31.654  1.00  0.00    -0.014 A 
ATOM     60  C   UNL A   1      43.946  33.970  30.805  1.00  0.00     0.010 A 
ATOM     61  C   UNL A   1      43.256  33.195  32.999  1.00  0.00     0.010 A 
ATOM     62  C   UNL A   1      44.077  35.268  31.304  1.00  0.00     0.020 A 
ATOM     63  C   UNL A   1      43.363  34.497  33.496  1.00  0.00     0.020 A 
ATOM     64  C   UNL A   1      43.796  35.521  32.650  1.00  0.00     0.054 A 
BRANCH  64  65
ATOM     65  S   UNL A   1      43.979  37.213  33.279  1.00  0.00     0.124 S 
ATOM     66  O   UNL A   1      45.191  37.102  34.086  1.00  0.00    -0.237 OA
ATOM     67  O   UNL A   1      44.110  38.002  32.057  1.00  0.00    -0.237 OA
ATOM     68  O   UNL A   1      42.747  37.436  34.031  1.00  0.00    -0.744 OA
ENDBRANCH  64  65
ENDBRANCH  45  59
BRANCH  46  69
ATOM     69  C   UNL A   1      42.521  23.745  27.893  1.00  0.00    -0.014 A 
ATOM     70  C   UNL A   1      41.924  22.722  28.649  1.00  0.00     0.010 A 
ATOM     71  C   UNL A   1      42.950  23.471  26.583  1.00  0.00     0.010 A 
ATOM     72  C   UNL A   1      41.760  21.445  28.106  1.00  0.00     0.020 A 
ATOM     73  C   UNL A   1      42.771  22.200  26.030  1.00  0.00     0.020 A 
ATOM     74  C   UNL A   1      42.182  21.193  26.798  1.00  0.00     0.054 A 
BRANCH  74  75
ATOM     75  S   UNL A   1      41.887  19.552  26.079  1.00  0.00     0.124 S 
ATOM     76  O   UNL A   1      42.302  18.667  27.161  1.00  0.00    -0.237 OA
ATOM     77  O   UNL A   1      40.454  19.580  25.797  1.00  0.00    -0.237 OA
ATOM     78  O   UNL A   1      42.743  19.544  24.895  1.00  0.00    -0.744 OA
ENDBRANCH  74  75
ENDBRANCH  46  69
BRANCH  58  79
ATOM     79  C   UNL A   1      47.778  27.091  31.011  1.00  0.00    -0.014 A 
ATOM     80  C   UNL A   1      48.059  26.561  32.283  1.00  0.00     0.010 A 
ATOM     81  C   UNL A   1      48.812  27.190  30.062  1.00  0.00     0.010 A 
ATOM     82  C   UNL A   1      49.358  26.164  32.610  1.00  0.00     0.020 A 
ATOM     83  C   UNL A   1      50.109  26.776  30.380  1.00  0.00     0.020 A 
ATOM     84  C   UNL A   1      50.377  26.280  31.657  1.00  0.00     0.054 A 
BRANCH  84  85
ATOM     85  S   UNL A   1      52.050  25.728  32.088  1.00  0.00     0.124 S 
ATOM     86  O   UNL A   1      51.884  24.279  32.151  1.00  0.00    -0.237 OA
ATOM     87  O   UNL A   1      52.853  26.220  30.969  1.00  0.00    -0.237 OA
ATOM     88  O   UNL A   1      52.310  26.384  33.367  1.00  0.00    -0.744 OA
ENDBRANCH  84  85
ENDBRANCH  58  79
ENDBRANCH  32  33
ENDBRANCH  24  27
ENDBRANCH  22  23
ENDBRANCH  21  22
ENDBRANCH   1  21
TORSDOF 17
ENDMDL
MODEL 2
REMARK VINA RESULT:     -10.3      1.393      2.119
REMARK SMILES COc1ccc(Br)cc1S(=O)(=O)N(C)CC(=O)NCCCNC(=O)c1ccc(-c2c3nc(c(-c4ccc(S(=O)(=O)[O-])cc4)c4ccc([nH]4)c(-c4ccc(S(=O)(=O)[O-])cc4)c4nc(c(-c5ccc(S(=O)(=O)[O-])cc5)c5ccc2[nH]5)C=C4)C=C3)cc1
REMARK SMILES IDX 19 1 18 2 16 3 17 4 15 6 13 7 14 8 10 9 11 10 12 11 9 12
REMARK SMILES IDX 3 13 4 14 5 15 8 16 6 17 7 18 2 19 1 20 20 21 21 22 22 23
REMARK SMILES IDX 23 24 24 26 25 27 26 28 84 29 27 30 83 31 28 32 29 33 30 34
REMARK SMILES IDX 77 35 31 36 82 37 76 38 78 39 32 40 81 41 75 42 74 43 33 45
REMARK SMILES IDX 63 46 44 47 62 48 45 49 48 50 61 51 79 52 46 53 47 54 60 56
REMARK SMILES IDX 80 57 49 58 34 59 35 60 43 61 36 62 42 63 37 64 38 65 39 66
REMARK SMILES IDX 40 67 41 68 64 69 65 70 73 71 66 72 72 73 67 74 68 75 69 76
REMARK SMILES IDX 70 77 71 78 50 79 51 80 59 81 52 82 58 83 53 84 54 85 55 86
REMARK SMILES IDX 56 87 57 88
REMARK H PARENT 18 5 22 25 78 44 48 55
REMARK Flexibility Score: inf
ROOT
ATOM      1  C   UNL A   1      33.018  26.877  24.928  1.00  0.00     0.117 C 
ENDROOT
BRANCH   1   2
ATOM      2  N   UNL A   1      33.214  26.793  23.492  1.00  0.00    -0.355 N 
ATOM      3  C   UNL A   1      33.657  25.771  22.698  1.00  0.00     0.235 C 
ATOM      4  O   UNL A   1      33.630  25.962  21.479  1.00  0.00    -0.274 OA
ATOM      5  H   UNL A   1      32.990  27.618  23.003  1.00  0.00     0.163 HD
BRANCH   3   6
ATOM      6  C   UNL A   1      34.114  24.428  23.276  1.00  0.00     0.202 C 
BRANCH   6   7
ATOM      7  N   UNL A   1      33.077  23.376  23.552  1.00  0.00    -0.191 NA
ATOM      8  C   UNL A   1      31.735  23.790  23.142  1.00  0.00     0.125 C 
BRANCH   7   9
ATOM      9  S   UNL A   1      33.289  22.619  25.060  1.00  0.00     0.247 S 
ATOM     10  O   UNL A   1      31.977  22.103  25.421  1.00  0.00    -0.207 OA
ATOM     11  O   UNL A   1      33.973  23.567  25.908  1.00  0.00    -0.207 OA
BRANCH   9  12
ATOM     12  C   UNL A   1      34.331  21.173  25.009  1.00  0.00     0.125 A 
ATOM     13  C   UNL A   1      35.728  21.124  25.029  1.00  0.00     0.138 A 
ATOM     14  C   UNL A   1      36.359  19.878  24.845  1.00  0.00     0.049 A 
ATOM     15  C   UNL A   1      35.623  18.707  24.645  1.00  0.00     0.019 A 
ATOM     16  C   UNL A   1      33.595  19.977  24.843  1.00  0.00     0.041 A 
ATOM     17  C   UNL A   1      34.239  18.760  24.661  1.00  0.00     0.019 A 
ATOM     18  Br  UNL A   1      33.231  17.181  24.429  1.00  0.00    -0.051 Br
BRANCH  13  19
ATOM     19  O   UNL A   1      36.465  22.243  25.290  1.00  0.00    -0.495 OA
ATOM     20  C   UNL A   1      37.836  22.009  25.630  1.00  0.00     0.278 C 
ENDBRANCH  13  19
ENDBRANCH   9  12
ENDBRANCH   7   9
ENDBRANCH   6   7
ENDBRANCH   3   6
ENDBRANCH   1   2
BRANCH   1  21
ATOM     21  C   UNL A   1      33.828  28.007  25.563  1.00  0.00     0.042 C 
BRANCH  21  22
ATOM     22  C   UNL A   1      33.585  28.202  27.054  1.00  0.00     0.118 C 
BRANCH  22  23
ATOM     23  N   UNL A   1      33.544  29.610  27.420  1.00  0.00    -0.352 N 
ATOM     24  C   UNL A   1      34.477  30.406  28.039  1.00  0.00     0.251 C 
ATOM     25  H   UNL A   1      32.705  30.068  27.185  1.00  0.00     0.163 HD
ATOM     26  O   UNL A   1      34.120  31.514  28.438  1.00  0.00    -0.269 OA
BRANCH  24  27
ATOM     27  C   UNL A   1      35.885  29.975  28.246  1.00  0.00     0.039 A 
ATOM     28  C   UNL A   1      36.259  29.508  29.514  1.00  0.00     0.014 A 
ATOM     29  C   UNL A   1      36.865  30.103  27.257  1.00  0.00     0.014 A 
ATOM     30  C   UNL A   1      37.587  29.149  29.776  1.00  0.00     0.010 A 
ATOM     31  C   UNL A   1      38.172  29.672  27.495  1.00  0.00     0.010 A 
ATOM     32  C   UNL A   1      38.557  29.215  28.764  1.00  0.00    -0.014 A 
BRANCH  32  33
ATOM     33  C   UNL A   1      39.981  28.875  29.034  1.00  0.00     0.031 A 
ATOM     34  C   UNL A   1      40.898  29.896  29.662  1.00  0.00     0.074 A 
ATOM     35  C   UNL A   1      40.470  27.668  28.686  1.00  0.00     0.049 A 
ATOM     36  N   UNL A   1      42.176  29.805  29.930  1.00  0.00    -0.248 NA
ATOM     37  C   UNL A   1      40.302  31.195  30.016  1.00  0.00     0.031 C 
ATOM     38  C   UNL A   1      39.708  26.596  28.044  1.00  0.00     0.029 A 
ATOM     39  N   UNL A   1      41.731  27.142  28.825  1.00  0.00    -0.354 N 
ATOM     40  C   UNL A   1      42.543  31.040  30.452  1.00  0.00     0.074 A 
ATOM     41  C   UNL A   1      41.361  31.874  30.430  1.00  0.00     0.031 C 
ATOM     42  C   UNL A   1      40.510  25.532  27.869  1.00  0.00     0.029 A 
ATOM     43  C   UNL A   1      41.848  25.855  28.358  1.00  0.00     0.049 A 
ATOM     44  H   UNL A   1      42.482  27.641  29.223  1.00  0.00     0.167 HD
ATOM     45  C   UNL A   1      43.747  31.445  30.925  1.00  0.00     0.031 A 
ATOM     46  C   UNL A   1      42.908  25.024  28.327  1.00  0.00     0.031 A 
ATOM     47  C   UNL A   1      44.920  30.614  30.981  1.00  0.00     0.049 A 
ATOM     48  C   UNL A   1      44.227  25.480  28.886  1.00  0.00     0.074 A 
ATOM     49  C   UNL A   1      46.172  30.921  31.487  1.00  0.00     0.029 A 
ATOM     50  N   UNL A   1      44.983  29.307  30.522  1.00  0.00    -0.354 N 
ATOM     51  N   UNL A   1      44.541  26.641  29.409  1.00  0.00    -0.248 NA
ATOM     52  C   UNL A   1      45.329  24.508  28.863  1.00  0.00     0.031 C 
ATOM     53  C   UNL A   1      46.999  29.806  31.311  1.00  0.00     0.029 A 
ATOM     54  C   UNL A   1      46.253  28.795  30.729  1.00  0.00     0.049 A 
ATOM     55  H   UNL A   1      44.236  28.816  30.110  1.00  0.00     0.167 HD
ATOM     56  C   UNL A   1      45.871  26.531  29.799  1.00  0.00     0.074 A 
ATOM     57  C   UNL A   1      46.298  25.189  29.460  1.00  0.00     0.031 C 
ATOM     58  C   UNL A   1      46.665  27.458  30.388  1.00  0.00     0.031 A 
BRANCH  45  59
ATOM     59  C   UNL A   1      43.848  32.862  31.421  1.00  0.00    -0.014 A 
ATOM     60  C   UNL A   1      43.534  33.188  32.754  1.00  0.00     0.010 A 
ATOM     61  C   UNL A   1      44.268  33.882  30.547  1.00  0.00     0.010 A 
ATOM     62  C   UNL A   1      43.584  34.514  33.188  1.00  0.00     0.020 A 
ATOM     63  C   UNL A   1      44.343  35.207  30.985  1.00  0.00     0.020 A 
ATOM     64  C   UNL A   1      43.977  35.518  32.297  1.00  0.00     0.054 A 
BRANCH  64  65
ATOM     65  S   UNL A   1      44.029  37.235  32.881  1.00  0.00     0.124 S 
ATOM     66  O   UNL A   1      42.932  37.256  33.845  1.00  0.00    -0.237 OA
ATOM     67  O   UNL A   1      45.369  37.343  33.453  1.00  0.00    -0.237 OA
ATOM     68  O   UNL A   1      43.809  38.017  31.668  1.00  0.00    -0.744 OA
ENDBRANCH  64  65
ENDBRANCH  45  59
BRANCH  46  69
ATOM     69  C   UNL A   1      42.752  23.653  27.773  1.00  0.00    -0.014 A 
ATOM     70  C   UNL A   1      42.154  22.641  28.544  1.00  0.00     0.010 A 
ATOM     71  C   UNL A   1      43.173  23.361  26.464  1.00  0.00     0.010 A 
ATOM     72  C   UNL A   1      41.982  21.358  28.017  1.00  0.00     0.020 A 
ATOM     73  C   UNL A   1      42.985  22.085  25.927  1.00  0.00     0.020 A 
ATOM     74  C   UNL A   1      42.396  21.089  26.710  1.00  0.00     0.054 A 
BRANCH  74  75
ATOM     75  S   UNL A   1      42.090  19.442  26.011  1.00  0.00     0.124 S 
ATOM     76  O   UNL A   1      40.649  19.468  25.791  1.00  0.00    -0.237 OA
ATOM     77  O   UNL A   1      42.916  19.447  24.806  1.00  0.00    -0.237 OA
ATOM     78  O   UNL A   1      42.549  18.539  27.064  1.00  0.00    -0.744 OA
ENDBRANCH  74  75
ENDBRANCH  46  69
BRANCH  58  79
ATOM     79  C   UNL A   1      48.068  27.045  30.735  1.00  0.00    -0.014 A 
ATOM     80  C   UNL A   1      49.134  27.280  29.848  1.00  0.00     0.010 A 
ATOM     81  C   UNL A   1      48.329  26.451  31.983  1.00  0.00     0.010 A 
ATOM     82  C   UNL A   1      50.434  26.900  30.192  1.00  0.00     0.020 A 
ATOM     83  C   UNL A   1      49.631  26.087  32.337  1.00  0.00     0.020 A 
ATOM     84  C   UNL A   1      50.673  26.300  31.434  1.00  0.00     0.054 A 
BRANCH  84  85
ATOM     85  S   UNL A   1      52.372  25.846  31.878  1.00  0.00     0.124 S 
ATOM     86  O   UNL A   1      53.087  26.084  30.627  1.00  0.00    -0.237 OA
ATOM     87  O   UNL A   1      52.683  26.772  32.965  1.00  0.00    -0.237 OA
ATOM     88  O   UNL A   1      52.260  24.445  32.276  1.00  0.00    -0.744 OA
ENDBRANCH  84  85
ENDBRANCH  58  79
ENDBRANCH  32  33
ENDBRANCH  24  27
ENDBRANCH  22  23
ENDBRANCH  21  22
ENDBRANCH   1  21
TORSDOF 17
ENDMDL
MODEL 3
REMARK VINA RESULT:     -10.1      2.550      3.224
REMARK SMILES COc1ccc(Br)cc1S(=O)(=O)N(C)CC(=O)NCCCNC(=O)c1ccc(-c2c3nc(c(-c4ccc(S(=O)(=O)[O-])cc4)c4ccc([nH]4)c(-c4ccc(S(=O)(=O)[O-])cc4)c4nc(c(-c5ccc(S(=O)(=O)[O-])cc5)c5ccc2[nH]5)C=C4)C=C3)cc1
REMARK SMILES IDX 19 1 18 2 16 3 17 4 15 6 13 7 14 8 10 9 11 10 12 11 9 12
REMARK SMILES IDX 3 13 4 14 5 15 8 16 6 17 7 18 2 19 1 20 20 21 21 22 22 23
REMARK SMILES IDX 23 24 24 26 25 27 26 28 84 29 27 30 83 31 28 32 29 33 30 34
REMARK SMILES IDX 77 35 31 36 82 37 76 38 78 39 32 40 81 41 75 42 74 43 33 45
REMARK SMILES IDX 63 46 44 47 62 48 45 49 48 50 61 51 79 52 46 53 47 54 60 56
REMARK SMILES IDX 80 57 49 58 34 59 35 60 43 61 36 62 42 63 37 64 38 65 39 66
REMARK SMILES IDX 40 67 41 68 64 69 65 70 73 71 66 72 72 73 67 74 68 75 69 76
REMARK SMILES IDX 70 77 71 78 50 79 51 80 59 81 52 82 58 83 53 84 54 85 55 86
REMARK SMILES IDX 56 87 57 88
REMARK H PARENT 18 5 22 25 78 44 48 55
REMARK Flexibility Score: inf
ROOT
ATOM      1  C   UNL A   1      31.737  27.676  25.769  1.00  0.00     0.117 C 
ENDROOT
BRANCH   1   2
ATOM      2  N   UNL A   1      32.000  27.674  24.342  1.00  0.00    -0.355 N 
ATOM      3  C   UNL A   1      31.833  26.703  23.394  1.00  0.00     0.235 C 
ATOM      4  O   UNL A   1      32.058  27.024  22.223  1.00  0.00    -0.274 OA
ATOM      5  H   UNL A   1      32.365  28.520  23.996  1.00  0.00     0.163 HD
BRANCH   3   6
ATOM      6  C   UNL A   1      31.336  25.297  23.744  1.00  0.00     0.202 C 
BRANCH   6   7
ATOM      7  N   UNL A   1      32.292  24.339  24.396  1.00  0.00    -0.191 NA
ATOM      8  C   UNL A   1      32.100  24.256  25.845  1.00  0.00     0.125 C 
BRANCH   7   9
ATOM      9  S   UNL A   1      33.870  24.450  23.773  1.00  0.00     0.247 S 
ATOM     10  O   UNL A   1      34.388  25.721  24.258  1.00  0.00    -0.207 OA
ATOM     11  O   UNL A   1      33.777  24.178  22.357  1.00  0.00    -0.207 OA
BRANCH   9  12
ATOM     12  C   UNL A   1      34.999  23.235  24.427  1.00  0.00     0.125 A 
ATOM     13  C   UNL A   1      34.818  21.852  24.502  1.00  0.00     0.138 A 
ATOM     14  C   UNL A   1      35.785  21.084  25.181  1.00  0.00     0.049 A 
ATOM     15  C   UNL A   1      36.904  21.673  25.773  1.00  0.00     0.019 A 
ATOM     16  C   UNL A   1      36.155  23.819  24.997  1.00  0.00     0.041 A 
ATOM     17  C   UNL A   1      37.094  23.041  25.664  1.00  0.00     0.019 A 
ATOM     18  Br  UNL A   1      38.621  23.848  26.427  1.00  0.00    -0.051 Br
BRANCH  13  19
ATOM     19  O   UNL A   1      33.768  21.247  23.873  1.00  0.00    -0.495 OA
ATOM     20  C   UNL A   1      32.749  20.734  24.739  1.00  0.00     0.278 C 
ENDBRANCH  13  19
ENDBRANCH   9  12
ENDBRANCH   7   9
ENDBRANCH   6   7
ENDBRANCH   3   6
ENDBRANCH   1   2
BRANCH   1  21
ATOM     21  C   UNL A   1      33.018  27.752  26.600  1.00  0.00     0.042 C 
BRANCH  21  22
ATOM     22  C   UNL A   1      34.047  28.753  26.089  1.00  0.00     0.118 C 
BRANCH  22  23
ATOM     23  N   UNL A   1      33.725  30.116  26.486  1.00  0.00    -0.352 N 
ATOM     24  C   UNL A   1      34.250  30.912  27.476  1.00  0.00     0.251 C 
ATOM     25  H   UNL A   1      33.011  30.538  25.957  1.00  0.00     0.163 HD
ATOM     26  O   UNL A   1      33.656  31.953  27.758  1.00  0.00    -0.269 OA
BRANCH  24  27
ATOM     27  C   UNL A   1      35.491  30.556  28.214  1.00  0.00     0.039 A 
ATOM     28  C   UNL A   1      36.712  31.063  27.747  1.00  0.00     0.014 A 
ATOM     29  C   UNL A   1      35.497  29.667  29.292  1.00  0.00     0.014 A 
ATOM     30  C   UNL A   1      37.915  30.706  28.369  1.00  0.00     0.010 A 
ATOM     31  C   UNL A   1      36.688  29.373  29.961  1.00  0.00     0.010 A 
ATOM     32  C   UNL A   1      37.914  29.866  29.493  1.00  0.00    -0.014 A 
BRANCH  32  33
ATOM     33  C   UNL A   1      39.185  29.445  30.145  1.00  0.00     0.031 A 
ATOM     34  C   UNL A   1      39.663  30.142  31.394  1.00  0.00     0.074 A 
ATOM     35  C   UNL A   1      39.936  28.465  29.602  1.00  0.00     0.049 A 
ATOM     36  N   UNL A   1      40.764  29.953  32.077  1.00  0.00    -0.248 NA
ATOM     37  C   UNL A   1      38.799  31.205  31.934  1.00  0.00     0.031 C 
ATOM     38  C   UNL A   1      39.613  27.725  28.381  1.00  0.00     0.029 A 
ATOM     39  N   UNL A   1      41.129  27.924  30.013  1.00  0.00    -0.354 N 
ATOM     40  C   UNL A   1      40.740  30.890  33.104  1.00  0.00     0.074 A 
ATOM     41  C   UNL A   1      39.533  31.670  32.933  1.00  0.00     0.031 C 
ATOM     42  C   UNL A   1      40.571  26.810  28.157  1.00  0.00     0.029 A 
ATOM     43  C   UNL A   1      41.589  26.917  29.199  1.00  0.00     0.049 A 
ATOM     44  H   UNL A   1      41.610  28.229  30.816  1.00  0.00     0.167 HD
ATOM     45  C   UNL A   1      41.627  31.078  34.111  1.00  0.00     0.031 A 
ATOM     46  C   UNL A   1      42.700  26.161  29.279  1.00  0.00     0.031 A 
ATOM     47  C   UNL A   1      42.813  30.288  34.308  1.00  0.00     0.049 A 
ATOM     48  C   UNL A   1      43.657  26.363  30.421  1.00  0.00     0.074 A 
ATOM     49  C   UNL A   1      43.748  30.373  35.326  1.00  0.00     0.029 A 
ATOM     50  N   UNL A   1      43.224  29.260  33.473  1.00  0.00    -0.354 N 
ATOM     51  N   UNL A   1      43.595  27.231  31.402  1.00  0.00    -0.248 NA
ATOM     52  C   UNL A   1      44.826  25.473  30.473  1.00  0.00     0.031 C 
ATOM     53  C   UNL A   1      44.738  29.412  35.092  1.00  0.00     0.029 A 
ATOM     54  C   UNL A   1      44.399  28.705  33.950  1.00  0.00     0.049 A 
ATOM     55  H   UNL A   1      42.749  28.968  32.662  1.00  0.00     0.167 HD
ATOM     56  C   UNL A   1      44.703  26.977  32.202  1.00  0.00     0.074 A 
ATOM     57  C   UNL A   1      45.413  25.869  31.595  1.00  0.00     0.031 C 
ATOM     58  C   UNL A   1      45.095  27.602  33.338  1.00  0.00     0.031 A 
BRANCH  45  59
ATOM     59  C   UNL A   1      41.340  32.194  35.079  1.00  0.00    -0.014 A 
ATOM     60  C   UNL A   1      40.478  31.999  36.175  1.00  0.00     0.010 A 
ATOM     61  C   UNL A   1      41.943  33.452  34.897  1.00  0.00     0.010 A 
ATOM     62  C   UNL A   1      40.181  33.056  37.038  1.00  0.00     0.020 A 
ATOM     63  C   UNL A   1      41.666  34.506  35.773  1.00  0.00     0.020 A 
ATOM     64  C   UNL A   1      40.768  34.307  36.824  1.00  0.00     0.054 A 
BRANCH  64  65
ATOM     65  S   UNL A   1      40.363  35.668  37.953  1.00  0.00     0.124 S 
ATOM     66  O   UNL A   1      39.429  35.025  38.874  1.00  0.00    -0.237 OA
ATOM     67  O   UNL A   1      41.663  36.017  38.521  1.00  0.00    -0.237 OA
ATOM     68  O   UNL A   1      39.778  36.679  37.077  1.00  0.00    -0.744 OA
ENDBRANCH  64  65
ENDBRANCH  45  59
BRANCH  46  69
ATOM     69  C   UNL A   1      42.951  25.110  28.257  1.00  0.00    -0.014 A 
ATOM     70  C   UNL A   1      43.684  25.412  27.096  1.00  0.00     0.010 A 
ATOM     71  C   UNL A   1      42.483  23.799  28.453  1.00  0.00     0.010 A 
ATOM     72  C   UNL A   1      43.944  24.421  26.146  1.00  0.00     0.020 A 
ATOM     73  C   UNL A   1      42.757  22.801  27.514  1.00  0.00     0.020 A 
ATOM     74  C   UNL A   1      43.481  23.120  26.362  1.00  0.00     0.054 A 
BRANCH  74  75
ATOM     75  S   UNL A   1      43.898  21.826  25.159  1.00  0.00     0.124 S 
ATOM     76  O   UNL A   1      45.278  21.514  25.514  1.00  0.00    -0.237 OA
ATOM     77  O   UNL A   1      42.916  20.786  25.457  1.00  0.00    -0.237 OA
ATOM     78  O   UNL A   1      43.714  22.492  23.872  1.00  0.00    -0.744 OA
ENDBRANCH  74  75
ENDBRANCH  46  69
BRANCH  58  79
ATOM     79  C   UNL A   1      46.331  27.085  34.020  1.00  0.00    -0.014 A 
ATOM     80  C   UNL A   1      47.600  27.611  33.719  1.00  0.00     0.010 A 
ATOM     81  C   UNL A   1      46.213  26.089  35.005  1.00  0.00     0.010 A 
ATOM     82  C   UNL A   1      48.736  27.126  34.373  1.00  0.00     0.020 A 
ATOM     83  C   UNL A   1      47.346  25.615  35.674  1.00  0.00     0.020 A 
ATOM     84  C   UNL A   1      48.602  26.126  35.342  1.00  0.00     0.054 A 
BRANCH  84  85
ATOM     85  S   UNL A   1      50.084  25.534  36.205  1.00  0.00     0.124 S 
ATOM     86  O   UNL A   1      49.956  26.182  37.507  1.00  0.00    -0.237 OA
ATOM     87  O   UNL A   1      49.902  24.083  36.205  1.00  0.00    -0.237 OA
ATOM     88  O   UNL A   1      51.183  26.016  35.372  1.00  0.00    -0.744 OA
ENDBRANCH  84  85
ENDBRANCH  58  79
ENDBRANCH  32  33
ENDBRANCH  24  27
ENDBRANCH  22  23
ENDBRANCH  21  22
ENDBRANCH   1  21
TORSDOF 17
ENDMDL
