MODEL 1
REMARK VINA RESULT:     -11.7      0.000      0.000
REMARK SMILES O=C(Cn1nc(-c2cccs2)ccc1=O)N[C@H](Cc1ccccc1)C(=O)NCCCNC(=O)c1ccc(-c2c3nc(c(-c4ccc(S(=O)(=O)[O-])cc4)c4ccc([nH]4)c(-c4ccc(S(=O)(=O)[O-])cc4)c4nc(c(-c5ccc(S(=O)(=O)[O-])cc5)c5ccc2[nH]5)C=C4)C=C3)cc1
REMARK SMILES IDX 28 1 27 2 25 3 26 4 17 6 16 7 1 8 2 9 3 11 4 12 5 13 14 14
REMARK SMILES IDX 6 15 13 16 15 17 12 18 7 19 8 20 11 21 9 22 10 23 18 24
REMARK SMILES IDX 19 25 20 26 24 27 21 28 23 29 22 30 29 31 30 32 31 33 32 34
REMARK SMILES IDX 33 36 34 37 35 38 93 39 36 40 92 41 37 42 38 43 39 44 86 45
REMARK SMILES IDX 40 46 91 47 85 48 87 49 41 50 90 51 84 52 83 53 42 55 72 56
REMARK SMILES IDX 53 57 71 58 54 59 57 60 70 61 88 62 55 63 56 64 69 66 89 67
REMARK SMILES IDX 58 68 43 69 44 70 52 71 45 72 51 73 46 74 47 75 48 76 49 77
REMARK SMILES IDX 50 78 73 79 74 80 82 81 75 82 81 83 76 84 77 85 78 86 79 87
REMARK SMILES IDX 80 88 59 89 60 90 68 91 61 92 67 93 62 94 63 95 64 96 65 97
REMARK SMILES IDX 66 98
REMARK H PARENT 27 5 16 10 31 35 87 54 57 65
REMARK Flexibility Score: inf
ROOT
ATOM      1  C   UNL A   1      35.405  20.848  25.676  1.00  0.00     0.117 C 
ENDROOT
BRANCH   1   2
ATOM      2  N   UNL A   1      34.014  20.426  25.667  1.00  0.00    -0.354 N 
ATOM      3  C   UNL A   1      32.908  21.076  25.207  1.00  0.00     0.242 C 
ATOM      4  O   UNL A   1      31.880  20.406  25.052  1.00  0.00    -0.273 OA
ATOM      5  H   UNL A   1      33.845  19.536  26.051  1.00  0.00     0.163 HD
BRANCH   3   6
ATOM      6  C   UNL A   1      32.939  22.558  24.787  1.00  0.00     0.175 C 
BRANCH   6   7
ATOM      7  N   UNL A   1      31.626  23.100  25.210  1.00  0.00    -0.342 N 
ATOM      8  O   UNL A   1      31.993  23.447  27.436  1.00  0.00    -0.273 OA
ATOM      9  C   UNL A   1      31.338  23.678  26.420  1.00  0.00     0.242 C 
ATOM     10  H   UNL A   1      30.890  23.039  24.559  1.00  0.00     0.164 HD
BRANCH   9  11
ATOM     11  C   UNL A   1      30.164  24.671  26.473  1.00  0.00     0.248 C 
BRANCH  11  12
ATOM     12  N   UNL A   1      30.317  25.985  25.836  1.00  0.00    -0.220 N 
ATOM     13  N   UNL A   1      31.134  26.881  26.509  1.00  0.00    -0.168 NA
ATOM     14  C   UNL A   1      30.033  26.128  24.483  1.00  0.00     0.267 A 
ATOM     15  C   UNL A   1      31.449  27.986  25.904  1.00  0.00     0.101 A 
ATOM     16  C   UNL A   1      30.240  27.469  23.909  1.00  0.00     0.075 A 
ATOM     17  O   UNL A   1      29.595  25.250  23.756  1.00  0.00    -0.268 OA
ATOM     18  C   UNL A   1      30.916  28.394  24.588  1.00  0.00     0.037 A 
BRANCH  15  19
ATOM     19  C   UNL A   1      32.448  28.838  26.500  1.00  0.00     0.054 A 
ATOM     20  C   UNL A   1      33.736  28.483  26.852  1.00  0.00     0.022 A 
ATOM     21  S   UNL A   1      32.124  30.482  26.823  1.00  0.00    -0.142 S 
ATOM     22  C   UNL A   1      34.472  29.588  27.365  1.00  0.00     0.012 A 
ATOM     23  C   UNL A   1      33.711  30.734  27.416  1.00  0.00     0.065 A 
ENDBRANCH  15  19
ENDBRANCH  11  12
ENDBRANCH   9  11
ENDBRANCH   6   7
BRANCH   6  24
ATOM     24  C   UNL A   1      33.430  22.817  23.346  1.00  0.00     0.070 C 
BRANCH  24  25
ATOM     25  C   UNL A   1      33.438  24.261  22.862  1.00  0.00    -0.045 A 
ATOM     26  C   UNL A   1      33.933  25.266  23.709  1.00  0.00     0.004 A 
ATOM     27  C   UNL A   1      32.854  24.658  21.648  1.00  0.00     0.004 A 
ATOM     28  C   UNL A   1      33.870  26.615  23.342  1.00  0.00     0.000 A 
ATOM     29  C   UNL A   1      32.801  26.005  21.277  1.00  0.00     0.000 A 
ATOM     30  C   UNL A   1      33.308  26.984  22.124  1.00  0.00     0.000 A 
ENDBRANCH  24  25
ENDBRANCH   6  24
ENDBRANCH   3   6
ENDBRANCH   1   2
BRANCH   1  31
ATOM     31  C   UNL A   1      35.635  22.113  26.470  1.00  0.00     0.042 C 
BRANCH  31  32
ATOM     32  C   UNL A   1      36.785  22.939  25.921  1.00  0.00     0.118 C 
BRANCH  32  33
ATOM     33  N   UNL A   1      38.081  22.260  26.003  1.00  0.00    -0.352 N 
ATOM     34  C   UNL A   1      39.322  22.733  26.364  1.00  0.00     0.251 C 
ATOM     35  H   UNL A   1      38.060  21.306  25.760  1.00  0.00     0.163 HD
ATOM     36  O   UNL A   1      40.316  22.027  26.217  1.00  0.00    -0.269 OA
BRANCH  34  37
ATOM     37  C   UNL A   1      39.456  24.106  26.888  1.00  0.00     0.039 A 
ATOM     38  C   UNL A   1      40.048  25.095  26.107  1.00  0.00     0.014 A 
ATOM     39  C   UNL A   1      39.043  24.397  28.192  1.00  0.00     0.014 A 
ATOM     40  C   UNL A   1      40.473  26.270  26.706  1.00  0.00     0.010 A 
ATOM     41  C   UNL A   1      39.340  25.645  28.746  1.00  0.00     0.010 A 
ATOM     42  C   UNL A   1      40.122  26.566  28.032  1.00  0.00    -0.014 A 
BRANCH  42  43
ATOM     43  C   UNL A   1      40.592  27.842  28.635  1.00  0.00     0.031 A 
ATOM     44  C   UNL A   1      39.646  28.998  28.836  1.00  0.00     0.074 A 
ATOM     45  C   UNL A   1      41.864  27.923  29.078  1.00  0.00     0.049 A 
ATOM     46  N   UNL A   1      39.889  30.171  29.365  1.00  0.00    -0.248 NA
ATOM     47  C   UNL A   1      38.254  28.827  28.386  1.00  0.00     0.031 C 
ATOM     48  C   UNL A   1      42.860  26.853  28.967  1.00  0.00     0.029 A 
ATOM     49  N   UNL A   1      42.527  28.920  29.747  1.00  0.00    -0.354 N 
ATOM     50  C   UNL A   1      38.695  30.880  29.292  1.00  0.00     0.074 A 
ATOM     51  C   UNL A   1      37.734  30.022  28.637  1.00  0.00     0.031 C 
ATOM     52  C   UNL A   1      43.970  27.216  29.619  1.00  0.00     0.029 A 
ATOM     53  C   UNL A   1      43.810  28.581  30.106  1.00  0.00     0.049 A 
ATOM     54  H   UNL A   1      42.122  29.794  29.950  1.00  0.00     0.167 HD
ATOM     55  C   UNL A   1      38.423  32.127  29.746  1.00  0.00     0.031 A 
ATOM     56  C   UNL A   1      44.767  29.287  30.740  1.00  0.00     0.031 A 
ATOM     57  C   UNL A   1      39.385  32.961  30.420  1.00  0.00     0.049 A 
ATOM     58  C   UNL A   1      44.458  30.685  31.185  1.00  0.00     0.074 A 
ATOM     59  C   UNL A   1      39.202  34.236  30.926  1.00  0.00     0.029 A 
ATOM     60  N   UNL A   1      40.698  32.606  30.695  1.00  0.00    -0.354 N 
ATOM     61  N   UNL A   1      43.325  31.341  31.094  1.00  0.00    -0.248 NA
ATOM     62  C   UNL A   1      45.548  31.443  31.812  1.00  0.00     0.031 C 
ATOM     63  C   UNL A   1      40.421  34.679  31.442  1.00  0.00     0.029 A 
ATOM     64  C   UNL A   1      41.344  33.651  31.336  1.00  0.00     0.049 A 
ATOM     65  H   UNL A   1      41.109  31.741  30.468  1.00  0.00     0.167 HD
ATOM     66  C   UNL A   1      43.563  32.586  31.660  1.00  0.00     0.074 A 
ATOM     67  C   UNL A   1      44.939  32.584  32.114  1.00  0.00     0.031 C 
ATOM     68  C   UNL A   1      42.716  33.638  31.783  1.00  0.00     0.031 A 
BRANCH  55  69
ATOM     69  C   UNL A   1      37.036  32.685  29.538  1.00  0.00    -0.014 A 
ATOM     70  C   UNL A   1      36.677  33.209  28.281  1.00  0.00     0.010 A 
ATOM     71  C   UNL A   1      36.135  32.812  30.611  1.00  0.00     0.010 A 
ATOM     72  C   UNL A   1      35.463  33.880  28.108  1.00  0.00     0.020 A 
ATOM     73  C   UNL A   1      34.904  33.456  30.434  1.00  0.00     0.020 A 
ATOM     74  C   UNL A   1      34.589  34.009  29.189  1.00  0.00     0.054 A 
BRANCH  74  75
ATOM     75  S   UNL A   1      33.035  34.916  28.955  1.00  0.00     0.124 S 
ATOM     76  O   UNL A   1      32.353  34.106  27.951  1.00  0.00    -0.237 OA
ATOM     77  O   UNL A   1      32.448  34.894  30.293  1.00  0.00    -0.237 OA
ATOM     78  O   UNL A   1      33.475  36.235  28.501  1.00  0.00    -0.744 OA
ENDBRANCH  74  75
ENDBRANCH  55  69
BRANCH  56  79
ATOM     79  C   UNL A   1      46.092  28.651  30.981  1.00  0.00    -0.014 A 
ATOM     80  C   UNL A   1      47.069  28.638  29.965  1.00  0.00     0.010 A 
ATOM     81  C   UNL A   1      46.346  27.960  32.178  1.00  0.00     0.010 A 
ATOM     82  C   UNL A   1      48.236  27.885  30.109  1.00  0.00     0.020 A 
ATOM     83  C   UNL A   1      47.532  27.234  32.340  1.00  0.00     0.020 A 
ATOM     84  C   UNL A   1      48.451  27.173  31.290  1.00  0.00     0.054 A 
BRANCH  84  85
ATOM     85  S   UNL A   1      49.940  26.145  31.424  1.00  0.00     0.124 S 
ATOM     86  O   UNL A   1      49.832  25.643  32.793  1.00  0.00    -0.237 OA
ATOM     87  O   UNL A   1      49.738  25.152  30.373  1.00  0.00    -0.237 OA
ATOM     88  O   UNL A   1      51.030  27.088  31.188  1.00  0.00    -0.744 OA
ENDBRANCH  84  85
ENDBRANCH  56  79
BRANCH  68  89
ATOM     89  C   UNL A   1      43.235  34.895  32.432  1.00  0.00    -0.014 A 
ATOM     90  C   UNL A   1      42.958  35.144  33.789  1.00  0.00     0.010 A 
ATOM     91  C   UNL A   1      43.869  35.890  31.667  1.00  0.00     0.010 A 
ATOM     92  C   UNL A   1      43.264  36.382  34.360  1.00  0.00     0.020 A 
ATOM     93  C   UNL A   1      44.206  37.118  32.243  1.00  0.00     0.020 A 
ATOM     94  C   UNL A   1      43.874  37.365  33.578  1.00  0.00     0.054 A 
BRANCH  94  95
ATOM     95  S   UNL A   1      44.217  38.983  34.323  1.00  0.00     0.124 S 
ATOM     96  O   UNL A   1      45.471  39.358  33.676  1.00  0.00    -0.237 OA
ATOM     97  O   UNL A   1      43.048  39.769  33.935  1.00  0.00    -0.237 OA
ATOM     98  O   UNL A   1      44.316  38.690  35.751  1.00  0.00    -0.744 OA
ENDBRANCH  94  95
ENDBRANCH  68  89
ENDBRANCH  42  43
ENDBRANCH  34  37
ENDBRANCH  32  33
ENDBRANCH  31  32
ENDBRANCH   1  31
TORSDOF 19
ENDMDL
MODEL 2
REMARK VINA RESULT:     -11.6      0.522      7.858
REMARK SMILES O=C(Cn1nc(-c2cccs2)ccc1=O)N[C@H](Cc1ccccc1)C(=O)NCCCNC(=O)c1ccc(-c2c3nc(c(-c4ccc(S(=O)(=O)[O-])cc4)c4ccc([nH]4)c(-c4ccc(S(=O)(=O)[O-])cc4)c4nc(c(-c5ccc(S(=O)(=O)[O-])cc5)c5ccc2[nH]5)C=C4)C=C3)cc1
REMARK SMILES IDX 28 1 27 2 25 3 26 4 17 6 16 7 1 8 2 9 3 11 4 12 5 13 14 14
REMARK SMILES IDX 6 15 13 16 15 17 12 18 7 19 8 20 11 21 9 22 10 23 18 24
REMARK SMILES IDX 19 25 20 26 24 27 21 28 23 29 22 30 29 31 30 32 31 33 32 34
REMARK SMILES IDX 33 36 34 37 35 38 93 39 36 40 92 41 37 42 38 43 39 44 86 45
REMARK SMILES IDX 40 46 91 47 85 48 87 49 41 50 90 51 84 52 83 53 42 55 72 56
REMARK SMILES IDX 53 57 71 58 54 59 57 60 70 61 88 62 55 63 56 64 69 66 89 67
REMARK SMILES IDX 58 68 43 69 44 70 52 71 45 72 51 73 46 74 47 75 48 76 49 77
REMARK SMILES IDX 50 78 73 79 74 80 82 81 75 82 81 83 76 84 77 85 78 86 79 87
REMARK SMILES IDX 80 88 59 89 60 90 68 91 61 92 67 93 62 94 63 95 64 96 65 97
REMARK SMILES IDX 66 98
REMARK H PARENT 27 5 16 10 31 35 87 54 57 65
REMARK Flexibility Score: inf
ROOT
ATOM      1  C   UNL A   1      35.371  21.082  25.994  1.00  0.00     0.117 C 
ENDROOT
BRANCH   1   2
ATOM      2  N   UNL A   1      34.002  20.602  25.900  1.00  0.00    -0.354 N 
ATOM      3  C   UNL A   1      32.916  21.173  25.308  1.00  0.00     0.242 C 
ATOM      4  O   UNL A   1      31.931  20.450  25.116  1.00  0.00    -0.273 OA
ATOM      5  H   UNL A   1      33.835  19.732  26.329  1.00  0.00     0.163 HD
BRANCH   3   6
ATOM      6  C   UNL A   1      32.927  22.625  24.793  1.00  0.00     0.175 C 
BRANCH   6   7
ATOM      7  N   UNL A   1      31.607  23.175  25.181  1.00  0.00    -0.342 N 
ATOM      8  O   UNL A   1      31.927  23.545  27.410  1.00  0.00    -0.273 OA
ATOM      9  C   UNL A   1      31.295  23.767  26.378  1.00  0.00     0.242 C 
ATOM     10  H   UNL A   1      30.885  23.110  24.515  1.00  0.00     0.164 HD
BRANCH   9  11
ATOM     11  C   UNL A   1      30.123  24.765  26.395  1.00  0.00     0.248 C 
BRANCH  11  12
ATOM     12  N   UNL A   1      30.303  26.080  25.769  1.00  0.00    -0.220 N 
ATOM     13  N   UNL A   1      31.115  26.964  26.463  1.00  0.00    -0.168 NA
ATOM     14  C   UNL A   1      30.049  26.234  24.411  1.00  0.00     0.267 A 
ATOM     15  C   UNL A   1      31.455  28.069  25.871  1.00  0.00     0.101 A 
ATOM     16  C   UNL A   1      30.282  27.575  23.848  1.00  0.00     0.075 A 
ATOM     17  O   UNL A   1      29.617  25.364  23.670  1.00  0.00    -0.268 OA
ATOM     18  C   UNL A   1      30.953  28.490  24.546  1.00  0.00     0.037 A 
BRANCH  15  19
ATOM     19  C   UNL A   1      32.450  28.908  26.492  1.00  0.00     0.054 A 
ATOM     20  C   UNL A   1      33.714  28.529  26.900  1.00  0.00     0.022 A 
ATOM     21  S   UNL A   1      32.153  30.564  26.775  1.00  0.00    -0.142 S 
ATOM     22  C   UNL A   1      34.456  29.625  27.424  1.00  0.00     0.012 A 
ATOM     23  C   UNL A   1      33.720  30.789  27.426  1.00  0.00     0.065 A 
ENDBRANCH  15  19
ENDBRANCH  11  12
ENDBRANCH   9  11
ENDBRANCH   6   7
BRANCH   6  24
ATOM     24  C   UNL A   1      33.414  22.795  23.337  1.00  0.00     0.070 C 
BRANCH  24  25
ATOM     25  C   UNL A   1      33.387  24.202  22.755  1.00  0.00    -0.045 A 
ATOM     26  C   UNL A   1      33.922  25.264  23.501  1.00  0.00     0.004 A 
ATOM     27  C   UNL A   1      32.735  24.512  21.550  1.00  0.00     0.004 A 
ATOM     28  C   UNL A   1      33.831  26.584  23.046  1.00  0.00     0.000 A 
ATOM     29  C   UNL A   1      32.654  25.830  21.090  1.00  0.00     0.000 A 
ATOM     30  C   UNL A   1      33.201  26.867  21.838  1.00  0.00     0.000 A 
ENDBRANCH  24  25
ENDBRANCH   6  24
ENDBRANCH   3   6
ENDBRANCH   1   2
BRANCH   1  31
ATOM     31  C   UNL A   1      35.460  22.568  26.257  1.00  0.00     0.042 C 
BRANCH  31  32
ATOM     32  C   UNL A   1      36.684  23.196  25.613  1.00  0.00     0.118 C 
BRANCH  32  33
ATOM     33  N   UNL A   1      37.913  22.429  25.827  1.00  0.00    -0.352 N 
ATOM     34  C   UNL A   1      39.137  22.813  26.327  1.00  0.00     0.251 C 
ATOM     35  H   UNL A   1      37.854  21.480  25.571  1.00  0.00     0.163 HD
ATOM     36  O   UNL A   1      40.091  22.041  26.280  1.00  0.00    -0.269 OA
BRANCH  34  37
ATOM     37  C   UNL A   1      39.306  24.170  26.881  1.00  0.00     0.039 A 
ATOM     38  C   UNL A   1      39.934  25.157  26.125  1.00  0.00     0.014 A 
ATOM     39  C   UNL A   1      38.890  24.447  28.186  1.00  0.00     0.014 A 
ATOM     40  C   UNL A   1      40.387  26.307  26.751  1.00  0.00     0.010 A 
ATOM     41  C   UNL A   1      39.218  25.674  28.768  1.00  0.00     0.010 A 
ATOM     42  C   UNL A   1      40.033  26.586  28.080  1.00  0.00    -0.014 A 
BRANCH  42  43
ATOM     43  C   UNL A   1      40.535  27.835  28.713  1.00  0.00     0.031 A 
ATOM     44  C   UNL A   1      41.998  28.010  29.028  1.00  0.00     0.074 A 
ATOM     45  C   UNL A   1      39.671  28.850  28.926  1.00  0.00     0.049 A 
ATOM     46  N   UNL A   1      42.603  29.042  29.559  1.00  0.00    -0.248 NA
ATOM     47  C   UNL A   1      42.902  26.888  28.716  1.00  0.00     0.031 C 
ATOM     48  C   UNL A   1      38.236  28.805  28.628  1.00  0.00     0.029 A 
ATOM     49  N   UNL A   1      39.870  30.123  29.396  1.00  0.00    -0.354 N 
ATOM     50  C   UNL A   1      43.944  28.690  29.664  1.00  0.00     0.074 A 
ATOM     51  C   UNL A   1      44.064  27.335  29.175  1.00  0.00     0.031 C 
ATOM     52  C   UNL A   1      37.706  30.016  28.839  1.00  0.00     0.029 A 
ATOM     53  C   UNL A   1      38.732  30.895  29.385  1.00  0.00     0.049 A 
ATOM     54  H   UNL A   1      40.743  30.452  29.710  1.00  0.00     0.167 HD
ATOM     55  C   UNL A   1      44.982  29.436  30.113  1.00  0.00     0.031 A 
ATOM     56  C   UNL A   1      38.521  32.165  29.784  1.00  0.00     0.031 A 
ATOM     57  C   UNL A   1      44.851  30.795  30.574  1.00  0.00     0.049 A 
ATOM     58  C   UNL A   1      39.676  32.953  30.327  1.00  0.00     0.074 A 
ATOM     59  C   UNL A   1      45.846  31.637  31.039  1.00  0.00     0.029 A 
ATOM     60  N   UNL A   1      43.665  31.514  30.618  1.00  0.00    -0.354 N 
ATOM     61  N   UNL A   1      40.934  32.595  30.430  1.00  0.00    -0.248 NA
ATOM     62  C   UNL A   1      39.391  34.309  30.813  1.00  0.00     0.031 C 
ATOM     63  C   UNL A   1      45.252  32.838  31.430  1.00  0.00     0.029 A 
ATOM     64  C   UNL A   1      43.900  32.778  31.131  1.00  0.00     0.049 A 
ATOM     65  H   UNL A   1      42.788  31.174  30.327  1.00  0.00     0.167 HD
ATOM     66  C   UNL A   1      41.593  33.684  30.984  1.00  0.00     0.074 A 
ATOM     67  C   UNL A   1      40.601  34.723  31.170  1.00  0.00     0.031 C 
ATOM     68  C   UNL A   1      42.903  33.806  31.314  1.00  0.00     0.031 A 
BRANCH  55  69
ATOM     69  C   UNL A   1      46.359  28.818  30.136  1.00  0.00    -0.014 A 
ATOM     70  C   UNL A   1      47.148  28.831  28.969  1.00  0.00     0.010 A 
ATOM     71  C   UNL A   1      46.822  28.114  31.262  1.00  0.00     0.010 A 
ATOM     72  C   UNL A   1      48.353  28.124  28.915  1.00  0.00     0.020 A 
ATOM     73  C   UNL A   1      48.043  27.430  31.222  1.00  0.00     0.020 A 
ATOM     74  C   UNL A   1      48.787  27.419  30.039  1.00  0.00     0.054 A 
BRANCH  74  75
ATOM     75  S   UNL A   1      50.334  26.476  29.936  1.00  0.00     0.124 S 
ATOM     76  O   UNL A   1      49.956  25.196  30.528  1.00  0.00    -0.237 OA
ATOM     77  O   UNL A   1      50.600  26.455  28.500  1.00  0.00    -0.237 OA
ATOM     78  O   UNL A   1      51.274  27.275  30.722  1.00  0.00    -0.744 OA
ENDBRANCH  74  75
ENDBRANCH  55  69
BRANCH  56  79
ATOM     79  C   UNL A   1      37.153  32.741  29.665  1.00  0.00    -0.014 A 
ATOM     80  C   UNL A   1      36.686  33.210  28.420  1.00  0.00     0.010 A 
ATOM     81  C   UNL A   1      36.354  32.928  30.805  1.00  0.00     0.010 A 
ATOM     82  C   UNL A   1      35.488  33.921  28.332  1.00  0.00     0.020 A 
ATOM     83  C   UNL A   1      35.134  33.608  30.713  1.00  0.00     0.020 A 
ATOM     84  C   UNL A   1      34.728  34.131  29.483  1.00  0.00     0.054 A 
BRANCH  84  85
ATOM     85  S   UNL A   1      33.212  35.119  29.354  1.00  0.00     0.124 S 
ATOM     86  O   UNL A   1      32.631  34.945  30.684  1.00  0.00    -0.237 OA
ATOM     87  O   UNL A   1      33.726  36.454  29.062  1.00  0.00    -0.237 OA
ATOM     88  O   UNL A   1      32.479  34.482  28.264  1.00  0.00    -0.744 OA
ENDBRANCH  84  85
ENDBRANCH  56  79
BRANCH  68  89
ATOM     89  C   UNL A   1      43.364  35.105  31.920  1.00  0.00    -0.014 A 
ATOM     90  C   UNL A   1      43.299  35.287  33.314  1.00  0.00     0.010 A 
ATOM     91  C   UNL A   1      43.725  36.192  31.104  1.00  0.00     0.010 A 
ATOM     92  C   UNL A   1      43.540  36.541  33.879  1.00  0.00     0.020 A 
ATOM     93  C   UNL A   1      44.000  37.440  31.668  1.00  0.00     0.020 A 
ATOM     94  C   UNL A   1      43.876  37.613  33.049  1.00  0.00     0.054 A 
BRANCH  94  95
ATOM     95  S   UNL A   1      44.137  39.245  33.795  1.00  0.00     0.124 S 
ATOM     96  O   UNL A   1      42.869  39.915  33.519  1.00  0.00    -0.237 OA
ATOM     97  O   UNL A   1      44.385  38.921  35.198  1.00  0.00    -0.237 OA
ATOM     98  O   UNL A   1      45.292  39.773  33.072  1.00  0.00    -0.744 OA
ENDBRANCH  94  95
ENDBRANCH  68  89
ENDBRANCH  42  43
ENDBRANCH  34  37
ENDBRANCH  32  33
ENDBRANCH  31  32
ENDBRANCH   1  31
TORSDOF 19
ENDMDL
MODEL 3
REMARK VINA RESULT:     -11.3      2.788      8.519
REMARK SMILES O=C(Cn1nc(-c2cccs2)ccc1=O)N[C@H](Cc1ccccc1)C(=O)NCCCNC(=O)c1ccc(-c2c3nc(c(-c4ccc(S(=O)(=O)[O-])cc4)c4ccc([nH]4)c(-c4ccc(S(=O)(=O)[O-])cc4)c4nc(c(-c5ccc(S(=O)(=O)[O-])cc5)c5ccc2[nH]5)C=C4)C=C3)cc1
REMARK SMILES IDX 28 1 27 2 25 3 26 4 17 6 16 7 1 8 2 9 3 11 4 12 5 13 14 14
REMARK SMILES IDX 6 15 13 16 15 17 12 18 7 19 8 20 11 21 9 22 10 23 18 24
REMARK SMILES IDX 19 25 20 26 24 27 21 28 23 29 22 30 29 31 30 32 31 33 32 34
REMARK SMILES IDX 33 36 34 37 35 38 93 39 36 40 92 41 37 42 38 43 39 44 86 45
REMARK SMILES IDX 40 46 91 47 85 48 87 49 41 50 90 51 84 52 83 53 42 55 72 56
REMARK SMILES IDX 53 57 71 58 54 59 57 60 70 61 88 62 55 63 56 64 69 66 89 67
REMARK SMILES IDX 58 68 43 69 44 70 52 71 45 72 51 73 46 74 47 75 48 76 49 77
REMARK SMILES IDX 50 78 73 79 74 80 82 81 75 82 81 83 76 84 77 85 78 86 79 87
REMARK SMILES IDX 80 88 59 89 60 90 68 91 61 92 67 93 62 94 63 95 64 96 65 97
REMARK SMILES IDX 66 98
REMARK H PARENT 27 5 16 10 31 35 87 54 57 65
REMARK Flexibility Score: inf
ROOT
ATOM      1  C   UNL A   1      32.204  29.770  24.771  1.00  0.00     0.117 C 
ENDROOT
BRANCH   1   2
ATOM      2  N   UNL A   1      31.067  29.338  23.974  1.00  0.00    -0.354 N 
ATOM      3  C   UNL A   1      30.505  28.103  23.855  1.00  0.00     0.242 C 
ATOM      4  O   UNL A   1      29.382  28.038  23.341  1.00  0.00    -0.273 OA
ATOM      5  H   UNL A   1      30.638  30.045  23.441  1.00  0.00     0.163 HD
BRANCH   3   6
ATOM      6  C   UNL A   1      31.171  26.836  24.426  1.00  0.00     0.175 C 
BRANCH   6   7
ATOM      7  N   UNL A   1      31.580  26.053  23.236  1.00  0.00    -0.342 N 
ATOM      8  O   UNL A   1      33.639  26.944  22.814  1.00  0.00    -0.273 OA
ATOM      9  C   UNL A   1      32.830  26.027  22.671  1.00  0.00     0.242 C 
ATOM     10  H   UNL A   1      30.888  25.498  22.809  1.00  0.00     0.164 HD
BRANCH   9  11
ATOM     11  C   UNL A   1      33.219  24.779  21.859  1.00  0.00     0.248 C 
BRANCH  11  12
ATOM     12  N   UNL A   1      33.549  23.542  22.576  1.00  0.00    -0.220 N 
ATOM     13  N   UNL A   1      34.821  23.493  23.126  1.00  0.00    -0.168 NA
ATOM     14  C   UNL A   1      32.526  22.717  23.029  1.00  0.00     0.267 A 
ATOM     15  C   UNL A   1      35.101  22.505  23.921  1.00  0.00     0.101 A 
ATOM     16  C   UNL A   1      32.935  21.509  23.766  1.00  0.00     0.075 A 
ATOM     17  O   UNL A   1      31.334  22.896  22.830  1.00  0.00    -0.268 OA
ATOM     18  C   UNL A   1      34.187  21.378  24.200  1.00  0.00     0.037 A 
BRANCH  15  19
ATOM     19  C   UNL A   1      36.343  22.539  24.653  1.00  0.00     0.054 A 
ATOM     20  C   UNL A   1      36.872  23.616  25.337  1.00  0.00     0.022 A 
ATOM     21  S   UNL A   1      37.330  21.152  24.776  1.00  0.00    -0.142 S 
ATOM     22  C   UNL A   1      38.089  23.284  25.996  1.00  0.00     0.012 A 
ATOM     23  C   UNL A   1      38.460  21.979  25.763  1.00  0.00     0.065 A 
ENDBRANCH  15  19
ENDBRANCH  11  12
ENDBRANCH   9  11
ENDBRANCH   6   7
BRANCH   6  24
ATOM     24  C   UNL A   1      30.379  26.134  25.551  1.00  0.00     0.070 C 
BRANCH  24  25
ATOM     25  C   UNL A   1      31.008  24.897  26.177  1.00  0.00    -0.045 A 
ATOM     26  C   UNL A   1      32.400  24.852  26.360  1.00  0.00     0.004 A 
ATOM     27  C   UNL A   1      30.272  23.737  26.469  1.00  0.00     0.004 A 
ATOM     28  C   UNL A   1      33.028  23.699  26.842  1.00  0.00     0.000 A 
ATOM     29  C   UNL A   1      30.899  22.588  26.962  1.00  0.00     0.000 A 
ATOM     30  C   UNL A   1      32.278  22.568  27.148  1.00  0.00     0.000 A 
ENDBRANCH  24  25
ENDBRANCH   6  24
ENDBRANCH   3   6
ENDBRANCH   1   2
BRANCH   1  31
ATOM     31  C   UNL A   1      32.229  29.152  26.150  1.00  0.00     0.042 C 
BRANCH  31  32
ATOM     32  C   UNL A   1      33.564  29.350  26.847  1.00  0.00     0.118 C 
BRANCH  32  33
ATOM     33  N   UNL A   1      33.607  30.544  27.695  1.00  0.00    -0.352 N 
ATOM     34  C   UNL A   1      34.592  31.018  28.531  1.00  0.00     0.251 C 
ATOM     35  H   UNL A   1      32.795  31.100  27.661  1.00  0.00     0.163 HD
ATOM     36  O   UNL A   1      34.363  31.967  29.276  1.00  0.00    -0.269 OA
BRANCH  34  37
ATOM     37  C   UNL A   1      35.910  30.354  28.557  1.00  0.00     0.039 A 
ATOM     38  C   UNL A   1      36.328  29.682  29.702  1.00  0.00     0.014 A 
ATOM     39  C   UNL A   1      36.761  30.452  27.453  1.00  0.00     0.014 A 
ATOM     40  C   UNL A   1      37.666  29.355  29.848  1.00  0.00     0.010 A 
ATOM     41  C   UNL A   1      38.074  29.982  27.551  1.00  0.00     0.010 A 
ATOM     42  C   UNL A   1      38.560  29.495  28.774  1.00  0.00    -0.014 A 
BRANCH  42  43
ATOM     43  C   UNL A   1      39.987  29.127  28.970  1.00  0.00     0.031 A 
ATOM     44  C   UNL A   1      40.939  30.062  29.671  1.00  0.00     0.074 A 
ATOM     45  C   UNL A   1      40.402  27.903  28.584  1.00  0.00     0.049 A 
ATOM     46  N   UNL A   1      42.207  29.886  29.942  1.00  0.00    -0.248 NA
ATOM     47  C   UNL A   1      40.410  31.361  30.123  1.00  0.00     0.031 C 
ATOM     48  C   UNL A   1      39.559  26.901  27.925  1.00  0.00     0.029 A 
ATOM     49  N   UNL A   1      41.612  27.272  28.725  1.00  0.00    -0.354 N 
ATOM     50  C   UNL A   1      42.631  31.050  30.572  1.00  0.00     0.074 A 
ATOM     51  C   UNL A   1      41.496  31.944  30.615  1.00  0.00     0.031 C 
ATOM     52  C   UNL A   1      40.248  25.760  27.799  1.00  0.00     0.029 A 
ATOM     53  C   UNL A   1      41.611  25.974  28.270  1.00  0.00     0.049 A 
ATOM     54  H   UNL A   1      42.405  27.707  29.115  1.00  0.00     0.167 HD
ATOM     55  C   UNL A   1      43.852  31.339  31.083  1.00  0.00     0.031 A 
ATOM     56  C   UNL A   1      42.595  25.055  28.214  1.00  0.00     0.031 A 
ATOM     57  C   UNL A   1      44.968  30.428  31.056  1.00  0.00     0.049 A 
ATOM     58  C   UNL A   1      43.953  25.419  28.738  1.00  0.00     0.074 A 
ATOM     59  C   UNL A   1      46.242  30.626  31.556  1.00  0.00     0.029 A 
ATOM     60  N   UNL A   1      44.944  29.151  30.515  1.00  0.00    -0.354 N 
ATOM     61  N   UNL A   1      44.335  26.532  29.318  1.00  0.00    -0.248 NA
ATOM     62  C   UNL A   1      45.014  24.413  28.598  1.00  0.00     0.031 C 
ATOM     63  C   UNL A   1      47.008  29.498  31.255  1.00  0.00     0.029 A 
ATOM     64  C   UNL A   1      46.191  28.561  30.643  1.00  0.00     0.049 A 
ATOM     65  H   UNL A   1      44.157  28.727  30.102  1.00  0.00     0.167 HD
ATOM     66  C   UNL A   1      45.679  26.358  29.621  1.00  0.00     0.074 A 
ATOM     67  C   UNL A   1      46.037  25.024  29.184  1.00  0.00     0.031 C 
ATOM     68  C   UNL A   1      46.537  27.232  30.203  1.00  0.00     0.031 A 
BRANCH  55  69
ATOM     69  C   UNL A   1      44.068  32.692  31.719  1.00  0.00    -0.014 A 
ATOM     70  C   UNL A   1      44.576  33.753  30.944  1.00  0.00     0.010 A 
ATOM     71  C   UNL A   1      43.894  32.881  33.102  1.00  0.00     0.010 A 
ATOM     72  C   UNL A   1      44.941  34.962  31.543  1.00  0.00     0.020 A 
ATOM     73  C   UNL A   1      44.229  34.102  33.700  1.00  0.00     0.020 A 
ATOM     74  C   UNL A   1      44.775  35.125  32.920  1.00  0.00     0.054 A 
BRANCH  74  75
ATOM     75  S   UNL A   1      45.290  36.688  33.684  1.00  0.00     0.124 S 
ATOM     76  O   UNL A   1      45.002  36.452  35.095  1.00  0.00    -0.237 OA
ATOM     77  O   UNL A   1      46.706  36.764  33.331  1.00  0.00    -0.237 OA
ATOM     78  O   UNL A   1      44.441  37.684  33.031  1.00  0.00    -0.744 OA
ENDBRANCH  74  75
ENDBRANCH  55  69
BRANCH  56  79
ATOM     79  C   UNL A   1      42.297  23.713  27.643  1.00  0.00    -0.014 A 
ATOM     80  C   UNL A   1      41.898  22.656  28.485  1.00  0.00     0.010 A 
ATOM     81  C   UNL A   1      42.516  23.451  26.280  1.00  0.00     0.010 A 
ATOM     82  C   UNL A   1      41.801  21.352  27.994  1.00  0.00     0.020 A 
ATOM     83  C   UNL A   1      42.382  22.152  25.777  1.00  0.00     0.020 A 
ATOM     84  C   UNL A   1      42.061  21.106  26.645  1.00  0.00     0.054 A 
BRANCH  84  85
ATOM     85  S   UNL A   1      41.997  19.395  26.047  1.00  0.00     0.124 S 
ATOM     86  O   UNL A   1      42.527  18.659  27.193  1.00  0.00    -0.237 OA
ATOM     87  O   UNL A   1      40.574  19.203  25.779  1.00  0.00    -0.237 OA
ATOM     88  O   UNL A   1      42.855  19.413  24.865  1.00  0.00    -0.744 OA
ENDBRANCH  84  85
ENDBRANCH  56  79
BRANCH  68  89
ATOM     89  C   UNL A   1      47.964  26.794  30.408  1.00  0.00    -0.014 A 
ATOM     90  C   UNL A   1      48.299  26.015  31.531  1.00  0.00     0.010 A 
ATOM     91  C   UNL A   1      48.990  27.271  29.573  1.00  0.00     0.010 A 
ATOM     92  C   UNL A   1      49.636  25.758  31.843  1.00  0.00     0.020 A 
ATOM     93  C   UNL A   1      50.328  26.988  29.864  1.00  0.00     0.020 A 
ATOM     94  C   UNL A   1      50.642  26.258  31.014  1.00  0.00     0.054 A 
BRANCH  94  95
ATOM     95  S   UNL A   1      52.373  25.957  31.462  1.00  0.00     0.124 S 
ATOM     96  O   UNL A   1      52.651  27.065  32.372  1.00  0.00    -0.237 OA
ATOM     97  O   UNL A   1      52.319  24.634  32.080  1.00  0.00    -0.237 OA
ATOM     98  O   UNL A   1      53.075  26.011  30.182  1.00  0.00    -0.744 OA
ENDBRANCH  94  95
ENDBRANCH  68  89
ENDBRANCH  42  43
ENDBRANCH  34  37
ENDBRANCH  32  33
ENDBRANCH  31  32
ENDBRANCH   1  31
TORSDOF 19
ENDMDL
