MODEL 1
REMARK VINA RESULT:     -10.5      0.000      0.000
REMARK SMILES CCN(C(=O)c1ccc(C)cc1F)[C@@H]1COC[C@@H]1C(=O)NCCCNC(=O)c1ccc(-c2c3nc(c(-c4ccc(S(=O)(=O)[O-])cc4)c4ccc([nH]4)c(-c4ccc(S(=O)(=O)[O-])cc4)c4nc(c(-c5ccc(S(=O)(=O)[O-])cc5)c5ccc2[nH]5)C=C4)C=C3)cc1
REMARK SMILES IDX 23 1 22 2 21 3 19 4 20 5 18 7 14 8 15 9 16 10 17 11 3 12
REMARK SMILES IDX 2 13 1 14 4 15 5 16 6 17 7 18 12 19 8 20 11 21 13 22 9 23
REMARK SMILES IDX 10 24 24 25 25 26 26 27 27 29 28 30 29 31 87 32 30 33 86 34
REMARK SMILES IDX 31 35 32 36 33 37 80 38 34 39 85 40 79 41 81 42 35 43 84 44
REMARK SMILES IDX 78 45 77 46 36 48 66 49 47 50 65 51 48 52 51 53 64 54 82 55
REMARK SMILES IDX 49 56 50 57 63 59 83 60 52 61 37 62 38 63 46 64 39 65 45 66
REMARK SMILES IDX 40 67 41 68 42 69 43 70 44 71 67 72 68 73 76 74 69 75 75 76
REMARK SMILES IDX 70 77 71 78 72 79 73 80 74 81 53 82 54 83 62 84 55 85 61 86
REMARK SMILES IDX 56 87 57 88 58 89 59 90 60 91
REMARK H PARENT 21 6 25 28 81 47 51 58
REMARK Flexibility Score: inf
ROOT
ATOM      1  C   UNL A   1      33.663  27.578  24.877  1.00  0.00     0.042 C 
ENDROOT
BRANCH   1   2
ATOM      2  C   UNL A   1      32.219  27.685  24.374  1.00  0.00     0.117 C 
BRANCH   2   3
ATOM      3  N   UNL A   1      31.769  26.532  23.601  1.00  0.00    -0.356 N 
ATOM      4  C   UNL A   1      31.710  25.192  23.873  1.00  0.00     0.227 C 
ATOM      5  O   UNL A   1      31.223  24.483  22.991  1.00  0.00    -0.275 OA
ATOM      6  H   UNL A   1      31.442  26.766  22.703  1.00  0.00     0.163 HD
BRANCH   4   7
ATOM      7  C   UNL A   1      32.185  24.625  25.200  1.00  0.00     0.129 C 
ATOM      8  C   UNL A   1      32.400  23.122  25.340  1.00  0.00     0.126 C 
ATOM      9  C   UNL A   1      31.117  22.540  25.921  1.00  0.00     0.186 C 
ATOM     10  O   UNL A   1      30.348  23.637  26.426  1.00  0.00    -0.378 OA
ATOM     11  C   UNL A   1      31.115  24.842  26.276  1.00  0.00     0.176 C 
BRANCH   8  12
ATOM     12  N   UNL A   1      33.051  22.345  24.279  1.00  0.00    -0.333 N 
BRANCH  12  13
ATOM     13  C   UNL A   1      32.400  21.155  23.674  1.00  0.00     0.117 C 
ATOM     14  C   UNL A   1      31.977  21.223  22.218  1.00  0.00     0.027 C 
ENDBRANCH  12  13
BRANCH  12  15
ATOM     15  C   UNL A   1      34.275  22.881  23.813  1.00  0.00     0.257 C 
ATOM     16  O   UNL A   1      34.465  23.303  22.674  1.00  0.00    -0.269 OA
BRANCH  15  17
ATOM     17  C   UNL A   1      35.448  22.812  24.675  1.00  0.00     0.075 A 
ATOM     18  C   UNL A   1      35.955  24.010  25.184  1.00  0.00     0.017 A 
ATOM     19  C   UNL A   1      36.081  21.600  24.907  1.00  0.00     0.136 A 
ATOM     20  C   UNL A   1      37.205  24.010  25.777  1.00  0.00     0.004 A 
ATOM     21  C   UNL A   1      37.306  21.589  25.545  1.00  0.00     0.043 A 
ATOM     22  F   UNL A   1      35.559  20.451  24.458  1.00  0.00    -0.206 F 
ATOM     23  C   UNL A   1      37.893  22.802  25.920  1.00  0.00    -0.048 A 
ATOM     24  C   UNL A   1      39.248  22.803  26.526  1.00  0.00     0.044 C 
ENDBRANCH  15  17
ENDBRANCH  12  15
ENDBRANCH   8  12
ENDBRANCH   4   7
ENDBRANCH   2   3
ENDBRANCH   1   2
BRANCH   1  25
ATOM     25  C   UNL A   1      33.940  27.830  26.366  1.00  0.00     0.118 C 
BRANCH  25  26
ATOM     26  N   UNL A   1      33.730  29.222  26.726  1.00  0.00    -0.352 N 
ATOM     27  C   UNL A   1      34.413  30.091  27.549  1.00  0.00     0.251 C 
ATOM     28  H   UNL A   1      32.942  29.626  26.297  1.00  0.00     0.163 HD
ATOM     29  O   UNL A   1      33.822  31.126  27.863  1.00  0.00    -0.269 OA
BRANCH  27  30
ATOM     30  C   UNL A   1      35.799  29.876  28.070  1.00  0.00     0.039 A 
ATOM     31  C   UNL A   1      36.855  29.900  27.138  1.00  0.00     0.014 A 
ATOM     32  C   UNL A   1      36.097  29.504  29.380  1.00  0.00     0.014 A 
ATOM     33  C   UNL A   1      38.174  29.573  27.505  1.00  0.00     0.010 A 
ATOM     34  C   UNL A   1      37.428  29.227  29.759  1.00  0.00     0.010 A 
ATOM     35  C   UNL A   1      38.491  29.246  28.827  1.00  0.00    -0.014 A 
BRANCH  35  36
ATOM     36  C   UNL A   1      39.887  28.914  29.273  1.00  0.00     0.031 A 
ATOM     37  C   UNL A   1      40.827  30.010  29.712  1.00  0.00     0.074 A 
ATOM     38  C   UNL A   1      40.379  27.655  29.217  1.00  0.00     0.049 A 
ATOM     39  N   UNL A   1      42.102  29.931  29.998  1.00  0.00    -0.248 NA
ATOM     40  C   UNL A   1      40.252  31.351  29.897  1.00  0.00     0.031 C 
ATOM     41  C   UNL A   1      39.610  26.441  28.970  1.00  0.00     0.029 A 
ATOM     42  N   UNL A   1      41.679  27.197  29.270  1.00  0.00    -0.354 N 
ATOM     43  C   UNL A   1      42.467  31.188  30.462  1.00  0.00     0.074 A 
ATOM     44  C   UNL A   1      41.305  32.041  30.315  1.00  0.00     0.031 C 
ATOM     45  C   UNL A   1      40.448  25.430  28.680  1.00  0.00     0.029 A 
ATOM     46  C   UNL A   1      41.818  25.905  28.806  1.00  0.00     0.049 A 
ATOM     47  H   UNL A   1      42.431  27.737  29.605  1.00  0.00     0.167 HD
ATOM     48  C   UNL A   1      43.639  31.580  31.020  1.00  0.00     0.031 A 
ATOM     49  C   UNL A   1      42.909  25.176  28.501  1.00  0.00     0.031 A 
ATOM     50  C   UNL A   1      44.804  30.742  31.146  1.00  0.00     0.049 A 
ATOM     51  C   UNL A   1      44.258  25.690  28.907  1.00  0.00     0.074 A 
ATOM     52  C   UNL A   1      46.014  31.036  31.752  1.00  0.00     0.029 A 
ATOM     53  N   UNL A   1      44.917  29.459  30.636  1.00  0.00    -0.354 N 
ATOM     54  N   UNL A   1      44.561  26.847  29.443  1.00  0.00    -0.248 NA
ATOM     55  C   UNL A   1      45.394  24.770  28.767  1.00  0.00     0.031 C 
ATOM     56  C   UNL A   1      46.881  29.956  31.548  1.00  0.00     0.029 A 
ATOM     57  C   UNL A   1      46.189  28.964  30.871  1.00  0.00     0.049 A 
ATOM     58  H   UNL A   1      44.198  28.970  30.174  1.00  0.00     0.167 HD
ATOM     59  C   UNL A   1      45.900  26.754  29.799  1.00  0.00     0.074 A 
ATOM     60  C   UNL A   1      46.358  25.446  29.378  1.00  0.00     0.031 C 
ATOM     61  C   UNL A   1      46.658  27.663  30.458  1.00  0.00     0.031 A 
BRANCH  48  62
ATOM     62  C   UNL A   1      43.706  32.983  31.566  1.00  0.00    -0.014 A 
ATOM     63  C   UNL A   1      43.269  33.264  32.875  1.00  0.00     0.010 A 
ATOM     64  C   UNL A   1      44.249  34.021  30.789  1.00  0.00     0.010 A 
ATOM     65  C   UNL A   1      43.324  34.566  33.377  1.00  0.00     0.020 A 
ATOM     66  C   UNL A   1      44.331  35.321  31.298  1.00  0.00     0.020 A 
ATOM     67  C   UNL A   1      43.850  35.588  32.582  1.00  0.00     0.054 A 
BRANCH  67  68
ATOM     68  S   UNL A   1      43.908  37.268  33.263  1.00  0.00     0.124 S 
ATOM     69  O   UNL A   1      42.756  37.268  34.160  1.00  0.00    -0.237 OA
ATOM     70  O   UNL A   1      45.213  37.304  33.915  1.00  0.00    -0.237 OA
ATOM     71  O   UNL A   1      43.779  38.124  32.084  1.00  0.00    -0.744 OA
ENDBRANCH  67  68
ENDBRANCH  48  62
BRANCH  49  72
ATOM     72  C   UNL A   1      42.769  23.848  27.842  1.00  0.00    -0.014 A 
ATOM     73  C   UNL A   1      42.493  22.695  28.596  1.00  0.00     0.010 A 
ATOM     74  C   UNL A   1      42.927  23.730  26.447  1.00  0.00     0.010 A 
ATOM     75  C   UNL A   1      42.404  21.446  27.974  1.00  0.00     0.020 A 
ATOM     76  C   UNL A   1      42.824  22.482  25.819  1.00  0.00     0.020 A 
ATOM     77  C   UNL A   1      42.572  21.347  26.590  1.00  0.00     0.054 A 
BRANCH  77  78
ATOM     78  S   UNL A   1      42.426  19.711  25.814  1.00  0.00     0.124 S 
ATOM     79  O   UNL A   1      43.391  19.804  24.723  1.00  0.00    -0.237 OA
ATOM     80  O   UNL A   1      42.791  18.815  26.908  1.00  0.00    -0.237 OA
ATOM     81  O   UNL A   1      41.024  19.649  25.406  1.00  0.00    -0.744 OA
ENDBRANCH  77  78
ENDBRANCH  49  72
BRANCH  61  82
ATOM     82  C   UNL A   1      48.060  27.264  30.834  1.00  0.00    -0.014 A 
ATOM     83  C   UNL A   1      48.322  26.471  31.964  1.00  0.00     0.010 A 
ATOM     84  C   UNL A   1      49.130  27.647  30.003  1.00  0.00     0.010 A 
ATOM     85  C   UNL A   1      49.631  26.084  32.267  1.00  0.00     0.020 A 
ATOM     86  C   UNL A   1      50.436  27.236  30.285  1.00  0.00     0.020 A 
ATOM     87  C   UNL A   1      50.679  26.466  31.421  1.00  0.00     0.054 A 
BRANCH  87  88
ATOM     88  S   UNL A   1      52.356  25.890  31.800  1.00  0.00     0.124 S 
ATOM     89  O   UNL A   1      52.108  24.554  32.333  1.00  0.00    -0.237 OA
ATOM     90  O   UNL A   1      53.012  25.934  30.495  1.00  0.00    -0.237 OA
ATOM     91  O   UNL A   1      52.847  26.867  32.771  1.00  0.00    -0.744 OA
ENDBRANCH  87  88
ENDBRANCH  61  82
ENDBRANCH  35  36
ENDBRANCH  27  30
ENDBRANCH  25  26
ENDBRANCH   1  25
TORSDOF 17
ENDMDL
MODEL 2
REMARK VINA RESULT:     -10.5      2.868      9.208
REMARK SMILES CCN(C(=O)c1ccc(C)cc1F)[C@@H]1COC[C@@H]1C(=O)NCCCNC(=O)c1ccc(-c2c3nc(c(-c4ccc(S(=O)(=O)[O-])cc4)c4ccc([nH]4)c(-c4ccc(S(=O)(=O)[O-])cc4)c4nc(c(-c5ccc(S(=O)(=O)[O-])cc5)c5ccc2[nH]5)C=C4)C=C3)cc1
REMARK SMILES IDX 23 1 22 2 21 3 19 4 20 5 18 7 14 8 15 9 16 10 17 11 3 12
REMARK SMILES IDX 2 13 1 14 4 15 5 16 6 17 7 18 12 19 8 20 11 21 13 22 9 23
REMARK SMILES IDX 10 24 24 25 25 26 26 27 27 29 28 30 29 31 87 32 30 33 86 34
REMARK SMILES IDX 31 35 32 36 33 37 80 38 34 39 85 40 79 41 81 42 35 43 84 44
REMARK SMILES IDX 78 45 77 46 36 48 66 49 47 50 65 51 48 52 51 53 64 54 82 55
REMARK SMILES IDX 49 56 50 57 63 59 83 60 52 61 37 62 38 63 46 64 39 65 45 66
REMARK SMILES IDX 40 67 41 68 42 69 43 70 44 71 67 72 68 73 76 74 69 75 75 76
REMARK SMILES IDX 70 77 71 78 72 79 73 80 74 81 53 82 54 83 62 84 55 85 61 86
REMARK SMILES IDX 56 87 57 88 58 89 59 90 60 91
REMARK H PARENT 21 6 25 28 81 47 51 58
REMARK Flexibility Score: inf
ROOT
ATOM      1  C   UNL A   1      34.930  23.245  25.745  1.00  0.00     0.042 C 
ENDROOT
BRANCH   1   2
ATOM      2  C   UNL A   1      33.620  23.897  26.199  1.00  0.00     0.117 C 
BRANCH   2   3
ATOM      3  N   UNL A   1      32.478  23.605  25.339  1.00  0.00    -0.356 N 
ATOM      4  C   UNL A   1      31.991  24.194  24.203  1.00  0.00     0.227 C 
ATOM      5  O   UNL A   1      31.009  23.654  23.693  1.00  0.00    -0.275 OA
ATOM      6  H   UNL A   1      31.952  22.828  25.635  1.00  0.00     0.163 HD
BRANCH   4   7
ATOM      7  C   UNL A   1      32.652  25.419  23.593  1.00  0.00     0.129 C 
ATOM      8  C   UNL A   1      31.797  26.628  23.228  1.00  0.00     0.126 C 
ATOM      9  C   UNL A   1      31.435  26.490  21.754  1.00  0.00     0.186 C 
ATOM     10  O   UNL A   1      32.298  25.491  21.201  1.00  0.00    -0.378 OA
ATOM     11  C   UNL A   1      33.226  25.074  22.214  1.00  0.00     0.176 C 
BRANCH   8  12
ATOM     12  N   UNL A   1      30.736  27.107  24.122  1.00  0.00    -0.333 N 
BRANCH  12  13
ATOM     13  C   UNL A   1      29.355  27.352  23.630  1.00  0.00     0.117 C 
ATOM     14  C   UNL A   1      29.069  28.648  22.893  1.00  0.00     0.027 C 
ENDBRANCH  12  13
BRANCH  12  15
ATOM     15  C   UNL A   1      31.104  27.204  25.485  1.00  0.00     0.257 C 
ATOM     16  O   UNL A   1      30.543  26.612  26.404  1.00  0.00    -0.269 OA
BRANCH  15  17
ATOM     17  C   UNL A   1      32.121  28.174  25.872  1.00  0.00     0.075 A 
ATOM     18  C   UNL A   1      33.299  27.689  26.445  1.00  0.00     0.017 A 
ATOM     19  C   UNL A   1      31.880  29.534  25.749  1.00  0.00     0.136 A 
ATOM     20  C   UNL A   1      34.160  28.579  27.061  1.00  0.00     0.004 A 
ATOM     21  C   UNL A   1      32.763  30.430  26.319  1.00  0.00     0.043 A 
ATOM     22  F   UNL A   1      30.771  29.988  25.152  1.00  0.00    -0.206 F 
ATOM     23  C   UNL A   1      33.867  29.946  27.029  1.00  0.00    -0.048 A 
ATOM     24  C   UNL A   1      34.771  30.900  27.718  1.00  0.00     0.044 C 
ENDBRANCH  15  17
ENDBRANCH  12  15
ENDBRANCH   8  12
ENDBRANCH   4   7
ENDBRANCH   2   3
ENDBRANCH   1   2
BRANCH   1  25
ATOM     25  C   UNL A   1      36.253  23.944  26.089  1.00  0.00     0.118 C 
BRANCH  25  26
ATOM     26  N   UNL A   1      37.372  23.017  26.082  1.00  0.00    -0.352 N 
ATOM     27  C   UNL A   1      38.720  23.174  26.314  1.00  0.00     0.251 C 
ATOM     28  H   UNL A   1      37.115  22.092  25.868  1.00  0.00     0.163 HD
ATOM     29  O   UNL A   1      39.450  22.245  25.958  1.00  0.00    -0.269 OA
BRANCH  27  30
ATOM     30  C   UNL A   1      39.352  24.364  26.966  1.00  0.00     0.039 A 
ATOM     31  C   UNL A   1      38.963  24.664  28.286  1.00  0.00     0.014 A 
ATOM     32  C   UNL A   1      40.175  25.277  26.307  1.00  0.00     0.014 A 
ATOM     33  C   UNL A   1      39.393  25.838  28.936  1.00  0.00     0.010 A 
ATOM     34  C   UNL A   1      40.647  26.426  26.978  1.00  0.00     0.010 A 
ATOM     35  C   UNL A   1      40.257  26.734  28.300  1.00  0.00    -0.014 A 
BRANCH  35  36
ATOM     36  C   UNL A   1      40.763  27.986  28.961  1.00  0.00     0.031 A 
ATOM     37  C   UNL A   1      42.011  27.948  29.808  1.00  0.00     0.074 A 
ATOM     38  C   UNL A   1      40.086  29.156  28.896  1.00  0.00     0.049 A 
ATOM     39  N   UNL A   1      42.519  28.891  30.561  1.00  0.00    -0.248 NA
ATOM     40  C   UNL A   1      42.811  26.715  29.768  1.00  0.00     0.031 C 
ATOM     41  C   UNL A   1      38.956  29.450  28.023  1.00  0.00     0.029 A 
ATOM     42  N   UNL A   1      40.197  30.298  29.661  1.00  0.00    -0.354 N 
ATOM     43  C   UNL A   1      43.729  28.395  31.027  1.00  0.00     0.074 A 
ATOM     44  C   UNL A   1      43.827  27.027  30.563  1.00  0.00     0.031 C 
ATOM     45  C   UNL A   1      38.349  30.575  28.438  1.00  0.00     0.029 A 
ATOM     46  C   UNL A   1      39.100  31.130  29.554  1.00  0.00     0.049 A 
ATOM     47  H   UNL A   1      40.978  30.500  30.225  1.00  0.00     0.167 HD
ATOM     48  C   UNL A   1      44.700  29.039  31.723  1.00  0.00     0.031 A 
ATOM     49  C   UNL A   1      38.722  32.208  30.267  1.00  0.00     0.031 A 
ATOM     50  C   UNL A   1      44.596  30.391  32.208  1.00  0.00     0.049 A 
ATOM     51  C   UNL A   1      39.701  32.821  31.224  1.00  0.00     0.074 A 
ATOM     52  C   UNL A   1      45.552  31.144  32.869  1.00  0.00     0.029 A 
ATOM     53  N   UNL A   1      43.464  31.184  32.111  1.00  0.00    -0.354 N 
ATOM     54  N   UNL A   1      40.887  32.383  31.567  1.00  0.00    -0.248 NA
ATOM     55  C   UNL A   1      39.341  34.121  31.807  1.00  0.00     0.031 C 
ATOM     56  C   UNL A   1      44.975  32.367  33.231  1.00  0.00     0.029 A 
ATOM     57  C   UNL A   1      43.680  32.400  32.739  1.00  0.00     0.049 A 
ATOM     58  H   UNL A   1      42.628  30.922  31.662  1.00  0.00     0.167 HD
ATOM     59  C   UNL A   1      41.456  33.399  32.324  1.00  0.00     0.074 A 
ATOM     60  C   UNL A   1      40.469  34.454  32.422  1.00  0.00     0.031 C 
ATOM     61  C   UNL A   1      42.705  33.460  32.844  1.00  0.00     0.031 A 
BRANCH  48  62
ATOM     62  C   UNL A   1      45.980  28.285  31.977  1.00  0.00    -0.014 A 
ATOM     63  C   UNL A   1      46.133  27.504  33.138  1.00  0.00     0.010 A 
ATOM     64  C   UNL A   1      47.021  28.319  31.032  1.00  0.00     0.010 A 
ATOM     65  C   UNL A   1      47.323  26.813  33.375  1.00  0.00     0.020 A 
ATOM     66  C   UNL A   1      48.203  27.606  31.253  1.00  0.00     0.020 A 
ATOM     67  C   UNL A   1      48.354  26.873  32.433  1.00  0.00     0.054 A 
BRANCH  67  68
ATOM     68  S   UNL A   1      49.886  25.964  32.770  1.00  0.00     0.124 S 
ATOM     69  O   UNL A   1      50.617  26.134  31.517  1.00  0.00    -0.237 OA
ATOM     70  O   UNL A   1      50.435  26.677  33.918  1.00  0.00    -0.237 OA
ATOM     71  O   UNL A   1      49.429  24.603  33.044  1.00  0.00    -0.744 OA
ENDBRANCH  67  68
ENDBRANCH  48  62
BRANCH  49  72
ATOM     72  C   UNL A   1      37.383  32.824  30.051  1.00  0.00    -0.014 A 
ATOM     73  C   UNL A   1      37.159  33.703  28.978  1.00  0.00     0.010 A 
ATOM     74  C   UNL A   1      36.323  32.542  30.935  1.00  0.00     0.010 A 
ATOM     75  C   UNL A   1      35.912  34.309  28.807  1.00  0.00     0.020 A 
ATOM     76  C   UNL A   1      35.067  33.136  30.757  1.00  0.00     0.020 A 
ATOM     77  C   UNL A   1      34.873  34.023  29.698  1.00  0.00     0.054 A 
BRANCH  77  78
ATOM     78  S   UNL A   1      33.259  34.811  29.430  1.00  0.00     0.124 S 
ATOM     79  O   UNL A   1      33.637  36.088  28.837  1.00  0.00    -0.237 OA
ATOM     80  O   UNL A   1      32.598  33.866  28.534  1.00  0.00    -0.237 OA
ATOM     81  O   UNL A   1      32.689  34.889  30.774  1.00  0.00    -0.744 OA
ENDBRANCH  77  78
ENDBRANCH  49  72
BRANCH  61  82
ATOM     82  C   UNL A   1      43.119  34.737  33.523  1.00  0.00    -0.014 A 
ATOM     83  C   UNL A   1      42.960  34.920  34.908  1.00  0.00     0.010 A 
ATOM     84  C   UNL A   1      43.731  35.753  32.765  1.00  0.00     0.010 A 
ATOM     85  C   UNL A   1      43.388  36.102  35.517  1.00  0.00     0.020 A 
ATOM     86  C   UNL A   1      44.189  36.924  33.375  1.00  0.00     0.020 A 
ATOM     87  C   UNL A   1      44.005  37.095  34.747  1.00  0.00     0.054 A 
BRANCH  87  88
ATOM     88  S   UNL A   1      44.614  38.588  35.577  1.00  0.00     0.124 S 
ATOM     89  O   UNL A   1      44.219  38.350  36.962  1.00  0.00    -0.237 OA
ATOM     90  O   UNL A   1      46.052  38.535  35.315  1.00  0.00    -0.237 OA
ATOM     91  O   UNL A   1      43.905  39.674  34.903  1.00  0.00    -0.744 OA
ENDBRANCH  87  88
ENDBRANCH  61  82
ENDBRANCH  35  36
ENDBRANCH  27  30
ENDBRANCH  25  26
ENDBRANCH   1  25
TORSDOF 17
ENDMDL
MODEL 3
REMARK VINA RESULT:     -10.5      4.511     10.001
REMARK SMILES CCN(C(=O)c1ccc(C)cc1F)[C@@H]1COC[C@@H]1C(=O)NCCCNC(=O)c1ccc(-c2c3nc(c(-c4ccc(S(=O)(=O)[O-])cc4)c4ccc([nH]4)c(-c4ccc(S(=O)(=O)[O-])cc4)c4nc(c(-c5ccc(S(=O)(=O)[O-])cc5)c5ccc2[nH]5)C=C4)C=C3)cc1
REMARK SMILES IDX 23 1 22 2 21 3 19 4 20 5 18 7 14 8 15 9 16 10 17 11 3 12
REMARK SMILES IDX 2 13 1 14 4 15 5 16 6 17 7 18 12 19 8 20 11 21 13 22 9 23
REMARK SMILES IDX 10 24 24 25 25 26 26 27 27 29 28 30 29 31 87 32 30 33 86 34
REMARK SMILES IDX 31 35 32 36 33 37 80 38 34 39 85 40 79 41 81 42 35 43 84 44
REMARK SMILES IDX 78 45 77 46 36 48 66 49 47 50 65 51 48 52 51 53 64 54 82 55
REMARK SMILES IDX 49 56 50 57 63 59 83 60 52 61 37 62 38 63 46 64 39 65 45 66
REMARK SMILES IDX 40 67 41 68 42 69 43 70 44 71 67 72 68 73 76 74 69 75 75 76
REMARK SMILES IDX 70 77 71 78 72 79 73 80 74 81 53 82 54 83 62 84 55 85 61 86
REMARK SMILES IDX 56 87 57 88 58 89 59 90 60 91
REMARK H PARENT 21 6 25 28 81 47 51 58
REMARK Flexibility Score: inf
ROOT
ATOM      1  C   UNL A   1      37.258  22.846  25.636  1.00  0.00     0.042 C 
ENDROOT
BRANCH   1   2
ATOM      2  C   UNL A   1      36.059  23.098  24.716  1.00  0.00     0.117 C 
BRANCH   2   3
ATOM      3  N   UNL A   1      35.227  24.228  25.114  1.00  0.00    -0.356 N 
ATOM      4  C   UNL A   1      34.024  24.318  25.759  1.00  0.00     0.227 C 
ATOM      5  O   UNL A   1      33.613  25.458  25.981  1.00  0.00    -0.275 OA
ATOM      6  H   UNL A   1      35.608  25.101  24.869  1.00  0.00     0.163 HD
BRANCH   4   7
ATOM      7  C   UNL A   1      33.262  23.080  26.205  1.00  0.00     0.129 C 
ATOM      8  C   UNL A   1      31.946  22.723  25.523  1.00  0.00     0.126 C 
ATOM      9  C   UNL A   1      30.828  23.319  26.371  1.00  0.00     0.186 C 
ATOM     10  O   UNL A   1      31.402  23.676  27.632  1.00  0.00    -0.378 OA
ATOM     11  C   UNL A   1      32.775  23.256  27.648  1.00  0.00     0.176 C 
BRANCH   8  12
ATOM     12  N   UNL A   1      31.791  22.826  24.067  1.00  0.00    -0.333 N 
BRANCH  12  13
ATOM     13  C   UNL A   1      30.776  23.721  23.454  1.00  0.00     0.117 C 
ATOM     14  C   UNL A   1      31.175  25.148  23.125  1.00  0.00     0.027 C 
ENDBRANCH  12  13
BRANCH  12  15
ATOM     15  C   UNL A   1      32.746  22.102  23.314  1.00  0.00     0.257 C 
ATOM     16  O   UNL A   1      33.460  22.588  22.440  1.00  0.00    -0.269 OA
BRANCH  15  17
ATOM     17  C   UNL A   1      32.809  20.654  23.464  1.00  0.00     0.075 A 
ATOM     18  C   UNL A   1      33.579  20.139  24.510  1.00  0.00     0.017 A 
ATOM     19  C   UNL A   1      32.191  19.823  22.541  1.00  0.00     0.136 A 
ATOM     20  C   UNL A   1      33.876  18.788  24.521  1.00  0.00     0.004 A 
ATOM     21  C   UNL A   1      32.444  18.465  22.579  1.00  0.00     0.043 A 
ATOM     22  F   UNL A   1      31.414  20.324  21.572  1.00  0.00    -0.206 F 
ATOM     23  C   UNL A   1      33.338  17.962  23.531  1.00  0.00    -0.048 A 
ATOM     24  C   UNL A   1      33.682  16.518  23.520  1.00  0.00     0.044 C 
ENDBRANCH  15  17
ENDBRANCH  12  15
ENDBRANCH   8  12
ENDBRANCH   4   7
ENDBRANCH   2   3
ENDBRANCH   1   2
BRANCH   1  25
ATOM     25  C   UNL A   1      38.070  24.054  26.127  1.00  0.00     0.118 C 
BRANCH  25  26
ATOM     26  N   UNL A   1      39.493  23.764  26.177  1.00  0.00    -0.352 N 
ATOM     27  C   UNL A   1      40.569  24.437  26.713  1.00  0.00     0.251 C 
ATOM     28  H   UNL A   1      39.738  22.917  25.741  1.00  0.00     0.163 HD
ATOM     29  O   UNL A   1      41.686  24.066  26.346  1.00  0.00    -0.269 OA
BRANCH  27  30
ATOM     30  C   UNL A   1      40.481  25.559  27.698  1.00  0.00     0.039 A 
ATOM     31  C   UNL A   1      41.576  26.441  27.778  1.00  0.00     0.014 A 
ATOM     32  C   UNL A   1      39.465  25.698  28.643  1.00  0.00     0.014 A 
ATOM     33  C   UNL A   1      41.651  27.443  28.766  1.00  0.00     0.010 A 
ATOM     34  C   UNL A   1      39.516  26.735  29.600  1.00  0.00     0.010 A 
ATOM     35  C   UNL A   1      40.613  27.620  29.687  1.00  0.00    -0.014 A 
BRANCH  35  36
ATOM     36  C   UNL A   1      40.635  28.690  30.742  1.00  0.00     0.031 A 
ATOM     37  C   UNL A   1      41.358  28.458  32.046  1.00  0.00     0.074 A 
ATOM     38  C   UNL A   1      39.949  29.848  30.606  1.00  0.00     0.049 A 
ATOM     39  N   UNL A   1      41.371  29.206  33.121  1.00  0.00    -0.248 NA
ATOM     40  C   UNL A   1      42.208  27.261  32.138  1.00  0.00     0.031 C 
ATOM     41  C   UNL A   1      39.317  30.335  29.386  1.00  0.00     0.029 A 
ATOM     42  N   UNL A   1      39.585  30.790  31.545  1.00  0.00    -0.354 N 
ATOM     43  C   UNL A   1      42.280  28.612  33.987  1.00  0.00     0.074 A 
ATOM     44  C   UNL A   1      42.714  27.382  33.358  1.00  0.00     0.031 C 
ATOM     45  C   UNL A   1      38.479  31.342  29.686  1.00  0.00     0.029 A 
ATOM     46  C   UNL A   1      38.581  31.630  31.108  1.00  0.00     0.049 A 
ATOM     47  H   UNL A   1      40.000  30.857  32.436  1.00  0.00     0.167 HD
ATOM     48  C   UNL A   1      42.758  29.079  35.168  1.00  0.00     0.031 A 
ATOM     49  C   UNL A   1      37.814  32.524  31.763  1.00  0.00     0.031 A 
ATOM     50  C   UNL A   1      42.310  30.289  35.808  1.00  0.00     0.049 A 
ATOM     51  C   UNL A   1      38.184  32.902  33.166  1.00  0.00     0.074 A 
ATOM     52  C   UNL A   1      42.781  30.871  36.973  1.00  0.00     0.029 A 
ATOM     53  N   UNL A   1      41.273  31.090  35.356  1.00  0.00    -0.354 N 
ATOM     54  N   UNL A   1      39.121  32.392  33.927  1.00  0.00    -0.248 NA
ATOM     55  C   UNL A   1      37.471  34.040  33.762  1.00  0.00     0.031 C 
ATOM     56  C   UNL A   1      41.984  31.985  37.261  1.00  0.00     0.029 A 
ATOM     57  C   UNL A   1      41.058  32.134  36.241  1.00  0.00     0.049 A 
ATOM     58  H   UNL A   1      40.765  30.939  34.527  1.00  0.00     0.167 HD
ATOM     59  C   UNL A   1      39.179  33.211  35.047  1.00  0.00     0.074 A 
ATOM     60  C   UNL A   1      38.155  34.222  34.884  1.00  0.00     0.031 C 
ATOM     61  C   UNL A   1      40.042  33.148  36.090  1.00  0.00     0.031 A 
BRANCH  48  62
ATOM     62  C   UNL A   1      43.851  28.282  35.831  1.00  0.00    -0.014 A 
ATOM     63  C   UNL A   1      43.535  27.222  36.703  1.00  0.00     0.010 A 
ATOM     64  C   UNL A   1      45.200  28.560  35.552  1.00  0.00     0.010 A 
ATOM     65  C   UNL A   1      44.549  26.489  37.324  1.00  0.00     0.020 A 
ATOM     66  C   UNL A   1      46.218  27.810  36.150  1.00  0.00     0.020 A 
ATOM     67  C   UNL A   1      45.886  26.792  37.047  1.00  0.00     0.054 A 
BRANCH  67  68
ATOM     68  S   UNL A   1      47.179  25.822  37.869  1.00  0.00     0.124 S 
ATOM     69  O   UNL A   1      46.394  24.954  38.742  1.00  0.00    -0.237 OA
ATOM     70  O   UNL A   1      47.840  25.158  36.751  1.00  0.00    -0.237 OA
ATOM     71  O   UNL A   1      47.985  26.831  38.556  1.00  0.00    -0.744 OA
ENDBRANCH  67  68
ENDBRANCH  48  62
BRANCH  49  72
ATOM     72  C   UNL A   1      36.666  33.179  31.077  1.00  0.00    -0.014 A 
ATOM     73  C   UNL A   1      35.348  32.961  31.511  1.00  0.00     0.010 A 
ATOM     74  C   UNL A   1      36.889  34.019  29.969  1.00  0.00     0.010 A 
ATOM     75  C   UNL A   1      34.273  33.547  30.836  1.00  0.00     0.020 A 
ATOM     76  C   UNL A   1      35.816  34.620  29.299  1.00  0.00     0.020 A 
ATOM     77  C   UNL A   1      34.513  34.372  29.733  1.00  0.00     0.054 A 
BRANCH  77  78
ATOM     78  S   UNL A   1      33.094  35.134  28.896  1.00  0.00     0.124 S 
ATOM     79  O   UNL A   1      33.711  36.272  28.223  1.00  0.00    -0.237 OA
ATOM     80  O   UNL A   1      32.632  34.056  28.025  1.00  0.00    -0.237 OA
ATOM     81  O   UNL A   1      32.189  35.471  29.993  1.00  0.00    -0.744 OA
ENDBRANCH  77  78
ENDBRANCH  49  72
BRANCH  61  82
ATOM     82  C   UNL A   1      39.972  34.239  37.123  1.00  0.00    -0.014 A 
ATOM     83  C   UNL A   1      40.617  35.473  36.936  1.00  0.00     0.010 A 
ATOM     84  C   UNL A   1      39.195  34.041  38.281  1.00  0.00     0.010 A 
ATOM     85  C   UNL A   1      40.503  36.482  37.897  1.00  0.00     0.020 A 
ATOM     86  C   UNL A   1      39.053  35.058  39.229  1.00  0.00     0.020 A 
ATOM     87  C   UNL A   1      39.717  36.269  39.035  1.00  0.00     0.054 A 
BRANCH  87  88
ATOM     88  S   UNL A   1      39.530  37.621  40.229  1.00  0.00     0.124 S 
ATOM     89  O   UNL A   1      39.010  36.923  41.402  1.00  0.00    -0.237 OA
ATOM     90  O   UNL A   1      40.895  38.129  40.354  1.00  0.00    -0.237 OA
ATOM     91  O   UNL A   1      38.590  38.531  39.579  1.00  0.00    -0.744 OA
ENDBRANCH  87  88
ENDBRANCH  61  82
ENDBRANCH  35  36
ENDBRANCH  27  30
ENDBRANCH  25  26
ENDBRANCH   1  25
TORSDOF 17
ENDMDL
