MODEL 1
REMARK VINA RESULT:     -10.1      0.000      0.000
REMARK SMILES [NH3+][C@](CCCP(=O)([O-])[O-])(Cc1ccccc1)C(=O)NCCCNC(=O)c1ccc(-c2c3nc(c(-c4ccc(S(=O)(=O)[O-])cc4)c4ccc([nH]4)c(-c4ccc(S(=O)(=O)[O-])cc4)c4nc(c(-c5ccc(S(=O)(=O)[O-])cc5)c5ccc2[nH]5)C=C4)C=C3)cc1
REMARK SMILES IDX 20 1 19 2 17 3 18 4 2 6 1 7 10 11 11 12 12 13 16 14 13 15
REMARK SMILES IDX 15 16 14 17 3 18 4 19 5 20 6 21 7 22 8 23 9 24 21 25 22 26
REMARK SMILES IDX 23 27 24 28 25 30 26 31 27 32 85 33 28 34 84 35 29 36 30 37
REMARK SMILES IDX 31 38 78 39 32 40 83 41 77 42 79 43 33 44 82 45 76 46 75 47
REMARK SMILES IDX 34 49 64 50 45 51 63 52 46 53 49 54 62 55 80 56 47 57 48 58
REMARK SMILES IDX 61 60 81 61 50 62 35 63 36 64 44 65 37 66 43 67 38 68 39 69
REMARK SMILES IDX 40 70 41 71 42 72 65 73 66 74 74 75 67 76 73 77 68 78 69 79
REMARK SMILES IDX 70 80 71 81 72 82 51 83 52 84 60 85 53 86 59 87 54 88 55 89
REMARK SMILES IDX 56 90 57 91 58 92
REMARK H PARENT 19 5 1 8 1 9 1 10 23 29 79 48 49 59
REMARK Flexibility Score: inf
ROOT
ATOM      1  C   UNL A   1      32.043  27.113  26.386  1.00  0.00     0.118 C 
ENDROOT
BRANCH   1   2
ATOM      2  N   UNL A   1      31.738  25.789  26.905  1.00  0.00    -0.351 N 
ATOM      3  C   UNL A   1      31.691  24.559  26.316  1.00  0.00     0.281 C 
ATOM      4  O   UNL A   1      31.398  23.624  27.069  1.00  0.00    -0.268 OA
ATOM      5  H   UNL A   1      31.523  25.778  27.866  1.00  0.00     0.163 HD
BRANCH   3   6
ATOM      6  C   UNL A   1      31.976  24.347  24.784  1.00  0.00     0.178 C 
BRANCH   6   7
ATOM      7  N   UNL A   1      32.163  22.891  24.550  1.00  0.00    -0.345 N 
ATOM      8  H   UNL A   1      32.720  22.494  25.305  1.00  0.00     0.345 HD
ATOM      9  H   UNL A   1      32.644  22.749  23.662  1.00  0.00     0.345 HD
ATOM     10  H   UNL A   1      31.253  22.432  24.520  1.00  0.00     0.345 HD
ENDBRANCH   6   7
BRANCH   6  11
ATOM     11  C   UNL A   1      33.310  25.063  24.399  1.00  0.00     0.114 C 
BRANCH  11  12
ATOM     12  C   UNL A   1      34.581  24.244  24.529  1.00  0.00    -0.041 A 
ATOM     13  C   UNL A   1      35.239  24.132  25.762  1.00  0.00     0.004 A 
ATOM     14  C   UNL A   1      35.136  23.596  23.416  1.00  0.00     0.004 A 
ATOM     15  C   UNL A   1      36.443  23.434  25.871  1.00  0.00     0.000 A 
ATOM     16  C   UNL A   1      36.346  22.908  23.522  1.00  0.00     0.000 A 
ATOM     17  C   UNL A   1      37.003  22.833  24.748  1.00  0.00     0.000 A 
ENDBRANCH  11  12
ENDBRANCH   6  11
BRANCH   6  18
ATOM     18  C   UNL A   1      30.750  24.886  23.958  1.00  0.00     0.080 C 
BRANCH  18  19
ATOM     19  C   UNL A   1      30.945  26.082  23.005  1.00  0.00     0.012 C 
BRANCH  19  20
ATOM     20  C   UNL A   1      29.955  27.237  23.178  1.00  0.00     0.040 C 
BRANCH  20  21
ATOM     21  P   UNL A   1      30.547  28.871  22.781  1.00  0.00    -0.067 P 
ATOM     22  O   UNL A   1      29.897  29.569  21.637  1.00  0.00    -0.357 OA
ATOM     23  O   UNL A   1      30.479  29.685  24.161  1.00  0.00    -0.811 OA
ATOM     24  O   UNL A   1      32.133  28.772  22.637  1.00  0.00    -0.811 OA
ENDBRANCH  20  21
ENDBRANCH  19  20
ENDBRANCH  18  19
ENDBRANCH   6  18
ENDBRANCH   3   6
ENDBRANCH   1   2
BRANCH   1  25
ATOM     25  C   UNL A   1      33.437  27.581  26.772  1.00  0.00     0.042 C 
BRANCH  25  26
ATOM     26  C   UNL A   1      33.938  28.764  25.960  1.00  0.00     0.118 C 
BRANCH  26  27
ATOM     27  N   UNL A   1      33.696  30.035  26.630  1.00  0.00    -0.352 N 
ATOM     28  C   UNL A   1      34.410  30.641  27.635  1.00  0.00     0.251 C 
ATOM     29  H   UNL A   1      32.906  30.533  26.316  1.00  0.00     0.163 HD
ATOM     30  O   UNL A   1      33.929  31.596  28.235  1.00  0.00    -0.269 OA
BRANCH  28  31
ATOM     31  C   UNL A   1      35.748  30.125  27.999  1.00  0.00     0.039 A 
ATOM     32  C   UNL A   1      36.771  30.154  27.049  1.00  0.00     0.014 A 
ATOM     33  C   UNL A   1      35.990  29.613  29.277  1.00  0.00     0.014 A 
ATOM     34  C   UNL A   1      38.053  29.727  27.403  1.00  0.00     0.010 A 
ATOM     35  C   UNL A   1      37.285  29.276  29.653  1.00  0.00     0.010 A 
ATOM     36  C   UNL A   1      38.329  29.318  28.718  1.00  0.00    -0.014 A 
BRANCH  36  37
ATOM     37  C   UNL A   1      39.696  28.916  29.135  1.00  0.00     0.031 A 
ATOM     38  C   UNL A   1      40.579  29.894  29.864  1.00  0.00     0.074 A 
ATOM     39  C   UNL A   1      40.167  27.698  28.800  1.00  0.00     0.049 A 
ATOM     40  N   UNL A   1      41.819  29.753  30.254  1.00  0.00    -0.248 NA
ATOM     41  C   UNL A   1      40.001  31.213  30.172  1.00  0.00     0.031 C 
ATOM     42  C   UNL A   1      39.427  26.677  28.055  1.00  0.00     0.029 A 
ATOM     43  N   UNL A   1      41.386  27.114  29.037  1.00  0.00    -0.354 N 
ATOM     44  C   UNL A   1      42.174  30.967  30.831  1.00  0.00     0.074 A 
ATOM     45  C   UNL A   1      41.039  31.850  30.694  1.00  0.00     0.031 C 
ATOM     46  C   UNL A   1      40.195  25.584  27.923  1.00  0.00     0.029 A 
ATOM     47  C   UNL A   1      41.496  25.839  28.534  1.00  0.00     0.049 A 
ATOM     48  H   UNL A   1      42.115  27.566  29.522  1.00  0.00     0.167 HD
ATOM     49  C   UNL A   1      43.335  31.310  31.441  1.00  0.00     0.031 A 
ATOM     50  C   UNL A   1      42.529  24.973  28.556  1.00  0.00     0.031 A 
ATOM     51  C   UNL A   1      44.458  30.423  31.589  1.00  0.00     0.049 A 
ATOM     52  C   UNL A   1      43.808  25.378  29.235  1.00  0.00     0.074 A 
ATOM     53  C   UNL A   1      45.656  30.655  32.241  1.00  0.00     0.029 A 
ATOM     54  N   UNL A   1      44.523  29.136  31.077  1.00  0.00    -0.354 N 
ATOM     55  N   UNL A   1      44.100  26.508  29.833  1.00  0.00    -0.248 NA
ATOM     56  C   UNL A   1      44.892  24.387  29.251  1.00  0.00     0.031 C 
ATOM     57  C   UNL A   1      46.466  29.527  32.079  1.00  0.00     0.029 A 
ATOM     58  C   UNL A   1      45.750  28.569  31.378  1.00  0.00     0.049 A 
ATOM     59  H   UNL A   1      43.803  28.692  30.574  1.00  0.00     0.167 HD
ATOM     60  C   UNL A   1      45.393  26.352  30.323  1.00  0.00     0.074 A 
ATOM     61  C   UNL A   1      45.818  25.015  29.962  1.00  0.00     0.031 C 
ATOM     62  C   UNL A   1      46.158  27.236  31.010  1.00  0.00     0.031 A 
BRANCH  49  63
ATOM     63  C   UNL A   1      43.445  32.708  31.991  1.00  0.00    -0.014 A 
ATOM     64  C   UNL A   1      43.143  32.987  33.337  1.00  0.00     0.010 A 
ATOM     65  C   UNL A   1      43.889  33.753  31.161  1.00  0.00     0.010 A 
ATOM     66  C   UNL A   1      43.240  34.290  33.830  1.00  0.00     0.020 A 
ATOM     67  C   UNL A   1      44.017  35.054  31.659  1.00  0.00     0.020 A 
ATOM     68  C   UNL A   1      43.674  35.317  32.986  1.00  0.00     0.054 A 
BRANCH  68  69
ATOM     69  S   UNL A   1      43.809  36.996  33.659  1.00  0.00     0.124 S 
ATOM     70  O   UNL A   1      44.993  36.884  34.508  1.00  0.00    -0.237 OA
ATOM     71  O   UNL A   1      43.973  37.811  32.459  1.00  0.00    -0.237 OA
ATOM     72  O   UNL A   1      42.548  37.187  34.372  1.00  0.00    -0.744 OA
ENDBRANCH  68  69
ENDBRANCH  49  63
BRANCH  50  73
ATOM     73  C   UNL A   1      42.385  23.631  27.929  1.00  0.00    -0.014 A 
ATOM     74  C   UNL A   1      42.859  23.398  26.626  1.00  0.00     0.010 A 
ATOM     75  C   UNL A   1      41.791  22.572  28.639  1.00  0.00     0.010 A 
ATOM     76  C   UNL A   1      42.726  22.136  26.038  1.00  0.00     0.020 A 
ATOM     77  C   UNL A   1      41.680  21.302  28.065  1.00  0.00     0.020 A 
ATOM     78  C   UNL A   1      42.138  21.095  26.763  1.00  0.00     0.054 A 
BRANCH  78  79
ATOM     79  S   UNL A   1      42.025  19.453  25.999  1.00  0.00     0.124 S 
ATOM     80  O   UNL A   1      40.595  19.340  25.733  1.00  0.00    -0.237 OA
ATOM     81  O   UNL A   1      42.880  19.592  24.823  1.00  0.00    -0.237 OA
ATOM     82  O   UNL A   1      42.544  18.559  27.033  1.00  0.00    -0.744 OA
ENDBRANCH  78  79
ENDBRANCH  50  73
BRANCH  62  83
ATOM     83  C   UNL A   1      47.522  26.777  31.451  1.00  0.00    -0.014 A 
ATOM     84  C   UNL A   1      47.710  26.122  32.679  1.00  0.00     0.010 A 
ATOM     85  C   UNL A   1      48.623  26.955  30.593  1.00  0.00     0.010 A 
ATOM     86  C   UNL A   1      48.982  25.681  33.056  1.00  0.00     0.020 A 
ATOM     87  C   UNL A   1      49.890  26.491  30.953  1.00  0.00     0.020 A 
ATOM     88  C   UNL A   1      50.064  25.868  32.189  1.00  0.00     0.054 A 
BRANCH  88  89
ATOM     89  S   UNL A   1      51.695  25.247  32.682  1.00  0.00     0.124 S 
ATOM     90  O   UNL A   1      51.808  25.743  34.051  1.00  0.00    -0.237 OA
ATOM     91  O   UNL A   1      51.541  23.800  32.549  1.00  0.00    -0.237 OA
ATOM     92  O   UNL A   1      52.605  25.862  31.719  1.00  0.00    -0.744 OA
ENDBRANCH  88  89
ENDBRANCH  62  83
ENDBRANCH  36  37
ENDBRANCH  28  31
ENDBRANCH  26  27
ENDBRANCH  25  26
ENDBRANCH   1  25
TORSDOF 20
ENDMDL
MODEL 2
REMARK VINA RESULT:     -10.1      2.511      8.983
REMARK SMILES [NH3+][C@](CCCP(=O)([O-])[O-])(Cc1ccccc1)C(=O)NCCCNC(=O)c1ccc(-c2c3nc(c(-c4ccc(S(=O)(=O)[O-])cc4)c4ccc([nH]4)c(-c4ccc(S(=O)(=O)[O-])cc4)c4nc(c(-c5ccc(S(=O)(=O)[O-])cc5)c5ccc2[nH]5)C=C4)C=C3)cc1
REMARK SMILES IDX 20 1 19 2 17 3 18 4 2 6 1 7 10 11 11 12 12 13 16 14 13 15
REMARK SMILES IDX 15 16 14 17 3 18 4 19 5 20 6 21 7 22 8 23 9 24 21 25 22 26
REMARK SMILES IDX 23 27 24 28 25 30 26 31 27 32 85 33 28 34 84 35 29 36 30 37
REMARK SMILES IDX 31 38 78 39 32 40 83 41 77 42 79 43 33 44 82 45 76 46 75 47
REMARK SMILES IDX 34 49 64 50 45 51 63 52 46 53 49 54 62 55 80 56 47 57 48 58
REMARK SMILES IDX 61 60 81 61 50 62 35 63 36 64 44 65 37 66 43 67 38 68 39 69
REMARK SMILES IDX 40 70 41 71 42 72 65 73 66 74 74 75 67 76 73 77 68 78 69 79
REMARK SMILES IDX 70 80 71 81 72 82 51 83 52 84 60 85 53 86 59 87 54 88 55 89
REMARK SMILES IDX 56 90 57 91 58 92
REMARK H PARENT 19 5 1 8 1 9 1 10 23 29 79 48 49 59
REMARK Flexibility Score: inf
ROOT
ATOM      1  C   UNL A   1      34.404  24.865  25.255  1.00  0.00     0.118 C 
ENDROOT
BRANCH   1   2
ATOM      2  N   UNL A   1      33.419  24.608  24.216  1.00  0.00    -0.351 N 
ATOM      3  C   UNL A   1      32.536  25.420  23.565  1.00  0.00     0.281 C 
ATOM      4  O   UNL A   1      31.835  24.863  22.715  1.00  0.00    -0.268 OA
ATOM      5  H   UNL A   1      33.382  23.668  23.927  1.00  0.00     0.163 HD
BRANCH   3   6
ATOM      6  C   UNL A   1      32.408  26.954  23.886  1.00  0.00     0.178 C 
BRANCH   6   7
ATOM      7  N   UNL A   1      33.726  27.588  23.623  1.00  0.00    -0.345 N 
ATOM      8  H   UNL A   1      34.316  27.504  24.450  1.00  0.00     0.345 HD
ATOM      9  H   UNL A   1      33.591  28.574  23.401  1.00  0.00     0.345 HD
ATOM     10  H   UNL A   1      34.176  27.122  22.836  1.00  0.00     0.345 HD
ENDBRANCH   6   7
BRANCH   6  11
ATOM     11  C   UNL A   1      32.087  27.144  25.404  1.00  0.00     0.114 C 
BRANCH  11  12
ATOM     12  C   UNL A   1      32.722  28.341  26.087  1.00  0.00    -0.041 A 
ATOM     13  C   UNL A   1      33.980  28.234  26.697  1.00  0.00     0.004 A 
ATOM     14  C   UNL A   1      32.058  29.575  26.139  1.00  0.00     0.004 A 
ATOM     15  C   UNL A   1      34.538  29.315  27.382  1.00  0.00     0.000 A 
ATOM     16  C   UNL A   1      32.610  30.652  26.835  1.00  0.00     0.000 A 
ATOM     17  C   UNL A   1      33.847  30.520  27.463  1.00  0.00     0.000 A 
ENDBRANCH  11  12
ENDBRANCH   6  11
BRANCH   6  18
ATOM     18  C   UNL A   1      31.300  27.579  22.961  1.00  0.00     0.080 C 
BRANCH  18  19
ATOM     19  C   UNL A   1      29.935  27.963  23.565  1.00  0.00     0.012 C 
BRANCH  19  20
ATOM     20  C   UNL A   1      29.547  29.439  23.443  1.00  0.00     0.040 C 
BRANCH  20  21
ATOM     21  P   UNL A   1      27.985  29.799  22.662  1.00  0.00    -0.067 P 
ATOM     22  O   UNL A   1      27.981  29.922  21.178  1.00  0.00    -0.357 OA
ATOM     23  O   UNL A   1      26.974  28.687  23.223  1.00  0.00    -0.811 OA
ATOM     24  O   UNL A   1      27.375  31.075  23.401  1.00  0.00    -0.811 OA
ENDBRANCH  20  21
ENDBRANCH  19  20
ENDBRANCH  18  19
ENDBRANCH   6  18
ENDBRANCH   3   6
ENDBRANCH   1   2
BRANCH   1  25
ATOM     25  C   UNL A   1      35.336  23.684  25.476  1.00  0.00     0.042 C 
BRANCH  25  26
ATOM     26  C   UNL A   1      36.740  23.897  24.933  1.00  0.00     0.118 C 
BRANCH  26  27
ATOM     27  N   UNL A   1      37.650  22.828  25.323  1.00  0.00    -0.352 N 
ATOM     28  C   UNL A   1      38.833  22.901  26.020  1.00  0.00     0.251 C 
ATOM     29  H   UNL A   1      37.378  21.922  25.048  1.00  0.00     0.163 HD
ATOM     30  O   UNL A   1      39.580  21.930  26.055  1.00  0.00    -0.269 OA
BRANCH  28  31
ATOM     31  C   UNL A   1      39.203  24.157  26.708  1.00  0.00     0.039 A 
ATOM     32  C   UNL A   1      38.741  24.385  28.005  1.00  0.00     0.014 A 
ATOM     33  C   UNL A   1      40.005  25.108  26.070  1.00  0.00     0.014 A 
ATOM     34  C   UNL A   1      39.138  25.539  28.685  1.00  0.00     0.010 A 
ATOM     35  C   UNL A   1      40.472  26.207  26.780  1.00  0.00     0.010 A 
ATOM     36  C   UNL A   1      40.034  26.443  28.091  1.00  0.00    -0.014 A 
BRANCH  36  37
ATOM     37  C   UNL A   1      40.517  27.646  28.815  1.00  0.00     0.031 A 
ATOM     38  C   UNL A   1      41.889  27.650  29.438  1.00  0.00     0.074 A 
ATOM     39  C   UNL A   1      39.701  28.707  28.970  1.00  0.00     0.049 A 
ATOM     40  N   UNL A   1      42.463  28.576  30.161  1.00  0.00    -0.248 NA
ATOM     41  C   UNL A   1      42.712  26.444  29.246  1.00  0.00     0.031 C 
ATOM     42  C   UNL A   1      38.333  28.807  28.454  1.00  0.00     0.029 A 
ATOM     43  N   UNL A   1      39.899  29.902  29.614  1.00  0.00    -0.354 N 
ATOM     44  C   UNL A   1      43.701  28.059  30.525  1.00  0.00     0.074 A 
ATOM     45  C   UNL A   1      43.774  26.718  29.989  1.00  0.00     0.031 C 
ATOM     46  C   UNL A   1      37.829  30.010  28.775  1.00  0.00     0.029 A 
ATOM     47  C   UNL A   1      38.816  30.748  29.556  1.00  0.00     0.049 A 
ATOM     48  H   UNL A   1      40.738  30.133  30.075  1.00  0.00     0.167 HD
ATOM     49  C   UNL A   1      44.698  28.653  31.224  1.00  0.00     0.031 A 
ATOM     50  C   UNL A   1      38.635  31.978  30.077  1.00  0.00     0.031 A 
ATOM     51  C   UNL A   1      44.628  29.993  31.742  1.00  0.00     0.049 A 
ATOM     52  C   UNL A   1      39.755  32.616  30.853  1.00  0.00     0.074 A 
ATOM     53  C   UNL A   1      45.605  30.708  32.412  1.00  0.00     0.029 A 
ATOM     54  N   UNL A   1      43.519  30.821  31.650  1.00  0.00    -0.354 N 
ATOM     55  N   UNL A   1      40.943  32.134  31.129  1.00  0.00    -0.248 NA
ATOM     56  C   UNL A   1      39.512  33.967  31.376  1.00  0.00     0.031 C 
ATOM     57  C   UNL A   1      45.069  31.948  32.771  1.00  0.00     0.029 A 
ATOM     58  C   UNL A   1      43.778  32.030  32.271  1.00  0.00     0.049 A 
ATOM     59  H   UNL A   1      42.672  30.583  31.207  1.00  0.00     0.167 HD
ATOM     60  C   UNL A   1      41.601  33.136  31.835  1.00  0.00     0.074 A 
ATOM     61  C   UNL A   1      40.683  34.253  31.929  1.00  0.00     0.031 C 
ATOM     62  C   UNL A   1      42.852  33.132  32.357  1.00  0.00     0.031 A 
BRANCH  49  63
ATOM     63  C   UNL A   1      45.950  27.851  31.469  1.00  0.00    -0.014 A 
ATOM     64  C   UNL A   1      46.997  27.830  30.530  1.00  0.00     0.010 A 
ATOM     65  C   UNL A   1      46.097  27.136  32.672  1.00  0.00     0.010 A 
ATOM     66  C   UNL A   1      48.147  27.074  30.767  1.00  0.00     0.020 A 
ATOM     67  C   UNL A   1      47.260  26.403  32.927  1.00  0.00     0.020 A 
ATOM     68  C   UNL A   1      48.270  26.361  31.964  1.00  0.00     0.054 A 
BRANCH  68  69
ATOM     69  S   UNL A   1      49.784  25.405  32.253  1.00  0.00     0.124 S 
ATOM     70  O   UNL A   1      50.676  26.417  32.814  1.00  0.00    -0.237 OA
ATOM     71  O   UNL A   1      49.338  24.374  33.187  1.00  0.00    -0.237 OA
ATOM     72  O   UNL A   1      50.148  24.921  30.924  1.00  0.00    -0.744 OA
ENDBRANCH  68  69
ENDBRANCH  49  63
BRANCH  50  73
ATOM     73  C   UNL A   1      37.347  32.692  29.863  1.00  0.00    -0.014 A 
ATOM     74  C   UNL A   1      37.245  33.707  28.896  1.00  0.00     0.010 A 
ATOM     75  C   UNL A   1      36.208  32.348  30.614  1.00  0.00     0.010 A 
ATOM     76  C   UNL A   1      36.034  34.377  28.695  1.00  0.00     0.020 A 
ATOM     77  C   UNL A   1      34.988  32.997  30.398  1.00  0.00     0.020 A 
ATOM     78  C   UNL A   1      34.912  34.015  29.447  1.00  0.00     0.054 A 
BRANCH  78  79
ATOM     79  S   UNL A   1      33.338  34.862  29.131  1.00  0.00     0.124 S 
ATOM     80  O   UNL A   1      32.702  33.970  28.168  1.00  0.00    -0.237 OA
ATOM     81  O   UNL A   1      32.729  34.901  30.458  1.00  0.00    -0.237 OA
ATOM     82  O   UNL A   1      33.750  36.162  28.607  1.00  0.00    -0.744 OA
ENDBRANCH  78  79
ENDBRANCH  50  73
BRANCH  62  83
ATOM     83  C   UNL A   1      43.320  34.385  33.048  1.00  0.00    -0.014 A 
ATOM     84  C   UNL A   1      43.215  34.533  34.441  1.00  0.00     0.010 A 
ATOM     85  C   UNL A   1      43.927  35.406  32.293  1.00  0.00     0.010 A 
ATOM     86  C   UNL A   1      43.680  35.695  35.064  1.00  0.00     0.020 A 
ATOM     87  C   UNL A   1      44.418  36.555  32.915  1.00  0.00     0.020 A 
ATOM     88  C   UNL A   1      44.279  36.699  34.296  1.00  0.00     0.054 A 
BRANCH  88  89
ATOM     89  S   UNL A   1      44.915  38.177  35.133  1.00  0.00     0.124 S 
ATOM     90  O   UNL A   1      44.814  39.188  34.083  1.00  0.00    -0.237 OA
ATOM     91  O   UNL A   1      43.986  38.337  36.250  1.00  0.00    -0.237 OA
ATOM     92  O   UNL A   1      46.276  37.803  35.510  1.00  0.00    -0.744 OA
ENDBRANCH  88  89
ENDBRANCH  62  83
ENDBRANCH  36  37
ENDBRANCH  28  31
ENDBRANCH  26  27
ENDBRANCH  25  26
ENDBRANCH   1  25
TORSDOF 20
ENDMDL
MODEL 3
REMARK VINA RESULT:     -10.1      4.450     10.037
REMARK SMILES [NH3+][C@](CCCP(=O)([O-])[O-])(Cc1ccccc1)C(=O)NCCCNC(=O)c1ccc(-c2c3nc(c(-c4ccc(S(=O)(=O)[O-])cc4)c4ccc([nH]4)c(-c4ccc(S(=O)(=O)[O-])cc4)c4nc(c(-c5ccc(S(=O)(=O)[O-])cc5)c5ccc2[nH]5)C=C4)C=C3)cc1
REMARK SMILES IDX 20 1 19 2 17 3 18 4 2 6 1 7 10 11 11 12 12 13 16 14 13 15
REMARK SMILES IDX 15 16 14 17 3 18 4 19 5 20 6 21 7 22 8 23 9 24 21 25 22 26
REMARK SMILES IDX 23 27 24 28 25 30 26 31 27 32 85 33 28 34 84 35 29 36 30 37
REMARK SMILES IDX 31 38 78 39 32 40 83 41 77 42 79 43 33 44 82 45 76 46 75 47
REMARK SMILES IDX 34 49 64 50 45 51 63 52 46 53 49 54 62 55 80 56 47 57 48 58
REMARK SMILES IDX 61 60 81 61 50 62 35 63 36 64 44 65 37 66 43 67 38 68 39 69
REMARK SMILES IDX 40 70 41 71 42 72 65 73 66 74 74 75 67 76 73 77 68 78 69 79
REMARK SMILES IDX 70 80 71 81 72 82 51 83 52 84 60 85 53 86 59 87 54 88 55 89
REMARK SMILES IDX 56 90 57 91 58 92
REMARK H PARENT 19 5 1 8 1 9 1 10 23 29 79 48 49 59
REMARK Flexibility Score: inf
ROOT
ATOM      1  C   UNL A   1      35.898  23.866  25.693  1.00  0.00     0.118 C 
ENDROOT
BRANCH   1   2
ATOM      2  N   UNL A   1      35.379  22.834  26.576  1.00  0.00    -0.351 N 
ATOM      3  C   UNL A   1      34.287  22.019  26.495  1.00  0.00     0.281 C 
ATOM      4  O   UNL A   1      34.144  21.234  27.438  1.00  0.00    -0.268 OA
ATOM      5  H   UNL A   1      35.917  22.697  27.389  1.00  0.00     0.163 HD
BRANCH   3   6
ATOM      6  C   UNL A   1      33.275  22.083  25.293  1.00  0.00     0.178 C 
BRANCH   6   7
ATOM      7  N   UNL A   1      32.433  23.295  25.468  1.00  0.00    -0.345 N 
ATOM      8  H   UNL A   1      33.028  24.122  25.497  1.00  0.00     0.345 HD
ATOM      9  H   UNL A   1      31.911  23.223  26.342  1.00  0.00     0.345 HD
ATOM     10  H   UNL A   1      31.781  23.371  24.688  1.00  0.00     0.345 HD
ENDBRANCH   6   7
BRANCH   6  11
ATOM     11  C   UNL A   1      32.330  20.839  25.342  1.00  0.00     0.114 C 
BRANCH  11  12
ATOM     12  C   UNL A   1      32.755  19.633  24.523  1.00  0.00    -0.041 A 
ATOM     13  C   UNL A   1      33.808  18.813  24.950  1.00  0.00     0.004 A 
ATOM     14  C   UNL A   1      32.116  19.323  23.314  1.00  0.00     0.004 A 
ATOM     15  C   UNL A   1      34.244  17.742  24.168  1.00  0.00     0.000 A 
ATOM     16  C   UNL A   1      32.559  18.260  22.526  1.00  0.00     0.000 A 
ATOM     17  C   UNL A   1      33.628  17.474  22.949  1.00  0.00     0.000 A 
ENDBRANCH  11  12
ENDBRANCH   6  11
BRANCH   6  18
ATOM     18  C   UNL A   1      34.085  22.163  23.947  1.00  0.00     0.080 C 
BRANCH  18  19
ATOM     19  C   UNL A   1      33.513  22.968  22.764  1.00  0.00     0.012 C 
BRANCH  19  20
ATOM     20  C   UNL A   1      33.956  24.431  22.679  1.00  0.00     0.040 C 
BRANCH  20  21
ATOM     21  P   UNL A   1      32.895  25.542  21.774  1.00  0.00    -0.067 P 
ATOM     22  O   UNL A   1      33.019  25.540  20.290  1.00  0.00    -0.357 OA
ATOM     23  O   UNL A   1      31.414  25.225  22.302  1.00  0.00    -0.811 OA
ATOM     24  O   UNL A   1      33.077  26.990  22.419  1.00  0.00    -0.811 OA
ENDBRANCH  20  21
ENDBRANCH  19  20
ENDBRANCH  18  19
ENDBRANCH   6  18
ENDBRANCH   3   6
ENDBRANCH   1   2
BRANCH   1  25
ATOM     25  C   UNL A   1      37.381  23.693  25.408  1.00  0.00     0.042 C 
BRANCH  25  26
ATOM     26  C   UNL A   1      38.286  24.174  26.531  1.00  0.00     0.118 C 
BRANCH  26  27
ATOM     27  N   UNL A   1      39.697  23.988  26.220  1.00  0.00    -0.352 N 
ATOM     28  C   UNL A   1      40.777  24.763  26.571  1.00  0.00     0.251 C 
ATOM     29  H   UNL A   1      39.908  23.191  25.681  1.00  0.00     0.163 HD
ATOM     30  O   UNL A   1      41.861  24.582  26.027  1.00  0.00    -0.269 OA
BRANCH  28  31
ATOM     31  C   UNL A   1      40.619  25.824  27.590  1.00  0.00     0.039 A 
ATOM     32  C   UNL A   1      39.649  25.676  28.583  1.00  0.00     0.014 A 
ATOM     33  C   UNL A   1      41.429  26.963  27.563  1.00  0.00     0.014 A 
ATOM     34  C   UNL A   1      39.536  26.642  29.585  1.00  0.00     0.010 A 
ATOM     35  C   UNL A   1      41.377  27.874  28.610  1.00  0.00     0.010 A 
ATOM     36  C   UNL A   1      40.421  27.731  29.627  1.00  0.00    -0.014 A 
BRANCH  36  37
ATOM     37  C   UNL A   1      40.360  28.740  30.715  1.00  0.00     0.031 A 
ATOM     38  C   UNL A   1      41.262  28.611  31.914  1.00  0.00     0.074 A 
ATOM     39  C   UNL A   1      39.449  29.732  30.658  1.00  0.00     0.049 A 
ATOM     40  N   UNL A   1      41.314  29.351  32.991  1.00  0.00    -0.248 NA
ATOM     41  C   UNL A   1      42.213  27.486  31.914  1.00  0.00     0.031 C 
ATOM     42  C   UNL A   1      38.487  29.939  29.573  1.00  0.00     0.029 A 
ATOM     43  N   UNL A   1      39.178  30.750  31.538  1.00  0.00    -0.354 N 
ATOM     44  C   UNL A   1      42.284  28.772  33.802  1.00  0.00     0.074 A 
ATOM     45  C   UNL A   1      42.757  27.590  33.118  1.00  0.00     0.031 C 
ATOM     46  C   UNL A   1      37.754  31.033  29.837  1.00  0.00     0.029 A 
ATOM     47  C   UNL A   1      38.161  31.579  31.127  1.00  0.00     0.049 A 
ATOM     48  H   UNL A   1      39.666  30.875  32.384  1.00  0.00     0.167 HD
ATOM     49  C   UNL A   1      42.754  29.197  34.999  1.00  0.00     0.031 A 
ATOM     50  C   UNL A   1      37.612  32.656  31.724  1.00  0.00     0.031 A 
ATOM     51  C   UNL A   1      42.291  30.382  35.670  1.00  0.00     0.049 A 
ATOM     52  C   UNL A   1      38.148  33.106  33.055  1.00  0.00     0.074 A 
ATOM     53  C   UNL A   1      42.743  30.931  36.857  1.00  0.00     0.029 A 
ATOM     54  N   UNL A   1      41.269  31.202  35.214  1.00  0.00    -0.354 N 
ATOM     55  N   UNL A   1      39.112  32.583  33.775  1.00  0.00    -0.248 NA
ATOM     56  C   UNL A   1      37.531  34.300  33.648  1.00  0.00     0.031 C 
ATOM     57  C   UNL A   1      41.960  32.053  37.145  1.00  0.00     0.029 A 
ATOM     58  C   UNL A   1      41.060  32.238  36.107  1.00  0.00     0.049 A 
ATOM     59  H   UNL A   1      40.767  31.066  34.378  1.00  0.00     0.167 HD
ATOM     60  C   UNL A   1      39.235  33.400  34.893  1.00  0.00     0.074 A 
ATOM     61  C   UNL A   1      38.258  34.460  34.746  1.00  0.00     0.031 C 
ATOM     62  C   UNL A   1      40.082  33.285  35.946  1.00  0.00     0.031 A 
BRANCH  49  63
ATOM     63  C   UNL A   1      43.825  28.368  35.660  1.00  0.00    -0.014 A 
ATOM     64  C   UNL A   1      43.497  27.336  36.559  1.00  0.00     0.010 A 
ATOM     65  C   UNL A   1      45.178  28.601  35.353  1.00  0.00     0.010 A 
ATOM     66  C   UNL A   1      44.501  26.584  37.171  1.00  0.00     0.020 A 
ATOM     67  C   UNL A   1      46.185  27.830  35.941  1.00  0.00     0.020 A 
ATOM     68  C   UNL A   1      45.841  26.838  36.861  1.00  0.00     0.054 A 
BRANCH  68  69
ATOM     69  S   UNL A   1      47.123  25.831  37.657  1.00  0.00     0.124 S 
ATOM     70  O   UNL A   1      47.229  26.464  38.969  1.00  0.00    -0.237 OA
ATOM     71  O   UNL A   1      46.532  24.496  37.650  1.00  0.00    -0.237 OA
ATOM     72  O   UNL A   1      48.285  25.999  36.788  1.00  0.00    -0.744 OA
ENDBRANCH  68  69
ENDBRANCH  49  63
BRANCH  50  73
ATOM     73  C   UNL A   1      36.504  33.391  31.056  1.00  0.00    -0.014 A 
ATOM     74  C   UNL A   1      36.727  34.069  29.845  1.00  0.00     0.010 A 
ATOM     75  C   UNL A   1      35.214  33.402  31.618  1.00  0.00     0.010 A 
ATOM     76  C   UNL A   1      35.685  34.760  29.216  1.00  0.00     0.020 A 
ATOM     77  C   UNL A   1      34.164  34.068  30.979  1.00  0.00     0.020 A 
ATOM     78  C   UNL A   1      34.409  34.752  29.787  1.00  0.00     0.054 A 
BRANCH  78  79
ATOM     79  S   UNL A   1      33.061  35.609  28.926  1.00  0.00     0.124 S 
ATOM     80  O   UNL A   1      33.788  36.570  28.104  1.00  0.00    -0.237 OA
ATOM     81  O   UNL A   1      32.408  34.522  28.202  1.00  0.00    -0.237 OA
ATOM     82  O   UNL A   1      32.272  36.183  30.014  1.00  0.00    -0.744 OA
ENDBRANCH  78  79
ENDBRANCH  50  73
BRANCH  62  83
ATOM     83  C   UNL A   1      40.017  34.350  37.008  1.00  0.00    -0.014 A 
ATOM     84  C   UNL A   1      40.777  35.527  36.908  1.00  0.00     0.010 A 
ATOM     85  C   UNL A   1      39.136  34.192  38.094  1.00  0.00     0.010 A 
ATOM     86  C   UNL A   1      40.681  36.514  37.894  1.00  0.00     0.020 A 
ATOM     87  C   UNL A   1      39.016  35.188  39.065  1.00  0.00     0.020 A 
ATOM     88  C   UNL A   1      39.801  36.338  38.966  1.00  0.00     0.054 A 
BRANCH  88  89
ATOM     89  S   UNL A   1      39.661  37.653  40.207  1.00  0.00     0.124 S 
ATOM     90  O   UNL A   1      39.953  36.934  41.445  1.00  0.00    -0.237 OA
ATOM     91  O   UNL A   1      40.682  38.607  39.780  1.00  0.00    -0.237 OA
ATOM     92  O   UNL A   1      38.284  38.118  40.066  1.00  0.00    -0.744 OA
ENDBRANCH  88  89
ENDBRANCH  62  83
ENDBRANCH  36  37
ENDBRANCH  28  31
ENDBRANCH  26  27
ENDBRANCH  25  26
ENDBRANCH   1  25
TORSDOF 20
ENDMDL
