MODEL 1
REMARK VINA RESULT:     -12.1      0.000      0.000
REMARK SMILES O=C(Nc1cccc(F)c1)N[C@@H]1C=C[C@@H](C(=O)NCCCNC(=O)c2ccc(-c3c4nc(c(-c5ccc(S(=O)(=O)[O-])cc5)c5ccc([nH]5)c(-c5ccc(S(=O)(=O)[O-])cc5)c5nc(c(-c6ccc(S(=O)(=O)[O-])cc6)c6ccc3[nH]6)C=C5)C=C4)cc2)C1
REMARK SMILES IDX 20 1 19 2 18 3 16 4 17 5 15 7 12 8 13 9 85 10 14 11 11 12
REMARK SMILES IDX 1 13 2 14 3 15 4 18 5 19 10 20 6 21 8 22 7 23 9 24 21 25
REMARK SMILES IDX 22 26 23 27 24 29 25 30 26 31 84 32 27 33 83 34 28 35 29 36
REMARK SMILES IDX 30 37 77 38 31 39 82 40 76 41 78 42 32 43 81 44 75 45 74 46
REMARK SMILES IDX 33 48 63 49 44 50 62 51 45 52 48 53 61 54 79 55 46 56 47 57
REMARK SMILES IDX 60 59 80 60 49 61 34 62 35 63 43 64 36 65 42 66 37 67 38 68
REMARK SMILES IDX 39 69 40 70 41 71 64 72 65 73 73 74 66 75 72 76 67 77 68 78
REMARK SMILES IDX 69 79 70 80 71 81 50 82 51 83 59 84 52 85 58 86 53 87 54 88
REMARK SMILES IDX 55 89 56 90 57 91
REMARK H PARENT 18 6 3 16 11 17 22 28 78 47 48 58
REMARK Flexibility Score: inf
ROOT
ATOM      1  C   UNL A   1      41.561  21.607  26.569  1.00  0.00     0.042 C 
ENDROOT
BRANCH   1   2
ATOM      2  C   UNL A   1      40.060  21.490  26.349  1.00  0.00     0.117 C 
BRANCH   2   3
ATOM      3  N   UNL A   1      39.394  22.781  26.347  1.00  0.00    -0.356 N 
ATOM      4  C   UNL A   1      38.149  23.150  25.939  1.00  0.00     0.227 C 
ATOM      5  O   UNL A   1      37.824  24.329  26.120  1.00  0.00    -0.274 OA
ATOM      6  H   UNL A   1      39.939  23.519  26.703  1.00  0.00     0.163 HD
BRANCH   4   7
ATOM      7  C   UNL A   1      37.161  22.174  25.299  1.00  0.00     0.103 C 
ATOM      8  C   UNL A   1      34.736  22.306  24.897  1.00  0.00     0.107 C 
ATOM      9  C   UNL A   1      35.533  22.590  23.662  1.00  0.00    -0.006 C 
ATOM     10  C   UNL A   1      35.793  22.094  25.991  1.00  0.00     0.047 C 
ATOM     11  C   UNL A   1      36.850  22.510  23.873  1.00  0.00    -0.016 C 
BRANCH   8  12
ATOM     12  N   UNL A   1      33.993  21.107  24.626  1.00  0.00    -0.332 N 
ATOM     13  O   UNL A   1      31.950  22.094  24.424  1.00  0.00    -0.248 OA
ATOM     14  C   UNL A   1      32.643  21.088  24.433  1.00  0.00     0.319 C 
ATOM     15  N   UNL A   1      32.111  19.866  24.117  1.00  0.00    -0.308 N 
ATOM     16  H   UNL A   1      31.231  19.890  23.677  1.00  0.00     0.171 HD
ATOM     17  H   UNL A   1      34.483  20.254  24.578  1.00  0.00     0.165 HD
BRANCH  15  18
ATOM     18  C   UNL A   1      32.642  18.583  24.331  1.00  0.00     0.045 A 
ATOM     19  C   UNL A   1      32.520  17.919  25.560  1.00  0.00     0.026 A 
ATOM     20  C   UNL A   1      33.292  17.952  23.272  1.00  0.00     0.065 A 
ATOM     21  C   UNL A   1      33.105  16.665  25.752  1.00  0.00     0.005 A 
ATOM     22  C   UNL A   1      33.887  16.712  23.479  1.00  0.00     0.125 A 
ATOM     23  C   UNL A   1      33.807  16.067  24.710  1.00  0.00     0.039 A 
ATOM     24  F   UNL A   1      34.567  16.133  22.481  1.00  0.00    -0.207 F 
ENDBRANCH  15  18
ENDBRANCH   8  12
ENDBRANCH   4   7
ENDBRANCH   2   3
ENDBRANCH   1   2
BRANCH   1  25
ATOM     25  C   UNL A   1      42.004  22.988  27.029  1.00  0.00     0.118 C 
BRANCH  25  26
ATOM     26  N   UNL A   1      42.260  23.891  25.915  1.00  0.00    -0.352 N 
ATOM     27  C   UNL A   1      42.163  25.258  25.843  1.00  0.00     0.251 C 
ATOM     28  H   UNL A   1      42.549  23.451  25.082  1.00  0.00     0.163 HD
ATOM     29  O   UNL A   1      42.224  25.810  24.747  1.00  0.00    -0.269 OA
BRANCH  27  30
ATOM     30  C   UNL A   1      41.968  26.060  27.070  1.00  0.00     0.039 A 
ATOM     31  C   UNL A   1      42.889  27.066  27.378  1.00  0.00     0.014 A 
ATOM     32  C   UNL A   1      40.892  25.814  27.927  1.00  0.00     0.014 A 
ATOM     33  C   UNL A   1      42.691  27.865  28.507  1.00  0.00     0.010 A 
ATOM     34  C   UNL A   1      40.647  26.668  28.997  1.00  0.00     0.010 A 
ATOM     35  C   UNL A   1      41.548  27.697  29.305  1.00  0.00    -0.014 A 
BRANCH  35  36
ATOM     36  C   UNL A   1      41.275  28.583  30.465  1.00  0.00     0.031 A 
ATOM     37  C   UNL A   1      42.117  28.484  31.710  1.00  0.00     0.074 A 
ATOM     38  C   UNL A   1      40.228  29.431  30.425  1.00  0.00     0.049 A 
ATOM     39  N   UNL A   1      42.005  29.142  32.837  1.00  0.00    -0.248 NA
ATOM     40  C   UNL A   1      43.210  27.499  31.696  1.00  0.00     0.031 C 
ATOM     41  C   UNL A   1      39.317  29.599  29.290  1.00  0.00     0.029 A 
ATOM     42  N   UNL A   1      39.754  30.312  31.363  1.00  0.00    -0.354 N 
ATOM     43  C   UNL A   1      42.996  28.635  33.669  1.00  0.00     0.074 A 
ATOM     44  C   UNL A   1      43.660  27.577  32.938  1.00  0.00     0.031 C 
ATOM     45  C   UNL A   1      38.426  30.558  29.581  1.00  0.00     0.029 A 
ATOM     46  C   UNL A   1      38.667  31.038  30.938  1.00  0.00     0.049 A 
ATOM     47  H   UNL A   1      40.155  30.415  32.257  1.00  0.00     0.167 HD
ATOM     48  C   UNL A   1      43.336  29.023  34.922  1.00  0.00     0.031 A 
ATOM     49  C   UNL A   1      37.945  31.985  31.568  1.00  0.00     0.031 A 
ATOM     50  C   UNL A   1      42.670  30.076  35.645  1.00  0.00     0.049 A 
ATOM     51  C   UNL A   1      38.318  32.379  32.970  1.00  0.00     0.074 A 
ATOM     52  C   UNL A   1      42.974  30.586  36.895  1.00  0.00     0.029 A 
ATOM     53  N   UNL A   1      41.560  30.770  35.188  1.00  0.00    -0.354 N 
ATOM     54  N   UNL A   1      39.302  31.938  33.717  1.00  0.00    -0.248 NA
ATOM     55  C   UNL A   1      37.485  33.405  33.612  1.00  0.00     0.031 C 
ATOM     56  C   UNL A   1      42.007  31.545  37.219  1.00  0.00     0.029 A 
ATOM     57  C   UNL A   1      41.144  31.681  36.144  1.00  0.00     0.049 A 
ATOM     58  H   UNL A   1      41.130  30.634  34.312  1.00  0.00     0.167 HD
ATOM     59  C   UNL A   1      39.227  32.656  34.905  1.00  0.00     0.074 A 
ATOM     60  C   UNL A   1      38.106  33.565  34.772  1.00  0.00     0.031 C 
ATOM     61  C   UNL A   1      40.019  32.574  36.003  1.00  0.00     0.031 A 
BRANCH  48  62
ATOM     62  C   UNL A   1      44.464  28.280  35.592  1.00  0.00    -0.014 A 
ATOM     63  C   UNL A   1      45.809  28.628  35.364  1.00  0.00     0.010 A 
ATOM     64  C   UNL A   1      44.176  27.209  36.458  1.00  0.00     0.010 A 
ATOM     65  C   UNL A   1      46.842  27.875  35.929  1.00  0.00     0.020 A 
ATOM     66  C   UNL A   1      45.207  26.475  37.053  1.00  0.00     0.020 A 
ATOM     67  C   UNL A   1      46.534  26.796  36.761  1.00  0.00     0.054 A 
BRANCH  67  68
ATOM     68  S   UNL A   1      47.894  25.818  37.458  1.00  0.00     0.124 S 
ATOM     69  O   UNL A   1      48.163  24.869  36.379  1.00  0.00    -0.237 OA
ATOM     70  O   UNL A   1      48.929  26.823  37.683  1.00  0.00    -0.237 OA
ATOM     71  O   UNL A   1      47.319  25.236  38.669  1.00  0.00    -0.744 OA
ENDBRANCH  67  68
ENDBRANCH  48  62
BRANCH  49  72
ATOM     72  C   UNL A   1      36.827  32.660  30.853  1.00  0.00    -0.014 A 
ATOM     73  C   UNL A   1      35.496  32.294  31.122  1.00  0.00     0.010 A 
ATOM     74  C   UNL A   1      37.079  33.692  29.930  1.00  0.00     0.010 A 
ATOM     75  C   UNL A   1      34.438  32.943  30.481  1.00  0.00     0.020 A 
ATOM     76  C   UNL A   1      36.022  34.362  29.305  1.00  0.00     0.020 A 
ATOM     77  C   UNL A   1      34.709  33.979  29.582  1.00  0.00     0.054 A 
BRANCH  77  78
ATOM     78  S   UNL A   1      33.313  34.853  28.818  1.00  0.00     0.124 S 
ATOM     79  O   UNL A   1      32.467  35.140  29.971  1.00  0.00    -0.237 OA
ATOM     80  O   UNL A   1      33.963  36.008  28.206  1.00  0.00    -0.237 OA
ATOM     81  O   UNL A   1      32.774  33.877  27.873  1.00  0.00    -0.744 OA
ENDBRANCH  77  78
ENDBRANCH  49  72
BRANCH  61  82
ATOM     82  C   UNL A   1      39.726  33.517  37.141  1.00  0.00    -0.014 A 
ATOM     83  C   UNL A   1      39.053  33.084  38.298  1.00  0.00     0.010 A 
ATOM     84  C   UNL A   1      40.178  34.848  37.071  1.00  0.00     0.010 A 
ATOM     85  C   UNL A   1      38.811  33.972  39.349  1.00  0.00     0.020 A 
ATOM     86  C   UNL A   1      39.966  35.731  38.133  1.00  0.00     0.020 A 
ATOM     87  C   UNL A   1      39.271  35.289  39.261  1.00  0.00     0.054 A 
BRANCH  87  88
ATOM     88  S   UNL A   1      38.985  36.410  40.659  1.00  0.00     0.124 S 
ATOM     89  O   UNL A   1      38.627  37.653  39.984  1.00  0.00    -0.237 OA
ATOM     90  O   UNL A   1      37.900  35.750  41.380  1.00  0.00    -0.237 OA
ATOM     91  O   UNL A   1      40.269  36.427  41.357  1.00  0.00    -0.744 OA
ENDBRANCH  87  88
ENDBRANCH  61  82
ENDBRANCH  35  36
ENDBRANCH  27  30
ENDBRANCH  25  26
ENDBRANCH   1  25
TORSDOF 15
ENDMDL
MODEL 2
REMARK VINA RESULT:     -11.9      4.672     10.205
REMARK SMILES O=C(Nc1cccc(F)c1)N[C@@H]1C=C[C@@H](C(=O)NCCCNC(=O)c2ccc(-c3c4nc(c(-c5ccc(S(=O)(=O)[O-])cc5)c5ccc([nH]5)c(-c5ccc(S(=O)(=O)[O-])cc5)c5nc(c(-c6ccc(S(=O)(=O)[O-])cc6)c6ccc3[nH]6)C=C5)C=C4)cc2)C1
REMARK SMILES IDX 20 1 19 2 18 3 16 4 17 5 15 7 12 8 13 9 85 10 14 11 11 12
REMARK SMILES IDX 1 13 2 14 3 15 4 18 5 19 10 20 6 21 8 22 7 23 9 24 21 25
REMARK SMILES IDX 22 26 23 27 24 29 25 30 26 31 84 32 27 33 83 34 28 35 29 36
REMARK SMILES IDX 30 37 77 38 31 39 82 40 76 41 78 42 32 43 81 44 75 45 74 46
REMARK SMILES IDX 33 48 63 49 44 50 62 51 45 52 48 53 61 54 79 55 46 56 47 57
REMARK SMILES IDX 60 59 80 60 49 61 34 62 35 63 43 64 36 65 42 66 37 67 38 68
REMARK SMILES IDX 39 69 40 70 41 71 64 72 65 73 73 74 66 75 72 76 67 77 68 78
REMARK SMILES IDX 69 79 70 80 71 81 50 82 51 83 59 84 52 85 58 86 53 87 54 88
REMARK SMILES IDX 55 89 56 90 57 91
REMARK H PARENT 18 6 3 16 11 17 22 28 78 47 48 58
REMARK Flexibility Score: inf
ROOT
ATOM      1  C   UNL A   1      33.686  28.264  25.538  1.00  0.00     0.042 C 
ENDROOT
BRANCH   1   2
ATOM      2  C   UNL A   1      33.162  29.430  24.713  1.00  0.00     0.117 C 
BRANCH   2   3
ATOM      3  N   UNL A   1      31.806  29.214  24.240  1.00  0.00    -0.356 N 
ATOM      4  C   UNL A   1      31.092  28.071  24.049  1.00  0.00     0.227 C 
ATOM      5  O   UNL A   1      29.915  28.196  23.692  1.00  0.00    -0.274 OA
ATOM      6  H   UNL A   1      31.317  30.039  24.017  1.00  0.00     0.163 HD
BRANCH   4   7
ATOM      7  C   UNL A   1      31.678  26.677  24.276  1.00  0.00     0.103 C 
ATOM      8  C   UNL A   1      30.630  24.505  24.770  1.00  0.00     0.107 C 
ATOM      9  C   UNL A   1      31.021  24.634  23.331  1.00  0.00    -0.006 C 
ATOM     10  C   UNL A   1      30.999  25.864  25.385  1.00  0.00     0.047 C 
ATOM     11  C   UNL A   1      31.600  25.807  23.059  1.00  0.00    -0.016 C 
BRANCH   8  12
ATOM     12  N   UNL A   1      31.425  23.437  25.307  1.00  0.00    -0.332 N 
ATOM     13  O   UNL A   1      30.480  23.411  27.380  1.00  0.00    -0.248 OA
ATOM     14  C   UNL A   1      31.306  22.984  26.588  1.00  0.00     0.319 C 
ATOM     15  N   UNL A   1      32.097  21.911  26.908  1.00  0.00    -0.308 N 
ATOM     16  H   UNL A   1      31.804  21.391  27.691  1.00  0.00     0.171 HD
ATOM     17  H   UNL A   1      32.091  23.009  24.721  1.00  0.00     0.165 HD
BRANCH  15  18
ATOM     18  C   UNL A   1      33.265  21.450  26.281  1.00  0.00     0.045 A 
ATOM     19  C   UNL A   1      34.484  22.138  26.368  1.00  0.00     0.026 A 
ATOM     20  C   UNL A   1      33.203  20.254  25.566  1.00  0.00     0.065 A 
ATOM     21  C   UNL A   1      35.612  21.675  25.688  1.00  0.00     0.005 A 
ATOM     22  C   UNL A   1      34.328  19.813  24.877  1.00  0.00     0.125 A 
ATOM     23  C   UNL A   1      35.528  20.515  24.924  1.00  0.00     0.039 A 
ATOM     24  F   UNL A   1      34.251  18.698  24.138  1.00  0.00    -0.207 F 
ENDBRANCH  15  18
ENDBRANCH   8  12
ENDBRANCH   4   7
ENDBRANCH   2   3
ENDBRANCH   1   2
BRANCH   1  25
ATOM     25  C   UNL A   1      33.578  28.481  27.040  1.00  0.00     0.118 C 
BRANCH  25  26
ATOM     26  N   UNL A   1      33.526  29.893  27.396  1.00  0.00    -0.352 N 
ATOM     27  C   UNL A   1      34.433  30.669  28.074  1.00  0.00     0.251 C 
ATOM     28  H   UNL A   1      32.712  30.365  27.105  1.00  0.00     0.163 HD
ATOM     29  O   UNL A   1      34.103  31.790  28.452  1.00  0.00    -0.269 OA
BRANCH  27  30
ATOM     30  C   UNL A   1      35.789  30.155  28.364  1.00  0.00     0.039 A 
ATOM     31  C   UNL A   1      36.760  30.194  27.359  1.00  0.00     0.014 A 
ATOM     32  C   UNL A   1      36.102  29.617  29.615  1.00  0.00     0.014 A 
ATOM     33  C   UNL A   1      38.059  29.758  27.632  1.00  0.00     0.010 A 
ATOM     34  C   UNL A   1      37.416  29.271  29.912  1.00  0.00     0.010 A 
ATOM     35  C   UNL A   1      38.407  29.328  28.923  1.00  0.00    -0.014 A 
BRANCH  35  36
ATOM     36  C   UNL A   1      39.798  28.934  29.259  1.00  0.00     0.031 A 
ATOM     37  C   UNL A   1      40.707  29.898  29.977  1.00  0.00     0.074 A 
ATOM     38  C   UNL A   1      40.268  27.736  28.861  1.00  0.00     0.049 A 
ATOM     39  N   UNL A   1      41.962  29.751  30.319  1.00  0.00    -0.248 NA
ATOM     40  C   UNL A   1      40.137  31.207  30.334  1.00  0.00     0.031 C 
ATOM     41  C   UNL A   1      39.498  26.725  28.131  1.00  0.00     0.029 A 
ATOM     42  N   UNL A   1      41.504  27.162  29.015  1.00  0.00    -0.354 N 
ATOM     43  C   UNL A   1      42.336  30.953  30.908  1.00  0.00     0.074 A 
ATOM     44  C   UNL A   1      41.193  31.836  30.826  1.00  0.00     0.031 C 
ATOM     45  C   UNL A   1      40.266  25.641  27.943  1.00  0.00     0.029 A 
ATOM     46  C   UNL A   1      41.594  25.895  28.492  1.00  0.00     0.049 A 
ATOM     47  H   UNL A   1      42.257  27.617  29.458  1.00  0.00     0.167 HD
ATOM     48  C   UNL A   1      43.517  31.289  31.482  1.00  0.00     0.031 A 
ATOM     49  C   UNL A   1      42.628  25.031  28.458  1.00  0.00     0.031 A 
ATOM     50  C   UNL A   1      44.652  30.406  31.559  1.00  0.00     0.049 A 
ATOM     51  C   UNL A   1      43.939  25.435  29.071  1.00  0.00     0.074 A 
ATOM     52  C   UNL A   1      45.874  30.627  32.170  1.00  0.00     0.029 A 
ATOM     53  N   UNL A   1      44.708  29.138  30.997  1.00  0.00    -0.354 N 
ATOM     54  N   UNL A   1      44.254  26.550  29.687  1.00  0.00    -0.248 NA
ATOM     55  C   UNL A   1      45.034  24.459  28.990  1.00  0.00     0.031 C 
ATOM     56  C   UNL A   1      46.690  29.517  31.922  1.00  0.00     0.029 A 
ATOM     57  C   UNL A   1      45.955  28.578  31.217  1.00  0.00     0.049 A 
ATOM     58  H   UNL A   1      43.971  28.703  30.513  1.00  0.00     0.167 HD
ATOM     59  C   UNL A   1      45.574  26.397  30.096  1.00  0.00     0.074 A 
ATOM     60  C   UNL A   1      45.994  25.078  29.665  1.00  0.00     0.031 C 
ATOM     61  C   UNL A   1      46.364  27.267  30.774  1.00  0.00     0.031 A 
BRANCH  48  62
ATOM     62  C   UNL A   1      43.639  32.682  32.044  1.00  0.00    -0.014 A 
ATOM     63  C   UNL A   1      43.437  32.942  33.413  1.00  0.00     0.010 A 
ATOM     64  C   UNL A   1      43.952  33.755  31.188  1.00  0.00     0.010 A 
ATOM     65  C   UNL A   1      43.473  34.251  33.900  1.00  0.00     0.020 A 
ATOM     66  C   UNL A   1      44.024  35.062  31.678  1.00  0.00     0.020 A 
ATOM     67  C   UNL A   1      43.755  35.304  33.027  1.00  0.00     0.054 A 
BRANCH  67  68
ATOM     68  S   UNL A   1      43.767  36.997  33.679  1.00  0.00     0.124 S 
ATOM     69  O   UNL A   1      44.912  36.959  34.587  1.00  0.00    -0.237 OA
ATOM     70  O   UNL A   1      43.945  37.804  32.475  1.00  0.00    -0.237 OA
ATOM     71  O   UNL A   1      42.464  37.129  34.328  1.00  0.00    -0.744 OA
ENDBRANCH  67  68
ENDBRANCH  48  62
BRANCH  49  72
ATOM     72  C   UNL A   1      42.442  23.679  27.864  1.00  0.00    -0.014 A 
ATOM     73  C   UNL A   1      42.836  23.433  26.537  1.00  0.00     0.010 A 
ATOM     74  C   UNL A   1      41.907  22.623  28.625  1.00  0.00     0.010 A 
ATOM     75  C   UNL A   1      42.697  22.159  25.980  1.00  0.00     0.020 A 
ATOM     76  C   UNL A   1      41.790  21.340  28.080  1.00  0.00     0.020 A 
ATOM     77  C   UNL A   1      42.181  21.119  26.758  1.00  0.00     0.054 A 
BRANCH  77  78
ATOM     78  S   UNL A   1      42.079  19.459  26.032  1.00  0.00     0.124 S 
ATOM     79  O   UNL A   1      40.651  19.336  25.754  1.00  0.00    -0.237 OA
ATOM     80  O   UNL A   1      42.944  19.575  24.861  1.00  0.00    -0.237 OA
ATOM     81  O   UNL A   1      42.589  18.590  27.091  1.00  0.00    -0.744 OA
ENDBRANCH  77  78
ENDBRANCH  49  72
BRANCH  61  82
ATOM     82  C   UNL A   1      47.757  26.811  31.124  1.00  0.00    -0.014 A 
ATOM     83  C   UNL A   1      48.004  26.007  32.251  1.00  0.00     0.010 A 
ATOM     84  C   UNL A   1      48.829  27.152  30.279  1.00  0.00     0.010 A 
ATOM     85  C   UNL A   1      49.301  25.580  32.544  1.00  0.00     0.020 A 
ATOM     86  C   UNL A   1      50.123  26.700  30.550  1.00  0.00     0.020 A 
ATOM     87  C   UNL A   1      50.353  25.927  31.690  1.00  0.00     0.054 A 
BRANCH  87  88
ATOM     88  S   UNL A   1      52.021  25.321  32.066  1.00  0.00     0.124 S 
ATOM     89  O   UNL A   1      51.799  23.884  32.198  1.00  0.00    -0.237 OA
ATOM     90  O   UNL A   1      52.783  25.735  30.891  1.00  0.00    -0.237 OA
ATOM     91  O   UNL A   1      52.371  26.014  33.305  1.00  0.00    -0.744 OA
ENDBRANCH  87  88
ENDBRANCH  61  82
ENDBRANCH  35  36
ENDBRANCH  27  30
ENDBRANCH  25  26
ENDBRANCH   1  25
TORSDOF 15
ENDMDL
MODEL 3
REMARK VINA RESULT:     -11.8      2.574      3.852
REMARK SMILES O=C(Nc1cccc(F)c1)N[C@@H]1C=C[C@@H](C(=O)NCCCNC(=O)c2ccc(-c3c4nc(c(-c5ccc(S(=O)(=O)[O-])cc5)c5ccc([nH]5)c(-c5ccc(S(=O)(=O)[O-])cc5)c5nc(c(-c6ccc(S(=O)(=O)[O-])cc6)c6ccc3[nH]6)C=C5)C=C4)cc2)C1
REMARK SMILES IDX 20 1 19 2 18 3 16 4 17 5 15 7 12 8 13 9 85 10 14 11 11 12
REMARK SMILES IDX 1 13 2 14 3 15 4 18 5 19 10 20 6 21 8 22 7 23 9 24 21 25
REMARK SMILES IDX 22 26 23 27 24 29 25 30 26 31 84 32 27 33 83 34 28 35 29 36
REMARK SMILES IDX 30 37 77 38 31 39 82 40 76 41 78 42 32 43 81 44 75 45 74 46
REMARK SMILES IDX 33 48 63 49 44 50 62 51 45 52 48 53 61 54 79 55 46 56 47 57
REMARK SMILES IDX 60 59 80 60 49 61 34 62 35 63 43 64 36 65 42 66 37 67 38 68
REMARK SMILES IDX 39 69 40 70 41 71 64 72 65 73 73 74 66 75 72 76 67 77 68 78
REMARK SMILES IDX 69 79 70 80 71 81 50 82 51 83 59 84 52 85 58 86 53 87 54 88
REMARK SMILES IDX 55 89 56 90 57 91
REMARK H PARENT 18 6 3 16 11 17 22 28 78 47 48 58
REMARK Flexibility Score: inf
ROOT
ATOM      1  C   UNL A   1      39.952  22.215  26.733  1.00  0.00     0.042 C 
ENDROOT
BRANCH   1   2
ATOM      2  C   UNL A   1      38.707  23.026  26.402  1.00  0.00     0.117 C 
BRANCH   2   3
ATOM      3  N   UNL A   1      38.146  22.682  25.108  1.00  0.00    -0.356 N 
ATOM      4  C   UNL A   1      36.956  23.004  24.529  1.00  0.00     0.227 C 
ATOM      5  O   UNL A   1      36.771  22.617  23.370  1.00  0.00    -0.274 OA
ATOM      6  H   UNL A   1      38.727  22.116  24.550  1.00  0.00     0.163 HD
BRANCH   4   7
ATOM      7  C   UNL A   1      35.880  23.823  25.243  1.00  0.00     0.103 C 
ATOM      8  C   UNL A   1      33.423  23.679  25.241  1.00  0.00     0.107 C 
ATOM      9  C   UNL A   1      34.027  23.069  26.467  1.00  0.00    -0.006 C 
ATOM     10  C   UNL A   1      34.631  24.120  24.402  1.00  0.00     0.047 C 
ATOM     11  C   UNL A   1      35.360  23.154  26.478  1.00  0.00    -0.016 C 
BRANCH   8  12
ATOM     12  N   UNL A   1      32.644  24.798  25.694  1.00  0.00    -0.332 N 
ATOM     13  O   UNL A   1      30.720  23.644  26.093  1.00  0.00    -0.248 OA
ATOM     14  C   UNL A   1      31.335  24.699  26.064  1.00  0.00     0.319 C 
ATOM     15  N   UNL A   1      30.769  25.855  26.536  1.00  0.00    -0.308 N 
ATOM     16  H   UNL A   1      29.961  25.734  27.085  1.00  0.00     0.171 HD
ATOM     17  H   UNL A   1      33.076  25.681  25.738  1.00  0.00     0.165 HD
BRANCH  15  18
ATOM     18  C   UNL A   1      31.176  27.185  26.346  1.00  0.00     0.045 A 
ATOM     19  C   UNL A   1      31.757  27.944  27.372  1.00  0.00     0.026 A 
ATOM     20  C   UNL A   1      31.010  27.753  25.083  1.00  0.00     0.065 A 
ATOM     21  C   UNL A   1      32.102  29.281  27.160  1.00  0.00     0.005 A 
ATOM     22  C   UNL A   1      31.340  29.090  24.889  1.00  0.00     0.125 A 
ATOM     23  C   UNL A   1      31.876  29.861  25.916  1.00  0.00     0.039 A 
ATOM     24  F   UNL A   1      31.120  29.654  23.694  1.00  0.00    -0.207 F 
ENDBRANCH  15  18
ENDBRANCH   8  12
ENDBRANCH   4   7
ENDBRANCH   2   3
ENDBRANCH   1   2
BRANCH   1  25
ATOM     25  C   UNL A   1      41.113  23.058  27.240  1.00  0.00     0.118 C 
BRANCH  25  26
ATOM     26  N   UNL A   1      41.802  23.761  26.166  1.00  0.00    -0.352 N 
ATOM     27  C   UNL A   1      42.007  25.105  25.977  1.00  0.00     0.251 C 
ATOM     28  H   UNL A   1      42.180  23.181  25.466  1.00  0.00     0.163 HD
ATOM     29  O   UNL A   1      42.434  25.503  24.896  1.00  0.00    -0.269 OA
BRANCH  27  30
ATOM     30  C   UNL A   1      41.700  26.068  27.057  1.00  0.00     0.039 A 
ATOM     31  C   UNL A   1      40.654  25.787  27.940  1.00  0.00     0.014 A 
ATOM     32  C   UNL A   1      42.427  27.254  27.191  1.00  0.00     0.014 A 
ATOM     33  C   UNL A   1      40.384  26.663  28.995  1.00  0.00     0.010 A 
ATOM     34  C   UNL A   1      42.218  28.076  28.293  1.00  0.00     0.010 A 
ATOM     35  C   UNL A   1      41.188  27.795  29.202  1.00  0.00    -0.014 A 
BRANCH  35  36
ATOM     36  C   UNL A   1      40.972  28.699  30.360  1.00  0.00     0.031 A 
ATOM     37  C   UNL A   1      41.836  28.579  31.587  1.00  0.00     0.074 A 
ATOM     38  C   UNL A   1      39.954  29.582  30.337  1.00  0.00     0.049 A 
ATOM     39  N   UNL A   1      41.773  29.248  32.711  1.00  0.00    -0.248 NA
ATOM     40  C   UNL A   1      42.894  27.556  31.557  1.00  0.00     0.031 C 
ATOM     41  C   UNL A   1      39.024  29.774  29.221  1.00  0.00     0.029 A 
ATOM     42  N   UNL A   1      39.532  30.486  31.278  1.00  0.00    -0.354 N 
ATOM     43  C   UNL A   1      42.764  28.712  33.526  1.00  0.00     0.074 A 
ATOM     44  C   UNL A   1      43.374  27.628  32.789  1.00  0.00     0.031 C 
ATOM     45  C   UNL A   1      38.173  30.765  29.524  1.00  0.00     0.029 A 
ATOM     46  C   UNL A   1      38.461  31.246  30.872  1.00  0.00     0.049 A 
ATOM     47  H   UNL A   1      39.955  30.581  32.162  1.00  0.00     0.167 HD
ATOM     48  C   UNL A   1      43.145  29.098  34.768  1.00  0.00     0.031 A 
ATOM     49  C   UNL A   1      37.786  32.222  31.510  1.00  0.00     0.031 A 
ATOM     50  C   UNL A   1      42.532  30.178  35.497  1.00  0.00     0.049 A 
ATOM     51  C   UNL A   1      38.203  32.612  32.901  1.00  0.00     0.074 A 
ATOM     52  C   UNL A   1      42.881  30.686  36.736  1.00  0.00     0.029 A 
ATOM     53  N   UNL A   1      41.436  30.907  35.059  1.00  0.00    -0.354 N 
ATOM     54  N   UNL A   1      39.189  32.142  33.629  1.00  0.00    -0.248 NA
ATOM     55  C   UNL A   1      37.421  33.671  33.552  1.00  0.00     0.031 C 
ATOM     56  C   UNL A   1      41.955  31.680  37.074  1.00  0.00     0.029 A 
ATOM     57  C   UNL A   1      41.073  31.838  36.017  1.00  0.00     0.049 A 
ATOM     58  H   UNL A   1      40.983  30.780  34.194  1.00  0.00     0.167 HD
ATOM     59  C   UNL A   1      39.164  32.871  34.813  1.00  0.00     0.074 A 
ATOM     60  C   UNL A   1      38.073  33.818  34.698  1.00  0.00     0.031 C 
ATOM     61  C   UNL A   1      39.978  32.770  35.894  1.00  0.00     0.031 A 
BRANCH  48  62
ATOM     62  C   UNL A   1      44.261  28.321  35.419  1.00  0.00    -0.014 A 
ATOM     63  C   UNL A   1      43.998  27.220  36.256  1.00  0.00     0.010 A 
ATOM     64  C   UNL A   1      45.598  28.703  35.197  1.00  0.00     0.010 A 
ATOM     65  C   UNL A   1      45.042  26.565  36.915  1.00  0.00     0.020 A 
ATOM     66  C   UNL A   1      46.647  28.027  35.827  1.00  0.00     0.020 A 
ATOM     67  C   UNL A   1      46.359  26.980  36.705  1.00  0.00     0.054 A 
BRANCH  67  68
ATOM     68  S   UNL A   1      47.692  26.131  37.595  1.00  0.00     0.124 S 
ATOM     69  O   UNL A   1      47.369  26.443  38.986  1.00  0.00    -0.237 OA
ATOM     70  O   UNL A   1      47.502  24.737  37.204  1.00  0.00    -0.237 OA
ATOM     71  O   UNL A   1      48.908  26.759  37.084  1.00  0.00    -0.744 OA
ENDBRANCH  67  68
ENDBRANCH  48  62
BRANCH  49  72
ATOM     72  C   UNL A   1      36.677  32.930  30.814  1.00  0.00    -0.014 A 
ATOM     73  C   UNL A   1      35.343  32.683  31.184  1.00  0.00     0.010 A 
ATOM     74  C   UNL A   1      36.944  33.878  29.809  1.00  0.00     0.010 A 
ATOM     75  C   UNL A   1      34.296  33.366  30.560  1.00  0.00     0.020 A 
ATOM     76  C   UNL A   1      35.900  34.583  29.201  1.00  0.00     0.020 A 
ATOM     77  C   UNL A   1      34.583  34.318  29.577  1.00  0.00     0.054 A 
BRANCH  77  78
ATOM     78  S   UNL A   1      33.208  35.242  28.836  1.00  0.00     0.124 S 
ATOM     79  O   UNL A   1      32.597  34.237  27.972  1.00  0.00    -0.237 OA
ATOM     80  O   UNL A   1      32.425  35.633  30.005  1.00  0.00    -0.237 OA
ATOM     81  O   UNL A   1      33.871  36.345  28.142  1.00  0.00    -0.744 OA
ENDBRANCH  77  78
ENDBRANCH  49  72
BRANCH  61  82
ATOM     82  C   UNL A   1      39.743  33.730  37.031  1.00  0.00    -0.014 A 
ATOM     83  C   UNL A   1      38.893  33.403  38.103  1.00  0.00     0.010 A 
ATOM     84  C   UNL A   1      40.426  34.960  37.050  1.00  0.00     0.010 A 
ATOM     85  C   UNL A   1      38.707  34.302  39.157  1.00  0.00     0.020 A 
ATOM     86  C   UNL A   1      40.267  35.848  38.117  1.00  0.00     0.020 A 
ATOM     87  C   UNL A   1      39.397  35.518  39.158  1.00  0.00     0.054 A 
BRANCH  87  88
ATOM     88  S   UNL A   1      39.175  36.647  40.560  1.00  0.00     0.124 S 
ATOM     89  O   UNL A   1      40.548  36.839  41.017  1.00  0.00    -0.237 OA
ATOM     90  O   UNL A   1      38.550  37.811  39.937  1.00  0.00    -0.237 OA
ATOM     91  O   UNL A   1      38.312  35.900  41.474  1.00  0.00    -0.744 OA
ENDBRANCH  87  88
ENDBRANCH  61  82
ENDBRANCH  35  36
ENDBRANCH  27  30
ENDBRANCH  25  26
ENDBRANCH   1  25
TORSDOF 15
ENDMDL
