MODEL 1
REMARK VINA RESULT:     -13.5      0.000      0.000
REMARK SMILES Cc1cccc(-c2ccc(Cl)c(C(=O)NCCCNC(=O)c3ccc(-c4c5nc(c(-c6ccc(S(=O)(=O)[O-])cc6)c6ccc([nH]6)c(-c6ccc(S(=O)(=O)[O-])cc6)c6nc(c(-c7ccc(S(=O)(=O)[O-])cc7)c7ccc4[nH]7)C=C6)C=C5)cc3)c2)c1
REMARK SMILES IDX 18 1 17 2 16 3 15 4 13 5 14 6 12 8 7 9 8 10 82 11 9 12 10 13
REMARK SMILES IDX 11 14 6 15 1 16 2 17 3 18 83 19 4 20 5 21 19 22 20 23 21 25
REMARK SMILES IDX 22 26 23 27 81 28 24 29 80 30 25 31 26 32 27 33 74 34 28 35
REMARK SMILES IDX 79 36 73 37 75 38 29 39 78 40 72 41 71 42 30 44 60 45 41 46
REMARK SMILES IDX 59 47 42 48 45 49 58 50 76 51 43 52 44 53 57 55 77 56 46 57
REMARK SMILES IDX 31 58 32 59 40 60 33 61 39 62 34 63 35 64 36 65 37 66 38 67
REMARK SMILES IDX 61 68 62 69 70 70 63 71 69 72 64 73 65 74 66 75 67 76 68 77
REMARK SMILES IDX 47 78 48 79 56 80 49 81 55 82 50 83 51 84 52 85 53 86 54 87
REMARK H PARENT 15 7 19 24 75 43 45 54
REMARK Flexibility Score: inf
ROOT
ATOM      1  C   UNL A   1      34.565  29.752  27.230  1.00  0.00     0.118 C 
ENDROOT
BRANCH   1   2
ATOM      2  C   UNL A   1      33.046  29.869  27.138  1.00  0.00     0.042 C 
BRANCH   2   3
ATOM      3  C   UNL A   1      32.604  30.147  25.709  1.00  0.00     0.118 C 
BRANCH   3   4
ATOM      4  N   UNL A   1      33.348  29.403  24.695  1.00  0.00    -0.352 N 
ATOM      5  C   UNL A   1      33.522  28.101  24.316  1.00  0.00     0.252 C 
ATOM      6  O   UNL A   1      34.225  27.924  23.313  1.00  0.00    -0.269 OA
ATOM      7  H   UNL A   1      33.872  30.010  24.125  1.00  0.00     0.163 HD
BRANCH   5   8
ATOM      8  C   UNL A   1      33.041  26.879  25.027  1.00  0.00     0.059 A 
ATOM      9  C   UNL A   1      33.718  24.593  25.715  1.00  0.00    -0.017 A 
ATOM     10  C   UNL A   1      32.449  24.408  26.268  1.00  0.00     0.010 A 
ATOM     11  C   UNL A   1      34.025  25.861  25.188  1.00  0.00     0.024 A 
ATOM     12  C   UNL A   1      31.464  25.374  26.096  1.00  0.00     0.022 A 
ATOM     13  C   UNL A   1      31.732  26.556  25.386  1.00  0.00     0.053 A 
ATOM     14  Cl  UNL A   1      30.318  27.316  24.765  1.00  0.00    -0.083 Cl
BRANCH   9  15
ATOM     15  C   UNL A   1      34.586  23.423  25.496  1.00  0.00    -0.018 A 
ATOM     16  C   UNL A   1      38.314  22.667  25.948  1.00  0.00     0.044 C 
ATOM     17  C   UNL A   1      36.861  22.488  25.626  1.00  0.00    -0.051 A 
ATOM     18  C   UNL A   1      36.377  21.271  25.144  1.00  0.00     0.003 A 
ATOM     19  C   UNL A   1      35.962  23.546  25.792  1.00  0.00     0.012 A 
ATOM     20  C   UNL A   1      35.017  21.121  24.855  1.00  0.00     0.001 A 
ATOM     21  C   UNL A   1      34.124  22.187  25.034  1.00  0.00     0.009 A 
ENDBRANCH   9  15
ENDBRANCH   5   8
ENDBRANCH   3   4
ENDBRANCH   2   3
ENDBRANCH   1   2
BRANCH   1  22
ATOM     22  N   UNL A   1      35.268  30.983  27.578  1.00  0.00    -0.352 N 
ATOM     23  C   UNL A   1      36.530  31.106  28.159  1.00  0.00     0.251 C 
ATOM     24  H   UNL A   1      34.797  31.824  27.378  1.00  0.00     0.163 HD
ATOM     25  O   UNL A   1      36.955  32.158  28.562  1.00  0.00    -0.269 OA
BRANCH  23  26
ATOM     26  C   UNL A   1      37.358  29.875  28.208  1.00  0.00     0.039 A 
ATOM     27  C   UNL A   1      37.382  29.146  29.401  1.00  0.00     0.014 A 
ATOM     28  C   UNL A   1      38.296  29.646  27.206  1.00  0.00     0.014 A 
ATOM     29  C   UNL A   1      38.474  28.324  29.676  1.00  0.00     0.010 A 
ATOM     30  C   UNL A   1      39.428  28.926  27.528  1.00  0.00     0.010 A 
ATOM     31  C   UNL A   1      39.541  28.301  28.781  1.00  0.00    -0.014 A 
BRANCH  31  32
ATOM     32  C   UNL A   1      40.845  27.706  29.065  1.00  0.00     0.031 A 
ATOM     33  C   UNL A   1      41.093  26.288  28.708  1.00  0.00     0.074 A 
ATOM     34  C   UNL A   1      41.864  28.473  29.517  1.00  0.00     0.049 A 
ATOM     35  N   UNL A   1      42.080  25.575  29.141  1.00  0.00    -0.248 NA
ATOM     36  C   UNL A   1      40.177  25.531  27.860  1.00  0.00     0.031 C 
ATOM     37  C   UNL A   1      43.288  28.142  29.472  1.00  0.00     0.029 A 
ATOM     38  N   UNL A   1      41.814  29.618  30.314  1.00  0.00    -0.354 N 
ATOM     39  C   UNL A   1      42.110  24.416  28.396  1.00  0.00     0.074 A 
ATOM     40  C   UNL A   1      40.851  24.393  27.693  1.00  0.00     0.031 C 
ATOM     41  C   UNL A   1      43.922  28.844  30.422  1.00  0.00     0.029 A 
ATOM     42  C   UNL A   1      42.902  29.524  31.201  1.00  0.00     0.049 A 
ATOM     43  H   UNL A   1      41.151  30.344  30.266  1.00  0.00     0.167 HD
ATOM     44  C   UNL A   1      43.258  23.681  28.338  1.00  0.00     0.031 A 
ATOM     45  C   UNL A   1      42.786  29.466  32.560  1.00  0.00     0.031 A 
ATOM     46  C   UNL A   1      44.250  24.157  29.301  1.00  0.00     0.049 A 
ATOM     47  C   UNL A   1      43.417  28.226  33.159  1.00  0.00     0.074 A 
ATOM     48  C   UNL A   1      45.391  24.934  29.188  1.00  0.00     0.029 A 
ATOM     49  N   UNL A   1      43.968  24.069  30.659  1.00  0.00    -0.354 N 
ATOM     50  N   UNL A   1      43.779  27.186  32.461  1.00  0.00    -0.248 NA
ATOM     51  C   UNL A   1      43.637  28.033  34.592  1.00  0.00     0.031 C 
ATOM     52  C   UNL A   1      45.730  25.401  30.486  1.00  0.00     0.029 A 
ATOM     53  C   UNL A   1      44.818  24.878  31.386  1.00  0.00     0.049 A 
ATOM     54  H   UNL A   1      43.258  23.508  31.050  1.00  0.00     0.167 HD
ATOM     55  C   UNL A   1      44.248  26.208  33.295  1.00  0.00     0.074 A 
ATOM     56  C   UNL A   1      44.153  26.792  34.622  1.00  0.00     0.031 C 
ATOM     57  C   UNL A   1      44.661  24.994  32.830  1.00  0.00     0.031 A 
BRANCH  44  58
ATOM     58  C   UNL A   1      43.580  22.724  27.203  1.00  0.00    -0.014 A 
ATOM     59  C   UNL A   1      42.714  21.642  26.935  1.00  0.00     0.010 A 
ATOM     60  C   UNL A   1      44.754  22.771  26.426  1.00  0.00     0.010 A 
ATOM     61  C   UNL A   1      43.047  20.623  26.026  1.00  0.00     0.020 A 
ATOM     62  C   UNL A   1      45.116  21.747  25.538  1.00  0.00     0.020 A 
ATOM     63  C   UNL A   1      44.265  20.666  25.354  1.00  0.00     0.054 A 
BRANCH  63  64
ATOM     64  S   UNL A   1      44.732  19.306  24.252  1.00  0.00     0.124 S 
ATOM     65  O   UNL A   1      46.146  19.118  24.566  1.00  0.00    -0.237 OA
ATOM     66  O   UNL A   1      43.841  18.233  24.685  1.00  0.00    -0.237 OA
ATOM     67  O   UNL A   1      44.464  19.835  22.916  1.00  0.00    -0.744 OA
ENDBRANCH  63  64
ENDBRANCH  44  58
BRANCH  45  68
ATOM     68  C   UNL A   1      41.590  30.162  33.104  1.00  0.00    -0.014 A 
ATOM     69  C   UNL A   1      41.649  31.569  33.188  1.00  0.00     0.010 A 
ATOM     70  C   UNL A   1      40.334  29.530  33.080  1.00  0.00     0.010 A 
ATOM     71  C   UNL A   1      40.491  32.334  33.043  1.00  0.00     0.020 A 
ATOM     72  C   UNL A   1      39.169  30.297  32.944  1.00  0.00     0.020 A 
ATOM     73  C   UNL A   1      39.269  31.689  32.849  1.00  0.00     0.054 A 
BRANCH  73  74
ATOM     74  S   UNL A   1      37.875  32.681  32.233  1.00  0.00     0.124 S 
ATOM     75  O   UNL A   1      38.489  33.453  31.158  1.00  0.00    -0.237 OA
ATOM     76  O   UNL A   1      36.940  31.640  31.810  1.00  0.00    -0.237 OA
ATOM     77  O   UNL A   1      37.467  33.448  33.405  1.00  0.00    -0.744 OA
ENDBRANCH  73  74
ENDBRANCH  45  68
BRANCH  57  78
ATOM     78  C   UNL A   1      45.023  23.810  33.688  1.00  0.00    -0.014 A 
ATOM     79  C   UNL A   1      44.125  22.784  34.023  1.00  0.00     0.010 A 
ATOM     80  C   UNL A   1      46.373  23.639  34.075  1.00  0.00     0.010 A 
ATOM     81  C   UNL A   1      44.541  21.671  34.767  1.00  0.00     0.020 A 
ATOM     82  C   UNL A   1      46.806  22.514  34.782  1.00  0.00     0.020 A 
ATOM     83  C   UNL A   1      45.878  21.546  35.147  1.00  0.00     0.054 A 
BRANCH  83  84
ATOM     84  S   UNL A   1      46.422  20.078  36.059  1.00  0.00     0.124 S 
ATOM     85  O   UNL A   1      45.766  20.268  37.351  1.00  0.00    -0.237 OA
ATOM     86  O   UNL A   1      45.903  18.976  35.251  1.00  0.00    -0.237 OA
ATOM     87  O   UNL A   1      47.877  20.203  36.069  1.00  0.00    -0.744 OA
ENDBRANCH  83  84
ENDBRANCH  57  78
ENDBRANCH  31  32
ENDBRANCH  23  26
ENDBRANCH   1  22
TORSDOF 14
ENDMDL
MODEL 2
REMARK VINA RESULT:     -13.3      4.501     11.407
REMARK SMILES Cc1cccc(-c2ccc(Cl)c(C(=O)NCCCNC(=O)c3ccc(-c4c5nc(c(-c6ccc(S(=O)(=O)[O-])cc6)c6ccc([nH]6)c(-c6ccc(S(=O)(=O)[O-])cc6)c6nc(c(-c7ccc(S(=O)(=O)[O-])cc7)c7ccc4[nH]7)C=C6)C=C5)cc3)c2)c1
REMARK SMILES IDX 18 1 17 2 16 3 15 4 13 5 14 6 12 8 7 9 8 10 82 11 9 12 10 13
REMARK SMILES IDX 11 14 6 15 1 16 2 17 3 18 83 19 4 20 5 21 19 22 20 23 21 25
REMARK SMILES IDX 22 26 23 27 81 28 24 29 80 30 25 31 26 32 27 33 74 34 28 35
REMARK SMILES IDX 79 36 73 37 75 38 29 39 78 40 72 41 71 42 30 44 60 45 41 46
REMARK SMILES IDX 59 47 42 48 45 49 58 50 76 51 43 52 44 53 57 55 77 56 46 57
REMARK SMILES IDX 31 58 32 59 40 60 33 61 39 62 34 63 35 64 36 65 37 66 38 67
REMARK SMILES IDX 61 68 62 69 70 70 63 71 69 72 64 73 65 74 66 75 67 76 68 77
REMARK SMILES IDX 47 78 48 79 56 80 49 81 55 82 50 83 51 84 52 85 53 86 54 87
REMARK H PARENT 15 7 19 24 75 43 45 54
REMARK Flexibility Score: inf
ROOT
ATOM      1  C   UNL A   1      37.956  23.483  26.135  1.00  0.00     0.118 C 
ENDROOT
BRANCH   1   2
ATOM      2  C   UNL A   1      37.535  22.530  25.021  1.00  0.00     0.042 C 
BRANCH   2   3
ATOM      3  C   UNL A   1      36.916  21.261  25.590  1.00  0.00     0.118 C 
BRANCH   3   4
ATOM      4  N   UNL A   1      35.638  21.468  26.265  1.00  0.00    -0.352 N 
ATOM      5  C   UNL A   1      34.420  22.024  25.986  1.00  0.00     0.252 C 
ATOM      6  O   UNL A   1      33.564  21.914  26.872  1.00  0.00    -0.269 OA
ATOM      7  H   UNL A   1      35.658  21.105  27.180  1.00  0.00     0.163 HD
BRANCH   5   8
ATOM      8  C   UNL A   1      34.045  22.822  24.781  1.00  0.00     0.059 A 
ATOM      9  C   UNL A   1      33.863  25.143  23.921  1.00  0.00    -0.017 A 
ATOM     10  C   UNL A   1      33.385  24.633  22.711  1.00  0.00     0.010 A 
ATOM     11  C   UNL A   1      34.277  24.222  24.902  1.00  0.00     0.024 A 
ATOM     12  C   UNL A   1      33.122  23.274  22.581  1.00  0.00     0.022 A 
ATOM     13  C   UNL A   1      33.352  22.391  23.648  1.00  0.00     0.053 A 
ATOM     14  Cl  UNL A   1      32.443  20.933  23.539  1.00  0.00    -0.083 Cl
BRANCH   9  15
ATOM     15  C   UNL A   1      33.705  26.579  24.211  1.00  0.00    -0.018 A 
ATOM     16  C   UNL A   1      33.812  28.755  27.362  1.00  0.00     0.044 C 
ATOM     17  C   UNL A   1      33.691  28.349  25.924  1.00  0.00    -0.051 A 
ATOM     18  C   UNL A   1      33.441  29.294  24.929  1.00  0.00     0.003 A 
ATOM     19  C   UNL A   1      33.816  27.005  25.553  1.00  0.00     0.012 A 
ATOM     20  C   UNL A   1      33.339  28.897  23.592  1.00  0.00     0.001 A 
ATOM     21  C   UNL A   1      33.475  27.550  23.232  1.00  0.00     0.009 A 
ENDBRANCH   9  15
ENDBRANCH   5   8
ENDBRANCH   3   4
ENDBRANCH   2   3
ENDBRANCH   1   2
BRANCH   1  22
ATOM     22  N   UNL A   1      39.127  23.071  26.902  1.00  0.00    -0.352 N 
ATOM     23  C   UNL A   1      40.010  23.888  27.609  1.00  0.00     0.251 C 
ATOM     24  H   UNL A   1      39.316  22.105  26.924  1.00  0.00     0.163 HD
ATOM     25  O   UNL A   1      41.042  23.474  28.071  1.00  0.00    -0.269 OA
BRANCH  23  26
ATOM     26  C   UNL A   1      39.588  25.296  27.816  1.00  0.00     0.039 A 
ATOM     27  C   UNL A   1      40.068  26.262  26.927  1.00  0.00     0.014 A 
ATOM     28  C   UNL A   1      38.993  25.657  29.020  1.00  0.00     0.014 A 
ATOM     29  C   UNL A   1      40.136  27.593  27.338  1.00  0.00     0.010 A 
ATOM     30  C   UNL A   1      39.167  26.951  29.468  1.00  0.00     0.010 A 
ATOM     31  C   UNL A   1      39.780  27.911  28.647  1.00  0.00    -0.014 A 
BRANCH  31  32
ATOM     32  C   UNL A   1      40.053  29.196  29.288  1.00  0.00     0.031 A 
ATOM     33  C   UNL A   1      39.041  30.278  29.213  1.00  0.00     0.074 A 
ATOM     34  C   UNL A   1      41.151  29.356  30.062  1.00  0.00     0.049 A 
ATOM     35  N   UNL A   1      39.261  31.520  29.490  1.00  0.00    -0.248 NA
ATOM     36  C   UNL A   1      37.681  30.034  28.741  1.00  0.00     0.031 C 
ATOM     37  C   UNL A   1      41.363  30.399  31.065  1.00  0.00     0.029 A 
ATOM     38  N   UNL A   1      42.399  28.741  29.953  1.00  0.00    -0.354 N 
ATOM     39  C   UNL A   1      38.037  32.152  29.550  1.00  0.00     0.074 A 
ATOM     40  C   UNL A   1      37.105  31.214  28.976  1.00  0.00     0.031 C 
ATOM     41  C   UNL A   1      42.682  30.558  31.247  1.00  0.00     0.029 A 
ATOM     42  C   UNL A   1      43.350  29.732  30.257  1.00  0.00     0.049 A 
ATOM     43  H   UNL A   1      42.578  27.804  29.713  1.00  0.00     0.167 HD
ATOM     44  C   UNL A   1      37.922  33.336  30.218  1.00  0.00     0.031 A 
ATOM     45  C   UNL A   1      44.310  30.171  29.391  1.00  0.00     0.031 A 
ATOM     46  C   UNL A   1      39.230  33.873  30.591  1.00  0.00     0.049 A 
ATOM     47  C   UNL A   1      44.242  31.662  29.131  1.00  0.00     0.074 A 
ATOM     48  C   UNL A   1      39.943  33.902  31.779  1.00  0.00     0.029 A 
ATOM     49  N   UNL A   1      40.121  34.238  29.589  1.00  0.00    -0.354 N 
ATOM     50  N   UNL A   1      43.225  32.410  29.457  1.00  0.00    -0.248 NA
ATOM     51  C   UNL A   1      45.282  32.417  28.436  1.00  0.00     0.031 C 
ATOM     52  C   UNL A   1      41.299  34.187  31.465  1.00  0.00     0.029 A 
ATOM     53  C   UNL A   1      41.398  34.364  30.096  1.00  0.00     0.049 A 
ATOM     54  H   UNL A   1      39.874  34.387  28.646  1.00  0.00     0.167 HD
ATOM     55  C   UNL A   1      43.436  33.692  29.029  1.00  0.00     0.074 A 
ATOM     56  C   UNL A   1      44.748  33.651  28.406  1.00  0.00     0.031 C 
ATOM     57  C   UNL A   1      42.510  34.678  29.208  1.00  0.00     0.031 A 
BRANCH  44  58
ATOM     58  C   UNL A   1      36.609  33.851  30.784  1.00  0.00    -0.014 A 
ATOM     59  C   UNL A   1      35.486  33.977  29.940  1.00  0.00     0.010 A 
ATOM     60  C   UNL A   1      36.434  34.314  32.103  1.00  0.00     0.010 A 
ATOM     61  C   UNL A   1      34.304  34.615  30.354  1.00  0.00     0.020 A 
ATOM     62  C   UNL A   1      35.274  34.980  32.524  1.00  0.00     0.020 A 
ATOM     63  C   UNL A   1      34.217  35.142  31.640  1.00  0.00     0.054 A 
BRANCH  63  64
ATOM     64  S   UNL A   1      32.728  36.043  32.142  1.00  0.00     0.124 S 
ATOM     65  O   UNL A   1      32.394  36.796  30.936  1.00  0.00    -0.237 OA
ATOM     66  O   UNL A   1      31.809  34.962  32.487  1.00  0.00    -0.237 OA
ATOM     67  O   UNL A   1      33.179  36.858  33.269  1.00  0.00    -0.744 OA
ENDBRANCH  63  64
ENDBRANCH  44  58
BRANCH  45  68
ATOM     68  C   UNL A   1      44.756  29.153  28.402  1.00  0.00    -0.014 A 
ATOM     69  C   UNL A   1      45.638  28.154  28.864  1.00  0.00     0.010 A 
ATOM     70  C   UNL A   1      43.994  28.912  27.245  1.00  0.00     0.010 A 
ATOM     71  C   UNL A   1      45.609  26.874  28.308  1.00  0.00     0.020 A 
ATOM     72  C   UNL A   1      43.971  27.630  26.679  1.00  0.00     0.020 A 
ATOM     73  C   UNL A   1      44.721  26.605  27.266  1.00  0.00     0.054 A 
BRANCH  73  74
ATOM     74  S   UNL A   1      44.389  24.864  26.864  1.00  0.00     0.124 S 
ATOM     75  O   UNL A   1      43.184  24.953  26.046  1.00  0.00    -0.237 OA
ATOM     76  O   UNL A   1      45.611  24.491  26.151  1.00  0.00    -0.237 OA
ATOM     77  O   UNL A   1      44.218  24.244  28.173  1.00  0.00    -0.744 OA
ENDBRANCH  73  74
ENDBRANCH  45  68
BRANCH  57  78
ATOM     78  C   UNL A   1      42.587  36.062  28.617  1.00  0.00    -0.014 A 
ATOM     79  C   UNL A   1      41.893  36.459  27.463  1.00  0.00     0.010 A 
ATOM     80  C   UNL A   1      43.288  37.065  29.327  1.00  0.00     0.010 A 
ATOM     81  C   UNL A   1      41.949  37.781  27.002  1.00  0.00     0.020 A 
ATOM     82  C   UNL A   1      43.318  38.395  28.898  1.00  0.00     0.020 A 
ATOM     83  C   UNL A   1      42.667  38.740  27.719  1.00  0.00     0.054 A 
BRANCH  83  84
ATOM     84  S   UNL A   1      42.690  40.460  27.151  1.00  0.00     0.124 S 
ATOM     85  O   UNL A   1      43.046  41.176  28.373  1.00  0.00    -0.237 OA
ATOM     86  O   UNL A   1      43.716  40.450  26.111  1.00  0.00    -0.237 OA
ATOM     87  O   UNL A   1      41.328  40.677  26.670  1.00  0.00    -0.744 OA
ENDBRANCH  83  84
ENDBRANCH  57  78
ENDBRANCH  31  32
ENDBRANCH  23  26
ENDBRANCH   1  22
TORSDOF 14
ENDMDL
MODEL 3
REMARK VINA RESULT:     -13.2      4.409     11.437
REMARK SMILES Cc1cccc(-c2ccc(Cl)c(C(=O)NCCCNC(=O)c3ccc(-c4c5nc(c(-c6ccc(S(=O)(=O)[O-])cc6)c6ccc([nH]6)c(-c6ccc(S(=O)(=O)[O-])cc6)c6nc(c(-c7ccc(S(=O)(=O)[O-])cc7)c7ccc4[nH]7)C=C6)C=C5)cc3)c2)c1
REMARK SMILES IDX 18 1 17 2 16 3 15 4 13 5 14 6 12 8 7 9 8 10 82 11 9 12 10 13
REMARK SMILES IDX 11 14 6 15 1 16 2 17 3 18 83 19 4 20 5 21 19 22 20 23 21 25
REMARK SMILES IDX 22 26 23 27 81 28 24 29 80 30 25 31 26 32 27 33 74 34 28 35
REMARK SMILES IDX 79 36 73 37 75 38 29 39 78 40 72 41 71 42 30 44 60 45 41 46
REMARK SMILES IDX 59 47 42 48 45 49 58 50 76 51 43 52 44 53 57 55 77 56 46 57
REMARK SMILES IDX 31 58 32 59 40 60 33 61 39 62 34 63 35 64 36 65 37 66 38 67
REMARK SMILES IDX 61 68 62 69 70 70 63 71 69 72 64 73 65 74 66 75 67 76 68 77
REMARK SMILES IDX 47 78 48 79 56 80 49 81 55 82 50 83 51 84 52 85 53 86 54 87
REMARK H PARENT 15 7 19 24 75 43 45 54
REMARK Flexibility Score: inf
ROOT
ATOM      1  C   UNL A   1      37.966  23.582  26.108  1.00  0.00     0.118 C 
ENDROOT
BRANCH   1   2
ATOM      2  C   UNL A   1      37.160  22.456  25.467  1.00  0.00     0.042 C 
BRANCH   2   3
ATOM      3  C   UNL A   1      35.674  22.782  25.461  1.00  0.00     0.118 C 
BRANCH   3   4
ATOM      4  N   UNL A   1      35.174  23.277  24.180  1.00  0.00    -0.352 N 
ATOM      5  C   UNL A   1      34.195  24.119  23.729  1.00  0.00     0.252 C 
ATOM      6  O   UNL A   1      34.170  24.306  22.506  1.00  0.00    -0.269 OA
ATOM      7  H   UNL A   1      35.685  22.896  23.430  1.00  0.00     0.163 HD
BRANCH   5   8
ATOM      8  C   UNL A   1      33.109  24.755  24.531  1.00  0.00     0.059 A 
ATOM      9  C   UNL A   1      32.425  26.889  25.599  1.00  0.00    -0.017 A 
ATOM     10  C   UNL A   1      31.271  26.258  26.069  1.00  0.00     0.010 A 
ATOM     11  C   UNL A   1      33.277  26.152  24.756  1.00  0.00     0.024 A 
ATOM     12  C   UNL A   1      31.100  24.890  25.888  1.00  0.00     0.022 A 
ATOM     13  C   UNL A   1      32.067  24.127  25.215  1.00  0.00     0.053 A 
ATOM     14  Cl  UNL A   1      32.005  22.450  25.600  1.00  0.00    -0.083 Cl
BRANCH   9  15
ATOM     15  C   UNL A   1      32.820  28.188  26.171  1.00  0.00    -0.018 A 
ATOM     16  C   UNL A   1      31.203  31.649  26.461  1.00  0.00     0.044 C 
ATOM     17  C   UNL A   1      32.195  30.532  26.595  1.00  0.00    -0.051 A 
ATOM     18  C   UNL A   1      33.421  30.733  27.230  1.00  0.00     0.003 A 
ATOM     19  C   UNL A   1      31.912  29.266  26.072  1.00  0.00     0.012 A 
ATOM     20  C   UNL A   1      34.330  29.678  27.351  1.00  0.00     0.001 A 
ATOM     21  C   UNL A   1      34.032  28.411  26.831  1.00  0.00     0.009 A 
ENDBRANCH   9  15
ENDBRANCH   5   8
ENDBRANCH   3   4
ENDBRANCH   2   3
ENDBRANCH   1   2
BRANCH   1  22
ATOM     22  N   UNL A   1      39.124  23.157  26.888  1.00  0.00    -0.352 N 
ATOM     23  C   UNL A   1      40.005  23.964  27.609  1.00  0.00     0.251 C 
ATOM     24  H   UNL A   1      39.305  22.190  26.908  1.00  0.00     0.163 HD
ATOM     25  O   UNL A   1      41.028  23.539  28.082  1.00  0.00    -0.269 OA
BRANCH  23  26
ATOM     26  C   UNL A   1      39.592  25.375  27.816  1.00  0.00     0.039 A 
ATOM     27  C   UNL A   1      40.084  26.339  26.932  1.00  0.00     0.014 A 
ATOM     28  C   UNL A   1      38.993  25.738  29.018  1.00  0.00     0.014 A 
ATOM     29  C   UNL A   1      40.159  27.669  27.346  1.00  0.00     0.010 A 
ATOM     30  C   UNL A   1      39.175  27.029  29.469  1.00  0.00     0.010 A 
ATOM     31  C   UNL A   1      39.799  27.987  28.653  1.00  0.00    -0.014 A 
BRANCH  31  32
ATOM     32  C   UNL A   1      40.078  29.268  29.298  1.00  0.00     0.031 A 
ATOM     33  C   UNL A   1      39.067  30.352  29.234  1.00  0.00     0.074 A 
ATOM     34  C   UNL A   1      41.181  29.424  30.066  1.00  0.00     0.049 A 
ATOM     35  N   UNL A   1      39.290  31.593  29.515  1.00  0.00    -0.248 NA
ATOM     36  C   UNL A   1      37.704  30.113  28.770  1.00  0.00     0.031 C 
ATOM     37  C   UNL A   1      41.401  30.463  31.072  1.00  0.00     0.029 A 
ATOM     38  N   UNL A   1      42.427  28.807  29.946  1.00  0.00    -0.354 N 
ATOM     39  C   UNL A   1      38.068  32.227  29.586  1.00  0.00     0.074 A 
ATOM     40  C   UNL A   1      37.131  31.292  29.014  1.00  0.00     0.031 C 
ATOM     41  C   UNL A   1      42.721  30.618  31.246  1.00  0.00     0.029 A 
ATOM     42  C   UNL A   1      43.382  29.796  30.248  1.00  0.00     0.049 A 
ATOM     43  H   UNL A   1      42.603  27.871  29.700  1.00  0.00     0.167 HD
ATOM     44  C   UNL A   1      37.958  33.408  30.259  1.00  0.00     0.031 A 
ATOM     45  C   UNL A   1      44.337  30.237  29.378  1.00  0.00     0.031 A 
ATOM     46  C   UNL A   1      39.270  33.941  30.627  1.00  0.00     0.049 A 
ATOM     47  C   UNL A   1      44.269  31.729  29.124  1.00  0.00     0.074 A 
ATOM     48  C   UNL A   1      39.991  33.964  31.810  1.00  0.00     0.029 A 
ATOM     49  N   UNL A   1      40.155  34.309  29.620  1.00  0.00    -0.354 N 
ATOM     50  N   UNL A   1      43.255  32.477  29.461  1.00  0.00    -0.248 NA
ATOM     51  C   UNL A   1      45.306  32.486  28.426  1.00  0.00     0.031 C 
ATOM     52  C   UNL A   1      41.345  34.248  31.488  1.00  0.00     0.029 A 
ATOM     53  C   UNL A   1      41.436  34.431  30.119  1.00  0.00     0.049 A 
ATOM     54  H   UNL A   1      39.902  34.463  28.680  1.00  0.00     0.167 HD
ATOM     55  C   UNL A   1      43.465  33.761  29.037  1.00  0.00     0.074 A 
ATOM     56  C   UNL A   1      44.773  33.721  28.405  1.00  0.00     0.031 C 
ATOM     57  C   UNL A   1      42.542  34.747  29.225  1.00  0.00     0.031 A 
BRANCH  44  58
ATOM     58  C   UNL A   1      36.651  33.922  30.836  1.00  0.00    -0.014 A 
ATOM     59  C   UNL A   1      35.496  33.959  30.025  1.00  0.00     0.010 A 
ATOM     60  C   UNL A   1      36.505  34.467  32.127  1.00  0.00     0.010 A 
ATOM     61  C   UNL A   1      34.310  34.590  30.438  1.00  0.00     0.020 A 
ATOM     62  C   UNL A   1      35.340  35.127  32.544  1.00  0.00     0.020 A 
ATOM     63  C   UNL A   1      34.250  35.199  31.689  1.00  0.00     0.054 A 
BRANCH  63  64
ATOM     64  S   UNL A   1      32.751  36.089  32.183  1.00  0.00     0.124 S 
ATOM     65  O   UNL A   1      33.216  36.882  33.318  1.00  0.00    -0.237 OA
ATOM     66  O   UNL A   1      32.423  36.844  30.977  1.00  0.00    -0.237 OA
ATOM     67  O   UNL A   1      31.810  35.023  32.522  1.00  0.00    -0.744 OA
ENDBRANCH  63  64
ENDBRANCH  44  58
BRANCH  45  68
ATOM     68  C   UNL A   1      44.775  29.223  28.381  1.00  0.00    -0.014 A 
ATOM     69  C   UNL A   1      45.659  28.221  28.833  1.00  0.00     0.010 A 
ATOM     70  C   UNL A   1      44.004  28.987  27.229  1.00  0.00     0.010 A 
ATOM     71  C   UNL A   1      45.625  26.943  28.272  1.00  0.00     0.020 A 
ATOM     72  C   UNL A   1      43.977  27.707  26.658  1.00  0.00     0.020 A 
ATOM     73  C   UNL A   1      44.730  26.680  27.236  1.00  0.00     0.054 A 
BRANCH  73  74
ATOM     74  S   UNL A   1      44.394  24.940  26.828  1.00  0.00     0.124 S 
ATOM     75  O   UNL A   1      43.182  25.034  26.022  1.00  0.00    -0.237 OA
ATOM     76  O   UNL A   1      45.609  24.570  26.104  1.00  0.00    -0.237 OA
ATOM     77  O   UNL A   1      44.233  24.315  28.137  1.00  0.00    -0.744 OA
ENDBRANCH  73  74
ENDBRANCH  45  68
BRANCH  57  78
ATOM     78  C   UNL A   1      42.617  36.133  28.640  1.00  0.00    -0.014 A 
ATOM     79  C   UNL A   1      42.009  36.506  27.431  1.00  0.00     0.010 A 
ATOM     80  C   UNL A   1      43.219  37.161  29.404  1.00  0.00     0.010 A 
ATOM     81  C   UNL A   1      42.055  37.830  26.973  1.00  0.00     0.020 A 
ATOM     82  C   UNL A   1      43.235  38.492  28.976  1.00  0.00     0.020 A 
ATOM     83  C   UNL A   1      42.673  38.814  27.747  1.00  0.00     0.054 A 
BRANCH  83  84
ATOM     84  S   UNL A   1      42.680  40.534  27.178  1.00  0.00     0.124 S 
ATOM     85  O   UNL A   1      41.265  40.765  26.902  1.00  0.00    -0.237 OA
ATOM     86  O   UNL A   1      43.220  41.259  28.326  1.00  0.00    -0.237 OA
ATOM     87  O   UNL A   1      43.551  40.501  26.006  1.00  0.00    -0.744 OA
ENDBRANCH  83  84
ENDBRANCH  57  78
ENDBRANCH  31  32
ENDBRANCH  23  26
ENDBRANCH   1  22
TORSDOF 14
ENDMDL
