MODEL 1
REMARK VINA RESULT:     -11.1      0.000      0.000
REMARK SMILES CC(C)C[C@H](CNC(=O)[C@]1([NH3+])CCC[C@@H](C)C1)C(=O)NCCCNC(=O)c1ccc(-c2c3nc(c(-c4ccc(S(=O)(=O)[O-])cc4)c4ccc([nH]4)c(-c4ccc(S(=O)(=O)[O-])cc4)c4nc(c(-c5ccc(S(=O)(=O)[O-])cc5)c5ccc2[nH]5)C=C4)C=C3)cc1
REMARK SMILES IDX 21 1 20 2 18 3 19 4 5 6 4 7 2 8 1 9 3 10 6 11 7 12 8 13 9 15
REMARK SMILES IDX 10 16 12 17 17 18 13 19 15 20 14 21 16 22 11 23 22 27 23 28
REMARK SMILES IDX 24 29 25 30 26 32 27 33 28 34 86 35 29 36 85 37 30 38 31 39
REMARK SMILES IDX 32 40 79 41 33 42 84 43 78 44 80 45 34 46 83 47 77 48 76 49
REMARK SMILES IDX 35 51 65 52 46 53 64 54 47 55 50 56 63 57 81 58 48 59 49 60
REMARK SMILES IDX 62 62 82 63 51 64 36 65 37 66 45 67 38 68 44 69 39 70 40 71
REMARK SMILES IDX 41 72 42 73 43 74 66 75 67 76 75 77 68 78 74 79 69 80 70 81
REMARK SMILES IDX 71 82 72 83 73 84 52 85 53 86 61 87 54 88 60 89 55 90 56 91
REMARK SMILES IDX 57 92 58 93 59 94
REMARK H PARENT 20 5 7 14 11 24 11 25 11 26 24 31 80 50 50 61
REMARK Flexibility Score: inf
ROOT
ATOM      1  C   UNL A   1      34.959  22.552  24.236  1.00  0.00     0.117 C 
ENDROOT
BRANCH   1   2
ATOM      2  N   UNL A   1      34.687  22.376  25.646  1.00  0.00    -0.356 N 
ATOM      3  C   UNL A   1      33.940  21.426  26.278  1.00  0.00     0.224 C 
ATOM      4  O   UNL A   1      33.989  21.382  27.509  1.00  0.00    -0.275 OA
ATOM      5  H   UNL A   1      35.105  23.043  26.238  1.00  0.00     0.163 HD
BRANCH   3   6
ATOM      6  C   UNL A   1      33.006  20.493  25.495  1.00  0.00     0.098 C 
BRANCH   6   7
ATOM      7  C   UNL A   1      33.809  19.465  24.644  1.00  0.00     0.018 C 
BRANCH   7   8
ATOM      8  C   UNL A   1      33.264  18.101  24.159  1.00  0.00    -0.017 C 
ATOM      9  C   UNL A   1      34.288  17.132  23.565  1.00  0.00     0.007 C 
ATOM     10  C   UNL A   1      32.640  17.366  25.360  1.00  0.00     0.007 C 
ENDBRANCH   7   8
ENDBRANCH   6   7
BRANCH   6  11
ATOM     11  C   UNL A   1      31.812  21.352  25.044  1.00  0.00     0.129 C 
BRANCH  11  12
ATOM     12  N   UNL A   1      30.971  21.931  26.056  1.00  0.00    -0.350 N 
ATOM     13  C   UNL A   1      30.695  23.170  26.501  1.00  0.00     0.281 C 
ATOM     14  H   UNL A   1      30.468  21.244  26.550  1.00  0.00     0.163 HD
ATOM     15  O   UNL A   1      30.007  23.201  27.535  1.00  0.00    -0.268 OA
BRANCH  13  16
ATOM     16  C   UNL A   1      31.126  24.518  25.840  1.00  0.00     0.174 C 
ATOM     17  C   UNL A   1      30.996  24.615  24.317  1.00  0.00     0.079 C 
ATOM     18  C   UNL A   1      32.576  24.858  26.248  1.00  0.00     0.082 C 
ATOM     19  C   UNL A   1      31.423  25.973  23.761  1.00  0.00     0.007 C 
ATOM     20  C   UNL A   1      33.128  26.177  25.658  1.00  0.00    -0.008 C 
ATOM     21  C   UNL A   1      32.872  26.273  24.146  1.00  0.00     0.004 C 
ATOM     22  C   UNL A   1      32.616  27.428  26.381  1.00  0.00     0.008 C 
BRANCH  16  23
ATOM     23  N   UNL A   1      30.203  25.526  26.440  1.00  0.00    -0.345 N 
ATOM     24  H   UNL A   1      29.239  25.281  26.215  1.00  0.00     0.345 HD
ATOM     25  H   UNL A   1      30.417  26.449  26.062  1.00  0.00     0.345 HD
ATOM     26  H   UNL A   1      30.323  25.537  27.453  1.00  0.00     0.345 HD
ENDBRANCH  16  23
ENDBRANCH  13  16
ENDBRANCH  11  12
ENDBRANCH   6  11
ENDBRANCH   3   6
ENDBRANCH   1   2
BRANCH   1  27
ATOM     27  C   UNL A   1      36.184  23.404  23.940  1.00  0.00     0.042 C 
BRANCH  27  28
ATOM     28  C   UNL A   1      36.981  23.739  25.182  1.00  0.00     0.118 C 
BRANCH  28  29
ATOM     29  N   UNL A   1      38.013  22.754  25.465  1.00  0.00    -0.352 N 
ATOM     30  C   UNL A   1      39.206  22.882  26.123  1.00  0.00     0.251 C 
ATOM     31  H   UNL A   1      37.822  21.848  25.130  1.00  0.00     0.163 HD
ATOM     32  O   UNL A   1      39.985  21.927  26.122  1.00  0.00    -0.269 OA
BRANCH  30  33
ATOM     33  C   UNL A   1      39.573  24.142  26.803  1.00  0.00     0.039 A 
ATOM     34  C   UNL A   1      40.277  25.109  26.081  1.00  0.00     0.014 A 
ATOM     35  C   UNL A   1      39.262  24.370  28.146  1.00  0.00     0.014 A 
ATOM     36  C   UNL A   1      40.646  26.302  26.702  1.00  0.00     0.010 A 
ATOM     37  C   UNL A   1      39.511  25.608  28.721  1.00  0.00     0.010 A 
ATOM     38  C   UNL A   1      40.250  26.568  28.021  1.00  0.00    -0.014 A 
BRANCH  38  39
ATOM     39  C   UNL A   1      40.669  27.810  28.711  1.00  0.00     0.031 A 
ATOM     40  C   UNL A   1      42.070  27.928  29.256  1.00  0.00     0.074 A 
ATOM     41  C   UNL A   1      39.785  28.814  28.865  1.00  0.00     0.049 A 
ATOM     42  N   UNL A   1      42.629  28.933  29.879  1.00  0.00    -0.248 NA
ATOM     43  C   UNL A   1      42.949  26.754  29.112  1.00  0.00     0.031 C 
ATOM     44  C   UNL A   1      38.386  28.788  28.429  1.00  0.00     0.029 A 
ATOM     45  N   UNL A   1      39.935  30.057  29.420  1.00  0.00    -0.354 N 
ATOM     46  C   UNL A   1      43.909  28.503  30.214  1.00  0.00     0.074 A 
ATOM     47  C   UNL A   1      44.021  27.126  29.795  1.00  0.00     0.031 C 
ATOM     48  C   UNL A   1      37.823  29.978  28.686  1.00  0.00     0.029 A 
ATOM     49  C   UNL A   1      38.806  30.837  29.338  1.00  0.00     0.049 A 
ATOM     50  H   UNL A   1      40.772  30.364  29.838  1.00  0.00     0.167 HD
ATOM     51  C   UNL A   1      44.916  29.202  30.790  1.00  0.00     0.031 A 
ATOM     52  C   UNL A   1      38.593  32.106  29.734  1.00  0.00     0.031 A 
ATOM     53  C   UNL A   1      44.802  30.579  31.183  1.00  0.00     0.049 A 
ATOM     54  C   UNL A   1      39.733  32.871  30.349  1.00  0.00     0.074 A 
ATOM     55  C   UNL A   1      45.771  31.404  31.726  1.00  0.00     0.029 A 
ATOM     56  N   UNL A   1      43.647  31.339  31.067  1.00  0.00    -0.354 N 
ATOM     57  N   UNL A   1      40.957  32.467  30.601  1.00  0.00    -0.248 NA
ATOM     58  C   UNL A   1      39.470  34.269  30.707  1.00  0.00     0.031 C 
ATOM     59  C   UNL A   1      45.187  32.648  31.987  1.00  0.00     0.029 A 
ATOM     60  C   UNL A   1      43.874  32.619  31.542  1.00  0.00     0.049 A 
ATOM     61  H   UNL A   1      42.793  31.015  30.701  1.00  0.00     0.167 HD
ATOM     62  C   UNL A   1      41.622  33.576  31.115  1.00  0.00     0.074 A 
ATOM     63  C   UNL A   1      40.666  34.666  31.119  1.00  0.00     0.031 C 
ATOM     64  C   UNL A   1      42.905  33.687  31.540  1.00  0.00     0.031 A 
BRANCH  51  65
ATOM     65  C   UNL A   1      46.220  28.482  31.023  1.00  0.00    -0.014 A 
ATOM     66  C   UNL A   1      46.466  27.786  32.222  1.00  0.00     0.010 A 
ATOM     67  C   UNL A   1      47.207  28.480  30.020  1.00  0.00     0.010 A 
ATOM     68  C   UNL A   1      47.690  27.144  32.432  1.00  0.00     0.020 A 
ATOM     69  C   UNL A   1      48.418  27.810  30.212  1.00  0.00     0.020 A 
ATOM     70  C   UNL A   1      48.659  27.161  31.426  1.00  0.00     0.054 A 
BRANCH  70  71
ATOM     71  S   UNL A   1      50.227  26.298  31.717  1.00  0.00     0.124 S 
ATOM     72  O   UNL A   1      50.959  26.581  30.485  1.00  0.00    -0.237 OA
ATOM     73  O   UNL A   1      50.738  26.958  32.915  1.00  0.00    -0.237 OA
ATOM     74  O   UNL A   1      49.828  24.904  31.898  1.00  0.00    -0.744 OA
ENDBRANCH  70  71
ENDBRANCH  51  65
BRANCH  52  75
ATOM     75  C   UNL A   1      37.263  32.739  29.521  1.00  0.00    -0.014 A 
ATOM     76  C   UNL A   1      36.410  33.001  30.608  1.00  0.00     0.010 A 
ATOM     77  C   UNL A   1      36.847  33.099  28.226  1.00  0.00     0.010 A 
ATOM     78  C   UNL A   1      35.157  33.585  30.401  1.00  0.00     0.020 A 
ATOM     79  C   UNL A   1      35.608  33.711  28.018  1.00  0.00     0.020 A 
ATOM     80  C   UNL A   1      34.764  33.937  29.107  1.00  0.00     0.054 A 
BRANCH  80  81
ATOM     81  S   UNL A   1      33.149  34.729  28.869  1.00  0.00     0.124 S 
ATOM     82  O   UNL A   1      32.515  33.841  27.900  1.00  0.00    -0.237 OA
ATOM     83  O   UNL A   1      32.585  34.705  30.216  1.00  0.00    -0.237 OA
ATOM     84  O   UNL A   1      33.493  36.059  28.369  1.00  0.00    -0.744 OA
ENDBRANCH  80  81
ENDBRANCH  52  75
BRANCH  64  85
ATOM     85  C   UNL A   1      43.361  35.047  31.995  1.00  0.00    -0.014 A 
ATOM     86  C   UNL A   1      43.253  35.449  33.338  1.00  0.00     0.010 A 
ATOM     87  C   UNL A   1      43.924  35.931  31.057  1.00  0.00     0.010 A 
ATOM     88  C   UNL A   1      43.642  36.734  33.722  1.00  0.00     0.020 A 
ATOM     89  C   UNL A   1      44.347  37.203  31.443  1.00  0.00     0.020 A 
ATOM     90  C   UNL A   1      44.180  37.606  32.770  1.00  0.00     0.054 A 
BRANCH  90  91
ATOM     91  S   UNL A   1      44.677  39.270  33.289  1.00  0.00     0.124 S 
ATOM     92  O   UNL A   1      43.385  39.922  33.491  1.00  0.00    -0.237 OA
ATOM     93  O   UNL A   1      45.446  39.010  34.504  1.00  0.00    -0.237 OA
ATOM     94  O   UNL A   1      45.456  39.769  32.159  1.00  0.00    -0.744 OA
ENDBRANCH  90  91
ENDBRANCH  64  85
ENDBRANCH  38  39
ENDBRANCH  30  33
ENDBRANCH  28  29
ENDBRANCH  27  28
ENDBRANCH   1  27
TORSDOF 19
ENDMDL
MODEL 2
REMARK VINA RESULT:     -10.8      2.268      2.937
REMARK SMILES CC(C)C[C@H](CNC(=O)[C@]1([NH3+])CCC[C@@H](C)C1)C(=O)NCCCNC(=O)c1ccc(-c2c3nc(c(-c4ccc(S(=O)(=O)[O-])cc4)c4ccc([nH]4)c(-c4ccc(S(=O)(=O)[O-])cc4)c4nc(c(-c5ccc(S(=O)(=O)[O-])cc5)c5ccc2[nH]5)C=C4)C=C3)cc1
REMARK SMILES IDX 21 1 20 2 18 3 19 4 5 6 4 7 2 8 1 9 3 10 6 11 7 12 8 13 9 15
REMARK SMILES IDX 10 16 12 17 17 18 13 19 15 20 14 21 16 22 11 23 22 27 23 28
REMARK SMILES IDX 24 29 25 30 26 32 27 33 28 34 86 35 29 36 85 37 30 38 31 39
REMARK SMILES IDX 32 40 79 41 33 42 84 43 78 44 80 45 34 46 83 47 77 48 76 49
REMARK SMILES IDX 35 51 65 52 46 53 64 54 47 55 50 56 63 57 81 58 48 59 49 60
REMARK SMILES IDX 62 62 82 63 51 64 36 65 37 66 45 67 38 68 44 69 39 70 40 71
REMARK SMILES IDX 41 72 42 73 43 74 66 75 67 76 75 77 68 78 74 79 69 80 70 81
REMARK SMILES IDX 71 82 72 83 73 84 52 85 53 86 61 87 54 88 60 89 55 90 56 91
REMARK SMILES IDX 57 92 58 93 59 94
REMARK H PARENT 20 5 7 14 11 24 11 25 11 26 24 31 80 50 50 61
REMARK Flexibility Score: inf
ROOT
ATOM      1  C   UNL A   1      35.094  23.012  24.394  1.00  0.00     0.117 C 
ENDROOT
BRANCH   1   2
ATOM      2  N   UNL A   1      34.654  23.276  23.041  1.00  0.00    -0.356 N 
ATOM      3  C   UNL A   1      33.417  23.139  22.484  1.00  0.00     0.224 C 
ATOM      4  O   UNL A   1      33.246  23.586  21.347  1.00  0.00    -0.275 OA
ATOM      5  H   UNL A   1      35.354  23.604  22.431  1.00  0.00     0.163 HD
BRANCH   3   6
ATOM      6  C   UNL A   1      32.294  22.384  23.208  1.00  0.00     0.098 C 
BRANCH   6   7
ATOM      7  C   UNL A   1      32.145  20.930  22.670  1.00  0.00     0.018 C 
BRANCH   7   8
ATOM      8  C   UNL A   1      32.231  19.652  23.537  1.00  0.00    -0.017 C 
ATOM      9  C   UNL A   1      32.442  18.336  22.788  1.00  0.00     0.007 C 
ATOM     10  C   UNL A   1      33.430  19.787  24.494  1.00  0.00     0.007 C 
ENDBRANCH   7   8
ENDBRANCH   6   7
BRANCH   6  11
ATOM     11  C   UNL A   1      31.174  23.408  23.462  1.00  0.00     0.129 C 
BRANCH  11  12
ATOM     12  N   UNL A   1      30.692  23.568  24.806  1.00  0.00    -0.350 N 
ATOM     13  C   UNL A   1      30.785  24.502  25.771  1.00  0.00     0.281 C 
ATOM     14  H   UNL A   1      30.155  22.795  25.097  1.00  0.00     0.163 HD
ATOM     15  O   UNL A   1      30.332  24.147  26.872  1.00  0.00    -0.268 OA
BRANCH  13  16
ATOM     16  C   UNL A   1      31.365  25.944  25.621  1.00  0.00     0.174 C 
ATOM     17  C   UNL A   1      30.798  26.805  24.488  1.00  0.00     0.079 C 
ATOM     18  C   UNL A   1      32.902  25.875  25.485  1.00  0.00     0.082 C 
ATOM     19  C   UNL A   1      31.411  28.204  24.430  1.00  0.00     0.007 C 
ATOM     20  C   UNL A   1      33.605  27.245  25.329  1.00  0.00    -0.008 C 
ATOM     21  C   UNL A   1      32.927  28.112  24.258  1.00  0.00     0.004 C 
ATOM     22  C   UNL A   1      33.743  28.011  26.650  1.00  0.00     0.008 C 
BRANCH  16  23
ATOM     23  N   UNL A   1      31.021  26.608  26.912  1.00  0.00    -0.345 N 
ATOM     24  H   UNL A   1      30.008  26.690  26.993  1.00  0.00     0.345 HD
ATOM     25  H   UNL A   1      31.442  27.537  26.940  1.00  0.00     0.345 HD
ATOM     26  H   UNL A   1      31.379  26.050  27.688  1.00  0.00     0.345 HD
ENDBRANCH  16  23
ENDBRANCH  13  16
ENDBRANCH  11  12
ENDBRANCH   6  11
ENDBRANCH   3   6
ENDBRANCH   1   2
BRANCH   1  27
ATOM     27  C   UNL A   1      36.442  23.627  24.741  1.00  0.00     0.042 C 
BRANCH  27  28
ATOM     28  C   UNL A   1      36.909  23.270  26.136  1.00  0.00     0.118 C 
BRANCH  28  29
ATOM     29  N   UNL A   1      37.962  22.265  26.131  1.00  0.00    -0.352 N 
ATOM     30  C   UNL A   1      39.301  22.383  26.383  1.00  0.00     0.251 C 
ATOM     31  H   UNL A   1      37.662  21.354  25.912  1.00  0.00     0.163 HD
ATOM     32  O   UNL A   1      40.026  21.406  26.185  1.00  0.00    -0.269 OA
BRANCH  30  33
ATOM     33  C   UNL A   1      39.881  23.656  26.860  1.00  0.00     0.039 A 
ATOM     34  C   UNL A   1      39.804  24.777  26.030  1.00  0.00     0.014 A 
ATOM     35  C   UNL A   1      40.525  23.753  28.097  1.00  0.00     0.014 A 
ATOM     36  C   UNL A   1      40.354  25.988  26.450  1.00  0.00     0.010 A 
ATOM     37  C   UNL A   1      40.950  24.986  28.569  1.00  0.00     0.010 A 
ATOM     38  C   UNL A   1      40.915  26.106  27.730  1.00  0.00    -0.014 A 
BRANCH  38  39
ATOM     39  C   UNL A   1      41.541  27.371  28.179  1.00  0.00     0.031 A 
ATOM     40  C   UNL A   1      43.030  27.562  28.033  1.00  0.00     0.074 A 
ATOM     41  C   UNL A   1      40.776  28.330  28.734  1.00  0.00     0.049 A 
ATOM     42  N   UNL A   1      43.763  28.597  28.354  1.00  0.00    -0.248 NA
ATOM     43  C   UNL A   1      43.803  26.433  27.487  1.00  0.00     0.031 C 
ATOM     44  C   UNL A   1      39.334  28.231  28.977  1.00  0.00     0.029 A 
ATOM     45  N   UNL A   1      41.102  29.583  29.183  1.00  0.00    -0.354 N 
ATOM     46  C   UNL A   1      45.074  28.234  28.067  1.00  0.00     0.074 A 
ATOM     47  C   UNL A   1      45.049  26.862  27.617  1.00  0.00     0.031 C 
ATOM     48  C   UNL A   1      38.893  29.394  29.482  1.00  0.00     0.029 A 
ATOM     49  C   UNL A   1      40.023  30.304  29.635  1.00  0.00     0.049 A 
ATOM     50  H   UNL A   1      42.023  29.933  29.183  1.00  0.00     0.167 HD
ATOM     51  C   UNL A   1      46.198  28.985  28.137  1.00  0.00     0.031 A 
ATOM     52  C   UNL A   1      39.952  31.562  30.107  1.00  0.00     0.031 A 
ATOM     53  C   UNL A   1      46.210  30.357  28.564  1.00  0.00     0.049 A 
ATOM     54  C   UNL A   1      41.210  32.387  30.154  1.00  0.00     0.074 A 
ATOM     55  C   UNL A   1      47.280  31.232  28.625  1.00  0.00     0.029 A 
ATOM     56  N   UNL A   1      45.093  31.058  28.997  1.00  0.00    -0.354 N 
ATOM     57  N   UNL A   1      42.433  32.047  29.818  1.00  0.00    -0.248 NA
ATOM     58  C   UNL A   1      41.072  33.772  30.617  1.00  0.00     0.031 C 
ATOM     59  C   UNL A   1      46.818  32.447  29.145  1.00  0.00     0.029 A 
ATOM     60  C   UNL A   1      45.449  32.350  29.341  1.00  0.00     0.049 A 
ATOM     61  H   UNL A   1      44.182  30.689  29.050  1.00  0.00     0.167 HD
ATOM     62  C   UNL A   1      43.205  33.190  29.995  1.00  0.00     0.074 A 
ATOM     63  C   UNL A   1      42.305  34.231  30.450  1.00  0.00     0.031 C 
ATOM     64  C   UNL A   1      44.535  33.367  29.796  1.00  0.00     0.031 A 
BRANCH  51  65
ATOM     65  C   UNL A   1      47.499  28.333  27.743  1.00  0.00    -0.014 A 
ATOM     66  C   UNL A   1      47.948  28.347  26.409  1.00  0.00     0.010 A 
ATOM     67  C   UNL A   1      48.298  27.717  28.724  1.00  0.00     0.010 A 
ATOM     68  C   UNL A   1      49.146  27.717  26.056  1.00  0.00     0.020 A 
ATOM     69  C   UNL A   1      49.512  27.116  28.382  1.00  0.00     0.020 A 
ATOM     70  C   UNL A   1      49.919  27.104  27.045  1.00  0.00     0.054 A 
BRANCH  70  71
ATOM     71  S   UNL A   1      51.480  26.316  26.562  1.00  0.00     0.124 S 
ATOM     72  O   UNL A   1      51.538  26.616  25.134  1.00  0.00    -0.237 OA
ATOM     73  O   UNL A   1      52.460  27.014  27.390  1.00  0.00    -0.237 OA
ATOM     74  O   UNL A   1      51.276  24.908  26.895  1.00  0.00    -0.744 OA
ENDBRANCH  70  71
ENDBRANCH  51  65
BRANCH  52  75
ATOM     75  C   UNL A   1      38.642  32.127  30.529  1.00  0.00    -0.014 A 
ATOM     76  C   UNL A   1      37.783  32.726  29.590  1.00  0.00     0.010 A 
ATOM     77  C   UNL A   1      38.238  32.054  31.875  1.00  0.00     0.010 A 
ATOM     78  C   UNL A   1      36.557  33.265  29.994  1.00  0.00     0.020 A 
ATOM     79  C   UNL A   1      37.000  32.564  32.277  1.00  0.00     0.020 A 
ATOM     80  C   UNL A   1      36.174  33.180  31.336  1.00  0.00     0.054 A 
BRANCH  80  81
ATOM     81  S   UNL A   1      34.563  33.853  31.828  1.00  0.00     0.124 S 
ATOM     82  O   UNL A   1      34.948  35.006  32.634  1.00  0.00    -0.237 OA
ATOM     83  O   UNL A   1      33.942  34.157  30.541  1.00  0.00    -0.237 OA
ATOM     84  O   UNL A   1      33.944  32.752  32.564  1.00  0.00    -0.744 OA
ENDBRANCH  80  81
ENDBRANCH  52  75
BRANCH  64  85
ATOM     85  C   UNL A   1      45.083  34.751  30.020  1.00  0.00    -0.014 A 
ATOM     86  C   UNL A   1      45.120  35.705  28.988  1.00  0.00     0.010 A 
ATOM     87  C   UNL A   1      45.555  35.103  31.298  1.00  0.00     0.010 A 
ATOM     88  C   UNL A   1      45.678  36.966  29.214  1.00  0.00     0.020 A 
ATOM     89  C   UNL A   1      46.080  36.374  31.537  1.00  0.00     0.020 A 
ATOM     90  C   UNL A   1      46.160  37.290  30.486  1.00  0.00     0.054 A 
BRANCH  90  91
ATOM     91  S   UNL A   1      46.880  38.931  30.756  1.00  0.00     0.124 S 
ATOM     92  O   UNL A   1      45.701  39.792  30.702  1.00  0.00    -0.237 OA
ATOM     93  O   UNL A   1      47.501  38.796  32.072  1.00  0.00    -0.237 OA
ATOM     94  O   UNL A   1      47.816  39.087  29.645  1.00  0.00    -0.744 OA
ENDBRANCH  90  91
ENDBRANCH  64  85
ENDBRANCH  38  39
ENDBRANCH  30  33
ENDBRANCH  28  29
ENDBRANCH  27  28
ENDBRANCH   1  27
TORSDOF 19
ENDMDL
MODEL 3
REMARK VINA RESULT:     -10.6      4.068     10.216
REMARK SMILES CC(C)C[C@H](CNC(=O)[C@]1([NH3+])CCC[C@@H](C)C1)C(=O)NCCCNC(=O)c1ccc(-c2c3nc(c(-c4ccc(S(=O)(=O)[O-])cc4)c4ccc([nH]4)c(-c4ccc(S(=O)(=O)[O-])cc4)c4nc(c(-c5ccc(S(=O)(=O)[O-])cc5)c5ccc2[nH]5)C=C4)C=C3)cc1
REMARK SMILES IDX 21 1 20 2 18 3 19 4 5 6 4 7 2 8 1 9 3 10 6 11 7 12 8 13 9 15
REMARK SMILES IDX 10 16 12 17 17 18 13 19 15 20 14 21 16 22 11 23 22 27 23 28
REMARK SMILES IDX 24 29 25 30 26 32 27 33 28 34 86 35 29 36 85 37 30 38 31 39
REMARK SMILES IDX 32 40 79 41 33 42 84 43 78 44 80 45 34 46 83 47 77 48 76 49
REMARK SMILES IDX 35 51 65 52 46 53 64 54 47 55 50 56 63 57 81 58 48 59 49 60
REMARK SMILES IDX 62 62 82 63 51 64 36 65 37 66 45 67 38 68 44 69 39 70 40 71
REMARK SMILES IDX 41 72 42 73 43 74 66 75 67 76 75 77 68 78 74 79 69 80 70 81
REMARK SMILES IDX 71 82 72 83 73 84 52 85 53 86 61 87 54 88 60 89 55 90 56 91
REMARK SMILES IDX 57 92 58 93 59 94
REMARK H PARENT 20 5 7 14 11 24 11 25 11 26 24 31 80 50 50 61
REMARK Flexibility Score: inf
ROOT
ATOM      1  C   UNL A   1      33.570  30.389  26.855  1.00  0.00     0.117 C 
ENDROOT
BRANCH   1   2
ATOM      2  N   UNL A   1      32.581  29.621  27.581  1.00  0.00    -0.356 N 
ATOM      3  C   UNL A   1      31.994  28.432  27.263  1.00  0.00     0.224 C 
ATOM      4  O   UNL A   1      31.298  27.887  28.122  1.00  0.00    -0.275 OA
ATOM      5  H   UNL A   1      32.288  30.018  28.434  1.00  0.00     0.163 HD
BRANCH   3   6
ATOM      6  C   UNL A   1      32.126  27.827  25.858  1.00  0.00     0.098 C 
BRANCH   6   7
ATOM      7  C   UNL A   1      30.950  28.265  24.936  1.00  0.00     0.018 C 
BRANCH   7   8
ATOM      8  C   UNL A   1      31.038  28.412  23.399  1.00  0.00    -0.017 C 
ATOM      9  C   UNL A   1      31.837  27.338  22.658  1.00  0.00     0.007 C 
ATOM     10  C   UNL A   1      29.614  28.351  22.816  1.00  0.00     0.007 C 
ENDBRANCH   7   8
ENDBRANCH   6   7
BRANCH   6  11
ATOM     11  C   UNL A   1      32.690  26.408  26.047  1.00  0.00     0.129 C 
BRANCH  11  12
ATOM     12  N   UNL A   1      31.850  25.422  26.670  1.00  0.00    -0.350 N 
ATOM     13  C   UNL A   1      31.547  24.128  26.461  1.00  0.00     0.281 C 
ATOM     14  H   UNL A   1      31.374  25.787  27.450  1.00  0.00     0.163 HD
ATOM     15  O   UNL A   1      30.621  23.698  27.169  1.00  0.00    -0.268 OA
BRANCH  13  16
ATOM     16  C   UNL A   1      32.251  23.153  25.464  1.00  0.00     0.174 C 
ATOM     17  C   UNL A   1      31.694  21.729  25.378  1.00  0.00     0.079 C 
ATOM     18  C   UNL A   1      33.761  23.088  25.779  1.00  0.00     0.082 C 
ATOM     19  C   UNL A   1      32.432  20.852  24.366  1.00  0.00     0.007 C 
ATOM     20  C   UNL A   1      34.581  22.152  24.858  1.00  0.00    -0.008 C 
ATOM     21  C   UNL A   1      33.918  20.773  24.717  1.00  0.00     0.004 C 
ATOM     22  C   UNL A   1      34.879  22.760  23.483  1.00  0.00     0.008 C 
BRANCH  16  23
ATOM     23  N   UNL A   1      32.060  23.797  24.132  1.00  0.00    -0.345 N 
ATOM     24  H   UNL A   1      31.453  24.611  24.231  1.00  0.00     0.345 HD
ATOM     25  H   UNL A   1      31.632  23.129  23.490  1.00  0.00     0.345 HD
ATOM     26  H   UNL A   1      32.964  24.091  23.763  1.00  0.00     0.345 HD
ENDBRANCH  16  23
ENDBRANCH  13  16
ENDBRANCH  11  12
ENDBRANCH   6  11
ENDBRANCH   3   6
ENDBRANCH   1   2
BRANCH   1  27
ATOM     27  C   UNL A   1      34.653  30.997  27.733  1.00  0.00     0.042 C 
BRANCH  27  28
ATOM     28  C   UNL A   1      35.618  29.966  28.277  1.00  0.00     0.118 C 
BRANCH  28  29
ATOM     29  N   UNL A   1      35.670  29.963  29.731  1.00  0.00    -0.352 N 
ATOM     30  C   UNL A   1      36.693  29.643  30.581  1.00  0.00     0.251 C 
ATOM     31  H   UNL A   1      34.836  30.238  30.174  1.00  0.00     0.163 HD
ATOM     32  O   UNL A   1      36.459  29.586  31.790  1.00  0.00    -0.269 OA
BRANCH  30  33
ATOM     33  C   UNL A   1      38.049  29.347  30.071  1.00  0.00     0.039 A 
ATOM     34  C   UNL A   1      38.332  29.625  28.731  1.00  0.00     0.014 A 
ATOM     35  C   UNL A   1      39.031  28.772  30.882  1.00  0.00     0.014 A 
ATOM     36  C   UNL A   1      39.599  29.345  28.220  1.00  0.00     0.010 A 
ATOM     37  C   UNL A   1      40.326  28.620  30.410  1.00  0.00     0.010 A 
ATOM     38  C   UNL A   1      40.611  28.856  29.061  1.00  0.00    -0.014 A 
BRANCH  38  39
ATOM     39  C   UNL A   1      41.950  28.513  28.528  1.00  0.00     0.031 A 
ATOM     40  C   UNL A   1      43.017  29.576  28.444  1.00  0.00     0.074 A 
ATOM     41  C   UNL A   1      42.194  27.259  28.103  1.00  0.00     0.049 A 
ATOM     42  N   UNL A   1      44.250  29.472  28.020  1.00  0.00    -0.248 NA
ATOM     43  C   UNL A   1      42.643  30.940  28.858  1.00  0.00     0.031 C 
ATOM     44  C   UNL A   1      41.219  26.164  28.085  1.00  0.00     0.029 A 
ATOM     45  N   UNL A   1      43.341  26.689  27.616  1.00  0.00    -0.354 N 
ATOM     46  C   UNL A   1      44.784  30.754  28.099  1.00  0.00     0.074 A 
ATOM     47  C   UNL A   1      43.725  31.632  28.539  1.00  0.00     0.031 C 
ATOM     48  C   UNL A   1      41.825  25.044  27.661  1.00  0.00     0.029 A 
ATOM     49  C   UNL A   1      43.215  25.348  27.341  1.00  0.00     0.049 A 
ATOM     50  H   UNL A   1      44.175  27.193  27.476  1.00  0.00     0.167 HD
ATOM     51  C   UNL A   1      46.053  31.162  27.860  1.00  0.00     0.031 A 
ATOM     52  C   UNL A   1      44.124  24.463  26.892  1.00  0.00     0.031 A 
ATOM     53  C   UNL A   1      47.106  30.276  27.445  1.00  0.00     0.049 A 
ATOM     54  C   UNL A   1      45.534  24.932  26.657  1.00  0.00     0.074 A 
ATOM     55  C   UNL A   1      48.440  30.567  27.224  1.00  0.00     0.029 A 
ATOM     56  N   UNL A   1      46.943  28.922  27.193  1.00  0.00    -0.354 N 
ATOM     57  N   UNL A   1      46.037  26.137  26.798  1.00  0.00    -0.248 NA
ATOM     58  C   UNL A   1      46.503  23.918  26.228  1.00  0.00     0.031 C 
ATOM     59  C   UNL A   1      49.073  29.397  26.789  1.00  0.00     0.029 A 
ATOM     60  C   UNL A   1      48.148  28.364  26.806  1.00  0.00     0.049 A 
ATOM     61  H   UNL A   1      46.094  28.430  27.279  1.00  0.00     0.167 HD
ATOM     62  C   UNL A   1      47.393  26.016  26.510  1.00  0.00     0.074 A 
ATOM     63  C   UNL A   1      47.628  24.619  26.205  1.00  0.00     0.031 C 
ATOM     64  C   UNL A   1      48.357  26.970  26.503  1.00  0.00     0.031 A 
BRANCH  51  65
ATOM     65  C   UNL A   1      46.362  32.625  28.045  1.00  0.00    -0.014 A 
ATOM     66  C   UNL A   1      46.345  33.519  26.958  1.00  0.00     0.010 A 
ATOM     67  C   UNL A   1      46.651  33.122  29.330  1.00  0.00     0.010 A 
ATOM     68  C   UNL A   1      46.657  34.869  27.143  1.00  0.00     0.020 A 
ATOM     69  C   UNL A   1      46.930  34.478  29.525  1.00  0.00     0.020 A 
ATOM     70  C   UNL A   1      46.949  35.340  28.426  1.00  0.00     0.054 A 
BRANCH  70  71
ATOM     71  S   UNL A   1      47.326  37.101  28.639  1.00  0.00     0.124 S 
ATOM     72  O   UNL A   1      48.552  37.243  27.858  1.00  0.00    -0.237 OA
ATOM     73  O   UNL A   1      46.145  37.751  28.078  1.00  0.00    -0.237 OA
ATOM     74  O   UNL A   1      47.488  37.249  30.084  1.00  0.00    -0.744 OA
ENDBRANCH  70  71
ENDBRANCH  51  65
BRANCH  52  75
ATOM     75  C   UNL A   1      43.738  23.042  26.680  1.00  0.00    -0.014 A 
ATOM     76  C   UNL A   1      44.173  22.342  25.541  1.00  0.00     0.010 A 
ATOM     77  C   UNL A   1      42.942  22.373  27.629  1.00  0.00     0.010 A 
ATOM     78  C   UNL A   1      43.797  21.010  25.340  1.00  0.00     0.020 A 
ATOM     79  C   UNL A   1      42.589  21.032  27.447  1.00  0.00     0.020 A 
ATOM     80  C   UNL A   1      43.008  20.364  26.296  1.00  0.00     0.054 A 
BRANCH  80  81
ATOM     81  S   UNL A   1      42.566  18.624  26.032  1.00  0.00     0.124 S 
ATOM     82  O   UNL A   1      43.444  18.252  24.929  1.00  0.00    -0.237 OA
ATOM     83  O   UNL A   1      42.879  18.020  27.324  1.00  0.00    -0.237 OA
ATOM     84  O   UNL A   1      41.141  18.680  25.709  1.00  0.00    -0.744 OA
ENDBRANCH  80  81
ENDBRANCH  52  75
BRANCH  64  85
ATOM     85  C   UNL A   1      49.763  26.521  26.205  1.00  0.00    -0.014 A 
ATOM     86  C   UNL A   1      50.526  25.815  27.150  1.00  0.00     0.010 A 
ATOM     87  C   UNL A   1      50.320  26.803  24.944  1.00  0.00     0.010 A 
ATOM     88  C   UNL A   1      51.844  25.452  26.862  1.00  0.00     0.020 A 
ATOM     89  C   UNL A   1      51.624  26.410  24.639  1.00  0.00     0.020 A 
ATOM     90  C   UNL A   1      52.386  25.758  25.610  1.00  0.00     0.054 A 
BRANCH  90  91
ATOM     91  S   UNL A   1      54.099  25.280  25.258  1.00  0.00     0.124 S 
ATOM     92  O   UNL A   1      54.327  25.908  23.958  1.00  0.00    -0.237 OA
ATOM     93  O   UNL A   1      54.832  25.866  26.377  1.00  0.00    -0.237 OA
ATOM     94  O   UNL A   1      54.056  23.819  25.244  1.00  0.00    -0.744 OA
ENDBRANCH  90  91
ENDBRANCH  64  85
ENDBRANCH  38  39
ENDBRANCH  30  33
ENDBRANCH  28  29
ENDBRANCH  27  28
ENDBRANCH   1  27
TORSDOF 19
ENDMDL
