MODEL 1
REMARK VINA RESULT:     -11.8      0.000      0.000
REMARK SMILES Cc1ccnc(C(=O)c2[nH]c3ccc(F)cc3c2CC(=O)NCCCNC(=O)c2ccc(-c3c4nc(c(-c5ccc(S(=O)(=O)[O-])cc5)c5ccc([nH]5)c(-c5ccc(S(=O)(=O)[O-])cc5)c5nc(c(-c6ccc(S(=O)(=O)[O-])cc6)c6ccc3[nH]6)C=C5)C=C4)cc2)c1
REMARK SMILES IDX 24 1 23 2 22 3 20 4 21 5 19 7 18 8 9 9 10 10 11 11 17 13
REMARK SMILES IDX 12 14 16 15 13 16 14 17 15 18 7 19 8 20 6 21 1 22 2 23 3 24
REMARK SMILES IDX 89 25 4 26 5 27 25 28 26 29 27 30 28 32 29 33 30 34 88 35
REMARK SMILES IDX 31 36 87 37 32 38 33 39 34 40 81 41 35 42 86 43 80 44 82 45
REMARK SMILES IDX 36 46 85 47 79 48 78 49 37 51 67 52 48 53 66 54 49 55 52 56
REMARK SMILES IDX 65 57 83 58 50 59 51 60 64 62 84 63 53 64 38 65 39 66 47 67
REMARK SMILES IDX 40 68 46 69 41 70 42 71 43 72 44 73 45 74 68 75 69 76 77 77
REMARK SMILES IDX 70 78 76 79 71 80 72 81 73 82 74 83 75 84 54 85 55 86 63 87
REMARK SMILES IDX 56 88 62 89 57 90 58 91 59 92 60 93 61 94
REMARK H PARENT 22 6 10 12 26 31 82 50 52 61
REMARK Flexibility Score: inf
ROOT
ATOM      1  C   UNL A   1      32.480  27.521  26.965  1.00  0.00     0.042 C 
ENDROOT
BRANCH   1   2
ATOM      2  C   UNL A   1      32.389  26.265  26.094  1.00  0.00     0.117 C 
BRANCH   2   3
ATOM      3  N   UNL A   1      32.137  25.024  26.803  1.00  0.00    -0.356 N 
ATOM      4  C   UNL A   1      32.496  23.742  26.508  1.00  0.00     0.224 C 
ATOM      5  O   UNL A   1      32.353  22.902  27.402  1.00  0.00    -0.275 OA
ATOM      6  H   UNL A   1      31.621  25.126  27.635  1.00  0.00     0.163 HD
BRANCH   4   7
ATOM      7  C   UNL A   1      33.106  23.342  25.178  1.00  0.00     0.138 C 
BRANCH   7   8
ATOM      8  C   UNL A   1      34.174  22.286  25.219  1.00  0.00    -0.002 A 
ATOM      9  C   UNL A   1      34.053  20.897  25.137  1.00  0.00     0.093 A 
ATOM     10  N   UNL A   1      35.313  20.374  25.366  1.00  0.00    -0.352 N 
ATOM     11  C   UNL A   1      36.254  21.363  25.489  1.00  0.00     0.046 A 
ATOM     12  H   UNL A   1      35.510  19.413  25.431  1.00  0.00     0.167 HD
ATOM     13  C   UNL A   1      35.568  22.572  25.475  1.00  0.00     0.007 A 
ATOM     14  C   UNL A   1      37.645  21.273  25.636  1.00  0.00     0.030 A 
ATOM     15  C   UNL A   1      36.310  23.758  25.671  1.00  0.00     0.049 A 
ATOM     16  C   UNL A   1      38.361  22.466  25.767  1.00  0.00     0.041 A 
ATOM     17  C   UNL A   1      37.697  23.682  25.792  1.00  0.00     0.123 A 
ATOM     18  F   UNL A   1      38.399  24.816  25.920  1.00  0.00    -0.207 F 
BRANCH   9  19
ATOM     19  C   UNL A   1      32.929  19.972  24.998  1.00  0.00     0.227 C 
ATOM     20  O   UNL A   1      31.786  20.384  25.200  1.00  0.00    -0.285 OA
BRANCH  19  21
ATOM     21  C   UNL A   1      33.127  18.501  24.738  1.00  0.00     0.113 A 
ATOM     22  C   UNL A   1      32.190  15.057  26.049  1.00  0.00     0.044 C 
ATOM     23  C   UNL A   1      32.743  16.169  25.209  1.00  0.00    -0.047 A 
ATOM     24  C   UNL A   1      33.559  15.859  24.123  1.00  0.00     0.023 A 
ATOM     25  C   UNL A   1      32.474  17.517  25.476  1.00  0.00     0.036 A 
ATOM     26  C   UNL A   1      34.111  16.895  23.392  1.00  0.00     0.112 A 
ATOM     27  N   UNL A   1      33.929  18.200  23.683  1.00  0.00    -0.253 NA
ENDBRANCH  19  21
ENDBRANCH   9  19
ENDBRANCH   7   8
ENDBRANCH   4   7
ENDBRANCH   2   3
ENDBRANCH   1   2
BRANCH   1  28
ATOM     28  C   UNL A   1      33.735  28.380  26.841  1.00  0.00     0.118 C 
BRANCH  28  29
ATOM     29  N   UNL A   1      33.553  29.762  27.237  1.00  0.00    -0.352 N 
ATOM     30  C   UNL A   1      34.405  30.582  27.936  1.00  0.00     0.251 C 
ATOM     31  H   UNL A   1      32.699  30.170  26.968  1.00  0.00     0.163 HD
ATOM     32  O   UNL A   1      34.018  31.689  28.296  1.00  0.00    -0.269 OA
BRANCH  30  33
ATOM     33  C   UNL A   1      35.773  30.129  28.270  1.00  0.00     0.039 A 
ATOM     34  C   UNL A   1      36.757  30.187  27.280  1.00  0.00     0.014 A 
ATOM     35  C   UNL A   1      36.081  29.621  29.536  1.00  0.00     0.014 A 
ATOM     36  C   UNL A   1      38.062  29.784  27.572  1.00  0.00     0.010 A 
ATOM     37  C   UNL A   1      37.396  29.268  29.842  1.00  0.00     0.010 A 
ATOM     38  C   UNL A   1      38.401  29.346  28.864  1.00  0.00    -0.014 A 
BRANCH  38  39
ATOM     39  C   UNL A   1      39.805  28.992  29.206  1.00  0.00     0.031 A 
ATOM     40  C   UNL A   1      40.710  29.994  29.872  1.00  0.00     0.074 A 
ATOM     41  C   UNL A   1      40.281  27.775  28.872  1.00  0.00     0.049 A 
ATOM     42  N   UNL A   1      41.968  29.870  30.211  1.00  0.00    -0.248 NA
ATOM     43  C   UNL A   1      40.133  31.311  30.181  1.00  0.00     0.031 C 
ATOM     44  C   UNL A   1      39.517  26.724  28.198  1.00  0.00     0.029 A 
ATOM     45  N   UNL A   1      41.524  27.218  29.049  1.00  0.00    -0.354 N 
ATOM     46  C   UNL A   1      42.337  31.091  30.761  1.00  0.00     0.074 A 
ATOM     47  C   UNL A   1      41.182  31.959  30.669  1.00  0.00     0.031 C 
ATOM     48  C   UNL A   1      40.298  25.643  28.040  1.00  0.00     0.029 A 
ATOM     49  C   UNL A   1      41.630  25.937  28.561  1.00  0.00     0.049 A 
ATOM     50  H   UNL A   1      42.269  27.691  29.486  1.00  0.00     0.167 HD
ATOM     51  C   UNL A   1      43.523  31.454  31.309  1.00  0.00     0.031 A 
ATOM     52  C   UNL A   1      42.680  25.093  28.524  1.00  0.00     0.031 A 
ATOM     53  C   UNL A   1      44.672  30.589  31.397  1.00  0.00     0.049 A 
ATOM     54  C   UNL A   1      43.995  25.530  29.111  1.00  0.00     0.074 A 
ATOM     55  C   UNL A   1      45.901  30.851  31.977  1.00  0.00     0.029 A 
ATOM     56  N   UNL A   1      44.739  29.302  30.886  1.00  0.00    -0.354 N 
ATOM     57  N   UNL A   1      44.303  26.667  29.687  1.00  0.00    -0.248 NA
ATOM     58  C   UNL A   1      45.101  24.563  29.054  1.00  0.00     0.031 C 
ATOM     59  C   UNL A   1      46.732  29.746  31.762  1.00  0.00     0.029 A 
ATOM     60  C   UNL A   1      45.998  28.768  31.110  1.00  0.00     0.049 A 
ATOM     61  H   UNL A   1      44.001  28.836  30.431  1.00  0.00     0.167 HD
ATOM     62  C   UNL A   1      45.629  26.541  30.088  1.00  0.00     0.074 A 
ATOM     63  C   UNL A   1      46.058  25.213  29.702  1.00  0.00     0.031 C 
ATOM     64  C   UNL A   1      46.417  27.445  30.721  1.00  0.00     0.031 A 
BRANCH  51  65
ATOM     65  C   UNL A   1      43.646  32.859  31.846  1.00  0.00    -0.014 A 
ATOM     66  C   UNL A   1      43.394  33.146  33.200  1.00  0.00     0.010 A 
ATOM     67  C   UNL A   1      44.069  33.897  30.996  1.00  0.00     0.010 A 
ATOM     68  C   UNL A   1      43.521  34.451  33.683  1.00  0.00     0.020 A 
ATOM     69  C   UNL A   1      44.227  35.198  31.482  1.00  0.00     0.020 A 
ATOM     70  C   UNL A   1      43.935  35.470  32.820  1.00  0.00     0.054 A 
BRANCH  70  71
ATOM     71  S   UNL A   1      44.108  37.151  33.482  1.00  0.00     0.124 S 
ATOM     72  O   UNL A   1      45.216  36.991  34.419  1.00  0.00    -0.237 OA
ATOM     73  O   UNL A   1      44.406  37.935  32.286  1.00  0.00    -0.237 OA
ATOM     74  O   UNL A   1      42.808  37.419  34.093  1.00  0.00    -0.744 OA
ENDBRANCH  70  71
ENDBRANCH  51  65
BRANCH  52  75
ATOM     75  C   UNL A   1      42.528  23.745  27.910  1.00  0.00    -0.014 A 
ATOM     76  C   UNL A   1      42.805  23.543  26.546  1.00  0.00     0.010 A 
ATOM     77  C   UNL A   1      42.112  22.651  28.691  1.00  0.00     0.010 A 
ATOM     78  C   UNL A   1      42.653  22.277  25.972  1.00  0.00     0.020 A 
ATOM     79  C   UNL A   1      41.990  21.378  28.127  1.00  0.00     0.020 A 
ATOM     80  C   UNL A   1      42.250  21.201  26.768  1.00  0.00     0.054 A 
BRANCH  80  81
ATOM     81  S   UNL A   1      42.111  19.558  26.012  1.00  0.00     0.124 S 
ATOM     82  O   UNL A   1      40.685  19.477  25.720  1.00  0.00    -0.237 OA
ATOM     83  O   UNL A   1      42.993  19.670  24.853  1.00  0.00    -0.237 OA
ATOM     84  O   UNL A   1      42.588  18.659  27.062  1.00  0.00    -0.744 OA
ENDBRANCH  80  81
ENDBRANCH  52  75
BRANCH  64  85
ATOM     85  C   UNL A   1      47.819  27.019  31.073  1.00  0.00    -0.014 A 
ATOM     86  C   UNL A   1      48.103  26.349  32.277  1.00  0.00     0.010 A 
ATOM     87  C   UNL A   1      48.862  27.245  30.155  1.00  0.00     0.010 A 
ATOM     88  C   UNL A   1      49.408  25.945  32.571  1.00  0.00     0.020 A 
ATOM     89  C   UNL A   1      50.163  26.813  30.430  1.00  0.00     0.020 A 
ATOM     90  C   UNL A   1      50.430  26.178  31.644  1.00  0.00     0.054 A 
BRANCH  90  91
ATOM     91  S   UNL A   1      52.106  25.603  32.030  1.00  0.00     0.124 S 
ATOM     92  O   UNL A   1      51.899  24.171  32.223  1.00  0.00    -0.237 OA
ATOM     93  O   UNL A   1      52.855  25.973  30.831  1.00  0.00    -0.237 OA
ATOM     94  O   UNL A   1      52.461  26.349  33.234  1.00  0.00    -0.744 OA
ENDBRANCH  90  91
ENDBRANCH  64  85
ENDBRANCH  38  39
ENDBRANCH  30  33
ENDBRANCH  28  29
ENDBRANCH   1  28
TORSDOF 16
ENDMDL
MODEL 2
REMARK VINA RESULT:     -11.6      1.901      3.781
REMARK SMILES Cc1ccnc(C(=O)c2[nH]c3ccc(F)cc3c2CC(=O)NCCCNC(=O)c2ccc(-c3c4nc(c(-c5ccc(S(=O)(=O)[O-])cc5)c5ccc([nH]5)c(-c5ccc(S(=O)(=O)[O-])cc5)c5nc(c(-c6ccc(S(=O)(=O)[O-])cc6)c6ccc3[nH]6)C=C5)C=C4)cc2)c1
REMARK SMILES IDX 24 1 23 2 22 3 20 4 21 5 19 7 18 8 9 9 10 10 11 11 17 13
REMARK SMILES IDX 12 14 16 15 13 16 14 17 15 18 7 19 8 20 6 21 1 22 2 23 3 24
REMARK SMILES IDX 89 25 4 26 5 27 25 28 26 29 27 30 28 32 29 33 30 34 88 35
REMARK SMILES IDX 31 36 87 37 32 38 33 39 34 40 81 41 35 42 86 43 80 44 82 45
REMARK SMILES IDX 36 46 85 47 79 48 78 49 37 51 67 52 48 53 66 54 49 55 52 56
REMARK SMILES IDX 65 57 83 58 50 59 51 60 64 62 84 63 53 64 38 65 39 66 47 67
REMARK SMILES IDX 40 68 46 69 41 70 42 71 43 72 44 73 45 74 68 75 69 76 77 77
REMARK SMILES IDX 70 78 76 79 71 80 72 81 73 82 74 83 75 84 54 85 55 86 63 87
REMARK SMILES IDX 56 88 62 89 57 90 58 91 59 92 60 93 61 94
REMARK H PARENT 22 6 10 12 26 31 82 50 52 61
REMARK Flexibility Score: inf
ROOT
ATOM      1  C   UNL A   1      32.012  27.854  27.431  1.00  0.00     0.042 C 
ENDROOT
BRANCH   1   2
ATOM      2  C   UNL A   1      31.744  26.817  26.337  1.00  0.00     0.117 C 
BRANCH   2   3
ATOM      3  N   UNL A   1      31.447  25.476  26.800  1.00  0.00    -0.356 N 
ATOM      4  C   UNL A   1      32.112  24.300  26.608  1.00  0.00     0.224 C 
ATOM      5  O   UNL A   1      31.767  23.343  27.309  1.00  0.00    -0.275 OA
ATOM      6  H   UNL A   1      30.629  25.402  27.343  1.00  0.00     0.163 HD
BRANCH   4   7
ATOM      7  C   UNL A   1      33.267  24.156  25.637  1.00  0.00     0.138 C 
BRANCH   7   8
ATOM      8  C   UNL A   1      32.968  23.468  24.335  1.00  0.00    -0.002 A 
ATOM      9  C   UNL A   1      32.795  24.013  23.060  1.00  0.00     0.093 A 
ATOM     10  N   UNL A   1      32.401  22.976  22.235  1.00  0.00    -0.352 N 
ATOM     11  C   UNL A   1      32.412  21.774  22.894  1.00  0.00     0.046 A 
ATOM     12  H   UNL A   1      32.145  23.086  21.291  1.00  0.00     0.167 HD
ATOM     13  C   UNL A   1      32.692  22.052  24.228  1.00  0.00     0.007 A 
ATOM     14  C   UNL A   1      32.172  20.478  22.416  1.00  0.00     0.030 A 
ATOM     15  C   UNL A   1      32.680  20.979  25.146  1.00  0.00     0.049 A 
ATOM     16  C   UNL A   1      32.228  19.428  23.335  1.00  0.00     0.041 A 
ATOM     17  C   UNL A   1      32.469  19.683  24.677  1.00  0.00     0.123 A 
ATOM     18  F   UNL A   1      32.516  18.664  25.545  1.00  0.00    -0.207 F 
BRANCH   9  19
ATOM     19  C   UNL A   1      32.821  25.369  22.513  1.00  0.00     0.227 C 
ATOM     20  O   UNL A   1      33.804  25.736  21.869  1.00  0.00    -0.285 OA
BRANCH  19  21
ATOM     21  C   UNL A   1      31.743  26.377  22.814  1.00  0.00     0.113 A 
ATOM     22  C   UNL A   1      28.102  26.670  23.873  1.00  0.00     0.044 C 
ATOM     23  C   UNL A   1      29.517  26.998  23.500  1.00  0.00    -0.047 A 
ATOM     24  C   UNL A   1      29.890  28.332  23.354  1.00  0.00     0.023 A 
ATOM     25  C   UNL A   1      30.486  26.009  23.287  1.00  0.00     0.036 A 
ATOM     26  C   UNL A   1      31.182  28.618  22.951  1.00  0.00     0.112 A 
ATOM     27  N   UNL A   1      32.105  27.678  22.663  1.00  0.00    -0.253 NA
ENDBRANCH  19  21
ENDBRANCH   9  19
ENDBRANCH   7   8
ENDBRANCH   4   7
ENDBRANCH   2   3
ENDBRANCH   1   2
BRANCH   1  28
ATOM     28  C   UNL A   1      33.407  28.467  27.503  1.00  0.00     0.118 C 
BRANCH  28  29
ATOM     29  N   UNL A   1      33.428  29.913  27.422  1.00  0.00    -0.352 N 
ATOM     30  C   UNL A   1      34.435  30.785  27.762  1.00  0.00     0.251 C 
ATOM     31  H   UNL A   1      32.607  30.330  27.076  1.00  0.00     0.163 HD
ATOM     32  O   UNL A   1      34.218  31.992  27.750  1.00  0.00    -0.269 OA
BRANCH  30  33
ATOM     33  C   UNL A   1      35.765  30.273  28.158  1.00  0.00     0.039 A 
ATOM     34  C   UNL A   1      36.781  30.241  27.200  1.00  0.00     0.014 A 
ATOM     35  C   UNL A   1      36.005  29.800  29.452  1.00  0.00     0.014 A 
ATOM     36  C   UNL A   1      38.053  29.781  27.551  1.00  0.00     0.010 A 
ATOM     37  C   UNL A   1      37.288  29.389  29.814  1.00  0.00     0.010 A 
ATOM     38  C   UNL A   1      38.327  29.377  28.869  1.00  0.00    -0.014 A 
BRANCH  38  39
ATOM     39  C   UNL A   1      39.698  28.962  29.271  1.00  0.00     0.031 A 
ATOM     40  C   UNL A   1      40.608  29.918  29.994  1.00  0.00     0.074 A 
ATOM     41  C   UNL A   1      40.142  27.733  28.940  1.00  0.00     0.049 A 
ATOM     42  N   UNL A   1      41.843  29.739  30.390  1.00  0.00    -0.248 NA
ATOM     43  C   UNL A   1      40.069  31.253  30.297  1.00  0.00     0.031 C 
ATOM     44  C   UNL A   1      39.370  26.722  28.214  1.00  0.00     0.029 A 
ATOM     45  N   UNL A   1      41.352  27.124  29.167  1.00  0.00    -0.354 N 
ATOM     46  C   UNL A   1      42.233  30.937  30.977  1.00  0.00     0.074 A 
ATOM     47  C   UNL A   1      41.118  31.851  30.845  1.00  0.00     0.031 C 
ATOM     48  C   UNL A   1      40.115  25.613  28.076  1.00  0.00     0.029 A 
ATOM     49  C   UNL A   1      41.431  25.846  28.663  1.00  0.00     0.049 A 
ATOM     50  H   UNL A   1      42.093  27.561  29.645  1.00  0.00     0.167 HD
ATOM     51  C   UNL A   1      43.404  31.245  31.586  1.00  0.00     0.031 A 
ATOM     52  C   UNL A   1      42.449  24.963  28.662  1.00  0.00     0.031 A 
ATOM     53  C   UNL A   1      44.513  30.335  31.714  1.00  0.00     0.049 A 
ATOM     54  C   UNL A   1      43.750  25.339  29.317  1.00  0.00     0.074 A 
ATOM     55  C   UNL A   1      45.723  30.539  32.355  1.00  0.00     0.029 A 
ATOM     56  N   UNL A   1      44.555  29.053  31.186  1.00  0.00    -0.354 N 
ATOM     57  N   UNL A   1      44.074  26.455  29.925  1.00  0.00    -0.248 NA
ATOM     58  C   UNL A   1      44.819  24.330  29.296  1.00  0.00     0.031 C 
ATOM     59  C   UNL A   1      46.519  29.405  32.161  1.00  0.00     0.029 A 
ATOM     60  C   UNL A   1      45.779  28.467  31.460  1.00  0.00     0.049 A 
ATOM     61  H   UNL A   1      43.821  28.623  30.689  1.00  0.00     0.167 HD
ATOM     62  C   UNL A   1      45.374  26.270  30.386  1.00  0.00     0.074 A 
ATOM     63  C   UNL A   1      45.768  24.932  30.000  1.00  0.00     0.031 C 
ATOM     64  C   UNL A   1      46.165  27.134  31.070  1.00  0.00     0.031 A 
BRANCH  51  65
ATOM     65  C   UNL A   1      43.557  32.636  32.150  1.00  0.00    -0.014 A 
ATOM     66  C   UNL A   1      43.272  32.909  33.500  1.00  0.00     0.010 A 
ATOM     67  C   UNL A   1      44.039  33.674  31.331  1.00  0.00     0.010 A 
ATOM     68  C   UNL A   1      43.425  34.202  34.009  1.00  0.00     0.020 A 
ATOM     69  C   UNL A   1      44.225  34.961  31.845  1.00  0.00     0.020 A 
ATOM     70  C   UNL A   1      43.899  35.221  33.178  1.00  0.00     0.054 A 
BRANCH  70  71
ATOM     71  S   UNL A   1      44.106  36.883  33.873  1.00  0.00     0.124 S 
ATOM     72  O   UNL A   1      45.545  36.927  34.122  1.00  0.00    -0.237 OA
ATOM     73  O   UNL A   1      43.629  37.742  32.793  1.00  0.00    -0.237 OA
ATOM     74  O   UNL A   1      43.268  36.866  35.070  1.00  0.00    -0.744 OA
ENDBRANCH  70  71
ENDBRANCH  51  65
BRANCH  52  75
ATOM     75  C   UNL A   1      42.273  23.631  28.020  1.00  0.00    -0.014 A 
ATOM     76  C   UNL A   1      43.044  23.266  26.902  1.00  0.00     0.010 A 
ATOM     77  C   UNL A   1      41.337  22.713  28.531  1.00  0.00     0.010 A 
ATOM     78  C   UNL A   1      42.871  22.018  26.297  1.00  0.00     0.020 A 
ATOM     79  C   UNL A   1      41.183  21.452  27.949  1.00  0.00     0.020 A 
ATOM     80  C   UNL A   1      41.943  21.116  26.827  1.00  0.00     0.054 A 
BRANCH  80  81
ATOM     81  S   UNL A   1      41.774  19.482  26.059  1.00  0.00     0.124 S 
ATOM     82  O   UNL A   1      42.190  18.594  27.138  1.00  0.00    -0.237 OA
ATOM     83  O   UNL A   1      40.355  19.442  25.715  1.00  0.00    -0.237 OA
ATOM     84  O   UNL A   1      42.682  19.548  24.915  1.00  0.00    -0.744 OA
ENDBRANCH  80  81
ENDBRANCH  52  75
BRANCH  64  85
ATOM     85  C   UNL A   1      47.531  26.647  31.481  1.00  0.00    -0.014 A 
ATOM     86  C   UNL A   1      47.735  25.974  32.699  1.00  0.00     0.010 A 
ATOM     87  C   UNL A   1      48.620  26.820  30.605  1.00  0.00     0.010 A 
ATOM     88  C   UNL A   1      49.008  25.513  33.047  1.00  0.00     0.020 A 
ATOM     89  C   UNL A   1      49.887  26.332  30.934  1.00  0.00     0.020 A 
ATOM     90  C   UNL A   1      50.076  25.694  32.161  1.00  0.00     0.054 A 
BRANCH  90  91
ATOM     91  S   UNL A   1      51.708  25.047  32.618  1.00  0.00     0.124 S 
ATOM     92  O   UNL A   1      51.591  23.640  32.246  1.00  0.00    -0.237 OA
ATOM     93  O   UNL A   1      52.611  25.843  31.789  1.00  0.00    -0.237 OA
ATOM     94  O   UNL A   1      51.796  25.306  34.052  1.00  0.00    -0.744 OA
ENDBRANCH  90  91
ENDBRANCH  64  85
ENDBRANCH  38  39
ENDBRANCH  30  33
ENDBRANCH  28  29
ENDBRANCH   1  28
TORSDOF 16
ENDMDL
MODEL 3
REMARK VINA RESULT:     -11.5      3.462     10.168
REMARK SMILES Cc1ccnc(C(=O)c2[nH]c3ccc(F)cc3c2CC(=O)NCCCNC(=O)c2ccc(-c3c4nc(c(-c5ccc(S(=O)(=O)[O-])cc5)c5ccc([nH]5)c(-c5ccc(S(=O)(=O)[O-])cc5)c5nc(c(-c6ccc(S(=O)(=O)[O-])cc6)c6ccc3[nH]6)C=C5)C=C4)cc2)c1
REMARK SMILES IDX 24 1 23 2 22 3 20 4 21 5 19 7 18 8 9 9 10 10 11 11 17 13
REMARK SMILES IDX 12 14 16 15 13 16 14 17 15 18 7 19 8 20 6 21 1 22 2 23 3 24
REMARK SMILES IDX 89 25 4 26 5 27 25 28 26 29 27 30 28 32 29 33 30 34 88 35
REMARK SMILES IDX 31 36 87 37 32 38 33 39 34 40 81 41 35 42 86 43 80 44 82 45
REMARK SMILES IDX 36 46 85 47 79 48 78 49 37 51 67 52 48 53 66 54 49 55 52 56
REMARK SMILES IDX 65 57 83 58 50 59 51 60 64 62 84 63 53 64 38 65 39 66 47 67
REMARK SMILES IDX 40 68 46 69 41 70 42 71 43 72 44 73 45 74 68 75 69 76 77 77
REMARK SMILES IDX 70 78 76 79 71 80 72 81 73 82 74 83 75 84 54 85 55 86 63 87
REMARK SMILES IDX 56 88 62 89 57 90 58 91 59 92 60 93 61 94
REMARK H PARENT 22 6 10 12 26 31 82 50 52 61
REMARK Flexibility Score: inf
ROOT
ATOM      1  C   UNL A   1      35.504  23.318  24.987  1.00  0.00     0.042 C 
ENDROOT
BRANCH   1   2
ATOM      2  C   UNL A   1      34.294  24.254  24.928  1.00  0.00     0.117 C 
BRANCH   2   3
ATOM      3  N   UNL A   1      34.191  25.076  23.737  1.00  0.00    -0.356 N 
ATOM      4  C   UNL A   1      33.358  26.115  23.443  1.00  0.00     0.224 C 
ATOM      5  O   UNL A   1      33.638  26.790  22.447  1.00  0.00    -0.275 OA
ATOM      6  H   UNL A   1      34.828  24.845  23.024  1.00  0.00     0.163 HD
BRANCH   4   7
ATOM      7  C   UNL A   1      32.172  26.492  24.310  1.00  0.00     0.138 C 
BRANCH   7   8
ATOM      8  C   UNL A   1      32.021  27.949  24.644  1.00  0.00    -0.002 A 
ATOM      9  C   UNL A   1      31.215  28.920  24.043  1.00  0.00     0.093 A 
ATOM     10  N   UNL A   1      31.546  30.128  24.629  1.00  0.00    -0.352 N 
ATOM     11  C   UNL A   1      32.450  29.965  25.646  1.00  0.00     0.046 A 
ATOM     12  H   UNL A   1      31.178  30.997  24.351  1.00  0.00     0.167 HD
ATOM     13  C   UNL A   1      32.824  28.626  25.638  1.00  0.00     0.007 A 
ATOM     14  C   UNL A   1      32.976  30.902  26.547  1.00  0.00     0.030 A 
ATOM     15  C   UNL A   1      33.821  28.210  26.549  1.00  0.00     0.049 A 
ATOM     16  C   UNL A   1      33.914  30.449  27.477  1.00  0.00     0.041 A 
ATOM     17  C   UNL A   1      34.331  29.127  27.466  1.00  0.00     0.123 A 
ATOM     18  F   UNL A   1      35.234  28.711  28.364  1.00  0.00    -0.207 F 
BRANCH   9  19
ATOM     19  C   UNL A   1      30.272  28.921  22.926  1.00  0.00     0.227 C 
ATOM     20  O   UNL A   1      30.271  27.971  22.142  1.00  0.00    -0.285 OA
BRANCH  19  21
ATOM     21  C   UNL A   1      29.384  30.100  22.626  1.00  0.00     0.113 A 
ATOM     22  C   UNL A   1      28.022  32.194  19.759  1.00  0.00     0.044 C 
ATOM     23  C   UNL A   1      28.282  31.628  21.123  1.00  0.00    -0.047 A 
ATOM     24  C   UNL A   1      27.720  32.251  22.235  1.00  0.00     0.023 A 
ATOM     25  C   UNL A   1      29.076  30.492  21.326  1.00  0.00     0.036 A 
ATOM     26  C   UNL A   1      28.016  31.755  23.492  1.00  0.00     0.112 A 
ATOM     27  N   UNL A   1      28.843  30.712  23.713  1.00  0.00    -0.253 NA
ENDBRANCH  19  21
ENDBRANCH   9  19
ENDBRANCH   7   8
ENDBRANCH   4   7
ENDBRANCH   2   3
ENDBRANCH   1   2
BRANCH   1  28
ATOM     28  C   UNL A   1      36.570  23.601  26.042  1.00  0.00     0.118 C 
BRANCH  28  29
ATOM     29  N   UNL A   1      37.715  22.715  25.985  1.00  0.00    -0.352 N 
ATOM     30  C   UNL A   1      39.028  22.977  26.292  1.00  0.00     0.251 C 
ATOM     31  H   UNL A   1      37.526  21.797  25.683  1.00  0.00     0.163 HD
ATOM     32  O   UNL A   1      39.885  22.133  26.052  1.00  0.00    -0.269 OA
BRANCH  30  33
ATOM     33  C   UNL A   1      39.411  24.274  26.891  1.00  0.00     0.039 A 
ATOM     34  C   UNL A   1      39.047  24.533  28.214  1.00  0.00     0.014 A 
ATOM     35  C   UNL A   1      40.098  25.241  26.150  1.00  0.00     0.014 A 
ATOM     36  C   UNL A   1      39.412  25.743  28.812  1.00  0.00     0.010 A 
ATOM     37  C   UNL A   1      40.506  26.426  26.764  1.00  0.00     0.010 A 
ATOM     38  C   UNL A   1      40.170  26.689  28.102  1.00  0.00    -0.014 A 
BRANCH  38  39
ATOM     39  C   UNL A   1      40.632  27.944  28.756  1.00  0.00     0.031 A 
ATOM     40  C   UNL A   1      42.020  28.044  29.329  1.00  0.00     0.074 A 
ATOM     41  C   UNL A   1      39.779  28.981  28.874  1.00  0.00     0.049 A 
ATOM     42  N   UNL A   1      42.579  29.044  29.962  1.00  0.00    -0.248 NA
ATOM     43  C   UNL A   1      42.886  26.864  29.190  1.00  0.00     0.031 C 
ATOM     44  C   UNL A   1      38.398  29.002  28.388  1.00  0.00     0.029 A 
ATOM     45  N   UNL A   1      39.946  30.219  29.446  1.00  0.00    -0.354 N 
ATOM     46  C   UNL A   1      43.854  28.613  30.306  1.00  0.00     0.074 A 
ATOM     47  C   UNL A   1      43.971  27.244  29.851  1.00  0.00     0.031 C 
ATOM     48  C   UNL A   1      37.853  30.198  28.660  1.00  0.00     0.029 A 
ATOM     49  C   UNL A   1      38.827  31.015  29.377  1.00  0.00     0.049 A 
ATOM     50  H   UNL A   1      40.788  30.509  29.865  1.00  0.00     0.167 HD
ATOM     51  C   UNL A   1      44.846  29.297  30.929  1.00  0.00     0.031 A 
ATOM     52  C   UNL A   1      38.601  32.258  29.847  1.00  0.00     0.031 A 
ATOM     53  C   UNL A   1      44.726  30.659  31.382  1.00  0.00     0.049 A 
ATOM     54  C   UNL A   1      39.706  32.986  30.561  1.00  0.00     0.074 A 
ATOM     55  C   UNL A   1      45.690  31.453  31.980  1.00  0.00     0.029 A 
ATOM     56  N   UNL A   1      43.574  31.427  31.298  1.00  0.00    -0.354 N 
ATOM     57  N   UNL A   1      40.928  32.583  30.817  1.00  0.00    -0.248 NA
ATOM     58  C   UNL A   1      39.406  34.343  31.040  1.00  0.00     0.031 C 
ATOM     59  C   UNL A   1      45.103  32.678  32.314  1.00  0.00     0.029 A 
ATOM     60  C   UNL A   1      43.794  32.674  31.861  1.00  0.00     0.049 A 
ATOM     61  H   UNL A   1      42.725  31.130  30.898  1.00  0.00     0.167 HD
ATOM     62  C   UNL A   1      41.551  33.648  31.460  1.00  0.00     0.074 A 
ATOM     63  C   UNL A   1      40.577  34.717  31.538  1.00  0.00     0.031 C 
ATOM     64  C   UNL A   1      42.818  33.732  31.937  1.00  0.00     0.031 A 
BRANCH  51  65
ATOM     65  C   UNL A   1      46.149  28.577  31.172  1.00  0.00    -0.014 A 
ATOM     66  C   UNL A   1      46.327  27.751  32.296  1.00  0.00     0.010 A 
ATOM     67  C   UNL A   1      47.194  28.690  30.236  1.00  0.00     0.010 A 
ATOM     68  C   UNL A   1      47.538  27.086  32.502  1.00  0.00     0.020 A 
ATOM     69  C   UNL A   1      48.396  28.000  30.422  1.00  0.00     0.020 A 
ATOM     70  C   UNL A   1      48.567  27.216  31.564  1.00  0.00     0.054 A 
BRANCH  70  71
ATOM     71  S   UNL A   1      50.120  26.324  31.850  1.00  0.00     0.124 S 
ATOM     72  O   UNL A   1      50.853  26.595  30.616  1.00  0.00    -0.237 OA
ATOM     73  O   UNL A   1      50.645  26.974  33.048  1.00  0.00    -0.237 OA
ATOM     74  O   UNL A   1      49.696  24.938  32.031  1.00  0.00    -0.744 OA
ENDBRANCH  70  71
ENDBRANCH  51  65
BRANCH  52  75
ATOM     75  C   UNL A   1      37.269  32.894  29.651  1.00  0.00    -0.014 A 
ATOM     76  C   UNL A   1      36.348  32.972  30.711  1.00  0.00     0.010 A 
ATOM     77  C   UNL A   1      36.917  33.435  28.401  1.00  0.00     0.010 A 
ATOM     78  C   UNL A   1      35.096  33.563  30.520  1.00  0.00     0.020 A 
ATOM     79  C   UNL A   1      35.678  34.055  28.215  1.00  0.00     0.020 A 
ATOM     80  C   UNL A   1      34.770  34.105  29.274  1.00  0.00     0.054 A 
BRANCH  80  81
ATOM     81  S   UNL A   1      33.160  34.914  29.065  1.00  0.00     0.124 S 
ATOM     82  O   UNL A   1      33.547  36.251  28.629  1.00  0.00    -0.237 OA
ATOM     83  O   UNL A   1      32.516  34.077  28.056  1.00  0.00    -0.237 OA
ATOM     84  O   UNL A   1      32.565  34.837  30.399  1.00  0.00    -0.744 OA
ENDBRANCH  80  81
ENDBRANCH  52  75
BRANCH  64  85
ATOM     85  C   UNL A   1      43.242  35.038  32.558  1.00  0.00    -0.014 A 
ATOM     86  C   UNL A   1      43.884  36.036  31.804  1.00  0.00     0.010 A 
ATOM     87  C   UNL A   1      42.940  35.291  33.910  1.00  0.00     0.010 A 
ATOM     88  C   UNL A   1      44.248  37.248  32.398  1.00  0.00     0.020 A 
ATOM     89  C   UNL A   1      43.273  36.514  34.499  1.00  0.00     0.020 A 
ATOM     90  C   UNL A   1      43.938  37.479  33.742  1.00  0.00     0.054 A 
BRANCH  90  91
ATOM     91  S   UNL A   1      44.380  39.077  34.477  1.00  0.00     0.124 S 
ATOM     92  O   UNL A   1      44.390  38.763  35.903  1.00  0.00    -0.237 OA
ATOM     93  O   UNL A   1      45.688  39.350  33.885  1.00  0.00    -0.237 OA
ATOM     94  O   UNL A   1      43.308  39.969  34.043  1.00  0.00    -0.744 OA
ENDBRANCH  90  91
ENDBRANCH  64  85
ENDBRANCH  38  39
ENDBRANCH  30  33
ENDBRANCH  28  29
ENDBRANCH   1  28
TORSDOF 16
ENDMDL
