MODEL 1
REMARK VINA RESULT:      -9.6      0.000      0.000
REMARK SMILES NC(=O)CC[C@H](NC(=O)CC1CC1)C(=O)NCCCNC(=O)c1ccc(-c2c3nc(c(-c4ccc(S(=O)(=O)[O-])cc4)c4ccc([nH]4)c(-c4ccc(S(=O)(=O)[O-])cc4)c4nc(c(-c5ccc(S(=O)(=O)[O-])cc5)c5ccc2[nH]5)C=C4)C=C3)cc1
REMARK SMILES IDX 18 1 17 2 16 3 14 4 15 5 6 7 5 8 4 9 2 10 1 11 3 14 7 15
REMARK SMILES IDX 8 16 9 18 10 19 11 20 12 21 13 22 19 23 20 24 21 25 22 27
REMARK SMILES IDX 23 28 24 29 82 30 25 31 81 32 26 33 27 34 28 35 75 36 29 37
REMARK SMILES IDX 80 38 74 39 76 40 30 41 79 42 73 43 72 44 31 46 61 47 42 48
REMARK SMILES IDX 60 49 43 50 46 51 59 52 77 53 44 54 45 55 58 57 78 58 47 59
REMARK SMILES IDX 32 60 33 61 41 62 34 63 40 64 35 65 36 66 37 67 38 68 39 69
REMARK SMILES IDX 62 70 63 71 71 72 64 73 70 74 65 75 66 76 67 77 68 78 69 79
REMARK SMILES IDX 48 80 49 81 57 82 50 83 56 84 51 85 52 86 53 87 54 88 55 89
REMARK H PARENT 16 6 1 12 1 13 7 17 20 26 76 45 46 56
REMARK Flexibility Score: inf
ROOT
ATOM      1  C   UNL A   1      33.786  33.541  28.531  1.00  0.00     0.042 C 
ENDROOT
BRANCH   1   2
ATOM      2  C   UNL A   1      34.393  34.130  29.811  1.00  0.00     0.117 C 
BRANCH   2   3
ATOM      3  N   UNL A   1      34.044  33.434  31.043  1.00  0.00    -0.354 N 
ATOM      4  C   UNL A   1      34.280  33.639  32.363  1.00  0.00     0.242 C 
ATOM      5  O   UNL A   1      33.838  32.764  33.123  1.00  0.00    -0.273 OA
ATOM      6  H   UNL A   1      33.510  32.624  30.877  1.00  0.00     0.163 HD
BRANCH   4   7
ATOM      7  C   UNL A   1      35.096  34.813  32.961  1.00  0.00     0.171 C 
BRANCH   7   8
ATOM      8  C   UNL A   1      34.336  36.066  33.443  1.00  0.00     0.045 C 
BRANCH   8   9
ATOM      9  C   UNL A   1      33.106  36.474  32.637  1.00  0.00     0.102 C 
BRANCH   9  10
ATOM     10  C   UNL A   1      33.326  37.769  31.896  1.00  0.00     0.217 C 
ATOM     11  N   UNL A   1      33.404  37.666  30.543  1.00  0.00    -0.370 N 
ATOM     12  H   UNL A   1      33.548  38.472  29.997  1.00  0.00     0.159 HD
ATOM     13  H   UNL A   1      33.318  36.786  30.111  1.00  0.00     0.159 HD
ATOM     14  O   UNL A   1      33.432  38.853  32.463  1.00  0.00    -0.275 OA
ENDBRANCH   9  10
ENDBRANCH   8   9
ENDBRANCH   7   8
BRANCH   7  15
ATOM     15  N   UNL A   1      36.488  35.001  32.526  1.00  0.00    -0.344 N 
ATOM     16  C   UNL A   1      37.673  34.451  32.895  1.00  0.00     0.220 C 
ATOM     17  H   UNL A   1      36.580  35.673  31.812  1.00  0.00     0.164 HD
ATOM     18  O   UNL A   1      38.639  34.636  32.150  1.00  0.00    -0.275 OA
BRANCH  16  19
ATOM     19  C   UNL A   1      37.801  33.654  34.164  1.00  0.00     0.103 C 
BRANCH  19  20
ATOM     20  C   UNL A   1      37.258  32.253  34.104  1.00  0.00    -0.002 C 
ATOM     21  C   UNL A   1      37.677  31.290  33.022  1.00  0.00     0.004 C 
ATOM     22  C   UNL A   1      38.085  31.037  34.444  1.00  0.00     0.004 C 
ENDBRANCH  19  20
ENDBRANCH  16  19
ENDBRANCH   7  15
ENDBRANCH   4   7
ENDBRANCH   2   3
ENDBRANCH   1   2
BRANCH   1  23
ATOM     23  C   UNL A   1      34.608  32.488  27.797  1.00  0.00     0.118 C 
BRANCH  23  24
ATOM     24  N   UNL A   1      33.969  31.190  27.799  1.00  0.00    -0.352 N 
ATOM     25  C   UNL A   1      34.530  29.942  27.908  1.00  0.00     0.251 C 
ATOM     26  H   UNL A   1      32.989  31.204  27.709  1.00  0.00     0.163 HD
ATOM     27  O   UNL A   1      33.839  28.962  27.638  1.00  0.00    -0.269 OA
BRANCH  25  28
ATOM     28  C   UNL A   1      35.942  29.751  28.329  1.00  0.00     0.039 A 
ATOM     29  C   UNL A   1      36.938  29.885  27.358  1.00  0.00     0.014 A 
ATOM     30  C   UNL A   1      36.299  29.356  29.625  1.00  0.00     0.014 A 
ATOM     31  C   UNL A   1      38.274  29.629  27.680  1.00  0.00     0.010 A 
ATOM     32  C   UNL A   1      37.645  29.176  29.965  1.00  0.00     0.010 A 
ATOM     33  C   UNL A   1      38.646  29.279  28.989  1.00  0.00    -0.014 A 
BRANCH  33  34
ATOM     34  C   UNL A   1      40.078  29.001  29.299  1.00  0.00     0.031 A 
ATOM     35  C   UNL A   1      40.715  27.687  28.922  1.00  0.00     0.074 A 
ATOM     36  C   UNL A   1      40.829  29.960  29.877  1.00  0.00     0.049 A 
ATOM     37  N   UNL A   1      41.980  27.344  28.954  1.00  0.00    -0.248 NA
ATOM     38  C   UNL A   1      39.819  26.613  28.466  1.00  0.00     0.031 C 
ATOM     39  C   UNL A   1      40.328  31.258  30.335  1.00  0.00     0.029 A 
ATOM     40  N   UNL A   1      42.174  30.008  30.147  1.00  0.00    -0.354 N 
ATOM     41  C   UNL A   1      42.031  26.024  28.519  1.00  0.00     0.074 A 
ATOM     42  C   UNL A   1      40.664  25.608  28.291  1.00  0.00     0.031 C 
ATOM     43  C   UNL A   1      41.362  31.999  30.763  1.00  0.00     0.029 A 
ATOM     44  C   UNL A   1      42.592  31.222  30.638  1.00  0.00     0.049 A 
ATOM     45  H   UNL A   1      42.781  29.245  30.002  1.00  0.00     0.167 HD
ATOM     46  C   UNL A   1      43.113  25.235  28.304  1.00  0.00     0.031 A 
ATOM     47  C   UNL A   1      43.827  31.675  30.930  1.00  0.00     0.031 A 
ATOM     48  C   UNL A   1      44.474  25.643  28.549  1.00  0.00     0.049 A 
ATOM     49  C   UNL A   1      45.014  30.786  30.686  1.00  0.00     0.074 A 
ATOM     50  C   UNL A   1      45.641  24.933  28.327  1.00  0.00     0.029 A 
ATOM     51  N   UNL A   1      44.849  26.867  29.081  1.00  0.00    -0.354 N 
ATOM     52  N   UNL A   1      45.048  29.568  30.200  1.00  0.00    -0.248 NA
ATOM     53  C   UNL A   1      46.333  31.345  31.011  1.00  0.00     0.031 C 
ATOM     54  C   UNL A   1      46.718  25.707  28.778  1.00  0.00     0.029 A 
ATOM     55  C   UNL A   1      46.228  26.924  29.221  1.00  0.00     0.049 A 
ATOM     56  H   UNL A   1      44.228  27.591  29.325  1.00  0.00     0.167 HD
ATOM     57  C   UNL A   1      46.394  29.222  30.140  1.00  0.00     0.074 A 
ATOM     58  C   UNL A   1      47.140  30.369  30.616  1.00  0.00     0.031 C 
ATOM     59  C   UNL A   1      46.960  28.060  29.725  1.00  0.00     0.031 A 
BRANCH  46  60
ATOM     60  C   UNL A   1      42.858  23.837  27.793  1.00  0.00    -0.014 A 
ATOM     61  C   UNL A   1      42.836  23.558  26.413  1.00  0.00     0.010 A 
ATOM     62  C   UNL A   1      42.644  22.784  28.701  1.00  0.00     0.010 A 
ATOM     63  C   UNL A   1      42.541  22.272  25.951  1.00  0.00     0.020 A 
ATOM     64  C   UNL A   1      42.381  21.488  28.244  1.00  0.00     0.020 A 
ATOM     65  C   UNL A   1      42.306  21.246  26.871  1.00  0.00     0.054 A 
BRANCH  65  66
ATOM     66  S   UNL A   1      41.908  19.590  26.246  1.00  0.00     0.124 S 
ATOM     67  O   UNL A   1      40.460  19.672  26.079  1.00  0.00    -0.237 OA
ATOM     68  O   UNL A   1      42.680  19.520  25.007  1.00  0.00    -0.237 OA
ATOM     69  O   UNL A   1      42.363  18.698  27.310  1.00  0.00    -0.744 OA
ENDBRANCH  65  66
ENDBRANCH  46  60
BRANCH  47  70
ATOM     70  C   UNL A   1      43.999  33.066  31.434  1.00  0.00    -0.014 A 
ATOM     71  C   UNL A   1      44.032  34.151  30.541  1.00  0.00     0.010 A 
ATOM     72  C   UNL A   1      44.091  33.315  32.816  1.00  0.00     0.010 A 
ATOM     73  C   UNL A   1      44.155  35.460  31.019  1.00  0.00     0.020 A 
ATOM     74  C   UNL A   1      44.184  34.624  33.299  1.00  0.00     0.020 A 
ATOM     75  C   UNL A   1      44.222  35.688  32.396  1.00  0.00     0.054 A 
BRANCH  75  76
ATOM     76  S   UNL A   1      44.298  37.399  32.997  1.00  0.00     0.124 S 
ATOM     77  O   UNL A   1      44.401  38.154  31.752  1.00  0.00    -0.237 OA
ATOM     78  O   UNL A   1      43.035  37.535  33.718  1.00  0.00    -0.237 OA
ATOM     79  O   UNL A   1      45.491  37.412  33.840  1.00  0.00    -0.744 OA
ENDBRANCH  75  76
ENDBRANCH  47  70
BRANCH  59  80
ATOM     80  C   UNL A   1      48.466  27.985  29.754  1.00  0.00    -0.014 A 
ATOM     81  C   UNL A   1      49.241  28.374  28.645  1.00  0.00     0.010 A 
ATOM     82  C   UNL A   1      49.117  27.515  30.910  1.00  0.00     0.010 A 
ATOM     83  C   UNL A   1      50.632  28.234  28.669  1.00  0.00     0.020 A 
ATOM     84  C   UNL A   1      50.510  27.406  30.949  1.00  0.00     0.020 A 
ATOM     85  C   UNL A   1      51.256  27.741  29.818  1.00  0.00     0.054 A 
BRANCH  85  86
ATOM     86  S   UNL A   1      53.061  27.558  29.823  1.00  0.00     0.124 S 
ATOM     87  O   UNL A   1      53.282  26.705  28.659  1.00  0.00    -0.237 OA
ATOM     88  O   UNL A   1      53.525  28.937  29.689  1.00  0.00    -0.237 OA
ATOM     89  O   UNL A   1      53.343  26.935  31.114  1.00  0.00    -0.744 OA
ENDBRANCH  85  86
ENDBRANCH  59  80
ENDBRANCH  33  34
ENDBRANCH  25  28
ENDBRANCH  23  24
ENDBRANCH   1  23
TORSDOF 19
ENDMDL
MODEL 2
REMARK VINA RESULT:      -9.5      1.519      8.531
REMARK SMILES NC(=O)CC[C@H](NC(=O)CC1CC1)C(=O)NCCCNC(=O)c1ccc(-c2c3nc(c(-c4ccc(S(=O)(=O)[O-])cc4)c4ccc([nH]4)c(-c4ccc(S(=O)(=O)[O-])cc4)c4nc(c(-c5ccc(S(=O)(=O)[O-])cc5)c5ccc2[nH]5)C=C4)C=C3)cc1
REMARK SMILES IDX 18 1 17 2 16 3 14 4 15 5 6 7 5 8 4 9 2 10 1 11 3 14 7 15
REMARK SMILES IDX 8 16 9 18 10 19 11 20 12 21 13 22 19 23 20 24 21 25 22 27
REMARK SMILES IDX 23 28 24 29 82 30 25 31 81 32 26 33 27 34 28 35 75 36 29 37
REMARK SMILES IDX 80 38 74 39 76 40 30 41 79 42 73 43 72 44 31 46 61 47 42 48
REMARK SMILES IDX 60 49 43 50 46 51 59 52 77 53 44 54 45 55 58 57 78 58 47 59
REMARK SMILES IDX 32 60 33 61 41 62 34 63 40 64 35 65 36 66 37 67 38 68 39 69
REMARK SMILES IDX 62 70 63 71 71 72 64 73 70 74 65 75 66 76 67 77 68 78 69 79
REMARK SMILES IDX 48 80 49 81 57 82 50 83 56 84 51 85 52 86 53 87 54 88 55 89
REMARK H PARENT 16 6 1 12 1 13 7 17 20 26 76 45 46 56
REMARK Flexibility Score: inf
ROOT
ATOM      1  C   UNL A   1      33.775  33.777  28.576  1.00  0.00     0.042 C 
ENDROOT
BRANCH   1   2
ATOM      2  C   UNL A   1      34.131  34.155  30.020  1.00  0.00     0.117 C 
BRANCH   2   3
ATOM      3  N   UNL A   1      34.578  33.051  30.861  1.00  0.00    -0.354 N 
ATOM      4  C   UNL A   1      34.844  32.895  32.182  1.00  0.00     0.242 C 
ATOM      5  O   UNL A   1      35.262  31.775  32.511  1.00  0.00    -0.273 OA
ATOM      6  H   UNL A   1      34.721  32.223  30.348  1.00  0.00     0.163 HD
BRANCH   4   7
ATOM      7  C   UNL A   1      34.732  34.002  33.260  1.00  0.00     0.171 C 
BRANCH   7   8
ATOM      8  C   UNL A   1      34.813  35.476  32.810  1.00  0.00     0.045 C 
BRANCH   8   9
ATOM      9  C   UNL A   1      33.542  36.307  32.953  1.00  0.00     0.102 C 
BRANCH   9  10
ATOM     10  C   UNL A   1      33.534  37.487  32.014  1.00  0.00     0.217 C 
ATOM     11  N   UNL A   1      34.182  38.595  32.458  1.00  0.00    -0.370 N 
ATOM     12  H   UNL A   1      34.215  39.403  31.896  1.00  0.00     0.159 HD
ATOM     13  H   UNL A   1      34.616  38.591  33.341  1.00  0.00     0.159 HD
ATOM     14  O   UNL A   1      32.981  37.464  30.918  1.00  0.00    -0.275 OA
ENDBRANCH   9  10
ENDBRANCH   8   9
ENDBRANCH   7   8
BRANCH   7  15
ATOM     15  N   UNL A   1      35.156  33.698  34.635  1.00  0.00    -0.344 N 
ATOM     16  C   UNL A   1      36.329  33.815  35.308  1.00  0.00     0.220 C 
ATOM     17  H   UNL A   1      34.430  33.326  35.187  1.00  0.00     0.164 HD
ATOM     18  O   UNL A   1      36.289  33.715  36.537  1.00  0.00    -0.275 OA
BRANCH  16  19
ATOM     19  C   UNL A   1      37.625  34.053  34.581  1.00  0.00     0.103 C 
BRANCH  19  20
ATOM     20  C   UNL A   1      38.587  32.898  34.579  1.00  0.00    -0.002 C 
ATOM     21  C   UNL A   1      38.550  31.842  33.502  1.00  0.00     0.004 C 
ATOM     22  C   UNL A   1      39.721  32.776  33.591  1.00  0.00     0.004 C 
ENDBRANCH  19  20
ENDBRANCH  16  19
ENDBRANCH   7  15
ENDBRANCH   4   7
ENDBRANCH   2   3
ENDBRANCH   1   2
BRANCH   1  23
ATOM     23  C   UNL A   1      34.600  32.672  27.927  1.00  0.00     0.118 C 
BRANCH  23  24
ATOM     24  N   UNL A   1      33.909  31.402  27.914  1.00  0.00    -0.352 N 
ATOM     25  C   UNL A   1      34.422  30.129  27.942  1.00  0.00     0.251 C 
ATOM     26  H   UNL A   1      32.927  31.458  27.881  1.00  0.00     0.163 HD
ATOM     27  O   UNL A   1      33.676  29.189  27.673  1.00  0.00    -0.269 OA
BRANCH  25  28
ATOM     28  C   UNL A   1      35.846  29.865  28.274  1.00  0.00     0.039 A 
ATOM     29  C   UNL A   1      36.793  30.011  27.257  1.00  0.00     0.014 A 
ATOM     30  C   UNL A   1      36.255  29.389  29.527  1.00  0.00     0.014 A 
ATOM     31  C   UNL A   1      38.133  29.690  27.492  1.00  0.00     0.010 A 
ATOM     32  C   UNL A   1      37.609  29.143  29.783  1.00  0.00     0.010 A 
ATOM     33  C   UNL A   1      38.560  29.259  28.760  1.00  0.00    -0.014 A 
BRANCH  33  34
ATOM     34  C   UNL A   1      39.994  28.913  28.975  1.00  0.00     0.031 A 
ATOM     35  C   UNL A   1      40.921  29.851  29.705  1.00  0.00     0.074 A 
ATOM     36  C   UNL A   1      40.456  27.717  28.557  1.00  0.00     0.049 A 
ATOM     37  N   UNL A   1      42.142  29.638  30.134  1.00  0.00    -0.248 NA
ATOM     38  C   UNL A   1      40.424  31.208  29.977  1.00  0.00     0.031 C 
ATOM     39  C   UNL A   1      39.680  26.734  27.797  1.00  0.00     0.029 A 
ATOM     40  N   UNL A   1      41.675  27.110  28.738  1.00  0.00    -0.354 N 
ATOM     41  C   UNL A   1      42.553  30.827  30.728  1.00  0.00     0.074 A 
ATOM     42  C   UNL A   1      41.476  31.776  30.547  1.00  0.00     0.031 C 
ATOM     43  C   UNL A   1      40.416  25.623  27.640  1.00  0.00     0.029 A 
ATOM     44  C   UNL A   1      41.723  25.822  28.259  1.00  0.00     0.049 A 
ATOM     45  H   UNL A   1      42.440  27.555  29.170  1.00  0.00     0.167 HD
ATOM     46  C   UNL A   1      43.707  31.101  31.384  1.00  0.00     0.031 A 
ATOM     47  C   UNL A   1      42.696  24.893  28.332  1.00  0.00     0.031 A 
ATOM     48  C   UNL A   1      44.788  30.161  31.549  1.00  0.00     0.049 A 
ATOM     49  C   UNL A   1      43.969  25.214  29.063  1.00  0.00     0.074 A 
ATOM     50  C   UNL A   1      45.981  30.327  32.231  1.00  0.00     0.029 A 
ATOM     51  N   UNL A   1      44.810  28.880  31.016  1.00  0.00    -0.354 N 
ATOM     52  N   UNL A   1      44.307  26.319  29.686  1.00  0.00    -0.248 NA
ATOM     53  C   UNL A   1      44.982  24.152  29.120  1.00  0.00     0.031 C 
ATOM     54  C   UNL A   1      46.748  29.168  32.061  1.00  0.00     0.029 A 
ATOM     55  C   UNL A   1      46.007  28.254  31.330  1.00  0.00     0.049 A 
ATOM     56  H   UNL A   1      44.083  28.475  30.491  1.00  0.00     0.167 HD
ATOM     57  C   UNL A   1      45.565  26.077  30.228  1.00  0.00     0.074 A 
ATOM     58  C   UNL A   1      45.914  24.713  29.879  1.00  0.00     0.031 C 
ATOM     59  C   UNL A   1      46.358  26.907  30.952  1.00  0.00     0.031 A 
BRANCH  46  60
ATOM     60  C   UNL A   1      43.863  32.489  31.960  1.00  0.00    -0.014 A 
ATOM     61  C   UNL A   1      44.396  33.541  31.192  1.00  0.00     0.010 A 
ATOM     62  C   UNL A   1      43.465  32.749  33.284  1.00  0.00     0.010 A 
ATOM     63  C   UNL A   1      44.588  34.806  31.755  1.00  0.00     0.020 A 
ATOM     64  C   UNL A   1      43.625  34.022  33.842  1.00  0.00     0.020 A 
ATOM     65  C   UNL A   1      44.210  35.036  33.081  1.00  0.00     0.054 A 
BRANCH  65  66
ATOM     66  S   UNL A   1      44.487  36.682  33.793  1.00  0.00     0.124 S 
ATOM     67  O   UNL A   1      44.556  36.383  35.221  1.00  0.00    -0.237 OA
ATOM     68  O   UNL A   1      45.748  37.090  33.176  1.00  0.00    -0.237 OA
ATOM     69  O   UNL A   1      43.315  37.445  33.371  1.00  0.00    -0.744 OA
ENDBRANCH  65  66
ENDBRANCH  46  60
BRANCH  47  70
ATOM     70  C   UNL A   1      42.470  23.546  27.737  1.00  0.00    -0.014 A 
ATOM     71  C   UNL A   1      42.916  23.255  26.436  1.00  0.00     0.010 A 
ATOM     72  C   UNL A   1      41.841  22.534  28.486  1.00  0.00     0.010 A 
ATOM     73  C   UNL A   1      42.737  21.978  25.894  1.00  0.00     0.020 A 
ATOM     74  C   UNL A   1      41.687  21.249  27.959  1.00  0.00     0.020 A 
ATOM     75  C   UNL A   1      42.130  20.980  26.663  1.00  0.00     0.054 A 
BRANCH  75  76
ATOM     76  S   UNL A   1      41.983  19.310  25.970  1.00  0.00     0.124 S 
ATOM     77  O   UNL A   1      42.839  19.393  24.791  1.00  0.00    -0.237 OA
ATOM     78  O   UNL A   1      42.483  18.474  27.058  1.00  0.00    -0.237 OA
ATOM     79  O   UNL A   1      40.553  19.177  25.700  1.00  0.00    -0.744 OA
ENDBRANCH  75  76
ENDBRANCH  47  70
BRANCH  59  80
ATOM     80  C   UNL A   1      47.677  26.351  31.428  1.00  0.00    -0.014 A 
ATOM     81  C   UNL A   1      48.844  26.466  30.650  1.00  0.00     0.010 A 
ATOM     82  C   UNL A   1      47.748  25.700  32.673  1.00  0.00     0.010 A 
ATOM     83  C   UNL A   1      50.041  25.885  31.080  1.00  0.00     0.020 A 
ATOM     84  C   UNL A   1      48.951  25.148  33.122  1.00  0.00     0.020 A 
ATOM     85  C   UNL A   1      50.084  25.222  32.309  1.00  0.00     0.054 A 
BRANCH  85  86
ATOM     86  S   UNL A   1      51.645  24.467  32.842  1.00  0.00     0.124 S 
ATOM     87  O   UNL A   1      52.617  25.150  31.993  1.00  0.00    -0.237 OA
ATOM     88  O   UNL A   1      51.701  24.809  34.261  1.00  0.00    -0.237 OA
ATOM     89  O   UNL A   1      51.459  23.046  32.557  1.00  0.00    -0.744 OA
ENDBRANCH  85  86
ENDBRANCH  59  80
ENDBRANCH  33  34
ENDBRANCH  25  28
ENDBRANCH  23  24
ENDBRANCH   1  23
TORSDOF 19
ENDMDL
MODEL 3
REMARK VINA RESULT:      -9.5      3.000      8.681
REMARK SMILES NC(=O)CC[C@H](NC(=O)CC1CC1)C(=O)NCCCNC(=O)c1ccc(-c2c3nc(c(-c4ccc(S(=O)(=O)[O-])cc4)c4ccc([nH]4)c(-c4ccc(S(=O)(=O)[O-])cc4)c4nc(c(-c5ccc(S(=O)(=O)[O-])cc5)c5ccc2[nH]5)C=C4)C=C3)cc1
REMARK SMILES IDX 18 1 17 2 16 3 14 4 15 5 6 7 5 8 4 9 2 10 1 11 3 14 7 15
REMARK SMILES IDX 8 16 9 18 10 19 11 20 12 21 13 22 19 23 20 24 21 25 22 27
REMARK SMILES IDX 23 28 24 29 82 30 25 31 81 32 26 33 27 34 28 35 75 36 29 37
REMARK SMILES IDX 80 38 74 39 76 40 30 41 79 42 73 43 72 44 31 46 61 47 42 48
REMARK SMILES IDX 60 49 43 50 46 51 59 52 77 53 44 54 45 55 58 57 78 58 47 59
REMARK SMILES IDX 32 60 33 61 41 62 34 63 40 64 35 65 36 66 37 67 38 68 39 69
REMARK SMILES IDX 62 70 63 71 71 72 64 73 70 74 65 75 66 76 67 77 68 78 69 79
REMARK SMILES IDX 48 80 49 81 57 82 50 83 56 84 51 85 52 86 53 87 54 88 55 89
REMARK H PARENT 16 6 1 12 1 13 7 17 20 26 76 45 46 56
REMARK Flexibility Score: inf
ROOT
ATOM      1  C   UNL A   1      34.002  34.026  28.182  1.00  0.00     0.042 C 
ENDROOT
BRANCH   1   2
ATOM      2  C   UNL A   1      34.027  34.689  29.565  1.00  0.00     0.117 C 
BRANCH   2   3
ATOM      3  N   UNL A   1      33.816  33.788  30.691  1.00  0.00    -0.354 N 
ATOM      4  C   UNL A   1      34.271  33.721  31.968  1.00  0.00     0.242 C 
ATOM      5  O   UNL A   1      33.880  32.742  32.620  1.00  0.00    -0.273 OA
ATOM      6  H   UNL A   1      33.195  33.055  30.474  1.00  0.00     0.163 HD
BRANCH   4   7
ATOM      7  C   UNL A   1      35.268  34.711  32.621  1.00  0.00     0.171 C 
BRANCH   7   8
ATOM      8  C   UNL A   1      34.702  35.929  33.381  1.00  0.00     0.045 C 
BRANCH   8   9
ATOM      9  C   UNL A   1      33.341  36.447  32.928  1.00  0.00     0.102 C 
BRANCH   9  10
ATOM     10  C   UNL A   1      33.471  37.618  31.987  1.00  0.00     0.217 C 
ATOM     11  N   UNL A   1      34.209  38.663  32.447  1.00  0.00    -0.370 N 
ATOM     12  H   UNL A   1      34.334  39.461  31.885  1.00  0.00     0.159 HD
ATOM     13  H   UNL A   1      34.616  38.621  33.342  1.00  0.00     0.159 HD
ATOM     14  O   UNL A   1      32.949  37.644  30.876  1.00  0.00    -0.275 OA
ENDBRANCH   9  10
ENDBRANCH   8   9
ENDBRANCH   7   8
BRANCH   7  15
ATOM     15  N   UNL A   1      36.612  34.850  32.040  1.00  0.00    -0.344 N 
ATOM     16  C   UNL A   1      37.865  34.578  32.487  1.00  0.00     0.220 C 
ATOM     17  H   UNL A   1      36.600  35.222  31.129  1.00  0.00     0.164 HD
ATOM     18  O   UNL A   1      38.773  34.564  31.651  1.00  0.00    -0.275 OA
BRANCH  16  19
ATOM     19  C   UNL A   1      38.132  34.309  33.943  1.00  0.00     0.103 C 
BRANCH  19  20
ATOM     20  C   UNL A   1      37.244  33.279  34.583  1.00  0.00    -0.002 C 
ATOM     21  C   UNL A   1      37.104  31.891  34.010  1.00  0.00     0.004 C 
ATOM     22  C   UNL A   1      37.781  32.086  35.335  1.00  0.00     0.004 C 
ENDBRANCH  19  20
ENDBRANCH  16  19
ENDBRANCH   7  15
ENDBRANCH   4   7
ENDBRANCH   2   3
ENDBRANCH   1   2
BRANCH   1  23
ATOM     23  C   UNL A   1      34.947  32.850  27.960  1.00  0.00     0.118 C 
BRANCH  23  24
ATOM     24  N   UNL A   1      34.240  31.617  27.696  1.00  0.00    -0.352 N 
ATOM     25  C   UNL A   1      34.719  30.331  27.646  1.00  0.00     0.251 C 
ATOM     26  H   UNL A   1      33.276  31.713  27.527  1.00  0.00     0.163 HD
ATOM     27  O   UNL A   1      34.003  29.456  27.162  1.00  0.00    -0.269 OA
BRANCH  25  28
ATOM     28  C   UNL A   1      36.072  29.978  28.148  1.00  0.00     0.039 A 
ATOM     29  C   UNL A   1      36.187  29.555  29.475  1.00  0.00     0.014 A 
ATOM     30  C   UNL A   1      37.232  30.142  27.380  1.00  0.00     0.014 A 
ATOM     31  C   UNL A   1      37.446  29.296  30.024  1.00  0.00     0.010 A 
ATOM     32  C   UNL A   1      38.485  29.808  27.907  1.00  0.00     0.010 A 
ATOM     33  C   UNL A   1      38.611  29.411  29.246  1.00  0.00    -0.014 A 
BRANCH  33  34
ATOM     34  C   UNL A   1      39.940  29.139  29.864  1.00  0.00     0.031 A 
ATOM     35  C   UNL A   1      40.393  29.883  31.095  1.00  0.00     0.074 A 
ATOM     36  C   UNL A   1      40.726  28.175  29.346  1.00  0.00     0.049 A 
ATOM     37  N   UNL A   1      41.431  29.654  31.862  1.00  0.00    -0.248 NA
ATOM     38  C   UNL A   1      39.590  31.043  31.511  1.00  0.00     0.031 C 
ATOM     39  C   UNL A   1      40.431  27.411  28.131  1.00  0.00     0.029 A 
ATOM     40  N   UNL A   1      41.915  27.648  29.789  1.00  0.00    -0.354 N 
ATOM     41  C   UNL A   1      41.401  30.633  32.850  1.00  0.00     0.074 A 
ATOM     42  C   UNL A   1      40.281  31.496  32.547  1.00  0.00     0.031 C 
ATOM     43  C   UNL A   1      41.373  26.469  27.967  1.00  0.00     0.029 A 
ATOM     44  C   UNL A   1      42.353  26.579  29.044  1.00  0.00     0.049 A 
ATOM     45  H   UNL A   1      42.405  28.002  30.567  1.00  0.00     0.167 HD
ATOM     46  C   UNL A   1      42.214  30.789  33.924  1.00  0.00     0.031 A 
ATOM     47  C   UNL A   1      43.408  25.759  29.217  1.00  0.00     0.031 A 
ATOM     48  C   UNL A   1      43.342  29.940  34.217  1.00  0.00     0.049 A 
ATOM     49  C   UNL A   1      44.298  25.948  30.414  1.00  0.00     0.074 A 
ATOM     50  C   UNL A   1      44.203  29.990  35.300  1.00  0.00     0.029 A 
ATOM     51  N   UNL A   1      43.772  28.893  33.416  1.00  0.00    -0.354 N 
ATOM     52  N   UNL A   1      44.207  26.832  31.379  1.00  0.00    -0.248 NA
ATOM     53  C   UNL A   1      45.420  25.011  30.553  1.00  0.00     0.031 C 
ATOM     54  C   UNL A   1      45.187  29.009  35.123  1.00  0.00     0.029 A 
ATOM     55  C   UNL A   1      44.902  28.305  33.965  1.00  0.00     0.049 A 
ATOM     56  H   UNL A   1      43.339  28.608  32.579  1.00  0.00     0.167 HD
ATOM     57  C   UNL A   1      45.250  26.544  32.254  1.00  0.00     0.074 A 
ATOM     58  C   UNL A   1      45.940  25.389  31.714  1.00  0.00     0.031 C 
ATOM     59  C   UNL A   1      45.601  27.175  33.403  1.00  0.00     0.031 A 
BRANCH  46  60
ATOM     60  C   UNL A   1      41.915  31.940  34.855  1.00  0.00    -0.014 A 
ATOM     61  C   UNL A   1      42.304  33.256  34.537  1.00  0.00     0.010 A 
ATOM     62  C   UNL A   1      41.231  31.709  36.063  1.00  0.00     0.010 A 
ATOM     63  C   UNL A   1      42.072  34.303  35.434  1.00  0.00     0.020 A 
ATOM     64  C   UNL A   1      40.969  32.759  36.949  1.00  0.00     0.020 A 
ATOM     65  C   UNL A   1      41.415  34.045  36.640  1.00  0.00     0.054 A 
BRANCH  65  66
ATOM     66  S   UNL A   1      41.143  35.418  37.795  1.00  0.00     0.124 S 
ATOM     67  O   UNL A   1      39.746  35.223  38.171  1.00  0.00    -0.237 OA
ATOM     68  O   UNL A   1      42.120  35.149  38.849  1.00  0.00    -0.237 OA
ATOM     69  O   UNL A   1      41.413  36.607  36.990  1.00  0.00    -0.744 OA
ENDBRANCH  65  66
ENDBRANCH  46  60
BRANCH  47  70
ATOM     70  C   UNL A   1      43.639  24.646  28.254  1.00  0.00    -0.014 A 
ATOM     71  C   UNL A   1      42.916  23.445  28.363  1.00  0.00     0.010 A 
ATOM     72  C   UNL A   1      44.558  24.799  27.199  1.00  0.00     0.010 A 
ATOM     73  C   UNL A   1      43.108  22.417  27.435  1.00  0.00     0.020 A 
ATOM     74  C   UNL A   1      44.730  23.784  26.253  1.00  0.00     0.020 A 
ATOM     75  C   UNL A   1      44.008  22.596  26.381  1.00  0.00     0.054 A 
BRANCH  75  76
ATOM     76  S   UNL A   1      44.179  21.281  25.142  1.00  0.00     0.124 S 
ATOM     77  O   UNL A   1      43.084  20.384  25.498  1.00  0.00    -0.237 OA
ATOM     78  O   UNL A   1      44.019  22.009  23.887  1.00  0.00    -0.237 OA
ATOM     79  O   UNL A   1      45.522  20.759  25.383  1.00  0.00    -0.744 OA
ENDBRANCH  75  76
ENDBRANCH  47  70
BRANCH  59  80
ATOM     80  C   UNL A   1      46.779  26.614  34.159  1.00  0.00    -0.014 A 
ATOM     81  C   UNL A   1      48.091  27.054  33.902  1.00  0.00     0.010 A 
ATOM     82  C   UNL A   1      46.570  25.630  35.143  1.00  0.00     0.010 A 
ATOM     83  C   UNL A   1      49.175  26.473  34.568  1.00  0.00     0.020 A 
ATOM     84  C   UNL A   1      47.648  25.072  35.834  1.00  0.00     0.020 A 
ATOM     85  C   UNL A   1      48.947  25.479  35.523  1.00  0.00     0.054 A 
BRANCH  85  86
ATOM     86  S   UNL A   1      50.369  24.733  36.366  1.00  0.00     0.124 S 
ATOM     87  O   UNL A   1      50.818  25.824  37.226  1.00  0.00    -0.237 OA
ATOM     88  O   UNL A   1      49.772  23.593  37.058  1.00  0.00    -0.237 OA
ATOM     89  O   UNL A   1      51.276  24.385  35.275  1.00  0.00    -0.744 OA
ENDBRANCH  85  86
ENDBRANCH  59  80
ENDBRANCH  33  34
ENDBRANCH  25  28
ENDBRANCH  23  24
ENDBRANCH   1  23
TORSDOF 19
ENDMDL
