MODEL 1
REMARK VINA RESULT:     -10.7      0.000      0.000
REMARK SMILES C[C@@H](c1ccccc1)[C@@H]1[NH2+][C@@H](C(=O)NCCCNC(=O)c2ccc(-c3c4nc(c(-c5ccc(S(=O)(=O)[O-])cc5)c5ccc([nH]5)c(-c5ccc(S(=O)(=O)[O-])cc5)c5nc(c(-c6ccc(S(=O)(=O)[O-])cc6)c6ccc3[nH]6)C=C5)C=C4)cc2)CS1
REMARK SMILES IDX 16 1 15 2 14 3 12 4 13 5 11 7 9 8 10 9 82 10 81 13 2 14 1 15
REMARK SMILES IDX 3 16 4 17 8 18 5 19 7 20 6 21 17 22 18 23 19 24 20 26 21 27
REMARK SMILES IDX 22 28 80 29 23 30 79 31 24 32 25 33 26 34 73 35 27 36 78 37
REMARK SMILES IDX 72 38 74 39 28 40 77 41 71 42 70 43 29 45 59 46 40 47 58 48
REMARK SMILES IDX 41 49 44 50 57 51 75 52 42 53 43 54 56 56 76 57 45 58 30 59
REMARK SMILES IDX 31 60 39 61 32 62 38 63 33 64 34 65 35 66 36 67 37 68 60 69
REMARK SMILES IDX 61 70 69 71 62 72 68 73 63 74 64 75 65 76 66 77 67 78 46 79
REMARK SMILES IDX 47 80 55 81 48 82 54 83 49 84 50 85 51 86 52 87 53 88
REMARK H PARENT 14 6 10 11 10 12 18 25 74 44 44 55
REMARK Flexibility Score: inf
ROOT
ATOM      1  C   UNL A   1      33.825  28.420  24.931  1.00  0.00     0.042 C 
ENDROOT
BRANCH   1   2
ATOM      2  C   UNL A   1      32.561  27.877  24.277  1.00  0.00     0.118 C 
BRANCH   2   3
ATOM      3  N   UNL A   1      32.813  27.390  22.932  1.00  0.00    -0.351 N 
ATOM      4  C   UNL A   1      33.201  26.164  22.492  1.00  0.00     0.279 C 
ATOM      5  O   UNL A   1      33.474  26.047  21.294  1.00  0.00    -0.268 OA
ATOM      6  H   UNL A   1      32.681  28.059  22.222  1.00  0.00     0.163 HD
BRANCH   4   7
ATOM      7  C   UNL A   1      33.310  24.969  23.455  1.00  0.00     0.283 C 
ATOM      8  C   UNL A   1      34.295  22.780  23.448  1.00  0.00     0.249 C 
ATOM      9  N   UNL A   1      34.541  24.197  23.120  1.00  0.00    -0.324 N 
ATOM     10  S   UNL A   1      32.617  22.474  22.819  1.00  0.00    -0.092 SA
ATOM     11  H   UNL A   1      34.749  24.291  22.127  1.00  0.00     0.347 HD
ATOM     12  H   UNL A   1      35.335  24.550  23.653  1.00  0.00     0.347 HD
ATOM     13  C   UNL A   1      32.045  24.111  23.313  1.00  0.00     0.151 C 
BRANCH   8  14
ATOM     14  C   UNL A   1      34.498  22.462  24.968  1.00  0.00     0.085 C 
ATOM     15  C   UNL A   1      33.867  21.131  25.416  1.00  0.00     0.020 C 
BRANCH  14  16
ATOM     16  C   UNL A   1      35.983  22.523  25.329  1.00  0.00    -0.038 A 
ATOM     17  C   UNL A   1      36.791  21.394  25.116  1.00  0.00     0.004 A 
ATOM     18  C   UNL A   1      36.571  23.663  25.901  1.00  0.00     0.004 A 
ATOM     19  C   UNL A   1      38.147  21.411  25.449  1.00  0.00     0.000 A 
ATOM     20  C   UNL A   1      37.929  23.681  26.228  1.00  0.00     0.000 A 
ATOM     21  C   UNL A   1      38.716  22.556  26.001  1.00  0.00     0.000 A 
ENDBRANCH  14  16
ENDBRANCH   8  14
ENDBRANCH   4   7
ENDBRANCH   2   3
ENDBRANCH   1   2
BRANCH   1  22
ATOM     22  C   UNL A   1      33.783  28.450  26.457  1.00  0.00     0.118 C 
BRANCH  22  23
ATOM     23  N   UNL A   1      33.642  29.796  26.996  1.00  0.00    -0.352 N 
ATOM     24  C   UNL A   1      34.481  30.518  27.808  1.00  0.00     0.251 C 
ATOM     25  H   UNL A   1      32.813  30.261  26.738  1.00  0.00     0.163 HD
ATOM     26  O   UNL A   1      34.081  31.577  28.292  1.00  0.00    -0.269 OA
BRANCH  24  27
ATOM     27  C   UNL A   1      35.840  30.027  28.121  1.00  0.00     0.039 A 
ATOM     28  C   UNL A   1      36.834  30.127  27.144  1.00  0.00     0.014 A 
ATOM     29  C   UNL A   1      36.135  29.449  29.358  1.00  0.00     0.014 A 
ATOM     30  C   UNL A   1      38.137  29.712  27.434  1.00  0.00     0.010 A 
ATOM     31  C   UNL A   1      37.450  29.114  29.674  1.00  0.00     0.010 A 
ATOM     32  C   UNL A   1      38.466  29.237  28.714  1.00  0.00    -0.014 A 
BRANCH  32  33
ATOM     33  C   UNL A   1      39.863  28.872  29.066  1.00  0.00     0.031 A 
ATOM     34  C   UNL A   1      40.770  29.876  29.726  1.00  0.00     0.074 A 
ATOM     35  C   UNL A   1      40.335  27.653  28.736  1.00  0.00     0.049 A 
ATOM     36  N   UNL A   1      42.029  29.754  30.062  1.00  0.00    -0.248 NA
ATOM     37  C   UNL A   1      40.196  31.198  30.028  1.00  0.00     0.031 C 
ATOM     38  C   UNL A   1      39.571  26.602  28.057  1.00  0.00     0.029 A 
ATOM     39  N   UNL A   1      41.574  27.090  28.924  1.00  0.00    -0.354 N 
ATOM     40  C   UNL A   1      42.401  30.982  30.597  1.00  0.00     0.074 A 
ATOM     41  C   UNL A   1      41.250  31.852  30.494  1.00  0.00     0.031 C 
ATOM     42  C   UNL A   1      40.347  25.517  27.913  1.00  0.00     0.029 A 
ATOM     43  C   UNL A   1      41.675  25.805  28.445  1.00  0.00     0.049 A 
ATOM     44  H   UNL A   1      42.320  27.563  29.360  1.00  0.00     0.167 HD
ATOM     45  C   UNL A   1      43.585  31.349  31.143  1.00  0.00     0.031 A 
ATOM     46  C   UNL A   1      42.720  24.954  28.426  1.00  0.00     0.031 A 
ATOM     47  C   UNL A   1      44.727  30.478  31.250  1.00  0.00     0.049 A 
ATOM     48  C   UNL A   1      44.030  25.389  29.024  1.00  0.00     0.074 A 
ATOM     49  C   UNL A   1      45.954  30.739  31.835  1.00  0.00     0.029 A 
ATOM     50  N   UNL A   1      44.787  29.183  30.757  1.00  0.00    -0.354 N 
ATOM     51  N   UNL A   1      44.340  26.532  29.587  1.00  0.00    -0.248 NA
ATOM     52  C   UNL A   1      45.128  24.412  28.997  1.00  0.00     0.031 C 
ATOM     53  C   UNL A   1      46.776  29.622  31.643  1.00  0.00     0.029 A 
ATOM     54  C   UNL A   1      46.038  28.641  31.001  1.00  0.00     0.049 A 
ATOM     55  H   UNL A   1      44.049  28.717  30.302  1.00  0.00     0.167 HD
ATOM     56  C   UNL A   1      45.659  26.402  30.008  1.00  0.00     0.074 A 
ATOM     57  C   UNL A   1      46.082  25.064  29.648  1.00  0.00     0.031 C 
ATOM     58  C   UNL A   1      46.448  27.308  30.637  1.00  0.00     0.031 A 
BRANCH  45  59
ATOM     59  C   UNL A   1      43.709  32.759  31.662  1.00  0.00    -0.014 A 
ATOM     60  C   UNL A   1      44.139  33.807  30.827  1.00  0.00     0.010 A 
ATOM     61  C   UNL A   1      43.349  33.050  32.990  1.00  0.00     0.010 A 
ATOM     62  C   UNL A   1      44.247  35.109  31.322  1.00  0.00     0.020 A 
ATOM     63  C   UNL A   1      43.425  34.357  33.482  1.00  0.00     0.020 A 
ATOM     64  C   UNL A   1      43.891  35.375  32.647  1.00  0.00     0.054 A 
BRANCH  64  65
ATOM     65  S   UNL A   1      44.020  37.080  33.255  1.00  0.00     0.124 S 
ATOM     66  O   UNL A   1      45.339  37.075  33.884  1.00  0.00    -0.237 OA
ATOM     67  O   UNL A   1      43.912  37.866  32.029  1.00  0.00    -0.237 OA
ATOM     68  O   UNL A   1      42.893  37.207  34.175  1.00  0.00    -0.744 OA
ENDBRANCH  64  65
ENDBRANCH  45  59
BRANCH  46  69
ATOM     69  C   UNL A   1      42.563  23.598  27.830  1.00  0.00    -0.014 A 
ATOM     70  C   UNL A   1      43.043  23.324  26.536  1.00  0.00     0.010 A 
ATOM     71  C   UNL A   1      41.940  22.568  28.558  1.00  0.00     0.010 A 
ATOM     72  C   UNL A   1      42.886  22.053  25.975  1.00  0.00     0.020 A 
ATOM     73  C   UNL A   1      41.810  21.288  28.014  1.00  0.00     0.020 A 
ATOM     74  C   UNL A   1      42.273  21.041  26.720  1.00  0.00     0.054 A 
BRANCH  74  75
ATOM     75  S   UNL A   1      42.127  19.386  25.991  1.00  0.00     0.124 S 
ATOM     76  O   UNL A   1      40.689  19.277  25.770  1.00  0.00    -0.237 OA
ATOM     77  O   UNL A   1      42.947  19.499  24.787  1.00  0.00    -0.237 OA
ATOM     78  O   UNL A   1      42.670  18.508  27.025  1.00  0.00    -0.744 OA
ENDBRANCH  74  75
ENDBRANCH  46  69
BRANCH  58  79
ATOM     79  C   UNL A   1      47.840  26.872  31.015  1.00  0.00    -0.014 A 
ATOM     80  C   UNL A   1      48.945  27.148  30.191  1.00  0.00     0.010 A 
ATOM     81  C   UNL A   1      48.049  26.217  32.242  1.00  0.00     0.010 A 
ATOM     82  C   UNL A   1      50.228  26.743  30.570  1.00  0.00     0.020 A 
ATOM     83  C   UNL A   1      49.333  25.839  32.640  1.00  0.00     0.020 A 
ATOM     84  C   UNL A   1      50.414  26.091  31.793  1.00  0.00     0.054 A 
BRANCH  84  85
ATOM     85  S   UNL A   1      52.093  25.609  32.279  1.00  0.00     0.124 S 
ATOM     86  O   UNL A   1      52.363  26.520  33.387  1.00  0.00    -0.237 OA
ATOM     87  O   UNL A   1      51.929  24.204  32.646  1.00  0.00    -0.237 OA
ATOM     88  O   UNL A   1      52.885  25.843  31.074  1.00  0.00    -0.744 OA
ENDBRANCH  84  85
ENDBRANCH  58  79
ENDBRANCH  32  33
ENDBRANCH  24  27
ENDBRANCH  22  23
ENDBRANCH   1  22
TORSDOF 15
ENDMDL
MODEL 2
REMARK VINA RESULT:     -10.6      1.751      2.500
REMARK SMILES C[C@@H](c1ccccc1)[C@@H]1[NH2+][C@@H](C(=O)NCCCNC(=O)c2ccc(-c3c4nc(c(-c5ccc(S(=O)(=O)[O-])cc5)c5ccc([nH]5)c(-c5ccc(S(=O)(=O)[O-])cc5)c5nc(c(-c6ccc(S(=O)(=O)[O-])cc6)c6ccc3[nH]6)C=C5)C=C4)cc2)CS1
REMARK SMILES IDX 16 1 15 2 14 3 12 4 13 5 11 7 9 8 10 9 82 10 81 13 2 14 1 15
REMARK SMILES IDX 3 16 4 17 8 18 5 19 7 20 6 21 17 22 18 23 19 24 20 26 21 27
REMARK SMILES IDX 22 28 80 29 23 30 79 31 24 32 25 33 26 34 73 35 27 36 78 37
REMARK SMILES IDX 72 38 74 39 28 40 77 41 71 42 70 43 29 45 59 46 40 47 58 48
REMARK SMILES IDX 41 49 44 50 57 51 75 52 42 53 43 54 56 56 76 57 45 58 30 59
REMARK SMILES IDX 31 60 39 61 32 62 38 63 33 64 34 65 35 66 36 67 37 68 60 69
REMARK SMILES IDX 61 70 69 71 62 72 68 73 63 74 64 75 65 76 66 77 67 78 46 79
REMARK SMILES IDX 47 80 55 81 48 82 54 83 49 84 50 85 51 86 52 87 53 88
REMARK H PARENT 14 6 10 11 10 12 18 25 74 44 44 55
REMARK Flexibility Score: inf
ROOT
ATOM      1  C   UNL A   1      32.099  27.724  26.619  1.00  0.00     0.042 C 
ENDROOT
BRANCH   1   2
ATOM      2  C   UNL A   1      32.191  26.322  26.029  1.00  0.00     0.118 C 
BRANCH   2   3
ATOM      3  N   UNL A   1      31.313  25.389  26.711  1.00  0.00    -0.351 N 
ATOM      4  C   UNL A   1      31.331  24.030  26.762  1.00  0.00     0.279 C 
ATOM      5  O   UNL A   1      30.381  23.467  27.313  1.00  0.00    -0.268 OA
ATOM      6  H   UNL A   1      30.583  25.810  27.222  1.00  0.00     0.163 HD
BRANCH   4   7
ATOM      7  C   UNL A   1      32.484  23.224  26.141  1.00  0.00     0.283 C 
ATOM      8  C   UNL A   1      33.317  20.975  26.233  1.00  0.00     0.249 C 
ATOM      9  N   UNL A   1      32.093  21.786  26.097  1.00  0.00    -0.324 N 
ATOM     10  S   UNL A   1      34.244  21.807  27.557  1.00  0.00    -0.092 SA
ATOM     11  H   UNL A   1      31.453  21.578  26.863  1.00  0.00     0.347 HD
ATOM     12  H   UNL A   1      31.625  21.575  25.216  1.00  0.00     0.347 HD
ATOM     13  C   UNL A   1      33.745  23.444  26.990  1.00  0.00     0.151 C 
BRANCH   8  14
ATOM     14  C   UNL A   1      34.095  20.814  24.885  1.00  0.00     0.085 C 
ATOM     15  C   UNL A   1      35.603  21.110  24.995  1.00  0.00     0.020 C 
BRANCH  14  16
ATOM     16  C   UNL A   1      33.843  19.428  24.289  1.00  0.00    -0.038 A 
ATOM     17  C   UNL A   1      32.680  19.202  23.534  1.00  0.00     0.004 A 
ATOM     18  C   UNL A   1      34.721  18.351  24.494  1.00  0.00     0.004 A 
ATOM     19  C   UNL A   1      32.413  17.945  22.988  1.00  0.00     0.000 A 
ATOM     20  C   UNL A   1      34.456  17.095  23.943  1.00  0.00     0.000 A 
ATOM     21  C   UNL A   1      33.302  16.893  23.190  1.00  0.00     0.000 A 
ENDBRANCH  14  16
ENDBRANCH   8  14
ENDBRANCH   4   7
ENDBRANCH   2   3
ENDBRANCH   1   2
BRANCH   1  22
ATOM     22  C   UNL A   1      33.436  28.305  27.072  1.00  0.00     0.118 C 
BRANCH  22  23
ATOM     23  N   UNL A   1      33.380  29.741  27.315  1.00  0.00    -0.352 N 
ATOM     24  C   UNL A   1      34.292  30.576  27.909  1.00  0.00     0.251 C 
ATOM     25  H   UNL A   1      32.555  30.181  27.004  1.00  0.00     0.163 HD
ATOM     26  O   UNL A   1      33.964  31.733  28.172  1.00  0.00    -0.269 OA
BRANCH  24  27
ATOM     27  C   UNL A   1      35.648  30.095  28.252  1.00  0.00     0.039 A 
ATOM     28  C   UNL A   1      36.643  30.127  27.271  1.00  0.00     0.014 A 
ATOM     29  C   UNL A   1      35.940  29.593  29.522  1.00  0.00     0.014 A 
ATOM     30  C   UNL A   1      37.943  29.721  27.585  1.00  0.00     0.010 A 
ATOM     31  C   UNL A   1      37.252  29.267  29.858  1.00  0.00     0.010 A 
ATOM     32  C   UNL A   1      38.268  29.324  28.893  1.00  0.00    -0.014 A 
BRANCH  32  33
ATOM     33  C   UNL A   1      39.663  28.971  29.266  1.00  0.00     0.031 A 
ATOM     34  C   UNL A   1      40.542  29.973  29.965  1.00  0.00     0.074 A 
ATOM     35  C   UNL A   1      40.159  27.765  28.922  1.00  0.00     0.049 A 
ATOM     36  N   UNL A   1      41.796  29.862  30.325  1.00  0.00    -0.248 NA
ATOM     37  C   UNL A   1      39.943  31.281  30.281  1.00  0.00     0.031 C 
ATOM     38  C   UNL A   1      39.424  26.718  28.207  1.00  0.00     0.029 A 
ATOM     39  N   UNL A   1      41.401  27.216  29.124  1.00  0.00    -0.354 N 
ATOM     40  C   UNL A   1      42.139  31.084  30.892  1.00  0.00     0.074 A 
ATOM     41  C   UNL A   1      40.979  31.940  30.782  1.00  0.00     0.031 C 
ATOM     42  C   UNL A   1      40.218  25.646  28.057  1.00  0.00     0.029 A 
ATOM     43  C   UNL A   1      41.531  25.942  28.622  1.00  0.00     0.049 A 
ATOM     44  H   UNL A   1      42.131  27.690  29.585  1.00  0.00     0.167 HD
ATOM     45  C   UNL A   1      43.306  31.455  31.470  1.00  0.00     0.031 A 
ATOM     46  C   UNL A   1      42.588  25.106  28.608  1.00  0.00     0.031 A 
ATOM     47  C   UNL A   1      44.458  30.598  31.583  1.00  0.00     0.049 A 
ATOM     48  C   UNL A   1      43.879  25.546  29.242  1.00  0.00     0.074 A 
ATOM     49  C   UNL A   1      45.669  30.864  32.199  1.00  0.00     0.029 A 
ATOM     50  N   UNL A   1      44.547  29.315  31.066  1.00  0.00    -0.354 N 
ATOM     51  N   UNL A   1      44.161  26.682  29.834  1.00  0.00    -0.248 NA
ATOM     52  C   UNL A   1      44.991  24.586  29.218  1.00  0.00     0.031 C 
ATOM     53  C   UNL A   1      46.510  29.763  32.002  1.00  0.00     0.029 A 
ATOM     54  C   UNL A   1      45.800  28.786  31.325  1.00  0.00     0.049 A 
ATOM     55  H   UNL A   1      43.824  28.849  30.586  1.00  0.00     0.167 HD
ATOM     56  C   UNL A   1      45.473  26.562  30.279  1.00  0.00     0.074 A 
ATOM     57  C   UNL A   1      45.922  25.237  29.902  1.00  0.00     0.031 C 
ATOM     58  C   UNL A   1      46.236  27.465  30.943  1.00  0.00     0.031 A 
BRANCH  45  59
ATOM     59  C   UNL A   1      43.400  32.857  32.019  1.00  0.00    -0.014 A 
ATOM     60  C   UNL A   1      43.834  33.927  31.215  1.00  0.00     0.010 A 
ATOM     61  C   UNL A   1      43.006  33.116  33.344  1.00  0.00     0.010 A 
ATOM     62  C   UNL A   1      43.914  35.220  31.738  1.00  0.00     0.020 A 
ATOM     63  C   UNL A   1      43.053  34.414  33.863  1.00  0.00     0.020 A 
ATOM     64  C   UNL A   1      43.524  35.455  33.060  1.00  0.00     0.054 A 
BRANCH  64  65
ATOM     65  S   UNL A   1      43.617  37.148  33.705  1.00  0.00     0.124 S 
ATOM     66  O   UNL A   1      42.384  37.241  34.484  1.00  0.00    -0.237 OA
ATOM     67  O   UNL A   1      44.852  37.126  34.485  1.00  0.00    -0.237 OA
ATOM     68  O   UNL A   1      43.657  37.976  32.503  1.00  0.00    -0.744 OA
ENDBRANCH  64  65
ENDBRANCH  45  59
BRANCH  46  69
ATOM     69  C   UNL A   1      42.462  23.760  27.982  1.00  0.00    -0.014 A 
ATOM     70  C   UNL A   1      42.953  23.526  26.684  1.00  0.00     0.010 A 
ATOM     71  C   UNL A   1      41.859  22.701  28.685  1.00  0.00     0.010 A 
ATOM     72  C   UNL A   1      42.825  22.264  26.095  1.00  0.00     0.020 A 
ATOM     73  C   UNL A   1      41.758  21.431  28.112  1.00  0.00     0.020 A 
ATOM     74  C   UNL A   1      42.232  21.223  26.815  1.00  0.00     0.054 A 
BRANCH  74  75
ATOM     75  S   UNL A   1      42.124  19.582  26.050  1.00  0.00     0.124 S 
ATOM     76  O   UNL A   1      42.975  19.736  24.876  1.00  0.00    -0.237 OA
ATOM     77  O   UNL A   1      42.644  18.709  27.101  1.00  0.00    -0.237 OA
ATOM     78  O   UNL A   1      40.697  19.427  25.773  1.00  0.00    -0.744 OA
ENDBRANCH  74  75
ENDBRANCH  46  69
BRANCH  58  79
ATOM     79  C   UNL A   1      47.626  27.041  31.342  1.00  0.00    -0.014 A 
ATOM     80  C   UNL A   1      48.732  27.270  30.504  1.00  0.00     0.010 A 
ATOM     81  C   UNL A   1      47.832  26.446  32.600  1.00  0.00     0.010 A 
ATOM     82  C   UNL A   1      50.012  26.877  30.902  1.00  0.00     0.020 A 
ATOM     83  C   UNL A   1      49.115  26.082  33.015  1.00  0.00     0.020 A 
ATOM     84  C   UNL A   1      50.196  26.285  32.155  1.00  0.00     0.054 A 
BRANCH  84  85
ATOM     85  S   UNL A   1      51.873  25.818  32.664  1.00  0.00     0.124 S 
ATOM     86  O   UNL A   1      52.638  27.015  32.326  1.00  0.00    -0.237 OA
ATOM     87  O   UNL A   1      51.713  25.557  34.092  1.00  0.00    -0.237 OA
ATOM     88  O   UNL A   1      52.168  24.641  31.850  1.00  0.00    -0.744 OA
ENDBRANCH  84  85
ENDBRANCH  58  79
ENDBRANCH  32  33
ENDBRANCH  24  27
ENDBRANCH  22  23
ENDBRANCH   1  22
TORSDOF 15
ENDMDL
MODEL 3
REMARK VINA RESULT:     -10.5      2.765      9.444
REMARK SMILES C[C@@H](c1ccccc1)[C@@H]1[NH2+][C@@H](C(=O)NCCCNC(=O)c2ccc(-c3c4nc(c(-c5ccc(S(=O)(=O)[O-])cc5)c5ccc([nH]5)c(-c5ccc(S(=O)(=O)[O-])cc5)c5nc(c(-c6ccc(S(=O)(=O)[O-])cc6)c6ccc3[nH]6)C=C5)C=C4)cc2)CS1
REMARK SMILES IDX 16 1 15 2 14 3 12 4 13 5 11 7 9 8 10 9 82 10 81 13 2 14 1 15
REMARK SMILES IDX 3 16 4 17 8 18 5 19 7 20 6 21 17 22 18 23 19 24 20 26 21 27
REMARK SMILES IDX 22 28 80 29 23 30 79 31 24 32 25 33 26 34 73 35 27 36 78 37
REMARK SMILES IDX 72 38 74 39 28 40 77 41 71 42 70 43 29 45 59 46 40 47 58 48
REMARK SMILES IDX 41 49 44 50 57 51 75 52 42 53 43 54 56 56 76 57 45 58 30 59
REMARK SMILES IDX 31 60 39 61 32 62 38 63 33 64 34 65 35 66 36 67 37 68 60 69
REMARK SMILES IDX 61 70 69 71 62 72 68 73 63 74 64 75 65 76 66 77 67 78 46 79
REMARK SMILES IDX 47 80 55 81 48 82 54 83 49 84 50 85 51 86 52 87 53 88
REMARK H PARENT 14 6 10 11 10 12 18 25 74 44 44 55
REMARK Flexibility Score: inf
ROOT
ATOM      1  C   UNL A   1      35.469  23.375  26.383  1.00  0.00     0.042 C 
ENDROOT
BRANCH   1   2
ATOM      2  C   UNL A   1      34.305  22.702  25.666  1.00  0.00     0.118 C 
BRANCH   2   3
ATOM      3  N   UNL A   1      33.124  22.623  26.507  1.00  0.00    -0.351 N 
ATOM      4  C   UNL A   1      32.111  23.510  26.697  1.00  0.00     0.279 C 
ATOM      5  O   UNL A   1      31.284  23.252  27.577  1.00  0.00    -0.268 OA
ATOM      6  H   UNL A   1      33.043  21.789  27.024  1.00  0.00     0.163 HD
BRANCH   4   7
ATOM      7  C   UNL A   1      32.009  24.795  25.859  1.00  0.00     0.283 C 
ATOM      8  C   UNL A   1      30.955  26.944  26.042  1.00  0.00     0.249 C 
ATOM      9  N   UNL A   1      31.753  25.944  26.774  1.00  0.00    -0.324 N 
ATOM     10  S   UNL A   1      29.705  25.949  25.173  1.00  0.00    -0.092 SA
ATOM     11  H   UNL A   1      31.240  25.625  27.595  1.00  0.00     0.347 HD
ATOM     12  H   UNL A   1      32.636  26.353  27.082  1.00  0.00     0.347 HD
ATOM     13  C   UNL A   1      30.877  24.622  24.836  1.00  0.00     0.151 C 
BRANCH   8  14
ATOM     14  C   UNL A   1      31.824  27.862  25.119  1.00  0.00     0.085 C 
ATOM     15  C   UNL A   1      31.009  28.654  24.079  1.00  0.00     0.020 C 
BRANCH  14  16
ATOM     16  C   UNL A   1      32.698  28.790  25.964  1.00  0.00    -0.038 A 
ATOM     17  C   UNL A   1      33.978  28.365  26.356  1.00  0.00     0.004 A 
ATOM     18  C   UNL A   1      32.255  30.052  26.395  1.00  0.00     0.004 A 
ATOM     19  C   UNL A   1      34.795  29.182  27.140  1.00  0.00     0.000 A 
ATOM     20  C   UNL A   1      33.076  30.871  27.175  1.00  0.00     0.000 A 
ATOM     21  C   UNL A   1      34.345  30.436  27.546  1.00  0.00     0.000 A 
ENDBRANCH  14  16
ENDBRANCH   8  14
ENDBRANCH   4   7
ENDBRANCH   2   3
ENDBRANCH   1   2
BRANCH   1  22
ATOM     22  C   UNL A   1      36.672  23.670  25.491  1.00  0.00     0.118 C 
BRANCH  22  23
ATOM     23  N   UNL A   1      37.777  22.743  25.700  1.00  0.00    -0.352 N 
ATOM     24  C   UNL A   1      39.022  22.955  26.236  1.00  0.00     0.251 C 
ATOM     25  H   UNL A   1      37.602  21.818  25.410  1.00  0.00     0.163 HD
ATOM     26  O   UNL A   1      39.869  22.064  26.155  1.00  0.00    -0.269 OA
BRANCH  24  27
ATOM     27  C   UNL A   1      39.359  24.240  26.885  1.00  0.00     0.039 A 
ATOM     28  C   UNL A   1      38.938  24.463  28.199  1.00  0.00     0.014 A 
ATOM     29  C   UNL A   1      40.065  25.234  26.203  1.00  0.00     0.014 A 
ATOM     30  C   UNL A   1      39.284  25.651  28.848  1.00  0.00     0.010 A 
ATOM     31  C   UNL A   1      40.481  26.379  26.877  1.00  0.00     0.010 A 
ATOM     32  C   UNL A   1      40.092  26.604  28.206  1.00  0.00    -0.014 A 
BRANCH  32  33
ATOM     33  C   UNL A   1      40.542  27.833  28.910  1.00  0.00     0.031 A 
ATOM     34  C   UNL A   1      41.903  27.890  29.551  1.00  0.00     0.074 A 
ATOM     35  C   UNL A   1      39.699  28.880  29.025  1.00  0.00     0.049 A 
ATOM     36  N   UNL A   1      42.447  28.857  30.247  1.00  0.00    -0.248 NA
ATOM     37  C   UNL A   1      42.756  26.698  29.413  1.00  0.00     0.031 C 
ATOM     38  C   UNL A   1      38.338  28.936  28.485  1.00  0.00     0.029 A 
ATOM     39  N   UNL A   1      39.861  30.098  29.638  1.00  0.00    -0.354 N 
ATOM     40  C   UNL A   1      43.694  28.385  30.642  1.00  0.00     0.074 A 
ATOM     41  C   UNL A   1      43.806  27.029  30.153  1.00  0.00     0.031 C 
ATOM     42  C   UNL A   1      37.803  30.135  28.764  1.00  0.00     0.029 A 
ATOM     43  C   UNL A   1      38.760  30.916  29.541  1.00  0.00     0.049 A 
ATOM     44  H   UNL A   1      40.688  30.361  30.104  1.00  0.00     0.167 HD
ATOM     45  C   UNL A   1      44.666  29.028  31.331  1.00  0.00     0.031 A 
ATOM     46  C   UNL A   1      38.538  32.153  30.029  1.00  0.00     0.031 A 
ATOM     47  C   UNL A   1      44.554  30.381  31.812  1.00  0.00     0.049 A 
ATOM     48  C   UNL A   1      39.627  32.841  30.805  1.00  0.00     0.074 A 
ATOM     49  C   UNL A   1      45.505  31.138  32.474  1.00  0.00     0.029 A 
ATOM     50  N   UNL A   1      43.425  31.175  31.689  1.00  0.00    -0.354 N 
ATOM     51  N   UNL A   1      40.826  32.402  31.109  1.00  0.00    -0.248 NA
ATOM     52  C   UNL A   1      39.339  34.196  31.294  1.00  0.00     0.031 C 
ATOM     53  C   UNL A   1      44.929  32.371  32.804  1.00  0.00     0.029 A 
ATOM     54  C   UNL A   1      43.644  32.406  32.286  1.00  0.00     0.049 A 
ATOM     55  H   UNL A   1      42.590  30.905  31.242  1.00  0.00     0.167 HD
ATOM     56  C   UNL A   1      41.445  33.439  31.797  1.00  0.00     0.074 A 
ATOM     57  C   UNL A   1      40.494  34.531  31.851  1.00  0.00     0.031 C 
ATOM     58  C   UNL A   1      42.689  33.485  32.334  1.00  0.00     0.031 A 
BRANCH  45  59
ATOM     59  C   UNL A   1      45.939  28.270  31.616  1.00  0.00    -0.014 A 
ATOM     60  C   UNL A   1      47.058  28.380  30.769  1.00  0.00     0.010 A 
ATOM     61  C   UNL A   1      46.034  27.473  32.771  1.00  0.00     0.010 A 
ATOM     62  C   UNL A   1      48.230  27.672  31.047  1.00  0.00     0.020 A 
ATOM     63  C   UNL A   1      47.216  26.788  33.071  1.00  0.00     0.020 A 
ATOM     64  C   UNL A   1      48.301  26.880  32.196  1.00  0.00     0.054 A 
BRANCH  64  65
ATOM     65  S   UNL A   1      49.844  25.992  32.544  1.00  0.00     0.124 S 
ATOM     66  O   UNL A   1      49.593  25.467  33.885  1.00  0.00    -0.237 OA
ATOM     67  O   UNL A   1      49.886  24.995  31.478  1.00  0.00    -0.237 OA
ATOM     68  O   UNL A   1      50.868  27.030  32.464  1.00  0.00    -0.744 OA
ENDBRANCH  64  65
ENDBRANCH  45  59
BRANCH  46  69
ATOM     69  C   UNL A   1      37.231  32.825  29.784  1.00  0.00    -0.014 A 
ATOM     70  C   UNL A   1      36.326  33.038  30.840  1.00  0.00     0.010 A 
ATOM     71  C   UNL A   1      36.888  33.264  28.492  1.00  0.00     0.010 A 
ATOM     72  C   UNL A   1      35.096  33.660  30.605  1.00  0.00     0.020 A 
ATOM     73  C   UNL A   1      35.674  33.915  28.260  1.00  0.00     0.020 A 
ATOM     74  C   UNL A   1      34.780  34.099  29.316  1.00  0.00     0.054 A 
BRANCH  74  75
ATOM     75  S   UNL A   1      33.200  34.950  29.046  1.00  0.00     0.124 S 
ATOM     76  O   UNL A   1      33.637  36.271  28.611  1.00  0.00    -0.237 OA
ATOM     77  O   UNL A   1      32.568  34.121  28.021  1.00  0.00    -0.237 OA
ATOM     78  O   UNL A   1      32.558  34.902  30.358  1.00  0.00    -0.744 OA
ENDBRANCH  74  75
ENDBRANCH  46  69
BRANCH  58  79
ATOM     79  C   UNL A   1      43.115  34.771  32.995  1.00  0.00    -0.014 A 
ATOM     80  C   UNL A   1      42.975  34.966  34.381  1.00  0.00     0.010 A 
ATOM     81  C   UNL A   1      43.709  35.783  32.219  1.00  0.00     0.010 A 
ATOM     82  C   UNL A   1      43.387  36.163  34.971  1.00  0.00     0.020 A 
ATOM     83  C   UNL A   1      44.152  36.968  32.809  1.00  0.00     0.020 A 
ATOM     84  C   UNL A   1      43.974  37.157  34.181  1.00  0.00     0.054 A 
BRANCH  84  85
ATOM     85  S   UNL A   1      44.534  38.688  34.977  1.00  0.00     0.124 S 
ATOM     86  O   UNL A   1      44.096  38.492  36.356  1.00  0.00    -0.237 OA
ATOM     87  O   UNL A   1      45.979  38.647  34.765  1.00  0.00    -0.237 OA
ATOM     88  O   UNL A   1      43.832  39.738  34.244  1.00  0.00    -0.744 OA
ENDBRANCH  84  85
ENDBRANCH  58  79
ENDBRANCH  32  33
ENDBRANCH  24  27
ENDBRANCH  22  23
ENDBRANCH   1  22
TORSDOF 15
ENDMDL
