MODEL 1
REMARK VINA RESULT:     -11.8      0.000      0.000
REMARK SMILES O=C(NCCCNC(=O)c1ccc(OC[C@H]2C[C@H]3CC[C@@H]2C3)c(Cl)c1)c1ccc(-c2c3nc(c(-c4ccc(S(=O)(=O)[O-])cc4)c4ccc([nH]4)c(-c4ccc(S(=O)(=O)[O-])cc4)c4nc(c(-c5ccc(S(=O)(=O)[O-])cc5)c5ccc2[nH]5)C=C4)C=C3)cc1
REMARK SMILES IDX 5 1 4 2 3 3 1 4 2 5 26 7 27 8 85 9 28 10 84 11 29 12 30 13
REMARK SMILES IDX 31 14 78 15 32 16 83 17 77 18 79 19 33 20 82 21 76 22 75 23
REMARK SMILES IDX 34 25 64 26 45 27 63 28 46 29 49 30 62 31 80 32 47 33 48 34
REMARK SMILES IDX 61 36 81 37 50 38 35 39 36 40 44 41 37 42 43 43 38 44 39 45
REMARK SMILES IDX 40 46 41 47 42 48 65 49 66 50 74 51 67 52 73 53 68 54 69 55
REMARK SMILES IDX 70 56 71 57 72 58 51 59 52 60 60 61 53 62 59 63 54 64 55 65
REMARK SMILES IDX 56 66 57 67 58 68 6 69 7 70 8 71 9 73 10 74 11 75 25 76
REMARK SMILES IDX 12 77 23 78 13 79 24 80 14 81 15 82 16 83 17 84 21 85 18 86
REMARK SMILES IDX 20 87 22 88 19 89
REMARK H PARENT 3 6 79 24 49 35 7 72
REMARK Flexibility Score: inf
ROOT
ATOM      1  C   UNL A   1      39.465  22.074  26.582  1.00  0.00     0.042 C 
ENDROOT
BRANCH   1   2
ATOM      2  C   UNL A   1      40.036  23.376  27.136  1.00  0.00     0.118 C 
BRANCH   2   3
ATOM      3  N   UNL A   1      40.704  24.178  26.119  1.00  0.00    -0.352 N 
ATOM      4  O   UNL A   1      41.408  26.022  25.047  1.00  0.00    -0.269 OA
ATOM      5  C   UNL A   1      41.001  25.520  26.092  1.00  0.00     0.251 C 
ATOM      6  H   UNL A   1      40.988  23.678  25.321  1.00  0.00     0.163 HD
BRANCH   5   7
ATOM      7  C   UNL A   1      40.824  26.361  27.297  1.00  0.00     0.039 A 
ATOM      8  C   UNL A   1      41.607  27.497  27.501  1.00  0.00     0.014 A 
ATOM      9  C   UNL A   1      39.821  26.035  28.218  1.00  0.00     0.014 A 
ATOM     10  C   UNL A   1      41.492  28.214  28.687  1.00  0.00     0.010 A 
ATOM     11  C   UNL A   1      39.644  26.813  29.368  1.00  0.00     0.010 A 
ATOM     12  C   UNL A   1      40.499  27.894  29.626  1.00  0.00    -0.014 A 
BRANCH  12  13
ATOM     13  C   UNL A   1      40.342  28.761  30.823  1.00  0.00     0.031 A 
ATOM     14  C   UNL A   1      41.269  28.649  32.002  1.00  0.00     0.074 A 
ATOM     15  C   UNL A   1      39.385  29.711  30.802  1.00  0.00     0.049 A 
ATOM     16  N   UNL A   1      41.319  29.395  33.078  1.00  0.00    -0.248 NA
ATOM     17  C   UNL A   1      42.261  27.562  31.981  1.00  0.00     0.031 C 
ATOM     18  C   UNL A   1      38.411  29.902  29.722  1.00  0.00     0.029 A 
ATOM     19  N   UNL A   1      39.097  30.717  31.688  1.00  0.00    -0.354 N 
ATOM     20  C   UNL A   1      42.334  28.864  33.865  1.00  0.00     0.074 A 
ATOM     21  C   UNL A   1      42.861  27.718  33.155  1.00  0.00     0.031 C 
ATOM     22  C   UNL A   1      37.682  30.999  29.975  1.00  0.00     0.029 A 
ATOM     23  C   UNL A   1      38.095  31.555  31.257  1.00  0.00     0.049 A 
ATOM     24  H   UNL A   1      39.561  30.828  32.548  1.00  0.00     0.167 HD
ATOM     25  C   UNL A   1      42.791  29.299  35.065  1.00  0.00     0.031 A 
ATOM     26  C   UNL A   1      37.564  32.652  31.828  1.00  0.00     0.031 A 
ATOM     27  C   UNL A   1      42.266  30.443  35.767  1.00  0.00     0.049 A 
ATOM     28  C   UNL A   1      38.097  33.115  33.152  1.00  0.00     0.074 A 
ATOM     29  C   UNL A   1      42.669  30.963  36.986  1.00  0.00     0.029 A 
ATOM     30  N   UNL A   1      41.233  31.247  35.312  1.00  0.00    -0.354 N 
ATOM     31  N   UNL A   1      39.067  32.604  33.869  1.00  0.00    -0.248 NA
ATOM     32  C   UNL A   1      37.462  34.300  33.741  1.00  0.00     0.031 C 
ATOM     33  C   UNL A   1      41.855  32.063  37.284  1.00  0.00     0.029 A 
ATOM     34  C   UNL A   1      40.975  32.251  36.231  1.00  0.00     0.049 A 
ATOM     35  H   UNL A   1      40.752  31.123  34.462  1.00  0.00     0.167 HD
ATOM     36  C   UNL A   1      39.157  33.404  35.000  1.00  0.00     0.074 A 
ATOM     37  C   UNL A   1      38.168  34.454  34.853  1.00  0.00     0.031 C 
ATOM     38  C   UNL A   1      39.975  33.274  36.074  1.00  0.00     0.031 A 
BRANCH  25  39
ATOM     39  C   UNL A   1      43.911  28.527  35.709  1.00  0.00    -0.014 A 
ATOM     40  C   UNL A   1      43.642  27.441  36.561  1.00  0.00     0.010 A 
ATOM     41  C   UNL A   1      45.247  28.843  35.404  1.00  0.00     0.010 A 
ATOM     42  C   UNL A   1      44.691  26.698  37.112  1.00  0.00     0.020 A 
ATOM     43  C   UNL A   1      46.298  28.092  35.939  1.00  0.00     0.020 A 
ATOM     44  C   UNL A   1      46.013  27.030  36.799  1.00  0.00     0.054 A 
BRANCH  44  45
ATOM     45  S   UNL A   1      47.353  26.022  37.494  1.00  0.00     0.124 S 
ATOM     46  O   UNL A   1      48.326  26.025  36.405  1.00  0.00    -0.237 OA
ATOM     47  O   UNL A   1      47.740  26.776  38.683  1.00  0.00    -0.237 OA
ATOM     48  O   UNL A   1      46.716  24.734  37.757  1.00  0.00    -0.744 OA
ENDBRANCH  44  45
ENDBRANCH  25  39
BRANCH  26  49
ATOM     49  C   UNL A   1      36.451  33.372  31.153  1.00  0.00    -0.014 A 
ATOM     50  C   UNL A   1      35.213  33.547  31.794  1.00  0.00     0.010 A 
ATOM     51  C   UNL A   1      36.638  33.904  29.864  1.00  0.00     0.010 A 
ATOM     52  C   UNL A   1      34.175  34.224  31.149  1.00  0.00     0.020 A 
ATOM     53  C   UNL A   1      35.612  34.605  29.228  1.00  0.00     0.020 A 
ATOM     54  C   UNL A   1      34.380  34.748  29.869  1.00  0.00     0.054 A 
BRANCH  54  55
ATOM     55  S   UNL A   1      33.042  35.669  29.062  1.00  0.00     0.124 S 
ATOM     56  O   UNL A   1      32.430  34.640  28.226  1.00  0.00    -0.237 OA
ATOM     57  O   UNL A   1      32.239  36.127  30.194  1.00  0.00    -0.237 OA
ATOM     58  O   UNL A   1      33.747  36.728  28.343  1.00  0.00    -0.744 OA
ENDBRANCH  54  55
ENDBRANCH  26  49
BRANCH  38  59
ATOM     59  C   UNL A   1      39.825  34.298  37.164  1.00  0.00    -0.014 A 
ATOM     60  C   UNL A   1      39.020  34.038  38.288  1.00  0.00     0.010 A 
ATOM     61  C   UNL A   1      40.496  35.528  37.066  1.00  0.00     0.010 A 
ATOM     62  C   UNL A   1      38.853  35.012  39.275  1.00  0.00     0.020 A 
ATOM     63  C   UNL A   1      40.348  36.497  38.063  1.00  0.00     0.020 A 
ATOM     64  C   UNL A   1      39.511  36.239  39.151  1.00  0.00     0.054 A 
BRANCH  64  65
ATOM     65  S   UNL A   1      39.289  37.488  40.447  1.00  0.00     0.124 S 
ATOM     66  O   UNL A   1      40.606  38.117  40.489  1.00  0.00    -0.237 OA
ATOM     67  O   UNL A   1      38.212  38.320  39.914  1.00  0.00    -0.237 OA
ATOM     68  O   UNL A   1      38.934  36.703  41.626  1.00  0.00    -0.744 OA
ENDBRANCH  64  65
ENDBRANCH  38  59
ENDBRANCH  12  13
ENDBRANCH   5   7
ENDBRANCH   2   3
ENDBRANCH   1   2
BRANCH   1  69
ATOM     69  C   UNL A   1      38.208  22.260  25.740  1.00  0.00     0.118 C 
BRANCH  69  70
ATOM     70  N   UNL A   1      37.623  20.989  25.344  1.00  0.00    -0.352 N 
ATOM     71  C   UNL A   1      36.305  20.691  25.113  1.00  0.00     0.251 C 
ATOM     72  H   UNL A   1      38.257  20.244  25.227  1.00  0.00     0.163 HD
ATOM     73  O   UNL A   1      35.933  19.550  24.880  1.00  0.00    -0.269 OA
BRANCH  71  74
ATOM     74  C   UNL A   1      35.327  21.789  25.128  1.00  0.00     0.041 A 
ATOM     75  C   UNL A   1      34.854  22.258  26.352  1.00  0.00     0.018 A 
ATOM     76  C   UNL A   1      34.856  22.310  23.924  1.00  0.00     0.038 A 
ATOM     77  C   UNL A   1      33.894  23.265  26.363  1.00  0.00     0.049 A 
ATOM     78  C   UNL A   1      33.868  23.300  23.941  1.00  0.00     0.083 A 
ATOM     79  C   UNL A   1      33.412  23.813  25.163  1.00  0.00     0.137 A 
ATOM     80  Cl  UNL A   1      33.173  23.718  22.419  1.00  0.00    -0.080 Cl
BRANCH  79  81
ATOM     81  O   UNL A   1      32.432  24.741  25.359  1.00  0.00    -0.492 OA
BRANCH  81  82
ATOM     82  C   UNL A   1      32.538  26.025  24.732  1.00  0.00     0.233 C 
BRANCH  82  83
ATOM     83  C   UNL A   1      33.569  26.980  25.353  1.00  0.00     0.030 C 
ATOM     84  C   UNL A   1      33.753  28.300  24.563  1.00  0.00     0.011 C 
ATOM     85  C   UNL A   1      33.179  27.513  26.761  1.00  0.00    -0.004 C 
ATOM     86  C   UNL A   1      33.467  29.391  25.609  1.00  0.00    -0.010 C 
ATOM     87  C   UNL A   1      31.771  28.135  26.761  1.00  0.00     0.004 C 
ATOM     88  C   UNL A   1      34.049  28.768  26.873  1.00  0.00     0.007 C 
ATOM     89  C   UNL A   1      31.957  29.399  25.913  1.00  0.00     0.004 C 
ENDBRANCH  82  83
ENDBRANCH  81  82
ENDBRANCH  79  81
ENDBRANCH  71  74
ENDBRANCH  69  70
ENDBRANCH   1  69
TORSDOF 16
ENDMDL
MODEL 2
REMARK VINA RESULT:     -11.7      3.964      4.862
REMARK SMILES O=C(NCCCNC(=O)c1ccc(OC[C@H]2C[C@H]3CC[C@@H]2C3)c(Cl)c1)c1ccc(-c2c3nc(c(-c4ccc(S(=O)(=O)[O-])cc4)c4ccc([nH]4)c(-c4ccc(S(=O)(=O)[O-])cc4)c4nc(c(-c5ccc(S(=O)(=O)[O-])cc5)c5ccc2[nH]5)C=C4)C=C3)cc1
REMARK SMILES IDX 5 1 4 2 3 3 1 4 2 5 26 7 27 8 85 9 28 10 84 11 29 12 30 13
REMARK SMILES IDX 31 14 78 15 32 16 83 17 77 18 79 19 33 20 82 21 76 22 75 23
REMARK SMILES IDX 34 25 64 26 45 27 63 28 46 29 49 30 62 31 80 32 47 33 48 34
REMARK SMILES IDX 61 36 81 37 50 38 35 39 36 40 44 41 37 42 43 43 38 44 39 45
REMARK SMILES IDX 40 46 41 47 42 48 65 49 66 50 74 51 67 52 73 53 68 54 69 55
REMARK SMILES IDX 70 56 71 57 72 58 51 59 52 60 60 61 53 62 59 63 54 64 55 65
REMARK SMILES IDX 56 66 57 67 58 68 6 69 7 70 8 71 9 73 10 74 11 75 25 76
REMARK SMILES IDX 12 77 23 78 13 79 24 80 14 81 15 82 16 83 17 84 21 85 18 86
REMARK SMILES IDX 20 87 22 88 19 89
REMARK H PARENT 3 6 79 24 49 35 7 72
REMARK Flexibility Score: inf
ROOT
ATOM      1  C   UNL A   1      35.566  23.700  24.694  1.00  0.00     0.042 C 
ENDROOT
BRANCH   1   2
ATOM      2  C   UNL A   1      36.418  23.828  25.952  1.00  0.00     0.118 C 
BRANCH   2   3
ATOM      3  N   UNL A   1      37.505  22.860  26.000  1.00  0.00    -0.352 N 
ATOM      4  O   UNL A   1      39.611  22.094  26.154  1.00  0.00    -0.269 OA
ATOM      5  C   UNL A   1      38.821  23.011  26.365  1.00  0.00     0.251 C 
ATOM      6  H   UNL A   1      37.257  21.948  25.725  1.00  0.00     0.163 HD
BRANCH   5   7
ATOM      7  C   UNL A   1      39.295  24.264  26.995  1.00  0.00     0.039 A 
ATOM      8  C   UNL A   1      39.108  24.499  28.358  1.00  0.00     0.014 A 
ATOM      9  C   UNL A   1      39.984  25.203  26.218  1.00  0.00     0.014 A 
ATOM     10  C   UNL A   1      39.470  25.723  28.906  1.00  0.00     0.010 A 
ATOM     11  C   UNL A   1      40.432  26.397  26.793  1.00  0.00     0.010 A 
ATOM     12  C   UNL A   1      40.153  26.680  28.137  1.00  0.00    -0.014 A 
BRANCH  12  13
ATOM     13  C   UNL A   1      40.621  27.926  28.799  1.00  0.00     0.031 A 
ATOM     14  C   UNL A   1      42.054  28.103  29.220  1.00  0.00     0.074 A 
ATOM     15  C   UNL A   1      39.741  28.936  28.954  1.00  0.00     0.049 A 
ATOM     16  N   UNL A   1      42.634  29.164  29.723  1.00  0.00    -0.248 NA
ATOM     17  C   UNL A   1      42.951  26.947  29.065  1.00  0.00     0.031 C 
ATOM     18  C   UNL A   1      38.317  28.874  28.605  1.00  0.00     0.029 A 
ATOM     19  N   UNL A   1      39.914  30.220  29.403  1.00  0.00    -0.354 N 
ATOM     20  C   UNL A   1      43.956  28.803  29.956  1.00  0.00     0.074 A 
ATOM     21  C   UNL A   1      44.089  27.417  29.562  1.00  0.00     0.031 C 
ATOM     22  C   UNL A   1      37.766  30.083  28.786  1.00  0.00     0.029 A 
ATOM     23  C   UNL A   1      38.777  30.989  29.315  1.00  0.00     0.049 A 
ATOM     24  H   UNL A   1      40.769  30.558  29.754  1.00  0.00     0.167 HD
ATOM     25  C   UNL A   1      44.967  29.561  30.446  1.00  0.00     0.031 A 
ATOM     26  C   UNL A   1      38.566  32.280  29.627  1.00  0.00     0.031 A 
ATOM     27  C   UNL A   1      44.832  30.942  30.836  1.00  0.00     0.049 A 
ATOM     28  C   UNL A   1      39.707  33.098  30.158  1.00  0.00     0.074 A 
ATOM     29  C   UNL A   1      45.802  31.794  31.337  1.00  0.00     0.029 A 
ATOM     30  N   UNL A   1      43.659  31.675  30.760  1.00  0.00    -0.354 N 
ATOM     31  N   UNL A   1      40.952  32.736  30.357  1.00  0.00    -0.248 NA
ATOM     32  C   UNL A   1      39.414  34.493  30.508  1.00  0.00     0.031 C 
ATOM     33  C   UNL A   1      45.206  33.033  31.598  1.00  0.00     0.029 A 
ATOM     34  C   UNL A   1      43.876  32.965  31.218  1.00  0.00     0.049 A 
ATOM     35  H   UNL A   1      42.797  31.331  30.430  1.00  0.00     0.167 HD
ATOM     36  C   UNL A   1      41.591  33.861  30.859  1.00  0.00     0.074 A 
ATOM     37  C   UNL A   1      40.606  34.923  30.899  1.00  0.00     0.031 C 
ATOM     38  C   UNL A   1      42.877  34.001  31.267  1.00  0.00     0.031 A 
BRANCH  25  39
ATOM     39  C   UNL A   1      46.316  28.912  30.605  1.00  0.00    -0.014 A 
ATOM     40  C   UNL A   1      47.275  28.978  29.579  1.00  0.00     0.010 A 
ATOM     41  C   UNL A   1      46.658  28.292  31.821  1.00  0.00     0.010 A 
ATOM     42  C   UNL A   1      48.543  28.417  29.757  1.00  0.00     0.020 A 
ATOM     43  C   UNL A   1      47.930  27.746  32.010  1.00  0.00     0.020 A 
ATOM     44  C   UNL A   1      48.862  27.802  30.972  1.00  0.00     0.054 A 
BRANCH  44  45
ATOM     45  S   UNL A   1      50.530  27.121  31.193  1.00  0.00     0.124 S 
ATOM     46  O   UNL A   1      51.315  28.326  31.447  1.00  0.00    -0.237 OA
ATOM     47  O   UNL A   1      50.365  26.227  32.335  1.00  0.00    -0.237 OA
ATOM     48  O   UNL A   1      50.803  26.456  29.920  1.00  0.00    -0.744 OA
ENDBRANCH  44  45
ENDBRANCH  25  39
BRANCH  26  49
ATOM     49  C   UNL A   1      37.212  32.870  29.462  1.00  0.00    -0.014 A 
ATOM     50  C   UNL A   1      36.409  33.157  30.579  1.00  0.00     0.010 A 
ATOM     51  C   UNL A   1      36.727  33.165  28.174  1.00  0.00     0.010 A 
ATOM     52  C   UNL A   1      35.137  33.710  30.410  1.00  0.00     0.020 A 
ATOM     53  C   UNL A   1      35.468  33.743  28.003  1.00  0.00     0.020 A 
ATOM     54  C   UNL A   1      34.673  33.998  29.122  1.00  0.00     0.054 A 
BRANCH  54  55
ATOM     55  S   UNL A   1      33.041  34.762  28.918  1.00  0.00     0.124 S 
ATOM     56  O   UNL A   1      32.528  34.750  30.285  1.00  0.00    -0.237 OA
ATOM     57  O   UNL A   1      33.368  36.079  28.376  1.00  0.00    -0.237 OA
ATOM     58  O   UNL A   1      32.363  33.866  27.983  1.00  0.00    -0.744 OA
ENDBRANCH  54  55
ENDBRANCH  26  49
BRANCH  38  59
ATOM     59  C   UNL A   1      43.277  35.353  31.787  1.00  0.00    -0.014 A 
ATOM     60  C   UNL A   1      43.819  36.323  30.924  1.00  0.00     0.010 A 
ATOM     61  C   UNL A   1      43.107  35.658  33.147  1.00  0.00     0.010 A 
ATOM     62  C   UNL A   1      44.227  37.561  31.424  1.00  0.00     0.020 A 
ATOM     63  C   UNL A   1      43.494  36.904  33.647  1.00  0.00     0.020 A 
ATOM     64  C   UNL A   1      44.070  37.840  32.785  1.00  0.00     0.054 A 
BRANCH  64  65
ATOM     65  S   UNL A   1      44.599  39.457  33.415  1.00  0.00     0.124 S 
ATOM     66  O   UNL A   1      46.044  39.401  33.214  1.00  0.00    -0.237 OA
ATOM     67  O   UNL A   1      43.880  40.392  32.553  1.00  0.00    -0.237 OA
ATOM     68  O   UNL A   1      44.161  39.443  34.809  1.00  0.00    -0.744 OA
ENDBRANCH  64  65
ENDBRANCH  38  59
ENDBRANCH  12  13
ENDBRANCH   5   7
ENDBRANCH   2   3
ENDBRANCH   1   2
BRANCH   1  69
ATOM     69  C   UNL A   1      34.184  23.106  24.942  1.00  0.00     0.118 C 
BRANCH  69  70
ATOM     70  N   UNL A   1      33.706  22.338  23.803  1.00  0.00    -0.352 N 
ATOM     71  C   UNL A   1      32.818  22.717  22.829  1.00  0.00     0.251 C 
ATOM     72  H   UNL A   1      34.068  21.426  23.720  1.00  0.00     0.163 HD
ATOM     73  O   UNL A   1      32.423  21.936  21.977  1.00  0.00    -0.269 OA
BRANCH  71  74
ATOM     74  C   UNL A   1      32.354  24.112  22.812  1.00  0.00     0.041 A 
ATOM     75  C   UNL A   1      33.182  25.096  22.276  1.00  0.00     0.018 A 
ATOM     76  C   UNL A   1      31.118  24.434  23.372  1.00  0.00     0.038 A 
ATOM     77  C   UNL A   1      32.759  26.422  22.303  1.00  0.00     0.049 A 
ATOM     78  C   UNL A   1      30.714  25.773  23.426  1.00  0.00     0.083 A 
ATOM     79  C   UNL A   1      31.515  26.770  22.852  1.00  0.00     0.137 A 
ATOM     80  Cl  UNL A   1      29.292  26.109  24.343  1.00  0.00    -0.080 Cl
BRANCH  79  81
ATOM     81  O   UNL A   1      31.293  28.115  22.855  1.00  0.00    -0.492 OA
BRANCH  81  82
ATOM     82  C   UNL A   1      31.103  28.798  24.099  1.00  0.00     0.233 C 
BRANCH  82  83
ATOM     83  C   UNL A   1      32.390  29.154  24.860  1.00  0.00     0.030 C 
ATOM     84  C   UNL A   1      32.172  30.156  26.022  1.00  0.00     0.011 C 
ATOM     85  C   UNL A   1      33.045  27.956  25.604  1.00  0.00    -0.004 C 
ATOM     86  C   UNL A   1      32.736  29.417  27.247  1.00  0.00    -0.010 C 
ATOM     87  C   UNL A   1      32.036  27.237  26.518  1.00  0.00     0.004 C 
ATOM     88  C   UNL A   1      33.917  28.668  26.641  1.00  0.00     0.007 C 
ATOM     89  C   UNL A   1      31.776  28.272  27.619  1.00  0.00     0.004 C 
ENDBRANCH  82  83
ENDBRANCH  81  82
ENDBRANCH  79  81
ENDBRANCH  71  74
ENDBRANCH  69  70
ENDBRANCH   1  69
TORSDOF 16
ENDMDL
MODEL 3
REMARK VINA RESULT:     -11.5      6.245      8.324
REMARK SMILES O=C(NCCCNC(=O)c1ccc(OC[C@H]2C[C@H]3CC[C@@H]2C3)c(Cl)c1)c1ccc(-c2c3nc(c(-c4ccc(S(=O)(=O)[O-])cc4)c4ccc([nH]4)c(-c4ccc(S(=O)(=O)[O-])cc4)c4nc(c(-c5ccc(S(=O)(=O)[O-])cc5)c5ccc2[nH]5)C=C4)C=C3)cc1
REMARK SMILES IDX 5 1 4 2 3 3 1 4 2 5 26 7 27 8 85 9 28 10 84 11 29 12 30 13
REMARK SMILES IDX 31 14 78 15 32 16 83 17 77 18 79 19 33 20 82 21 76 22 75 23
REMARK SMILES IDX 34 25 64 26 45 27 63 28 46 29 49 30 62 31 80 32 47 33 48 34
REMARK SMILES IDX 61 36 81 37 50 38 35 39 36 40 44 41 37 42 43 43 38 44 39 45
REMARK SMILES IDX 40 46 41 47 42 48 65 49 66 50 74 51 67 52 73 53 68 54 69 55
REMARK SMILES IDX 70 56 71 57 72 58 51 59 52 60 60 61 53 62 59 63 54 64 55 65
REMARK SMILES IDX 56 66 57 67 58 68 6 69 7 70 8 71 9 73 10 74 11 75 25 76
REMARK SMILES IDX 12 77 23 78 13 79 24 80 14 81 15 82 16 83 17 84 21 85 18 86
REMARK SMILES IDX 20 87 22 88 19 89
REMARK H PARENT 3 6 79 24 49 35 7 72
REMARK Flexibility Score: inf
ROOT
ATOM      1  C   UNL A   1      38.207  20.196  25.025  1.00  0.00     0.042 C 
ENDROOT
BRANCH   1   2
ATOM      2  C   UNL A   1      39.285  20.564  26.039  1.00  0.00     0.118 C 
BRANCH   2   3
ATOM      3  N   UNL A   1      40.380  19.604  26.074  1.00  0.00    -0.352 N 
ATOM      4  O   UNL A   1      42.495  18.849  26.015  1.00  0.00    -0.269 OA
ATOM      5  C   UNL A   1      41.736  19.798  26.194  1.00  0.00     0.251 C 
ATOM      6  H   UNL A   1      40.106  18.662  25.997  1.00  0.00     0.163 HD
BRANCH   5   7
ATOM      7  C   UNL A   1      42.285  21.134  26.522  1.00  0.00     0.039 A 
ATOM      8  C   UNL A   1      42.411  22.119  25.543  1.00  0.00     0.014 A 
ATOM      9  C   UNL A   1      42.635  21.422  27.847  1.00  0.00     0.014 A 
ATOM     10  C   UNL A   1      43.022  23.328  25.851  1.00  0.00     0.010 A 
ATOM     11  C   UNL A   1      43.164  22.676  28.175  1.00  0.00     0.010 A 
ATOM     12  C   UNL A   1      43.389  23.631  27.173  1.00  0.00    -0.014 A 
BRANCH  12  13
ATOM     13  C   UNL A   1      43.932  24.981  27.472  1.00  0.00     0.031 A 
ATOM     14  C   UNL A   1      45.369  25.330  27.193  1.00  0.00     0.074 A 
ATOM     15  C   UNL A   1      43.085  25.922  27.937  1.00  0.00     0.049 A 
ATOM     16  N   UNL A   1      45.967  26.490  27.312  1.00  0.00    -0.248 NA
ATOM     17  C   UNL A   1      46.250  24.247  26.730  1.00  0.00     0.031 C 
ATOM     18  C   UNL A   1      41.674  25.695  28.267  1.00  0.00     0.029 A 
ATOM     19  N   UNL A   1      43.268  27.259  28.175  1.00  0.00    -0.354 N 
ATOM     20  C   UNL A   1      47.292  26.276  26.953  1.00  0.00     0.074 A 
ATOM     21  C   UNL A   1      47.419  24.869  26.633  1.00  0.00     0.031 C 
ATOM     22  C   UNL A   1      41.105  26.864  28.594  1.00  0.00     0.029 A 
ATOM     23  C   UNL A   1      42.118  27.911  28.554  1.00  0.00     0.049 A 
ATOM     24  H   UNL A   1      44.139  27.710  28.083  1.00  0.00     0.167 HD
ATOM     25  C   UNL A   1      48.307  27.171  26.887  1.00  0.00     0.031 A 
ATOM     26  C   UNL A   1      41.899  29.207  28.841  1.00  0.00     0.031 A 
ATOM     27  C   UNL A   1      48.178  28.571  27.203  1.00  0.00     0.049 A 
ATOM     28  C   UNL A   1      43.040  30.177  28.750  1.00  0.00     0.074 A 
ATOM     29  C   UNL A   1      49.149  29.557  27.160  1.00  0.00     0.029 A 
ATOM     30  N   UNL A   1      47.005  29.185  27.612  1.00  0.00    -0.354 N 
ATOM     31  N   UNL A   1      44.281  29.951  28.394  1.00  0.00    -0.248 NA
ATOM     32  C   UNL A   1      42.750  31.573  29.101  1.00  0.00     0.031 C 
ATOM     33  C   UNL A   1      48.571  30.762  27.577  1.00  0.00     0.029 A 
ATOM     34  C   UNL A   1      47.230  30.533  27.838  1.00  0.00     0.049 A 
ATOM     35  H   UNL A   1      46.139  28.730  27.727  1.00  0.00     0.167 HD
ATOM     36  C   UNL A   1      44.924  31.179  28.482  1.00  0.00     0.074 A 
ATOM     37  C   UNL A   1      43.926  32.148  28.888  1.00  0.00     0.031 C 
ATOM     38  C   UNL A   1      46.228  31.477  28.260  1.00  0.00     0.031 A 
BRANCH  25  39
ATOM     39  C   UNL A   1      49.662  26.665  26.467  1.00  0.00    -0.014 A 
ATOM     40  C   UNL A   1      50.542  26.095  27.404  1.00  0.00     0.010 A 
ATOM     41  C   UNL A   1      50.031  26.691  25.110  1.00  0.00     0.010 A 
ATOM     42  C   UNL A   1      51.775  25.580  26.995  1.00  0.00     0.020 A 
ATOM     43  C   UNL A   1      51.256  26.161  24.694  1.00  0.00     0.020 A 
ATOM     44  C   UNL A   1      52.126  25.619  25.642  1.00  0.00     0.054 A 
BRANCH  44  45
ATOM     45  S   UNL A   1      53.715  24.904  25.132  1.00  0.00     0.124 S 
ATOM     46  O   UNL A   1      53.968  25.603  23.874  1.00  0.00    -0.237 OA
ATOM     47  O   UNL A   1      54.599  25.262  26.237  1.00  0.00    -0.237 OA
ATOM     48  O   UNL A   1      53.428  23.477  25.005  1.00  0.00    -0.744 OA
ENDBRANCH  44  45
ENDBRANCH  25  39
BRANCH  26  49
ATOM     49  C   UNL A   1      40.544  29.652  29.261  1.00  0.00    -0.014 A 
ATOM     50  C   UNL A   1      40.292  30.042  30.587  1.00  0.00     0.010 A 
ATOM     51  C   UNL A   1      39.499  29.706  28.320  1.00  0.00     0.010 A 
ATOM     52  C   UNL A   1      39.014  30.458  30.970  1.00  0.00     0.020 A 
ATOM     53  C   UNL A   1      38.228  30.147  28.692  1.00  0.00     0.020 A 
ATOM     54  C   UNL A   1      37.989  30.506  30.020  1.00  0.00     0.054 A 
BRANCH  54  55
ATOM     55  S   UNL A   1      36.347  31.095  30.516  1.00  0.00     0.124 S 
ATOM     56  O   UNL A   1      35.644  31.142  29.237  1.00  0.00    -0.237 OA
ATOM     57  O   UNL A   1      35.902  30.060  31.446  1.00  0.00    -0.237 OA
ATOM     58  O   UNL A   1      36.625  32.392  31.130  1.00  0.00    -0.744 OA
ENDBRANCH  54  55
ENDBRANCH  26  49
BRANCH  38  59
ATOM     59  C   UNL A   1      46.635  32.910  28.455  1.00  0.00    -0.014 A 
ATOM     60  C   UNL A   1      47.151  33.349  29.688  1.00  0.00     0.010 A 
ATOM     61  C   UNL A   1      46.506  33.825  27.397  1.00  0.00     0.010 A 
ATOM     62  C   UNL A   1      47.487  34.691  29.873  1.00  0.00     0.020 A 
ATOM     63  C   UNL A   1      46.862  35.165  27.572  1.00  0.00     0.020 A 
ATOM     64  C   UNL A   1      47.331  35.593  28.816  1.00  0.00     0.054 A 
BRANCH  64  65
ATOM     65  S   UNL A   1      47.780  37.331  29.073  1.00  0.00     0.124 S 
ATOM     66  O   UNL A   1      48.051  37.365  30.507  1.00  0.00    -0.237 OA
ATOM     67  O   UNL A   1      48.947  37.496  28.209  1.00  0.00    -0.237 OA
ATOM     68  O   UNL A   1      46.590  38.061  28.645  1.00  0.00    -0.744 OA
ENDBRANCH  64  65
ENDBRANCH  38  59
ENDBRANCH  12  13
ENDBRANCH   5   7
ENDBRANCH   2   3
ENDBRANCH   1   2
BRANCH   1  69
ATOM     69  C   UNL A   1      37.087  21.224  24.915  1.00  0.00     0.118 C 
BRANCH  69  70
ATOM     70  N   UNL A   1      36.105  21.078  25.977  1.00  0.00    -0.352 N 
ATOM     71  C   UNL A   1      34.989  21.838  26.221  1.00  0.00     0.251 C 
ATOM     72  H   UNL A   1      36.261  20.336  26.606  1.00  0.00     0.163 HD
ATOM     73  O   UNL A   1      34.297  21.668  27.213  1.00  0.00    -0.269 OA
BRANCH  71  74
ATOM     74  C   UNL A   1      34.619  22.868  25.239  1.00  0.00     0.041 A 
ATOM     75  C   UNL A   1      34.714  24.211  25.598  1.00  0.00     0.018 A 
ATOM     76  C   UNL A   1      34.137  22.487  23.987  1.00  0.00     0.038 A 
ATOM     77  C   UNL A   1      34.319  25.183  24.683  1.00  0.00     0.049 A 
ATOM     78  C   UNL A   1      33.711  23.468  23.085  1.00  0.00     0.083 A 
ATOM     79  C   UNL A   1      33.840  24.824  23.413  1.00  0.00     0.137 A 
ATOM     80  Cl  UNL A   1      32.911  22.907  21.664  1.00  0.00    -0.080 Cl
BRANCH  79  81
ATOM     81  O   UNL A   1      33.438  25.898  22.674  1.00  0.00    -0.492 OA
BRANCH  81  82
ATOM     82  C   UNL A   1      33.586  27.219  23.208  1.00  0.00     0.233 C 
BRANCH  82  83
ATOM     83  C   UNL A   1      32.375  28.147  23.019  1.00  0.00     0.030 C 
ATOM     84  C   UNL A   1      31.151  27.453  22.368  1.00  0.00     0.011 C 
ATOM     85  C   UNL A   1      31.762  28.675  24.346  1.00  0.00    -0.004 C 
ATOM     86  C   UNL A   1      30.020  27.688  23.383  1.00  0.00    -0.010 C 
ATOM     87  C   UNL A   1      31.438  27.526  25.318  1.00  0.00     0.004 C 
ATOM     88  C   UNL A   1      30.354  29.083  23.901  1.00  0.00     0.007 C 
ATOM     89  C   UNL A   1      30.276  26.808  24.621  1.00  0.00     0.004 C 
ENDBRANCH  82  83
ENDBRANCH  81  82
ENDBRANCH  79  81
ENDBRANCH  71  74
ENDBRANCH  69  70
ENDBRANCH   1  69
TORSDOF 16
ENDMDL
