MODEL 1
REMARK VINA RESULT:      -8.8      0.000      0.000
REMARK SMILES CC[C@@H](C)[NH2+][C@H](CN=[N+]=[N-])C(=O)NCCCNC(=O)c1ccc(-c2c3nc(c(-c4ccc(S(=O)(=O)[O-])cc4)c4ccc([nH]4)c(-c4ccc(S(=O)(=O)[O-])cc4)c4nc(c(-c5ccc(S(=O)(=O)[O-])cc5)c5ccc2[nH]5)C=C4)C=C3)cc1
REMARK SMILES IDX 15 1 14 2 13 3 11 4 12 5 6 7 5 8 3 11 4 12 2 13 1 14 7 15
REMARK SMILES IDX 8 16 9 17 10 18 16 19 17 20 18 21 19 23 20 24 21 25 79 26
REMARK SMILES IDX 22 27 78 28 23 29 24 30 25 31 72 32 26 33 77 34 71 35 73 36
REMARK SMILES IDX 27 37 76 38 70 39 69 40 28 42 58 43 39 44 57 45 40 46 43 47
REMARK SMILES IDX 56 48 74 49 41 50 42 51 55 53 75 54 44 55 29 56 30 57 38 58
REMARK SMILES IDX 31 59 37 60 32 61 33 62 34 63 35 64 36 65 59 66 60 67 68 68
REMARK SMILES IDX 61 69 67 70 62 71 63 72 64 73 65 74 66 75 45 76 46 77 54 78
REMARK SMILES IDX 47 79 53 80 48 81 49 82 50 83 51 84 52 85
REMARK H PARENT 13 6 5 9 5 10 17 22 73 41 43 52
REMARK Flexibility Score: inf
ROOT
ATOM      1  C   UNL A   1      34.941  33.590  29.397  1.00  0.00     0.042 C 
ENDROOT
BRANCH   1   2
ATOM      2  C   UNL A   1      35.432  32.831  30.619  1.00  0.00     0.118 C 
BRANCH   2   3
ATOM      3  N   UNL A   1      34.392  32.597  31.608  1.00  0.00    -0.351 N 
ATOM      4  C   UNL A   1      34.122  33.266  32.771  1.00  0.00     0.278 C 
ATOM      5  O   UNL A   1      33.090  32.969  33.381  1.00  0.00    -0.268 OA
ATOM      6  H   UNL A   1      33.789  31.843  31.411  1.00  0.00     0.163 HD
BRANCH   4   7
ATOM      7  C   UNL A   1      35.088  34.344  33.324  1.00  0.00     0.278 C 
BRANCH   7   8
ATOM      8  N   UNL A   1      35.509  33.933  34.681  1.00  0.00    -0.334 N 
ATOM      9  H   UNL A   1      35.545  34.777  35.251  1.00  0.00     0.347 HD
ATOM     10  H   UNL A   1      34.820  33.231  34.949  1.00  0.00     0.347 HD
BRANCH   8  11
ATOM     11  C   UNL A   1      36.787  33.250  34.847  1.00  0.00     0.179 C 
ATOM     12  C   UNL A   1      37.395  33.511  36.223  1.00  0.00     0.075 C 
BRANCH  11  13
ATOM     13  C   UNL A   1      37.710  33.750  33.716  1.00  0.00     0.061 C 
ATOM     14  C   UNL A   1      38.796  34.692  34.214  1.00  0.00     0.010 C 
ENDBRANCH  11  13
ENDBRANCH   8  11
ENDBRANCH   7   8
BRANCH   7  15
ATOM     15  C   UNL A   1      34.453  35.737  33.088  1.00  0.00     0.166 C 
BRANCH  15  16
ATOM     16  N   UNL A   1      33.642  35.745  31.850  1.00  0.00    -0.087 NA
ATOM     17  N   UNL A   1      33.276  36.867  31.454  1.00  0.00     0.001 N 
ATOM     18  N   UNL A   1      32.960  37.906  31.106  1.00  0.00    -0.003 NA
ENDBRANCH  15  16
ENDBRANCH   7  15
ENDBRANCH   4   7
ENDBRANCH   2   3
ENDBRANCH   1   2
BRANCH   1  19
ATOM     19  C   UNL A   1      35.375  32.972  28.080  1.00  0.00     0.118 C 
BRANCH  19  20
ATOM     20  N   UNL A   1      34.566  31.816  27.718  1.00  0.00    -0.352 N 
ATOM     21  C   UNL A   1      34.894  30.483  27.684  1.00  0.00     0.251 C 
ATOM     22  H   UNL A   1      33.639  32.023  27.457  1.00  0.00     0.163 HD
ATOM     23  O   UNL A   1      34.133  29.687  27.139  1.00  0.00    -0.269 OA
BRANCH  21  24
ATOM     24  C   UNL A   1      36.160  30.010  28.282  1.00  0.00     0.039 A 
ATOM     25  C   UNL A   1      37.347  30.147  27.558  1.00  0.00     0.014 A 
ATOM     26  C   UNL A   1      36.180  29.420  29.548  1.00  0.00     0.014 A 
ATOM     27  C   UNL A   1      38.558  29.753  28.132  1.00  0.00     0.010 A 
ATOM     28  C   UNL A   1      37.395  29.125  30.158  1.00  0.00     0.010 A 
ATOM     29  C   UNL A   1      38.596  29.273  29.452  1.00  0.00    -0.014 A 
BRANCH  29  30
ATOM     30  C   UNL A   1      39.877  28.905  30.107  1.00  0.00     0.031 A 
ATOM     31  C   UNL A   1      40.324  29.633  31.348  1.00  0.00     0.074 A 
ATOM     32  C   UNL A   1      40.667  27.966  29.552  1.00  0.00     0.049 A 
ATOM     33  N   UNL A   1      41.436  29.500  32.026  1.00  0.00    -0.248 NA
ATOM     34  C   UNL A   1      39.419  30.664  31.881  1.00  0.00     0.031 C 
ATOM     35  C   UNL A   1      40.363  27.218  28.329  1.00  0.00     0.029 A 
ATOM     36  N   UNL A   1      41.891  27.481  29.940  1.00  0.00    -0.354 N 
ATOM     37  C   UNL A   1      41.369  30.440  33.048  1.00  0.00     0.074 A 
ATOM     38  C   UNL A   1      40.138  31.175  32.868  1.00  0.00     0.031 C 
ATOM     39  C   UNL A   1      41.357  26.348  28.087  1.00  0.00     0.029 A 
ATOM     40  C   UNL A   1      42.390  26.510  29.105  1.00  0.00     0.049 A 
ATOM     41  H   UNL A   1      42.366  27.799  30.742  1.00  0.00     0.167 HD
ATOM     42  C   UNL A   1      42.242  30.656  34.060  1.00  0.00     0.031 A 
ATOM     43  C   UNL A   1      43.555  25.832  29.145  1.00  0.00     0.031 A 
ATOM     44  C   UNL A   1      43.464  29.917  34.238  1.00  0.00     0.049 A 
ATOM     45  C   UNL A   1      44.521  26.106  30.264  1.00  0.00     0.074 A 
ATOM     46  C   UNL A   1      44.392  30.023  35.259  1.00  0.00     0.029 A 
ATOM     47  N   UNL A   1      43.933  28.942  33.370  1.00  0.00    -0.354 N 
ATOM     48  N   UNL A   1      44.408  26.951  31.263  1.00  0.00    -0.248 NA
ATOM     49  C   UNL A   1      45.766  25.326  30.272  1.00  0.00     0.031 C 
ATOM     50  C   UNL A   1      45.453  29.158  34.975  1.00  0.00     0.029 A 
ATOM     51  C   UNL A   1      45.152  28.458  33.817  1.00  0.00     0.049 A 
ATOM     52  H   UNL A   1      43.468  28.637  32.559  1.00  0.00     0.167 HD
ATOM     53  C   UNL A   1      45.554  26.783  32.032  1.00  0.00     0.074 A 
ATOM     54  C   UNL A   1      46.337  25.744  31.392  1.00  0.00     0.031 C 
ATOM     55  C   UNL A   1      45.923  27.427  33.167  1.00  0.00     0.031 A 
BRANCH  42  56
ATOM     56  C   UNL A   1      41.910  31.748  35.048  1.00  0.00    -0.014 A 
ATOM     57  C   UNL A   1      42.346  33.070  34.851  1.00  0.00     0.010 A 
ATOM     58  C   UNL A   1      41.122  31.451  36.175  1.00  0.00     0.010 A 
ATOM     59  C   UNL A   1      42.043  34.064  35.785  1.00  0.00     0.020 A 
ATOM     60  C   UNL A   1      40.787  32.449  37.095  1.00  0.00     0.020 A 
ATOM     61  C   UNL A   1      41.267  33.746  36.903  1.00  0.00     0.054 A 
BRANCH  61  62
ATOM     62  S   UNL A   1      40.876  35.061  38.089  1.00  0.00     0.124 S 
ATOM     63  O   UNL A   1      40.038  35.950  37.288  1.00  0.00    -0.237 OA
ATOM     64  O   UNL A   1      40.186  34.337  39.153  1.00  0.00    -0.237 OA
ATOM     65  O   UNL A   1      42.184  35.601  38.453  1.00  0.00    -0.744 OA
ENDBRANCH  61  62
ENDBRANCH  42  56
BRANCH  43  66
ATOM     66  C   UNL A   1      43.861  24.821  28.095  1.00  0.00    -0.014 A 
ATOM     67  C   UNL A   1      44.753  25.122  27.051  1.00  0.00     0.010 A 
ATOM     68  C   UNL A   1      43.276  23.542  28.145  1.00  0.00     0.010 A 
ATOM     69  C   UNL A   1      45.045  24.169  26.070  1.00  0.00     0.020 A 
ATOM     70  C   UNL A   1      43.590  22.576  27.185  1.00  0.00     0.020 A 
ATOM     71  C   UNL A   1      44.464  22.899  26.146  1.00  0.00     0.054 A 
BRANCH  71  72
ATOM     72  S   UNL A   1      44.905  21.660  24.897  1.00  0.00     0.124 S 
ATOM     73  O   UNL A   1      44.294  22.212  23.693  1.00  0.00    -0.237 OA
ATOM     74  O   UNL A   1      46.365  21.682  24.935  1.00  0.00    -0.237 OA
ATOM     75  O   UNL A   1      44.295  20.432  25.403  1.00  0.00    -0.744 OA
ENDBRANCH  71  72
ENDBRANCH  43  66
BRANCH  55  76
ATOM     76  C   UNL A   1      47.215  27.005  33.817  1.00  0.00    -0.014 A 
ATOM     77  C   UNL A   1      47.261  25.951  34.746  1.00  0.00     0.010 A 
ATOM     78  C   UNL A   1      48.415  27.640  33.444  1.00  0.00     0.010 A 
ATOM     79  C   UNL A   1      48.477  25.562  35.315  1.00  0.00     0.020 A 
ATOM     80  C   UNL A   1      49.636  27.232  33.984  1.00  0.00     0.020 A 
ATOM     81  C   UNL A   1      49.657  26.204  34.928  1.00  0.00     0.054 A 
BRANCH  81  82
ATOM     82  S   UNL A   1      51.227  25.650  35.647  1.00  0.00     0.124 S 
ATOM     83  O   UNL A   1      51.966  25.215  34.465  1.00  0.00    -0.237 OA
ATOM     84  O   UNL A   1      51.728  26.861  36.292  1.00  0.00    -0.237 OA
ATOM     85  O   UNL A   1      50.833  24.581  36.562  1.00  0.00    -0.744 OA
ENDBRANCH  81  82
ENDBRANCH  55  76
ENDBRANCH  29  30
ENDBRANCH  21  24
ENDBRANCH  19  20
ENDBRANCH   1  19
TORSDOF 18
ENDMDL
MODEL 2
REMARK VINA RESULT:      -8.6      2.187      8.526
REMARK SMILES CC[C@@H](C)[NH2+][C@H](CN=[N+]=[N-])C(=O)NCCCNC(=O)c1ccc(-c2c3nc(c(-c4ccc(S(=O)(=O)[O-])cc4)c4ccc([nH]4)c(-c4ccc(S(=O)(=O)[O-])cc4)c4nc(c(-c5ccc(S(=O)(=O)[O-])cc5)c5ccc2[nH]5)C=C4)C=C3)cc1
REMARK SMILES IDX 15 1 14 2 13 3 11 4 12 5 6 7 5 8 3 11 4 12 2 13 1 14 7 15
REMARK SMILES IDX 8 16 9 17 10 18 16 19 17 20 18 21 19 23 20 24 21 25 79 26
REMARK SMILES IDX 22 27 78 28 23 29 24 30 25 31 72 32 26 33 77 34 71 35 73 36
REMARK SMILES IDX 27 37 76 38 70 39 69 40 28 42 58 43 39 44 57 45 40 46 43 47
REMARK SMILES IDX 56 48 74 49 41 50 42 51 55 53 75 54 44 55 29 56 30 57 38 58
REMARK SMILES IDX 31 59 37 60 32 61 33 62 34 63 35 64 36 65 59 66 60 67 68 68
REMARK SMILES IDX 61 69 67 70 62 71 63 72 64 73 65 74 66 75 45 76 46 77 54 78
REMARK SMILES IDX 47 79 53 80 48 81 49 82 50 83 51 84 52 85
REMARK H PARENT 13 6 5 9 5 10 17 22 73 41 43 52
REMARK Flexibility Score: inf
ROOT
ATOM      1  C   UNL A   1      34.365  33.527  29.159  1.00  0.00     0.042 C 
ENDROOT
BRANCH   1   2
ATOM      2  C   UNL A   1      35.128  32.921  30.325  1.00  0.00     0.118 C 
BRANCH   2   3
ATOM      3  N   UNL A   1      34.307  32.714  31.507  1.00  0.00    -0.351 N 
ATOM      4  C   UNL A   1      34.364  33.324  32.732  1.00  0.00     0.278 C 
ATOM      5  O   UNL A   1      33.462  33.079  33.539  1.00  0.00    -0.268 OA
ATOM      6  H   UNL A   1      33.603  32.032  31.412  1.00  0.00     0.163 HD
BRANCH   4   7
ATOM      7  C   UNL A   1      35.532  34.270  33.108  1.00  0.00     0.278 C 
BRANCH   7   8
ATOM      8  N   UNL A   1      36.201  33.722  34.307  1.00  0.00    -0.334 N 
ATOM      9  H   UNL A   1      35.609  33.944  35.107  1.00  0.00     0.347 HD
ATOM     10  H   UNL A   1      36.321  32.732  34.090  1.00  0.00     0.347 HD
BRANCH   8  11
ATOM     11  C   UNL A   1      37.548  34.174  34.633  1.00  0.00     0.179 C 
ATOM     12  C   UNL A   1      38.503  34.009  33.452  1.00  0.00     0.075 C 
BRANCH  11  13
ATOM     13  C   UNL A   1      38.012  33.353  35.855  1.00  0.00     0.061 C 
ATOM     14  C   UNL A   1      37.976  31.852  35.605  1.00  0.00     0.010 C 
ENDBRANCH  11  13
ENDBRANCH   8  11
ENDBRANCH   7   8
BRANCH   7  15
ATOM     15  C   UNL A   1      35.003  35.726  33.101  1.00  0.00     0.166 C 
BRANCH  15  16
ATOM     16  N   UNL A   1      33.924  35.892  32.101  1.00  0.00    -0.087 NA
ATOM     17  N   UNL A   1      33.422  37.029  32.034  1.00  0.00     0.001 N 
ATOM     18  N   UNL A   1      32.984  38.081  31.986  1.00  0.00    -0.003 NA
ENDBRANCH  15  16
ENDBRANCH   7  15
ENDBRANCH   4   7
ENDBRANCH   2   3
ENDBRANCH   1   2
BRANCH   1  19
ATOM     19  C   UNL A   1      34.596  32.810  27.841  1.00  0.00     0.118 C 
BRANCH  19  20
ATOM     20  N   UNL A   1      33.832  31.575  27.740  1.00  0.00    -0.352 N 
ATOM     21  C   UNL A   1      34.259  30.269  27.727  1.00  0.00     0.251 C 
ATOM     22  H   UNL A   1      32.856  31.693  27.673  1.00  0.00     0.163 HD
ATOM     23  O   UNL A   1      33.473  29.379  27.415  1.00  0.00    -0.269 OA
BRANCH  21  24
ATOM     24  C   UNL A   1      35.660  29.939  28.068  1.00  0.00     0.039 A 
ATOM     25  C   UNL A   1      36.641  30.033  27.077  1.00  0.00     0.014 A 
ATOM     26  C   UNL A   1      36.007  29.525  29.356  1.00  0.00     0.014 A 
ATOM     27  C   UNL A   1      37.975  29.775  27.399  1.00  0.00     0.010 A 
ATOM     28  C   UNL A   1      37.346  29.370  29.698  1.00  0.00     0.010 A 
ATOM     29  C   UNL A   1      38.344  29.477  28.721  1.00  0.00    -0.014 A 
BRANCH  29  30
ATOM     30  C   UNL A   1      39.763  29.259  29.102  1.00  0.00     0.031 A 
ATOM     31  C   UNL A   1      40.430  27.944  28.799  1.00  0.00     0.074 A 
ATOM     32  C   UNL A   1      40.429  30.216  29.776  1.00  0.00     0.049 A 
ATOM     33  N   UNL A   1      41.636  27.541  29.107  1.00  0.00    -0.248 NA
ATOM     34  C   UNL A   1      39.629  26.938  28.081  1.00  0.00     0.031 C 
ATOM     35  C   UNL A   1      39.880  31.519  30.164  1.00  0.00     0.029 A 
ATOM     36  N   UNL A   1      41.713  30.242  30.261  1.00  0.00    -0.354 N 
ATOM     37  C   UNL A   1      41.730  26.235  28.638  1.00  0.00     0.074 A 
ATOM     38  C   UNL A   1      40.442  25.893  28.079  1.00  0.00     0.031 C 
ATOM     39  C   UNL A   1      40.830  32.226  30.796  1.00  0.00     0.029 A 
ATOM     40  C   UNL A   1      42.037  31.413  30.905  1.00  0.00     0.049 A 
ATOM     41  H   UNL A   1      42.342  29.492  30.157  1.00  0.00     0.167 HD
ATOM     42  C   UNL A   1      42.798  25.403  28.652  1.00  0.00     0.031 A 
ATOM     43  C   UNL A   1      43.174  31.788  31.524  1.00  0.00     0.031 A 
ATOM     44  C   UNL A   1      44.080  25.751  29.205  1.00  0.00     0.049 A 
ATOM     45  C   UNL A   1      44.340  30.839  31.547  1.00  0.00     0.074 A 
ATOM     46  C   UNL A   1      45.242  25.001  29.222  1.00  0.00     0.029 A 
ATOM     47  N   UNL A   1      44.366  26.947  29.847  1.00  0.00    -0.354 N 
ATOM     48  N   UNL A   1      44.432  29.632  31.037  1.00  0.00    -0.248 NA
ATOM     49  C   UNL A   1      45.561  31.304  32.218  1.00  0.00     0.031 C 
ATOM     50  C   UNL A   1      46.212  25.715  29.931  1.00  0.00     0.029 A 
ATOM     51  C   UNL A   1      45.680  26.943  30.291  1.00  0.00     0.049 A 
ATOM     52  H   UNL A   1      43.732  27.689  29.969  1.00  0.00     0.167 HD
ATOM     53  C   UNL A   1      45.729  29.208  31.301  1.00  0.00     0.074 A 
ATOM     54  C   UNL A   1      46.389  30.293  32.000  1.00  0.00     0.031 C 
ATOM     55  C   UNL A   1      46.322  28.028  30.989  1.00  0.00     0.031 A 
BRANCH  42  56
ATOM     56  C   UNL A   1      42.619  24.027  28.058  1.00  0.00    -0.014 A 
ATOM     57  C   UNL A   1      42.885  23.777  26.700  1.00  0.00     0.010 A 
ATOM     58  C   UNL A   1      42.208  22.962  28.880  1.00  0.00     0.010 A 
ATOM     59  C   UNL A   1      42.696  22.500  26.164  1.00  0.00     0.020 A 
ATOM     60  C   UNL A   1      42.051  21.676  28.356  1.00  0.00     0.020 A 
ATOM     61  C   UNL A   1      42.278  21.458  26.995  1.00  0.00     0.054 A 
BRANCH  61  62
ATOM     62  S   UNL A   1      42.059  19.809  26.274  1.00  0.00     0.124 S 
ATOM     63  O   UNL A   1      42.938  19.870  25.109  1.00  0.00    -0.237 OA
ATOM     64  O   UNL A   1      42.503  18.927  27.350  1.00  0.00    -0.237 OA
ATOM     65  O   UNL A   1      40.630  19.748  25.972  1.00  0.00    -0.744 OA
ENDBRANCH  61  62
ENDBRANCH  42  56
BRANCH  43  66
ATOM     66  C   UNL A   1      43.263  33.131  32.161  1.00  0.00    -0.014 A 
ATOM     67  C   UNL A   1      42.901  33.310  33.508  1.00  0.00     0.010 A 
ATOM     68  C   UNL A   1      43.731  34.238  31.428  1.00  0.00     0.010 A 
ATOM     69  C   UNL A   1      42.991  34.570  34.106  1.00  0.00     0.020 A 
ATOM     70  C   UNL A   1      43.854  35.493  32.032  1.00  0.00     0.020 A 
ATOM     71  C   UNL A   1      43.473  35.653  33.365  1.00  0.00     0.054 A 
BRANCH  71  72
ATOM     72  S   UNL A   1      43.640  37.266  34.180  1.00  0.00     0.124 S 
ATOM     73  O   UNL A   1      43.719  38.174  33.040  1.00  0.00    -0.237 OA
ATOM     74  O   UNL A   1      42.415  37.345  34.971  1.00  0.00    -0.237 OA
ATOM     75  O   UNL A   1      44.869  37.130  34.959  1.00  0.00    -0.744 OA
ENDBRANCH  71  72
ENDBRANCH  43  66
BRANCH  55  76
ATOM     76  C   UNL A   1      47.770  27.857  31.367  1.00  0.00    -0.014 A 
ATOM     77  C   UNL A   1      48.807  28.259  30.507  1.00  0.00     0.010 A 
ATOM     78  C   UNL A   1      48.096  27.337  32.635  1.00  0.00     0.010 A 
ATOM     79  C   UNL A   1      50.142  28.113  30.893  1.00  0.00     0.020 A 
ATOM     80  C   UNL A   1      49.428  27.221  33.038  1.00  0.00     0.020 A 
ATOM     81  C   UNL A   1      50.444  27.597  32.157  1.00  0.00     0.054 A 
BRANCH  81  82
ATOM     82  S   UNL A   1      52.184  27.461  32.651  1.00  0.00     0.124 S 
ATOM     83  O   UNL A   1      52.480  26.066  32.338  1.00  0.00    -0.237 OA
ATOM     84  O   UNL A   1      52.836  28.450  31.796  1.00  0.00    -0.237 OA
ATOM     85  O   UNL A   1      52.168  27.790  34.074  1.00  0.00    -0.744 OA
ENDBRANCH  81  82
ENDBRANCH  55  76
ENDBRANCH  29  30
ENDBRANCH  21  24
ENDBRANCH  19  20
ENDBRANCH   1  19
TORSDOF 18
ENDMDL
MODEL 3
REMARK VINA RESULT:      -8.6      1.932      2.530
REMARK SMILES CC[C@@H](C)[NH2+][C@H](CN=[N+]=[N-])C(=O)NCCCNC(=O)c1ccc(-c2c3nc(c(-c4ccc(S(=O)(=O)[O-])cc4)c4ccc([nH]4)c(-c4ccc(S(=O)(=O)[O-])cc4)c4nc(c(-c5ccc(S(=O)(=O)[O-])cc5)c5ccc2[nH]5)C=C4)C=C3)cc1
REMARK SMILES IDX 15 1 14 2 13 3 11 4 12 5 6 7 5 8 3 11 4 12 2 13 1 14 7 15
REMARK SMILES IDX 8 16 9 17 10 18 16 19 17 20 18 21 19 23 20 24 21 25 79 26
REMARK SMILES IDX 22 27 78 28 23 29 24 30 25 31 72 32 26 33 77 34 71 35 73 36
REMARK SMILES IDX 27 37 76 38 70 39 69 40 28 42 58 43 39 44 57 45 40 46 43 47
REMARK SMILES IDX 56 48 74 49 41 50 42 51 55 53 75 54 44 55 29 56 30 57 38 58
REMARK SMILES IDX 31 59 37 60 32 61 33 62 34 63 35 64 36 65 59 66 60 67 68 68
REMARK SMILES IDX 61 69 67 70 62 71 63 72 64 73 65 74 66 75 45 76 46 77 54 78
REMARK SMILES IDX 47 79 53 80 48 81 49 82 50 83 51 84 52 85
REMARK H PARENT 13 6 5 9 5 10 17 22 73 41 43 52
REMARK Flexibility Score: inf
ROOT
ATOM      1  C   UNL A   1      34.714  33.933  29.254  1.00  0.00     0.042 C 
ENDROOT
BRANCH   1   2
ATOM      2  C   UNL A   1      35.399  33.486  30.535  1.00  0.00     0.118 C 
BRANCH   2   3
ATOM      3  N   UNL A   1      34.468  33.109  31.585  1.00  0.00    -0.351 N 
ATOM      4  C   UNL A   1      34.289  33.645  32.833  1.00  0.00     0.278 C 
ATOM      5  O   UNL A   1      33.331  33.244  33.500  1.00  0.00    -0.268 OA
ATOM      6  H   UNL A   1      33.875  32.353  31.367  1.00  0.00     0.163 HD
BRANCH   4   7
ATOM      7  C   UNL A   1      35.268  34.702  33.403  1.00  0.00     0.278 C 
BRANCH   7   8
ATOM      8  N   UNL A   1      36.110  34.045  34.426  1.00  0.00    -0.334 N 
ATOM      9  H   UNL A   1      35.878  34.473  35.323  1.00  0.00     0.347 HD
ATOM     10  H   UNL A   1      35.892  33.054  34.324  1.00  0.00     0.347 HD
BRANCH   8  11
ATOM     11  C   UNL A   1      37.561  34.100  34.288  1.00  0.00     0.179 C 
ATOM     12  C   UNL A   1      38.045  33.304  33.078  1.00  0.00     0.075 C 
BRANCH  11  13
ATOM     13  C   UNL A   1      38.155  33.551  35.602  1.00  0.00     0.061 C 
ATOM     14  C   UNL A   1      37.909  32.061  35.784  1.00  0.00     0.010 C 
ENDBRANCH  11  13
ENDBRANCH   8  11
ENDBRANCH   7   8
BRANCH   7  15
ATOM     15  C   UNL A   1      34.461  35.978  33.752  1.00  0.00     0.166 C 
BRANCH  15  16
ATOM     16  N   UNL A   1      33.948  36.630  32.526  1.00  0.00    -0.087 NA
ATOM     17  N   UNL A   1      32.742  36.444  32.281  1.00  0.00     0.001 N 
ATOM     18  N   UNL A   1      31.634  36.265  32.083  1.00  0.00    -0.003 NA
ENDBRANCH  15  16
ENDBRANCH   7  15
ENDBRANCH   4   7
ENDBRANCH   2   3
ENDBRANCH   1   2
BRANCH   1  19
ATOM     19  C   UNL A   1      35.095  33.107  28.038  1.00  0.00     0.118 C 
BRANCH  19  20
ATOM     20  N   UNL A   1      34.201  31.975  27.835  1.00  0.00    -0.352 N 
ATOM     21  C   UNL A   1      34.476  30.631  27.773  1.00  0.00     0.251 C 
ATOM     22  H   UNL A   1      33.250  32.210  27.726  1.00  0.00     0.163 HD
ATOM     23  O   UNL A   1      33.611  29.855  27.376  1.00  0.00    -0.269 OA
BRANCH  21  24
ATOM     24  C   UNL A   1      35.808  30.123  28.164  1.00  0.00     0.039 A 
ATOM     25  C   UNL A   1      36.842  30.132  27.224  1.00  0.00     0.014 A 
ATOM     26  C   UNL A   1      36.038  29.625  29.449  1.00  0.00     0.014 A 
ATOM     27  C   UNL A   1      38.119  29.704  27.595  1.00  0.00     0.010 A 
ATOM     28  C   UNL A   1      37.330  29.298  29.846  1.00  0.00     0.010 A 
ATOM     29  C   UNL A   1      38.382  29.319  28.920  1.00  0.00    -0.014 A 
BRANCH  29  30
ATOM     30  C   UNL A   1      39.744  28.919  29.356  1.00  0.00     0.031 A 
ATOM     31  C   UNL A   1      40.591  29.875  30.154  1.00  0.00     0.074 A 
ATOM     32  C   UNL A   1      40.243  27.725  28.980  1.00  0.00     0.049 A 
ATOM     33  N   UNL A   1      41.824  29.734  30.571  1.00  0.00    -0.248 NA
ATOM     34  C   UNL A   1      39.986  31.170  30.506  1.00  0.00     0.031 C 
ATOM     35  C   UNL A   1      39.536  26.727  28.172  1.00  0.00     0.029 A 
ATOM     36  N   UNL A   1      41.465  27.149  29.221  1.00  0.00    -0.354 N 
ATOM     37  C   UNL A   1      42.143  30.924  31.214  1.00  0.00     0.074 A 
ATOM     38  C   UNL A   1      40.999  31.797  31.082  1.00  0.00     0.031 C 
ATOM     39  C   UNL A   1      40.323  25.651  28.014  1.00  0.00     0.029 A 
ATOM     40  C   UNL A   1      41.607  25.900  28.663  1.00  0.00     0.049 A 
ATOM     41  H   UNL A   1      42.174  27.588  29.745  1.00  0.00     0.167 HD
ATOM     42  C   UNL A   1      43.278  31.253  31.876  1.00  0.00     0.031 A 
ATOM     43  C   UNL A   1      42.655  25.053  28.663  1.00  0.00     0.031 A 
ATOM     44  C   UNL A   1      44.412  30.378  32.009  1.00  0.00     0.049 A 
ATOM     45  C   UNL A   1      43.914  25.449  29.383  1.00  0.00     0.074 A 
ATOM     46  C   UNL A   1      45.590  30.595  32.703  1.00  0.00     0.029 A 
ATOM     47  N   UNL A   1      44.515  29.122  31.429  1.00  0.00    -0.354 N 
ATOM     48  N   UNL A   1      44.173  26.553  30.046  1.00  0.00    -0.248 NA
ATOM     49  C   UNL A   1      45.019  24.481  29.368  1.00  0.00     0.031 C 
ATOM     50  C   UNL A   1      46.430  29.498  32.489  1.00  0.00     0.029 A 
ATOM     51  C   UNL A   1      45.749  28.564  31.725  1.00  0.00     0.049 A 
ATOM     52  H   UNL A   1      43.816  28.690  30.889  1.00  0.00     0.167 HD
ATOM     53  C   UNL A   1      45.460  26.398  30.550  1.00  0.00     0.074 A 
ATOM     54  C   UNL A   1      45.918  25.089  30.130  1.00  0.00     0.031 C 
ATOM     55  C   UNL A   1      46.193  27.261  31.297  1.00  0.00     0.031 A 
BRANCH  42  56
ATOM     56  C   UNL A   1      43.351  32.627  32.496  1.00  0.00    -0.014 A 
ATOM     57  C   UNL A   1      42.916  32.858  33.813  1.00  0.00     0.010 A 
ATOM     58  C   UNL A   1      43.893  33.696  31.760  1.00  0.00     0.010 A 
ATOM     59  C   UNL A   1      42.974  34.140  34.365  1.00  0.00     0.020 A 
ATOM     60  C   UNL A   1      43.986  34.974  32.320  1.00  0.00     0.020 A 
ATOM     61  C   UNL A   1      43.508  35.191  33.614  1.00  0.00     0.054 A 
BRANCH  61  62
ATOM     62  S   UNL A   1      43.586  36.840  34.364  1.00  0.00     0.124 S 
ATOM     63  O   UNL A   1      43.565  36.524  35.790  1.00  0.00    -0.237 OA
ATOM     64  O   UNL A   1      44.852  37.362  33.855  1.00  0.00    -0.237 OA
ATOM     65  O   UNL A   1      42.390  37.510  33.858  1.00  0.00    -0.744 OA
ENDBRANCH  61  62
ENDBRANCH  42  56
BRANCH  43  66
ATOM     66  C   UNL A   1      42.549  23.742  27.964  1.00  0.00    -0.014 A 
ATOM     67  C   UNL A   1      42.913  23.620  26.612  1.00  0.00     0.010 A 
ATOM     68  C   UNL A   1      42.102  22.600  28.655  1.00  0.00     0.010 A 
ATOM     69  C   UNL A   1      42.819  22.387  25.959  1.00  0.00     0.020 A 
ATOM     70  C   UNL A   1      42.037  21.359  28.016  1.00  0.00     0.020 A 
ATOM     71  C   UNL A   1      42.386  21.262  26.668  1.00  0.00     0.054 A 
BRANCH  71  72
ATOM     72  S   UNL A   1      42.331  19.661  25.818  1.00  0.00     0.124 S 
ATOM     73  O   UNL A   1      40.944  19.604  25.366  1.00  0.00    -0.237 OA
ATOM     74  O   UNL A   1      43.333  19.829  24.768  1.00  0.00    -0.237 OA
ATOM     75  O   UNL A   1      42.689  18.705  26.864  1.00  0.00    -0.744 OA
ENDBRANCH  71  72
ENDBRANCH  43  66
BRANCH  55  76
ATOM     76  C   UNL A   1      47.559  26.806  31.743  1.00  0.00    -0.014 A 
ATOM     77  C   UNL A   1      47.733  26.030  32.902  1.00  0.00     0.010 A 
ATOM     78  C   UNL A   1      48.681  27.114  30.950  1.00  0.00     0.010 A 
ATOM     79  C   UNL A   1      49.008  25.599  33.279  1.00  0.00     0.020 A 
ATOM     80  C   UNL A   1      49.952  26.656  31.305  1.00  0.00     0.020 A 
ATOM     81  C   UNL A   1      50.109  25.913  32.477  1.00  0.00     0.054 A 
BRANCH  81  82
ATOM     82  S   UNL A   1      51.746  25.303  32.964  1.00  0.00     0.124 S 
ATOM     83  O   UNL A   1      52.199  26.346  33.880  1.00  0.00    -0.237 OA
ATOM     84  O   UNL A   1      51.435  24.016  33.582  1.00  0.00    -0.237 OA
ATOM     85  O   UNL A   1      52.477  25.221  31.702  1.00  0.00    -0.744 OA
ENDBRANCH  81  82
ENDBRANCH  55  76
ENDBRANCH  29  30
ENDBRANCH  21  24
ENDBRANCH  19  20
ENDBRANCH   1  19
TORSDOF 18
ENDMDL
