MODEL 1
REMARK VINA RESULT:     -10.3      0.000      0.000
REMARK SMILES O=C(CSCc1ccc(Cl)s1)Nc1ccsc1C(=O)NCCCNC(=O)c1ccc(-c2c3nc(c(-c4ccc(S(=O)(=O)[O-])cc4)c4ccc([nH]4)c(-c4ccc(S(=O)(=O)[O-])cc4)c4nc(c(-c5ccc(S(=O)(=O)[O-])cc5)c5ccc2[nH]5)C=C4)C=C3)cc1
REMARK SMILES IDX 21 1 20 2 18 3 19 4 17 6 13 7 14 8 15 9 16 10 12 11 1 12
REMARK SMILES IDX 2 13 3 15 4 16 5 17 6 18 7 19 11 20 8 21 9 22 10 23 22 24
REMARK SMILES IDX 23 25 24 26 25 27 26 29 27 30 28 31 86 32 29 33 85 34 30 35
REMARK SMILES IDX 31 36 32 37 79 38 33 39 84 40 78 41 80 42 34 43 83 44 77 45
REMARK SMILES IDX 76 46 35 48 65 49 46 50 64 51 47 52 50 53 63 54 81 55 48 56
REMARK SMILES IDX 49 57 62 59 82 60 51 61 36 62 37 63 45 64 38 65 44 66 39 67
REMARK SMILES IDX 40 68 41 69 42 70 43 71 66 72 67 73 75 74 68 75 74 76 69 77
REMARK SMILES IDX 70 78 71 79 72 80 73 81 52 82 53 83 61 84 54 85 60 86 55 87
REMARK SMILES IDX 56 88 57 89 58 90 59 91
REMARK H PARENT 20 5 12 14 24 28 80 47 50 58
REMARK Flexibility Score: inf
ROOT
ATOM      1  C   UNL A   1      36.002  23.592  26.009  1.00  0.00     0.118 C 
ENDROOT
BRANCH   1   2
ATOM      2  N   UNL A   1      35.590  23.819  24.654  1.00  0.00    -0.351 N 
ATOM      3  C   UNL A   1      34.476  23.504  23.928  1.00  0.00     0.263 C 
ATOM      4  O   UNL A   1      34.573  23.918  22.762  1.00  0.00    -0.268 OA
ATOM      5  H   UNL A   1      36.261  24.312  24.129  1.00  0.00     0.163 HD
BRANCH   3   6
ATOM      6  C   UNL A   1      33.281  22.793  24.409  1.00  0.00     0.115 A 
ATOM      7  C   UNL A   1      32.081  23.063  25.079  1.00  0.00     0.065 A 
ATOM      8  C   UNL A   1      31.416  21.841  25.474  1.00  0.00     0.038 A 
ATOM      9  C   UNL A   1      32.056  20.698  25.080  1.00  0.00     0.068 A 
ATOM     10  S   UNL A   1      33.461  21.052  24.216  1.00  0.00    -0.137 S 
BRANCH   7  11
ATOM     11  N   UNL A   1      31.482  24.292  25.378  1.00  0.00    -0.324 N 
ATOM     12  O   UNL A   1      30.347  24.552  23.381  1.00  0.00    -0.274 OA
ATOM     13  C   UNL A   1      30.783  25.031  24.427  1.00  0.00     0.234 C 
ATOM     14  H   UNL A   1      31.558  24.648  26.293  1.00  0.00     0.170 HD
BRANCH  13  15
ATOM     15  C   UNL A   1      30.617  26.513  24.718  1.00  0.00     0.170 C 
BRANCH  15  16
ATOM     16  S   UNL A   1      31.322  27.647  23.491  1.00  0.00    -0.146 SA
BRANCH  16  17
ATOM     17  C   UNL A   1      30.997  29.273  24.253  1.00  0.00     0.116 C 
BRANCH  17  18
ATOM     18  C   UNL A   1      31.929  29.617  25.364  1.00  0.00     0.016 A 
ATOM     19  C   UNL A   1      31.801  30.552  26.376  1.00  0.00     0.018 A 
ATOM     20  S   UNL A   1      33.455  28.830  25.438  1.00  0.00    -0.128 S 
ATOM     21  C   UNL A   1      32.942  30.586  27.234  1.00  0.00     0.033 A 
ATOM     22  C   UNL A   1      33.894  29.692  26.822  1.00  0.00     0.093 A 
ATOM     23  Cl  UNL A   1      35.418  29.386  27.548  1.00  0.00    -0.072 Cl
ENDBRANCH  17  18
ENDBRANCH  16  17
ENDBRANCH  15  16
ENDBRANCH  13  15
ENDBRANCH   7  11
ENDBRANCH   3   6
ENDBRANCH   1   2
BRANCH   1  24
ATOM     24  C   UNL A   1      37.483  23.254  26.058  1.00  0.00     0.042 C 
BRANCH  24  25
ATOM     25  C   UNL A   1      38.425  24.430  26.267  1.00  0.00     0.118 C 
BRANCH  25  26
ATOM     26  N   UNL A   1      39.820  24.027  26.150  1.00  0.00    -0.352 N 
ATOM     27  C   UNL A   1      40.966  24.553  26.692  1.00  0.00     0.251 C 
ATOM     28  H   UNL A   1      39.967  23.238  25.580  1.00  0.00     0.163 HD
ATOM     29  O   UNL A   1      42.049  24.139  26.266  1.00  0.00    -0.269 OA
BRANCH  27  30
ATOM     30  C   UNL A   1      40.946  25.592  27.752  1.00  0.00     0.039 A 
ATOM     31  C   UNL A   1      42.015  26.495  27.831  1.00  0.00     0.014 A 
ATOM     32  C   UNL A   1      39.935  25.659  28.711  1.00  0.00     0.014 A 
ATOM     33  C   UNL A   1      42.039  27.484  28.821  1.00  0.00     0.010 A 
ATOM     34  C   UNL A   1      39.910  26.701  29.640  1.00  0.00     0.010 A 
ATOM     35  C   UNL A   1      40.965  27.624  29.713  1.00  0.00    -0.014 A 
BRANCH  35  36
ATOM     36  C   UNL A   1      40.915  28.706  30.737  1.00  0.00     0.031 A 
ATOM     37  C   UNL A   1      41.814  28.646  31.947  1.00  0.00     0.074 A 
ATOM     38  C   UNL A   1      40.005  29.696  30.634  1.00  0.00     0.049 A 
ATOM     39  N   UNL A   1      41.805  29.395  33.020  1.00  0.00    -0.248 NA
ATOM     40  C   UNL A   1      42.844  27.595  31.960  1.00  0.00     0.031 C 
ATOM     41  C   UNL A   1      39.075  29.882  29.519  1.00  0.00     0.029 A 
ATOM     42  N   UNL A   1      39.693  30.722  31.494  1.00  0.00    -0.354 N 
ATOM     43  C   UNL A   1      42.805  28.893  33.843  1.00  0.00     0.074 A 
ATOM     44  C   UNL A   1      43.374  27.749  33.165  1.00  0.00     0.031 C 
ATOM     45  C   UNL A   1      38.299  30.949  29.763  1.00  0.00     0.029 A 
ATOM     46  C   UNL A   1      38.632  31.492  31.075  1.00  0.00     0.049 A 
ATOM     47  H   UNL A   1      40.182  30.891  32.331  1.00  0.00     0.167 HD
ATOM     48  C   UNL A   1      43.225  29.352  35.047  1.00  0.00     0.031 A 
ATOM     49  C   UNL A   1      37.975  32.499  31.681  1.00  0.00     0.031 A 
ATOM     50  C   UNL A   1      42.673  30.504  35.710  1.00  0.00     0.049 A 
ATOM     51  C   UNL A   1      38.420  32.953  33.042  1.00  0.00     0.074 A 
ATOM     52  C   UNL A   1      43.079  31.085  36.899  1.00  0.00     0.029 A 
ATOM     53  N   UNL A   1      41.598  31.248  35.248  1.00  0.00    -0.354 N 
ATOM     54  N   UNL A   1      39.399  32.494  33.782  1.00  0.00    -0.248 NA
ATOM     55  C   UNL A   1      37.679  34.070  33.646  1.00  0.00     0.031 C 
ATOM     56  C   UNL A   1      42.211  32.141  37.188  1.00  0.00     0.029 A 
ATOM     57  C   UNL A   1      41.308  32.263  36.145  1.00  0.00     0.049 A 
ATOM     58  H   UNL A   1      41.114  31.080  34.408  1.00  0.00     0.167 HD
ATOM     59  C   UNL A   1      39.419  33.292  34.920  1.00  0.00     0.074 A 
ATOM     60  C   UNL A   1      38.355  34.262  34.770  1.00  0.00     0.031 C 
ATOM     61  C   UNL A   1      40.252  33.231  35.985  1.00  0.00     0.031 A 
BRANCH  48  62
ATOM     62  C   UNL A   1      44.336  28.604  35.738  1.00  0.00    -0.014 A 
ATOM     63  C   UNL A   1      44.064  27.530  36.604  1.00  0.00     0.010 A 
ATOM     64  C   UNL A   1      45.675  28.938  35.463  1.00  0.00     0.010 A 
ATOM     65  C   UNL A   1      45.111  26.826  37.208  1.00  0.00     0.020 A 
ATOM     66  C   UNL A   1      46.724  28.218  36.041  1.00  0.00     0.020 A 
ATOM     67  C   UNL A   1      46.434  27.174  36.923  1.00  0.00     0.054 A 
BRANCH  67  68
ATOM     68  S   UNL A   1      47.769  26.218  37.692  1.00  0.00     0.124 S 
ATOM     69  O   UNL A   1      47.229  25.972  39.028  1.00  0.00    -0.237 OA
ATOM     70  O   UNL A   1      47.861  25.045  36.826  1.00  0.00    -0.237 OA
ATOM     71  O   UNL A   1      48.917  27.119  37.642  1.00  0.00    -0.744 OA
ENDBRANCH  67  68
ENDBRANCH  48  62
BRANCH  49  72
ATOM     72  C   UNL A   1      36.809  33.143  31.016  1.00  0.00    -0.014 A 
ATOM     73  C   UNL A   1      35.509  32.966  31.522  1.00  0.00     0.010 A 
ATOM     74  C   UNL A   1      36.993  33.925  29.862  1.00  0.00     0.010 A 
ATOM     75  C   UNL A   1      34.413  33.547  30.877  1.00  0.00     0.020 A 
ATOM     76  C   UNL A   1      35.900  34.522  29.226  1.00  0.00     0.020 A 
ATOM     77  C   UNL A   1      34.616  34.323  29.733  1.00  0.00     0.054 A 
BRANCH  77  78
ATOM     78  S   UNL A   1      33.189  35.117  28.943  1.00  0.00     0.124 S 
ATOM     79  O   UNL A   1      32.308  35.361  30.081  1.00  0.00    -0.237 OA
ATOM     80  O   UNL A   1      33.785  36.305  28.336  1.00  0.00    -0.237 OA
ATOM     81  O   UNL A   1      32.724  34.111  27.990  1.00  0.00    -0.744 OA
ENDBRANCH  77  78
ENDBRANCH  49  72
BRANCH  61  82
ATOM     82  C   UNL A   1      40.094  34.275  37.057  1.00  0.00    -0.014 A 
ATOM     83  C   UNL A   1      40.722  35.529  36.958  1.00  0.00     0.010 A 
ATOM     84  C   UNL A   1      39.240  34.018  38.145  1.00  0.00     0.010 A 
ATOM     85  C   UNL A   1      40.511  36.501  37.939  1.00  0.00     0.020 A 
ATOM     86  C   UNL A   1      39.004  34.997  39.112  1.00  0.00     0.020 A 
ATOM     87  C   UNL A   1      39.648  36.231  39.007  1.00  0.00     0.054 A 
BRANCH  87  88
ATOM     88  S   UNL A   1      39.336  37.535  40.229  1.00  0.00     0.124 S 
ATOM     89  O   UNL A   1      40.671  38.091  40.427  1.00  0.00    -0.237 OA
ATOM     90  O   UNL A   1      38.388  38.403  39.534  1.00  0.00    -0.237 OA
ATOM     91  O   UNL A   1      38.786  36.813  41.374  1.00  0.00    -0.744 OA
ENDBRANCH  87  88
ENDBRANCH  61  82
ENDBRANCH  35  36
ENDBRANCH  27  30
ENDBRANCH  25  26
ENDBRANCH  24  25
ENDBRANCH   1  24
TORSDOF 18
ENDMDL
MODEL 2
REMARK VINA RESULT:     -10.3      4.189     10.396
REMARK SMILES O=C(CSCc1ccc(Cl)s1)Nc1ccsc1C(=O)NCCCNC(=O)c1ccc(-c2c3nc(c(-c4ccc(S(=O)(=O)[O-])cc4)c4ccc([nH]4)c(-c4ccc(S(=O)(=O)[O-])cc4)c4nc(c(-c5ccc(S(=O)(=O)[O-])cc5)c5ccc2[nH]5)C=C4)C=C3)cc1
REMARK SMILES IDX 21 1 20 2 18 3 19 4 17 6 13 7 14 8 15 9 16 10 12 11 1 12
REMARK SMILES IDX 2 13 3 15 4 16 5 17 6 18 7 19 11 20 8 21 9 22 10 23 22 24
REMARK SMILES IDX 23 25 24 26 25 27 26 29 27 30 28 31 86 32 29 33 85 34 30 35
REMARK SMILES IDX 31 36 32 37 79 38 33 39 84 40 78 41 80 42 34 43 83 44 77 45
REMARK SMILES IDX 76 46 35 48 65 49 46 50 64 51 47 52 50 53 63 54 81 55 48 56
REMARK SMILES IDX 49 57 62 59 82 60 51 61 36 62 37 63 45 64 38 65 44 66 39 67
REMARK SMILES IDX 40 68 41 69 42 70 43 71 66 72 67 73 75 74 68 75 74 76 69 77
REMARK SMILES IDX 70 78 71 79 72 80 73 81 52 82 53 83 61 84 54 85 60 86 55 87
REMARK SMILES IDX 56 88 57 89 58 90 59 91
REMARK H PARENT 20 5 12 14 24 28 80 47 50 58
REMARK Flexibility Score: inf
ROOT
ATOM      1  C   UNL A   1      31.833  28.154  27.084  1.00  0.00     0.118 C 
ENDROOT
BRANCH   1   2
ATOM      2  N   UNL A   1      31.005  26.987  26.989  1.00  0.00    -0.351 N 
ATOM      3  C   UNL A   1      30.558  26.214  25.954  1.00  0.00     0.263 C 
ATOM      4  O   UNL A   1      29.845  25.285  26.368  1.00  0.00    -0.268 OA
ATOM      5  H   UNL A   1      30.686  26.672  27.865  1.00  0.00     0.163 HD
BRANCH   3   6
ATOM      6  C   UNL A   1      30.861  26.390  24.526  1.00  0.00     0.115 A 
ATOM      7  C   UNL A   1      31.699  25.851  23.542  1.00  0.00     0.065 A 
ATOM      8  C   UNL A   1      31.683  26.656  22.341  1.00  0.00     0.038 A 
ATOM      9  C   UNL A   1      30.836  27.729  22.393  1.00  0.00     0.068 A 
ATOM     10  S   UNL A   1      30.027  27.797  23.871  1.00  0.00    -0.137 S 
BRANCH   7  11
ATOM     11  N   UNL A   1      32.485  24.692  23.575  1.00  0.00    -0.324 N 
ATOM     12  O   UNL A   1      34.382  25.657  24.477  1.00  0.00    -0.274 OA
ATOM     13  C   UNL A   1      33.840  24.720  23.892  1.00  0.00     0.234 C 
ATOM     14  H   UNL A   1      32.064  23.827  23.366  1.00  0.00     0.170 HD
BRANCH  13  15
ATOM     15  C   UNL A   1      34.663  23.531  23.425  1.00  0.00     0.170 C 
BRANCH  15  16
ATOM     16  S   UNL A   1      34.951  22.233  24.657  1.00  0.00    -0.146 SA
BRANCH  16  17
ATOM     17  C   UNL A   1      33.285  21.507  24.833  1.00  0.00     0.116 C 
BRANCH  17  18
ATOM     18  C   UNL A   1      33.133  20.177  24.179  1.00  0.00     0.016 A 
ATOM     19  C   UNL A   1      32.199  19.740  23.257  1.00  0.00     0.018 A 
ATOM     20  S   UNL A   1      34.196  18.904  24.634  1.00  0.00    -0.128 S 
ATOM     21  C   UNL A   1      32.389  18.371  22.896  1.00  0.00     0.033 A 
ATOM     22  C   UNL A   1      33.445  17.825  23.576  1.00  0.00     0.093 A 
ATOM     23  Cl  UNL A   1      34.039  16.220  23.459  1.00  0.00    -0.072 Cl
ENDBRANCH  17  18
ENDBRANCH  16  17
ENDBRANCH  15  16
ENDBRANCH  13  15
ENDBRANCH   7  11
ENDBRANCH   3   6
ENDBRANCH   1   2
BRANCH   1  24
ATOM     24  C   UNL A   1      33.287  27.787  26.834  1.00  0.00     0.042 C 
BRANCH  24  25
ATOM     25  C   UNL A   1      34.119  28.834  26.111  1.00  0.00     0.118 C 
BRANCH  25  26
ATOM     26  N   UNL A   1      33.984  30.146  26.728  1.00  0.00    -0.352 N 
ATOM     27  C   UNL A   1      34.728  30.779  27.693  1.00  0.00     0.251 C 
ATOM     28  H   UNL A   1      33.223  30.674  26.392  1.00  0.00     0.163 HD
ATOM     29  O   UNL A   1      34.273  31.816  28.185  1.00  0.00    -0.269 OA
BRANCH  27  30
ATOM     30  C   UNL A   1      36.036  30.258  28.163  1.00  0.00     0.039 A 
ATOM     31  C   UNL A   1      37.128  30.289  27.286  1.00  0.00     0.014 A 
ATOM     32  C   UNL A   1      36.199  29.681  29.423  1.00  0.00     0.014 A 
ATOM     33  C   UNL A   1      38.377  29.800  27.688  1.00  0.00     0.010 A 
ATOM     34  C   UNL A   1      37.464  29.280  29.858  1.00  0.00     0.010 A 
ATOM     35  C   UNL A   1      38.569  29.326  28.994  1.00  0.00    -0.014 A 
BRANCH  35  36
ATOM     36  C   UNL A   1      39.897  28.862  29.486  1.00  0.00     0.031 A 
ATOM     37  C   UNL A   1      40.789  29.802  30.259  1.00  0.00     0.074 A 
ATOM     38  C   UNL A   1      40.347  27.631  29.168  1.00  0.00     0.049 A 
ATOM     39  N   UNL A   1      42.035  29.642  30.627  1.00  0.00    -0.248 NA
ATOM     40  C   UNL A   1      40.211  31.097  30.651  1.00  0.00     0.031 C 
ATOM     41  C   UNL A   1      39.592  26.616  28.430  1.00  0.00     0.029 A 
ATOM     42  N   UNL A   1      41.560  27.030  29.401  1.00  0.00    -0.354 N 
ATOM     43  C   UNL A   1      42.396  30.820  31.269  1.00  0.00     0.074 A 
ATOM     44  C   UNL A   1      41.252  31.703  31.204  1.00  0.00     0.031 C 
ATOM     45  C   UNL A   1      40.358  25.525  28.270  1.00  0.00     0.029 A 
ATOM     46  C   UNL A   1      41.675  25.778  28.840  1.00  0.00     0.049 A 
ATOM     47  H   UNL A   1      42.280  27.454  29.922  1.00  0.00     0.167 HD
ATOM     48  C   UNL A   1      43.568  31.134  31.873  1.00  0.00     0.031 A 
ATOM     49  C   UNL A   1      42.723  24.936  28.761  1.00  0.00     0.031 A 
ATOM     50  C   UNL A   1      44.698  30.245  31.955  1.00  0.00     0.049 A 
ATOM     51  C   UNL A   1      44.032  25.330  29.386  1.00  0.00     0.074 A 
ATOM     52  C   UNL A   1      45.902  30.449  32.606  1.00  0.00     0.029 A 
ATOM     53  N   UNL A   1      44.767  28.991  31.369  1.00  0.00    -0.354 N 
ATOM     54  N   UNL A   1      44.336  26.430  30.030  1.00  0.00    -0.248 NA
ATOM     55  C   UNL A   1      45.134  24.363  29.286  1.00  0.00     0.031 C 
ATOM     56  C   UNL A   1      46.724  29.345  32.362  1.00  0.00     0.029 A 
ATOM     57  C   UNL A   1      46.006  28.423  31.617  1.00  0.00     0.049 A 
ATOM     58  H   UNL A   1      44.044  28.567  30.854  1.00  0.00     0.167 HD
ATOM     59  C   UNL A   1      45.652  26.270  30.447  1.00  0.00     0.074 A 
ATOM     60  C   UNL A   1      46.085  24.969  29.984  1.00  0.00     0.031 C 
ATOM     61  C   UNL A   1      46.427  27.123  31.160  1.00  0.00     0.031 A 
BRANCH  48  62
ATOM     62  C   UNL A   1      43.698  32.502  32.491  1.00  0.00    -0.014 A 
ATOM     63  C   UNL A   1      44.117  33.609  31.733  1.00  0.00     0.010 A 
ATOM     64  C   UNL A   1      43.330  32.694  33.836  1.00  0.00     0.010 A 
ATOM     65  C   UNL A   1      44.197  34.876  32.317  1.00  0.00     0.020 A 
ATOM     66  C   UNL A   1      43.380  33.965  34.415  1.00  0.00     0.020 A 
ATOM     67  C   UNL A   1      43.828  35.047  33.654  1.00  0.00     0.054 A 
BRANCH  67  68
ATOM     68  S   UNL A   1      43.907  36.711  34.372  1.00  0.00     0.124 S 
ATOM     69  O   UNL A   1      42.684  37.319  33.852  1.00  0.00    -0.237 OA
ATOM     70  O   UNL A   1      43.913  36.439  35.806  1.00  0.00    -0.237 OA
ATOM     71  O   UNL A   1      45.150  37.262  33.838  1.00  0.00    -0.744 OA
ENDBRANCH  67  68
ENDBRANCH  48  62
BRANCH  49  72
ATOM     72  C   UNL A   1      42.592  23.639  28.044  1.00  0.00    -0.014 A 
ATOM     73  C   UNL A   1      42.278  22.461  28.745  1.00  0.00     0.010 A 
ATOM     74  C   UNL A   1      42.798  23.573  26.654  1.00  0.00     0.010 A 
ATOM     75  C   UNL A   1      42.186  21.239  28.073  1.00  0.00     0.020 A 
ATOM     76  C   UNL A   1      42.689  22.354  25.977  1.00  0.00     0.020 A 
ATOM     77  C   UNL A   1      42.391  21.194  26.691  1.00  0.00     0.054 A 
BRANCH  77  78
ATOM     78  S   UNL A   1      42.211  19.609  25.826  1.00  0.00     0.124 S 
ATOM     79  O   UNL A   1      42.505  18.650  26.886  1.00  0.00    -0.237 OA
ATOM     80  O   UNL A   1      40.822  19.652  25.377  1.00  0.00    -0.237 OA
ATOM     81  O   UNL A   1      43.203  19.691  24.756  1.00  0.00    -0.744 OA
ENDBRANCH  77  78
ENDBRANCH  49  72
BRANCH  61  82
ATOM     82  C   UNL A   1      47.807  26.661  31.540  1.00  0.00    -0.014 A 
ATOM     83  C   UNL A   1      48.054  26.014  32.763  1.00  0.00     0.010 A 
ATOM     84  C   UNL A   1      48.860  26.815  30.619  1.00  0.00     0.010 A 
ATOM     85  C   UNL A   1      49.335  25.544  33.065  1.00  0.00     0.020 A 
ATOM     86  C   UNL A   1      50.134  26.322  30.905  1.00  0.00     0.020 A 
ATOM     87  C   UNL A   1      50.366  25.696  32.131  1.00  0.00     0.054 A 
BRANCH  87  88
ATOM     88  S   UNL A   1      52.001  25.013  32.518  1.00  0.00     0.124 S 
ATOM     89  O   UNL A   1      51.815  23.594  32.230  1.00  0.00    -0.237 OA
ATOM     90  O   UNL A   1      52.875  25.734  31.596  1.00  0.00    -0.237 OA
ATOM     91  O   UNL A   1      52.188  25.343  33.930  1.00  0.00    -0.744 OA
ENDBRANCH  87  88
ENDBRANCH  61  82
ENDBRANCH  35  36
ENDBRANCH  27  30
ENDBRANCH  25  26
ENDBRANCH  24  25
ENDBRANCH   1  24
TORSDOF 18
ENDMDL
MODEL 3
REMARK VINA RESULT:     -10.2      2.843      9.335
REMARK SMILES O=C(CSCc1ccc(Cl)s1)Nc1ccsc1C(=O)NCCCNC(=O)c1ccc(-c2c3nc(c(-c4ccc(S(=O)(=O)[O-])cc4)c4ccc([nH]4)c(-c4ccc(S(=O)(=O)[O-])cc4)c4nc(c(-c5ccc(S(=O)(=O)[O-])cc5)c5ccc2[nH]5)C=C4)C=C3)cc1
REMARK SMILES IDX 21 1 20 2 18 3 19 4 17 6 13 7 14 8 15 9 16 10 12 11 1 12
REMARK SMILES IDX 2 13 3 15 4 16 5 17 6 18 7 19 11 20 8 21 9 22 10 23 22 24
REMARK SMILES IDX 23 25 24 26 25 27 26 29 27 30 28 31 86 32 29 33 85 34 30 35
REMARK SMILES IDX 31 36 32 37 79 38 33 39 84 40 78 41 80 42 34 43 83 44 77 45
REMARK SMILES IDX 76 46 35 48 65 49 46 50 64 51 47 52 50 53 63 54 81 55 48 56
REMARK SMILES IDX 49 57 62 59 82 60 51 61 36 62 37 63 45 64 38 65 44 66 39 67
REMARK SMILES IDX 40 68 41 69 42 70 43 71 66 72 67 73 75 74 68 75 74 76 69 77
REMARK SMILES IDX 70 78 71 79 72 80 73 81 52 82 53 83 61 84 54 85 60 86 55 87
REMARK SMILES IDX 56 88 57 89 58 90 59 91
REMARK H PARENT 20 5 12 14 24 28 80 47 50 58
REMARK Flexibility Score: inf
ROOT
ATOM      1  C   UNL A   1      31.747  28.147  26.783  1.00  0.00     0.118 C 
ENDROOT
BRANCH   1   2
ATOM      2  N   UNL A   1      31.044  26.897  26.823  1.00  0.00    -0.351 N 
ATOM      3  C   UNL A   1      30.744  25.939  25.896  1.00  0.00     0.263 C 
ATOM      4  O   UNL A   1      30.100  25.009  26.408  1.00  0.00    -0.268 OA
ATOM      5  H   UNL A   1      30.701  26.680  27.720  1.00  0.00     0.163 HD
BRANCH   3   6
ATOM      6  C   UNL A   1      31.121  25.938  24.474  1.00  0.00     0.115 A 
ATOM      7  C   UNL A   1      32.135  25.447  23.644  1.00  0.00     0.065 A 
ATOM      8  C   UNL A   1      32.047  26.014  22.316  1.00  0.00     0.038 A 
ATOM      9  C   UNL A   1      30.988  26.860  22.135  1.00  0.00     0.068 A 
ATOM     10  S   UNL A   1      30.061  26.988  23.538  1.00  0.00    -0.137 S 
BRANCH   7  11
ATOM     11  N   UNL A   1      33.147  24.520  23.922  1.00  0.00    -0.324 N 
ATOM     12  O   UNL A   1      31.924  22.612  23.468  1.00  0.00    -0.274 OA
ATOM     13  C   UNL A   1      32.910  23.150  23.973  1.00  0.00     0.234 C 
ATOM     14  H   UNL A   1      34.060  24.850  24.090  1.00  0.00     0.170 HD
BRANCH  13  15
ATOM     15  C   UNL A   1      33.923  22.320  24.744  1.00  0.00     0.170 C 
BRANCH  15  16
ATOM     16  S   UNL A   1      34.771  23.167  26.104  1.00  0.00    -0.146 SA
BRANCH  16  17
ATOM     17  C   UNL A   1      36.238  23.853  25.261  1.00  0.00     0.116 C 
BRANCH  17  18
ATOM     18  C   UNL A   1      37.534  23.436  25.868  1.00  0.00     0.016 A 
ATOM     19  C   UNL A   1      38.439  24.164  26.619  1.00  0.00     0.018 A 
ATOM     20  S   UNL A   1      38.107  21.842  25.583  1.00  0.00    -0.128 S 
ATOM     21  C   UNL A   1      39.581  23.393  26.993  1.00  0.00     0.033 A 
ATOM     22  C   UNL A   1      39.501  22.121  26.491  1.00  0.00     0.093 A 
ATOM     23  Cl  UNL A   1      40.637  20.851  26.690  1.00  0.00    -0.072 Cl
ENDBRANCH  17  18
ENDBRANCH  16  17
ENDBRANCH  15  16
ENDBRANCH  13  15
ENDBRANCH   7  11
ENDBRANCH   3   6
ENDBRANCH   1   2
BRANCH   1  24
ATOM     24  C   UNL A   1      33.243  27.912  26.909  1.00  0.00     0.042 C 
BRANCH  24  25
ATOM     25  C   UNL A   1      34.133  28.888  26.155  1.00  0.00     0.118 C 
BRANCH  25  26
ATOM     26  N   UNL A   1      33.862  30.267  26.538  1.00  0.00    -0.352 N 
ATOM     27  C   UNL A   1      34.415  31.067  27.506  1.00  0.00     0.251 C 
ATOM     28  H   UNL A   1      33.155  30.702  26.008  1.00  0.00     0.163 HD
ATOM     29  O   UNL A   1      33.857  32.141  27.756  1.00  0.00    -0.269 OA
BRANCH  27  30
ATOM     30  C   UNL A   1      35.639  30.687  28.256  1.00  0.00     0.039 A 
ATOM     31  C   UNL A   1      35.535  29.732  29.274  1.00  0.00     0.014 A 
ATOM     32  C   UNL A   1      36.873  31.296  28.025  1.00  0.00     0.014 A 
ATOM     33  C   UNL A   1      36.664  29.351  30.011  1.00  0.00     0.010 A 
ATOM     34  C   UNL A   1      38.015  30.851  28.693  1.00  0.00     0.010 A 
ATOM     35  C   UNL A   1      37.926  29.879  29.701  1.00  0.00    -0.014 A 
BRANCH  35  36
ATOM     36  C   UNL A   1      39.165  29.451  30.411  1.00  0.00     0.031 A 
ATOM     37  C   UNL A   1      39.620  30.183  31.648  1.00  0.00     0.074 A 
ATOM     38  C   UNL A   1      39.934  28.466  29.901  1.00  0.00     0.049 A 
ATOM     39  N   UNL A   1      40.745  30.071  32.307  1.00  0.00    -0.248 NA
ATOM     40  C   UNL A   1      38.699  31.187  32.205  1.00  0.00     0.031 C 
ATOM     41  C   UNL A   1      39.617  27.669  28.715  1.00  0.00     0.029 A 
ATOM     42  N   UNL A   1      41.156  27.982  30.302  1.00  0.00    -0.354 N 
ATOM     43  C   UNL A   1      40.678  31.001  33.337  1.00  0.00     0.074 A 
ATOM     44  C   UNL A   1      39.420  31.700  33.191  1.00  0.00     0.031 C 
ATOM     45  C   UNL A   1      40.615  26.803  28.484  1.00  0.00     0.029 A 
ATOM     46  C   UNL A   1      41.670  27.017  29.467  1.00  0.00     0.049 A 
ATOM     47  H   UNL A   1      41.620  28.296  31.112  1.00  0.00     0.167 HD
ATOM     48  C   UNL A   1      41.574  31.242  34.325  1.00  0.00     0.031 A 
ATOM     49  C   UNL A   1      42.863  26.392  29.464  1.00  0.00     0.031 A 
ATOM     50  C   UNL A   1      42.815  30.530  34.481  1.00  0.00     0.049 A 
ATOM     51  C   UNL A   1      43.865  26.718  30.535  1.00  0.00     0.074 A 
ATOM     52  C   UNL A   1      43.755  30.656  35.490  1.00  0.00     0.029 A 
ATOM     53  N   UNL A   1      43.293  29.564  33.608  1.00  0.00    -0.354 N 
ATOM     54  N   UNL A   1      43.761  27.567  31.527  1.00  0.00    -0.248 NA
ATOM     55  C   UNL A   1      45.142  25.990  30.494  1.00  0.00     0.031 C 
ATOM     56  C   UNL A   1      44.829  29.813  35.195  1.00  0.00     0.029 A 
ATOM     57  C   UNL A   1      44.528  29.110  34.039  1.00  0.00     0.049 A 
ATOM     58  H   UNL A   1      42.824  29.249  32.803  1.00  0.00     0.167 HD
ATOM     59  C   UNL A   1      44.941  27.448  32.252  1.00  0.00     0.074 A 
ATOM     60  C   UNL A   1      45.743  26.443  31.585  1.00  0.00     0.031 C 
ATOM     61  C   UNL A   1      45.318  28.104  33.375  1.00  0.00     0.031 A 
BRANCH  48  62
ATOM     62  C   UNL A   1      41.253  32.328  35.319  1.00  0.00    -0.014 A 
ATOM     63  C   UNL A   1      40.646  32.033  36.553  1.00  0.00     0.010 A 
ATOM     64  C   UNL A   1      41.626  33.656  35.041  1.00  0.00     0.010 A 
ATOM     65  C   UNL A   1      40.389  33.050  37.475  1.00  0.00     0.020 A 
ATOM     66  C   UNL A   1      41.397  34.672  35.974  1.00  0.00     0.020 A 
ATOM     67  C   UNL A   1      40.765  34.364  37.180  1.00  0.00     0.054 A 
BRANCH  67  68
ATOM     68  S   UNL A   1      40.451  35.655  38.414  1.00  0.00     0.124 S 
ATOM     69  O   UNL A   1      40.502  36.867  37.599  1.00  0.00    -0.237 OA
ATOM     70  O   UNL A   1      39.131  35.296  38.923  1.00  0.00    -0.237 OA
ATOM     71  O   UNL A   1      41.548  35.501  39.367  1.00  0.00    -0.744 OA
ENDBRANCH  67  68
ENDBRANCH  48  62
BRANCH  49  72
ATOM     72  C   UNL A   1      43.192  25.404  28.400  1.00  0.00    -0.014 A 
ATOM     73  C   UNL A   1      42.939  24.035  28.592  1.00  0.00     0.010 A 
ATOM     74  C   UNL A   1      43.776  25.830  27.194  1.00  0.00     0.010 A 
ATOM     75  C   UNL A   1      43.278  23.106  27.603  1.00  0.00     0.020 A 
ATOM     76  C   UNL A   1      44.100  24.905  26.196  1.00  0.00     0.020 A 
ATOM     77  C   UNL A   1      43.856  23.549  26.410  1.00  0.00     0.054 A 
BRANCH  77  78
ATOM     78  S   UNL A   1      44.236  22.337  25.114  1.00  0.00     0.124 S 
ATOM     79  O   UNL A   1      43.982  21.073  25.796  1.00  0.00    -0.237 OA
ATOM     80  O   UNL A   1      43.285  22.692  24.062  1.00  0.00    -0.237 OA
ATOM     81  O   UNL A   1      45.634  22.610  24.792  1.00  0.00    -0.744 OA
ENDBRANCH  77  78
ENDBRANCH  49  72
BRANCH  61  82
ATOM     82  C   UNL A   1      46.632  27.722  33.999  1.00  0.00    -0.014 A 
ATOM     83  C   UNL A   1      46.717  26.714  34.975  1.00  0.00     0.010 A 
ATOM     84  C   UNL A   1      47.813  28.338  33.542  1.00  0.00     0.010 A 
ATOM     85  C   UNL A   1      47.959  26.340  35.495  1.00  0.00     0.020 A 
ATOM     86  C   UNL A   1      49.058  27.948  34.039  1.00  0.00     0.020 A 
ATOM     87  C   UNL A   1      49.123  26.956  35.019  1.00  0.00     0.054 A 
BRANCH  87  88
ATOM     88  S   UNL A   1      50.727  26.402  35.659  1.00  0.00     0.124 S 
ATOM     89  O   UNL A   1      51.600  27.514  35.295  1.00  0.00    -0.237 OA
ATOM     90  O   UNL A   1      50.465  26.248  37.088  1.00  0.00    -0.237 OA
ATOM     91  O   UNL A   1      50.975  25.154  34.940  1.00  0.00    -0.744 OA
ENDBRANCH  87  88
ENDBRANCH  61  82
ENDBRANCH  35  36
ENDBRANCH  27  30
ENDBRANCH  25  26
ENDBRANCH  24  25
ENDBRANCH   1  24
TORSDOF 18
ENDMDL
