MODEL 1
REMARK VINA RESULT:     -12.3      0.000      0.000
REMARK SMILES O=C(C[C@H]1C[C@H]2CC[C@@H](C1)[N@@H+]2C[C@@H]1CCCOC1)NCCCNC(=O)c1ccc(-c2c3nc(c(-c4ccc(S(=O)(=O)[O-])cc4)c4ccc([nH]4)c(-c4ccc(S(=O)(=O)[O-])cc4)c4nc(c(-c5ccc(S(=O)(=O)[O-])cc5)c5ccc2[nH]5)C=C4)C=C3)cc1
REMARK SMILES IDX 21 1 20 2 19 3 1 4 2 5 3 7 4 8 5 9 10 10 6 11 9 12 7 13
REMARK SMILES IDX 11 14 8 15 12 17 13 18 14 19 18 20 15 21 17 22 16 23 22 24
REMARK SMILES IDX 23 25 24 26 25 28 26 29 27 30 85 31 28 32 84 33 29 34 30 35
REMARK SMILES IDX 31 36 78 37 32 38 83 39 77 40 79 41 33 42 82 43 76 44 75 45
REMARK SMILES IDX 34 47 64 48 45 49 63 50 46 51 49 52 62 53 80 54 47 55 48 56
REMARK SMILES IDX 61 58 81 59 50 60 35 61 36 62 44 63 37 64 43 65 38 66 39 67
REMARK SMILES IDX 40 68 41 69 42 70 65 71 66 72 74 73 67 74 73 75 68 76 69 77
REMARK SMILES IDX 70 78 71 79 72 80 51 81 52 82 60 83 53 84 59 85 54 86 55 87
REMARK SMILES IDX 56 88 57 89 58 90
REMARK H PARENT 19 6 11 16 23 27 79 46 49 57
REMARK Flexibility Score: inf
ROOT
ATOM      1  C   UNL A   1      41.009  22.270  27.493  1.00  0.00     0.042 C 
ENDROOT
BRANCH   1   2
ATOM      2  C   UNL A   1      40.131  21.621  26.431  1.00  0.00     0.117 C 
BRANCH   2   3
ATOM      3  N   UNL A   1      39.053  22.483  25.992  1.00  0.00    -0.356 N 
ATOM      4  O   UNL A   1      37.869  20.837  24.910  1.00  0.00    -0.275 OA
ATOM      5  C   UNL A   1      37.925  21.959  25.400  1.00  0.00     0.220 C 
ATOM      6  H   UNL A   1      39.128  23.457  26.118  1.00  0.00     0.163 HD
BRANCH   5   7
ATOM      7  C   UNL A   1      36.702  22.838  25.583  1.00  0.00     0.104 C 
BRANCH   7   8
ATOM      8  C   UNL A   1      35.410  22.024  25.376  1.00  0.00     0.010 C 
ATOM      9  C   UNL A   1      34.500  22.068  26.640  1.00  0.00     0.069 C 
ATOM     10  C   UNL A   1      34.698  22.304  24.014  1.00  0.00     0.069 C 
ATOM     11  C   UNL A   1      32.993  21.862  26.370  1.00  0.00     0.184 C 
ATOM     12  C   UNL A   1      33.172  22.306  24.092  1.00  0.00     0.184 C 
ATOM     13  C   UNL A   1      32.329  23.228  26.180  1.00  0.00     0.071 C 
ATOM     14  N   UNL A   1      32.819  21.295  25.054  1.00  0.00    -0.330 N 
ATOM     15  C   UNL A   1      32.677  23.611  24.744  1.00  0.00     0.071 C 
ATOM     16  H   UNL A   1      32.993  20.295  24.960  1.00  0.00     0.348 HD
BRANCH  14  17
ATOM     17  C   UNL A   1      32.245  20.016  24.732  1.00  0.00     0.268 C 
BRANCH  17  18
ATOM     18  C   UNL A   1      33.168  18.766  24.778  1.00  0.00     0.070 C 
ATOM     19  C   UNL A   1      33.407  18.135  23.399  1.00  0.00     0.014 C 
ATOM     20  C   UNL A   1      32.730  17.743  25.830  1.00  0.00     0.169 C 
ATOM     21  C   UNL A   1      33.993  16.726  23.439  1.00  0.00     0.029 C 
ATOM     22  O   UNL A   1      33.534  16.561  25.790  1.00  0.00    -0.381 OA
ATOM     23  C   UNL A   1      33.380  15.886  24.545  1.00  0.00     0.160 C 
ENDBRANCH  17  18
ENDBRANCH  14  17
ENDBRANCH   7   8
ENDBRANCH   5   7
ENDBRANCH   2   3
ENDBRANCH   1   2
BRANCH   1  24
ATOM     24  C   UNL A   1      42.217  23.036  26.951  1.00  0.00     0.118 C 
BRANCH  24  25
ATOM     25  N   UNL A   1      41.902  24.032  25.935  1.00  0.00    -0.352 N 
ATOM     26  C   UNL A   1      41.621  25.376  26.061  1.00  0.00     0.251 C 
ATOM     27  H   UNL A   1      41.889  23.692  25.011  1.00  0.00     0.163 HD
ATOM     28  O   UNL A   1      41.328  26.036  25.066  1.00  0.00    -0.269 OA
BRANCH  26  29
ATOM     29  C   UNL A   1      41.605  26.014  27.397  1.00  0.00     0.039 A 
ATOM     30  C   UNL A   1      42.721  26.752  27.802  1.00  0.00     0.014 A 
ATOM     31  C   UNL A   1      40.483  25.942  28.223  1.00  0.00     0.014 A 
ATOM     32  C   UNL A   1      42.655  27.531  28.961  1.00  0.00     0.010 A 
ATOM     33  C   UNL A   1      40.382  26.791  29.323  1.00  0.00     0.010 A 
ATOM     34  C   UNL A   1      41.455  27.621  29.686  1.00  0.00    -0.014 A 
BRANCH  34  35
ATOM     35  C   UNL A   1      41.271  28.623  30.773  1.00  0.00     0.031 A 
ATOM     36  C   UNL A   1      42.111  28.567  32.020  1.00  0.00     0.074 A 
ATOM     37  C   UNL A   1      40.264  29.518  30.685  1.00  0.00     0.049 A 
ATOM     38  N   UNL A   1      42.001  29.268  33.120  1.00  0.00    -0.248 NA
ATOM     39  C   UNL A   1      43.196  27.572  32.046  1.00  0.00     0.031 C 
ATOM     40  C   UNL A   1      39.336  29.649  29.558  1.00  0.00     0.029 A 
ATOM     41  N   UNL A   1      39.841  30.482  31.569  1.00  0.00    -0.354 N 
ATOM     42  C   UNL A   1      42.981  28.781  33.979  1.00  0.00     0.074 A 
ATOM     43  C   UNL A   1      43.647  27.699  33.286  1.00  0.00     0.031 C 
ATOM     44  C   UNL A   1      38.476  30.650  29.805  1.00  0.00     0.029 A 
ATOM     45  C   UNL A   1      38.753  31.200  31.127  1.00  0.00     0.049 A 
ATOM     46  H   UNL A   1      40.276  30.643  32.438  1.00  0.00     0.167 HD
ATOM     47  C   UNL A   1      43.307  29.205  35.223  1.00  0.00     0.031 A 
ATOM     48  C   UNL A   1      38.046  32.181  31.719  1.00  0.00     0.031 A 
ATOM     49  C   UNL A   1      42.662  30.297  35.904  1.00  0.00     0.049 A 
ATOM     50  C   UNL A   1      38.430  32.638  33.098  1.00  0.00     0.074 A 
ATOM     51  C   UNL A   1      42.970  30.843  37.137  1.00  0.00     0.029 A 
ATOM     52  N   UNL A   1      41.581  31.011  35.411  1.00  0.00    -0.354 N 
ATOM     53  N   UNL A   1      39.398  32.202  33.868  1.00  0.00    -0.248 NA
ATOM     54  C   UNL A   1      37.630  33.722  33.686  1.00  0.00     0.031 C 
ATOM     55  C   UNL A   1      42.049  31.861  37.409  1.00  0.00     0.029 A 
ATOM     56  C   UNL A   1      41.196  31.978  36.324  1.00  0.00     0.049 A 
ATOM     57  H   UNL A   1      41.150  30.853  34.538  1.00  0.00     0.167 HD
ATOM     58  C   UNL A   1      39.332  32.970  35.025  1.00  0.00     0.074 A 
ATOM     59  C   UNL A   1      38.244  33.908  34.847  1.00  0.00     0.031 C 
ATOM     60  C   UNL A   1      40.106  32.901  36.136  1.00  0.00     0.031 A 
BRANCH  47  61
ATOM     61  C   UNL A   1      44.418  28.478  35.933  1.00  0.00    -0.014 A 
ATOM     62  C   UNL A   1      45.751  28.918  35.835  1.00  0.00     0.010 A 
ATOM     63  C   UNL A   1      44.124  27.358  36.732  1.00  0.00     0.010 A 
ATOM     64  C   UNL A   1      46.774  28.223  36.483  1.00  0.00     0.020 A 
ATOM     65  C   UNL A   1      45.142  26.677  37.404  1.00  0.00     0.020 A 
ATOM     66  C   UNL A   1      46.464  27.102  37.259  1.00  0.00     0.054 A 
BRANCH  66  67
ATOM     67  S   UNL A   1      47.811  26.224  38.099  1.00  0.00     0.124 S 
ATOM     68  O   UNL A   1      48.875  27.226  38.086  1.00  0.00    -0.237 OA
ATOM     69  O   UNL A   1      47.238  25.934  39.411  1.00  0.00    -0.237 OA
ATOM     70  O   UNL A   1      48.044  25.056  37.253  1.00  0.00    -0.744 OA
ENDBRANCH  66  67
ENDBRANCH  47  61
BRANCH  48  71
ATOM     71  C   UNL A   1      36.898  32.804  31.005  1.00  0.00    -0.014 A 
ATOM     72  C   UNL A   1      35.578  32.477  31.363  1.00  0.00     0.010 A 
ATOM     73  C   UNL A   1      37.118  33.737  29.975  1.00  0.00     0.010 A 
ATOM     74  C   UNL A   1      34.498  33.062  30.694  1.00  0.00     0.020 A 
ATOM     75  C   UNL A   1      36.040  34.342  29.322  1.00  0.00     0.020 A 
ATOM     76  C   UNL A   1      34.736  33.993  29.680  1.00  0.00     0.054 A 
BRANCH  76  77
ATOM     77  S   UNL A   1      33.320  34.783  28.865  1.00  0.00     0.124 S 
ATOM     78  O   UNL A   1      33.940  35.947  28.243  1.00  0.00    -0.237 OA
ATOM     79  O   UNL A   1      32.862  33.743  27.947  1.00  0.00    -0.237 OA
ATOM     80  O   UNL A   1      32.409  35.072  29.971  1.00  0.00    -0.744 OA
ENDBRANCH  76  77
ENDBRANCH  48  71
BRANCH  60  81
ATOM     81  C   UNL A   1      39.813  33.878  37.242  1.00  0.00    -0.014 A 
ATOM     82  C   UNL A   1      38.912  33.558  38.272  1.00  0.00     0.010 A 
ATOM     83  C   UNL A   1      40.487  35.112  37.277  1.00  0.00     0.010 A 
ATOM     84  C   UNL A   1      38.671  34.466  39.306  1.00  0.00     0.020 A 
ATOM     85  C   UNL A   1      40.266  36.013  38.321  1.00  0.00     0.020 A 
ATOM     86  C   UNL A   1      39.349  35.689  39.324  1.00  0.00     0.054 A 
BRANCH  86  87
ATOM     87  S   UNL A   1      39.056  36.832  40.701  1.00  0.00     0.124 S 
ATOM     88  O   UNL A   1      40.416  37.125  41.147  1.00  0.00    -0.237 OA
ATOM     89  O   UNL A   1      38.354  37.939  40.057  1.00  0.00    -0.237 OA
ATOM     90  O   UNL A   1      38.249  36.050  41.634  1.00  0.00    -0.744 OA
ENDBRANCH  86  87
ENDBRANCH  60  81
ENDBRANCH  34  35
ENDBRANCH  26  29
ENDBRANCH  24  25
ENDBRANCH   1  24
TORSDOF 16
ENDMDL
MODEL 2
REMARK VINA RESULT:     -12.3      4.729     10.455
REMARK SMILES O=C(C[C@H]1C[C@H]2CC[C@@H](C1)[N@@H+]2C[C@@H]1CCCOC1)NCCCNC(=O)c1ccc(-c2c3nc(c(-c4ccc(S(=O)(=O)[O-])cc4)c4ccc([nH]4)c(-c4ccc(S(=O)(=O)[O-])cc4)c4nc(c(-c5ccc(S(=O)(=O)[O-])cc5)c5ccc2[nH]5)C=C4)C=C3)cc1
REMARK SMILES IDX 21 1 20 2 19 3 1 4 2 5 3 7 4 8 5 9 10 10 6 11 9 12 7 13
REMARK SMILES IDX 11 14 8 15 12 17 13 18 14 19 18 20 15 21 17 22 16 23 22 24
REMARK SMILES IDX 23 25 24 26 25 28 26 29 27 30 85 31 28 32 84 33 29 34 30 35
REMARK SMILES IDX 31 36 78 37 32 38 83 39 77 40 79 41 33 42 82 43 76 44 75 45
REMARK SMILES IDX 34 47 64 48 45 49 63 50 46 51 49 52 62 53 80 54 47 55 48 56
REMARK SMILES IDX 61 58 81 59 50 60 35 61 36 62 44 63 37 64 43 65 38 66 39 67
REMARK SMILES IDX 40 68 41 69 42 70 65 71 66 72 74 73 67 74 73 75 68 76 69 77
REMARK SMILES IDX 70 78 71 79 72 80 51 81 52 82 60 83 53 84 59 85 54 86 55 87
REMARK SMILES IDX 56 88 57 89 58 90
REMARK H PARENT 19 6 11 16 23 27 79 46 49 57
REMARK Flexibility Score: inf
ROOT
ATOM      1  C   UNL A   1      31.807  28.580  27.274  1.00  0.00     0.042 C 
ENDROOT
BRANCH   1   2
ATOM      2  C   UNL A   1      31.505  27.549  26.194  1.00  0.00     0.117 C 
BRANCH   2   3
ATOM      3  N   UNL A   1      31.307  26.218  26.729  1.00  0.00    -0.356 N 
ATOM      4  O   UNL A   1      29.862  25.522  25.085  1.00  0.00    -0.275 OA
ATOM      5  C   UNL A   1      30.616  25.265  26.016  1.00  0.00     0.220 C 
ATOM      6  H   UNL A   1      31.671  25.993  27.616  1.00  0.00     0.163 HD
BRANCH   5   7
ATOM      7  C   UNL A   1      31.025  23.849  26.375  1.00  0.00     0.104 C 
BRANCH   7   8
ATOM      8  C   UNL A   1      32.298  23.438  25.609  1.00  0.00     0.010 C 
ATOM      9  C   UNL A   1      32.542  21.902  25.692  1.00  0.00     0.069 C 
ATOM     10  C   UNL A   1      32.410  24.070  24.185  1.00  0.00     0.069 C 
ATOM     11  C   UNL A   1      33.348  21.302  24.518  1.00  0.00     0.184 C 
ATOM     12  C   UNL A   1      33.012  23.141  23.131  1.00  0.00     0.184 C 
ATOM     13  C   UNL A   1      32.374  20.814  23.443  1.00  0.00     0.071 C 
ATOM     14  N   UNL A   1      34.017  22.366  23.810  1.00  0.00    -0.330 N 
ATOM     15  C   UNL A   1      31.975  22.086  22.701  1.00  0.00     0.071 C 
ATOM     16  H   UNL A   1      34.870  22.732  24.234  1.00  0.00     0.348 HD
BRANCH  14  17
ATOM     17  C   UNL A   1      35.437  22.544  23.658  1.00  0.00     0.268 C 
BRANCH  17  18
ATOM     18  C   UNL A   1      36.326  22.456  24.929  1.00  0.00     0.070 C 
ATOM     19  C   UNL A   1      36.778  23.827  25.453  1.00  0.00     0.014 C 
ATOM     20  C   UNL A   1      37.488  21.470  24.775  1.00  0.00     0.169 C 
ATOM     21  C   UNL A   1      37.926  23.776  26.458  1.00  0.00     0.029 C 
ATOM     22  O   UNL A   1      38.347  21.475  25.917  1.00  0.00    -0.381 OA
ATOM     23  C   UNL A   1      38.972  22.745  26.075  1.00  0.00     0.160 C 
ENDBRANCH  17  18
ENDBRANCH  14  17
ENDBRANCH   7   8
ENDBRANCH   5   7
ENDBRANCH   2   3
ENDBRANCH   1   2
BRANCH   1  24
ATOM     24  C   UNL A   1      33.268  29.025  27.351  1.00  0.00     0.118 C 
BRANCH  24  25
ATOM     25  N   UNL A   1      33.465  30.399  27.797  1.00  0.00    -0.352 N 
ATOM     26  C   UNL A   1      34.586  31.018  28.308  1.00  0.00     0.251 C 
ATOM     27  H   UNL A   1      32.671  30.977  27.721  1.00  0.00     0.163 HD
ATOM     28  O   UNL A   1      34.523  32.190  28.675  1.00  0.00    -0.269 OA
BRANCH  26  29
ATOM     29  C   UNL A   1      35.846  30.260  28.478  1.00  0.00     0.039 A 
ATOM     30  C   UNL A   1      36.761  30.233  27.421  1.00  0.00     0.014 A 
ATOM     31  C   UNL A   1      36.159  29.633  29.683  1.00  0.00     0.014 A 
ATOM     32  C   UNL A   1      38.039  29.704  27.623  1.00  0.00     0.010 A 
ATOM     33  C   UNL A   1      37.461  29.194  29.914  1.00  0.00     0.010 A 
ATOM     34  C   UNL A   1      38.426  29.255  28.897  1.00  0.00    -0.014 A 
BRANCH  34  35
ATOM     35  C   UNL A   1      39.844  28.919  29.210  1.00  0.00     0.031 A 
ATOM     36  C   UNL A   1      40.767  29.952  29.796  1.00  0.00     0.074 A 
ATOM     37  C   UNL A   1      40.329  27.709  28.860  1.00  0.00     0.049 A 
ATOM     38  N   UNL A   1      42.057  29.879  30.007  1.00  0.00    -0.248 NA
ATOM     39  C   UNL A   1      40.170  31.246  30.162  1.00  0.00     0.031 C 
ATOM     40  C   UNL A   1      39.561  26.630  28.234  1.00  0.00     0.029 A 
ATOM     41  N   UNL A   1      41.597  27.186  28.967  1.00  0.00    -0.354 N 
ATOM     42  C   UNL A   1      42.431  31.123  30.503  1.00  0.00     0.074 A 
ATOM     43  C   UNL A   1      41.238  31.943  30.521  1.00  0.00     0.031 C 
ATOM     44  C   UNL A   1      40.360  25.569  28.039  1.00  0.00     0.029 A 
ATOM     45  C   UNL A   1      41.711  25.905  28.477  1.00  0.00     0.049 A 
ATOM     46  H   UNL A   1      42.352  27.683  29.357  1.00  0.00     0.167 HD
ATOM     47  C   UNL A   1      43.651  31.541  30.918  1.00  0.00     0.031 A 
ATOM     48  C   UNL A   1      42.779  25.093  28.375  1.00  0.00     0.031 A 
ATOM     49  C   UNL A   1      44.832  30.720  30.923  1.00  0.00     0.049 A 
ATOM     50  C   UNL A   1      44.121  25.577  28.848  1.00  0.00     0.074 A 
ATOM     51  C   UNL A   1      46.096  31.034  31.391  1.00  0.00     0.029 A 
ATOM     52  N   UNL A   1      44.897  29.423  30.440  1.00  0.00    -0.354 N 
ATOM     53  N   UNL A   1      44.439  26.738  29.367  1.00  0.00    -0.248 NA
ATOM     54  C   UNL A   1      45.247  24.640  28.726  1.00  0.00     0.031 C 
ATOM     55  C   UNL A   1      46.936  29.941  31.153  1.00  0.00     0.029 A 
ATOM     56  C   UNL A   1      46.184  28.930  30.578  1.00  0.00     0.049 A 
ATOM     57  H   UNL A   1      44.139  28.924  30.055  1.00  0.00     0.167 HD
ATOM     58  C   UNL A   1      45.798  26.665  29.648  1.00  0.00     0.074 A 
ATOM     59  C   UNL A   1      46.238  25.341  29.258  1.00  0.00     0.031 C 
ATOM     60  C   UNL A   1      46.609  27.613  30.180  1.00  0.00     0.031 A 
BRANCH  47  61
ATOM     61  C   UNL A   1      43.766  32.962  31.404  1.00  0.00    -0.014 A 
ATOM     62  C   UNL A   1      43.543  33.287  32.754  1.00  0.00     0.010 A 
ATOM     63  C   UNL A   1      44.132  33.982  30.506  1.00  0.00     0.010 A 
ATOM     64  C   UNL A   1      43.636  34.612  33.187  1.00  0.00     0.020 A 
ATOM     65  C   UNL A   1      44.253  35.304  30.942  1.00  0.00     0.020 A 
ATOM     66  C   UNL A   1      43.984  35.613  32.276  1.00  0.00     0.054 A 
BRANCH  66  67
ATOM     67  S   UNL A   1      44.107  37.324  32.868  1.00  0.00     0.124 S 
ATOM     68  O   UNL A   1      44.023  38.079  31.620  1.00  0.00    -0.237 OA
ATOM     69  O   UNL A   1      42.951  37.443  33.753  1.00  0.00    -0.237 OA
ATOM     70  O   UNL A   1      45.406  37.366  33.536  1.00  0.00    -0.744 OA
ENDBRANCH  66  67
ENDBRANCH  47  61
BRANCH  48  71
ATOM     71  C   UNL A   1      42.623  23.727  27.803  1.00  0.00    -0.014 A 
ATOM     72  C   UNL A   1      42.896  23.493  26.444  1.00  0.00     0.010 A 
ATOM     73  C   UNL A   1      42.216  22.654  28.616  1.00  0.00     0.010 A 
ATOM     74  C   UNL A   1      42.751  22.211  25.904  1.00  0.00     0.020 A 
ATOM     75  C   UNL A   1      42.095  21.366  28.084  1.00  0.00     0.020 A 
ATOM     76  C   UNL A   1      42.354  21.155  26.728  1.00  0.00     0.054 A 
BRANCH  76  77
ATOM     77  S   UNL A   1      42.228  19.489  26.020  1.00  0.00     0.124 S 
ATOM     78  O   UNL A   1      42.699  18.657  27.121  1.00  0.00    -0.237 OA
ATOM     79  O   UNL A   1      40.805  19.384  25.709  1.00  0.00    -0.237 OA
ATOM     80  O   UNL A   1      43.109  19.548  24.855  1.00  0.00    -0.744 OA
ENDBRANCH  76  77
ENDBRANCH  48  71
BRANCH  60  81
ATOM     81  C   UNL A   1      48.054  27.246  30.387  1.00  0.00    -0.014 A 
ATOM     82  C   UNL A   1      49.027  27.570  29.427  1.00  0.00     0.010 A 
ATOM     83  C   UNL A   1      48.447  26.617  31.582  1.00  0.00     0.010 A 
ATOM     84  C   UNL A   1      50.369  27.246  29.647  1.00  0.00     0.020 A 
ATOM     85  C   UNL A   1      49.791  26.312  31.815  1.00  0.00     0.020 A 
ATOM     86  C   UNL A   1      50.742  26.619  30.840  1.00  0.00     0.054 A 
BRANCH  86  87
ATOM     87  S   UNL A   1      52.496  26.252  31.124  1.00  0.00     0.124 S 
ATOM     88  O   UNL A   1      53.015  26.174  29.761  1.00  0.00    -0.237 OA
ATOM     89  O   UNL A   1      52.944  27.404  31.902  1.00  0.00    -0.237 OA
ATOM     90  O   UNL A   1      52.470  24.987  31.855  1.00  0.00    -0.744 OA
ENDBRANCH  86  87
ENDBRANCH  60  81
ENDBRANCH  34  35
ENDBRANCH  26  29
ENDBRANCH  24  25
ENDBRANCH   1  24
TORSDOF 16
ENDMDL
MODEL 3
REMARK VINA RESULT:     -12.0      4.741     10.273
REMARK SMILES O=C(C[C@H]1C[C@H]2CC[C@@H](C1)[N@@H+]2C[C@@H]1CCCOC1)NCCCNC(=O)c1ccc(-c2c3nc(c(-c4ccc(S(=O)(=O)[O-])cc4)c4ccc([nH]4)c(-c4ccc(S(=O)(=O)[O-])cc4)c4nc(c(-c5ccc(S(=O)(=O)[O-])cc5)c5ccc2[nH]5)C=C4)C=C3)cc1
REMARK SMILES IDX 21 1 20 2 19 3 1 4 2 5 3 7 4 8 5 9 10 10 6 11 9 12 7 13
REMARK SMILES IDX 11 14 8 15 12 17 13 18 14 19 18 20 15 21 17 22 16 23 22 24
REMARK SMILES IDX 23 25 24 26 25 28 26 29 27 30 85 31 28 32 84 33 29 34 30 35
REMARK SMILES IDX 31 36 78 37 32 38 83 39 77 40 79 41 33 42 82 43 76 44 75 45
REMARK SMILES IDX 34 47 64 48 45 49 63 50 46 51 49 52 62 53 80 54 47 55 48 56
REMARK SMILES IDX 61 58 81 59 50 60 35 61 36 62 44 63 37 64 43 65 38 66 39 67
REMARK SMILES IDX 40 68 41 69 42 70 65 71 66 72 74 73 67 74 73 75 68 76 69 77
REMARK SMILES IDX 70 78 71 79 72 80 51 81 52 82 60 83 53 84 59 85 54 86 55 87
REMARK SMILES IDX 56 88 57 89 58 90
REMARK H PARENT 19 6 11 16 23 27 79 46 49 57
REMARK Flexibility Score: inf
ROOT
ATOM      1  C   UNL A   1      32.370  29.409  25.669  1.00  0.00     0.042 C 
ENDROOT
BRANCH   1   2
ATOM      2  C   UNL A   1      31.626  28.099  25.445  1.00  0.00     0.117 C 
BRANCH   2   3
ATOM      3  N   UNL A   1      32.481  26.938  25.582  1.00  0.00    -0.356 N 
ATOM      4  O   UNL A   1      32.084  26.110  23.477  1.00  0.00    -0.275 OA
ATOM      5  C   UNL A   1      32.755  26.130  24.502  1.00  0.00     0.220 C 
ATOM      6  H   UNL A   1      32.872  26.724  26.461  1.00  0.00     0.163 HD
BRANCH   5   7
ATOM      7  C   UNL A   1      34.079  25.402  24.631  1.00  0.00     0.104 C 
BRANCH   7   8
ATOM      8  C   UNL A   1      33.875  23.877  24.536  1.00  0.00     0.010 C 
ATOM      9  C   UNL A   1      35.167  23.159  24.043  1.00  0.00     0.069 C 
ATOM     10  C   UNL A   1      33.184  23.253  25.790  1.00  0.00     0.069 C 
ATOM     11  C   UNL A   1      35.310  21.688  24.493  1.00  0.00     0.184 C 
ATOM     12  C   UNL A   1      33.717  21.875  26.180  1.00  0.00     0.184 C 
ATOM     13  C   UNL A   1      36.109  21.641  25.798  1.00  0.00     0.071 C 
ATOM     14  N   UNL A   1      34.029  21.203  24.946  1.00  0.00    -0.330 N 
ATOM     15  C   UNL A   1      35.089  22.014  26.869  1.00  0.00     0.071 C 
ATOM     16  H   UNL A   1      33.359  20.938  24.224  1.00  0.00     0.348 HD
BRANCH  14  17
ATOM     17  C   UNL A   1      33.260  20.128  24.377  1.00  0.00     0.268 C 
BRANCH  17  18
ATOM     18  C   UNL A   1      33.649  18.671  24.753  1.00  0.00     0.070 C 
ATOM     19  C   UNL A   1      33.965  17.791  23.535  1.00  0.00     0.014 C 
ATOM     20  C   UNL A   1      32.648  18.018  25.711  1.00  0.00     0.169 C 
ATOM     21  C   UNL A   1      33.993  16.293  23.825  1.00  0.00     0.029 C 
ATOM     22  O   UNL A   1      32.972  16.649  25.968  1.00  0.00    -0.381 OA
ATOM     23  C   UNL A   1      32.885  15.876  24.775  1.00  0.00     0.160 C 
ENDBRANCH  17  18
ENDBRANCH  14  17
ENDBRANCH   7   8
ENDBRANCH   5   7
ENDBRANCH   2   3
ENDBRANCH   1   2
BRANCH   1  24
ATOM     24  C   UNL A   1      33.402  29.379  26.798  1.00  0.00     0.118 C 
BRANCH  24  25
ATOM     25  N   UNL A   1      33.472  30.599  27.593  1.00  0.00    -0.352 N 
ATOM     26  C   UNL A   1      34.490  31.090  28.383  1.00  0.00     0.251 C 
ATOM     27  H   UNL A   1      32.665  31.162  27.560  1.00  0.00     0.163 HD
ATOM     28  O   UNL A   1      34.323  32.129  29.018  1.00  0.00    -0.269 OA
BRANCH  26  29
ATOM     29  C   UNL A   1      35.758  30.339  28.521  1.00  0.00     0.039 A 
ATOM     30  C   UNL A   1      36.655  30.333  27.450  1.00  0.00     0.014 A 
ATOM     31  C   UNL A   1      36.094  29.696  29.712  1.00  0.00     0.014 A 
ATOM     32  C   UNL A   1      37.940  29.811  27.623  1.00  0.00     0.010 A 
ATOM     33  C   UNL A   1      37.403  29.263  29.916  1.00  0.00     0.010 A 
ATOM     34  C   UNL A   1      38.351  29.346  28.884  1.00  0.00    -0.014 A 
BRANCH  34  35
ATOM     35  C   UNL A   1      39.776  29.015  29.170  1.00  0.00     0.031 A 
ATOM     36  C   UNL A   1      40.713  30.059  29.714  1.00  0.00     0.074 A 
ATOM     37  C   UNL A   1      40.253  27.799  28.831  1.00  0.00     0.049 A 
ATOM     38  N   UNL A   1      42.007  29.989  29.895  1.00  0.00    -0.248 NA
ATOM     39  C   UNL A   1      40.125  31.360  30.070  1.00  0.00     0.031 C 
ATOM     40  C   UNL A   1      39.469  26.709  28.243  1.00  0.00     0.029 A 
ATOM     41  N   UNL A   1      41.522  27.278  28.917  1.00  0.00    -0.354 N 
ATOM     42  C   UNL A   1      42.393  31.242  30.358  1.00  0.00     0.074 A 
ATOM     43  C   UNL A   1      41.201  32.063  30.390  1.00  0.00     0.031 C 
ATOM     44  C   UNL A   1      40.264  25.644  28.049  1.00  0.00     0.029 A 
ATOM     45  C   UNL A   1      41.625  25.987  28.448  1.00  0.00     0.049 A 
ATOM     46  H   UNL A   1      42.287  27.781  29.279  1.00  0.00     0.167 HD
ATOM     47  C   UNL A   1      43.622  31.668  30.737  1.00  0.00     0.031 A 
ATOM     48  C   UNL A   1      42.691  25.173  28.336  1.00  0.00     0.031 A 
ATOM     49  C   UNL A   1      44.803  30.846  30.728  1.00  0.00     0.049 A 
ATOM     50  C   UNL A   1      44.043  25.665  28.768  1.00  0.00     0.074 A 
ATOM     51  C   UNL A   1      46.078  31.169  31.160  1.00  0.00     0.029 A 
ATOM     52  N   UNL A   1      44.857  29.540  30.269  1.00  0.00    -0.354 N 
ATOM     53  N   UNL A   1      44.373  26.836  29.257  1.00  0.00    -0.248 NA
ATOM     54  C   UNL A   1      45.166  24.726  28.636  1.00  0.00     0.031 C 
ATOM     55  C   UNL A   1      46.912  30.071  30.922  1.00  0.00     0.029 A 
ATOM     56  C   UNL A   1      46.147  29.049  30.385  1.00  0.00     0.049 A 
ATOM     57  H   UNL A   1      44.090  29.035  29.911  1.00  0.00     0.167 HD
ATOM     58  C   UNL A   1      45.739  26.768  29.507  1.00  0.00     0.074 A 
ATOM     59  C   UNL A   1      46.169  25.437  29.131  1.00  0.00     0.031 C 
ATOM     60  C   UNL A   1      46.562  27.724  30.001  1.00  0.00     0.031 A 
BRANCH  47  61
ATOM     61  C   UNL A   1      43.749  33.097  31.193  1.00  0.00    -0.014 A 
ATOM     62  C   UNL A   1      43.552  33.448  32.541  1.00  0.00     0.010 A 
ATOM     63  C   UNL A   1      44.100  34.098  30.269  1.00  0.00     0.010 A 
ATOM     64  C   UNL A   1      43.655  34.781  32.947  1.00  0.00     0.020 A 
ATOM     65  C   UNL A   1      44.232  35.428  30.677  1.00  0.00     0.020 A 
ATOM     66  C   UNL A   1      43.987  35.764  32.010  1.00  0.00     0.054 A 
BRANCH  66  67
ATOM     67  S   UNL A   1      44.125  37.486  32.567  1.00  0.00     0.124 S 
ATOM     68  O   UNL A   1      43.855  38.221  31.333  1.00  0.00    -0.237 OA
ATOM     69  O   UNL A   1      43.088  37.577  33.591  1.00  0.00    -0.237 OA
ATOM     70  O   UNL A   1      45.496  37.580  33.063  1.00  0.00    -0.744 OA
ENDBRANCH  66  67
ENDBRANCH  47  61
BRANCH  48  71
ATOM     71  C   UNL A   1      42.521  23.797  27.793  1.00  0.00    -0.014 A 
ATOM     72  C   UNL A   1      42.491  23.582  26.404  1.00  0.00     0.010 A 
ATOM     73  C   UNL A   1      42.404  22.696  28.661  1.00  0.00     0.010 A 
ATOM     74  C   UNL A   1      42.333  22.291  25.892  1.00  0.00     0.020 A 
ATOM     75  C   UNL A   1      42.271  21.401  28.151  1.00  0.00     0.020 A 
ATOM     76  C   UNL A   1      42.226  21.208  26.768  1.00  0.00     0.054 A 
BRANCH  76  77
ATOM     77  S   UNL A   1      42.079  19.534  26.081  1.00  0.00     0.124 S 
ATOM     78  O   UNL A   1      40.666  19.476  25.725  1.00  0.00    -0.237 OA
ATOM     79  O   UNL A   1      43.015  19.570  24.959  1.00  0.00    -0.237 OA
ATOM     80  O   UNL A   1      42.484  18.675  27.192  1.00  0.00    -0.744 OA
ENDBRANCH  76  77
ENDBRANCH  48  71
BRANCH  60  81
ATOM     81  C   UNL A   1      48.012  27.362  30.181  1.00  0.00    -0.014 A 
ATOM     82  C   UNL A   1      48.955  27.630  29.175  1.00  0.00     0.010 A 
ATOM     83  C   UNL A   1      48.441  26.792  31.393  1.00  0.00     0.010 A 
ATOM     84  C   UNL A   1      50.302  27.311  29.367  1.00  0.00     0.020 A 
ATOM     85  C   UNL A   1      49.790  26.493  31.599  1.00  0.00     0.020 A 
ATOM     86  C   UNL A   1      50.711  26.744  30.578  1.00  0.00     0.054 A 
BRANCH  86  87
ATOM     87  S   UNL A   1      52.472  26.382  30.825  1.00  0.00     0.124 S 
ATOM     88  O   UNL A   1      52.421  25.157  31.619  1.00  0.00    -0.237 OA
ATOM     89  O   UNL A   1      52.963  26.225  29.459  1.00  0.00    -0.237 OA
ATOM     90  O   UNL A   1      52.971  27.561  31.528  1.00  0.00    -0.744 OA
ENDBRANCH  86  87
ENDBRANCH  60  81
ENDBRANCH  34  35
ENDBRANCH  26  29
ENDBRANCH  24  25
ENDBRANCH   1  24
TORSDOF 16
ENDMDL
