MODEL 1
REMARK VINA RESULT:      -9.6      0.000      0.000
REMARK SMILES CC1(C)O[C@](C)(C(C)(C)O)CC[C@H]1C(=O)NCCCNC(=O)c1ccc(-c2c3nc(c(-c4ccc(S(=O)(=O)[O-])cc4)c4ccc([nH]4)c(-c4ccc(S(=O)(=O)[O-])cc4)c4nc(c(-c5ccc(S(=O)(=O)[O-])cc5)c5ccc2[nH]5)C=C4)C=C3)cc1
REMARK SMILES IDX 18 1 17 2 16 3 14 4 15 5 13 7 1 8 2 9 3 10 4 11 5 12 12 13
REMARK SMILES IDX 6 14 11 15 7 16 8 17 9 18 10 19 19 21 20 22 21 23 22 25
REMARK SMILES IDX 23 26 24 27 82 28 25 29 81 30 26 31 27 32 28 33 75 34 29 35
REMARK SMILES IDX 80 36 74 37 76 38 30 39 79 40 73 41 72 42 31 44 61 45 42 46
REMARK SMILES IDX 60 47 43 48 46 49 59 50 77 51 44 52 45 53 58 55 78 56 47 57
REMARK SMILES IDX 32 58 33 59 41 60 34 61 40 62 35 63 36 64 37 65 38 66 39 67
REMARK SMILES IDX 62 68 63 69 71 70 64 71 70 72 65 73 66 74 67 75 68 76 69 77
REMARK SMILES IDX 48 78 49 79 57 80 50 81 56 82 51 83 52 84 53 85 54 86 55 87
REMARK H PARENT 16 6 10 20 20 24 76 43 46 54
REMARK Flexibility Score: inf
ROOT
ATOM      1  C   UNL A   1      41.628  21.887  27.636  1.00  0.00     0.042 C 
ENDROOT
BRANCH   1   2
ATOM      2  C   UNL A   1      42.860  22.575  28.213  1.00  0.00     0.117 C 
BRANCH   2   3
ATOM      3  N   UNL A   1      44.062  22.331  27.431  1.00  0.00    -0.356 N 
ATOM      4  C   UNL A   1      44.991  23.141  26.865  1.00  0.00     0.226 C 
ATOM      5  O   UNL A   1      45.894  22.573  26.239  1.00  0.00    -0.275 OA
ATOM      6  H   UNL A   1      44.238  21.374  27.279  1.00  0.00     0.163 HD
BRANCH   4   7
ATOM      7  C   UNL A   1      44.982  24.669  26.948  1.00  0.00     0.110 C 
ATOM      8  C   UNL A   1      47.612  24.729  26.869  1.00  0.00     0.043 C 
ATOM      9  C   UNL A   1      46.314  25.310  27.429  1.00  0.00     0.075 C 
ATOM     10  C   UNL A   1      46.418  25.120  28.964  1.00  0.00     0.043 C 
ATOM     11  O   UNL A   1      46.352  26.736  27.256  1.00  0.00    -0.366 OA
ATOM     12  C   UNL A   1      45.827  27.341  26.064  1.00  0.00     0.094 C 
ATOM     13  C   UNL A   1      44.257  25.354  25.787  1.00  0.00     0.019 C 
ATOM     14  C   UNL A   1      46.661  26.991  24.812  1.00  0.00     0.045 C 
ATOM     15  C   UNL A   1      44.370  26.872  25.879  1.00  0.00     0.039 C 
BRANCH  12  16
ATOM     16  C   UNL A   1      45.905  28.909  26.291  1.00  0.00     0.088 C 
ATOM     17  C   UNL A   1      44.580  29.504  26.796  1.00  0.00     0.045 C 
ATOM     18  C   UNL A   1      47.007  29.279  27.305  1.00  0.00     0.045 C 
BRANCH  16  19
ATOM     19  O   UNL A   1      46.213  29.561  25.048  1.00  0.00    -0.387 OA
ATOM     20  H   UNL A   1      47.175  29.659  24.964  1.00  0.00     0.211 HD
ENDBRANCH  16  19
ENDBRANCH  12  16
ENDBRANCH   4   7
ENDBRANCH   2   3
ENDBRANCH   1   2
BRANCH   1  21
ATOM     21  C   UNL A   1      41.458  22.084  26.140  1.00  0.00     0.118 C 
BRANCH  21  22
ATOM     22  N   UNL A   1      40.060  22.203  25.763  1.00  0.00    -0.352 N 
ATOM     23  C   UNL A   1      39.121  23.128  26.152  1.00  0.00     0.251 C 
ATOM     24  H   UNL A   1      39.738  21.518  25.134  1.00  0.00     0.163 HD
ATOM     25  O   UNL A   1      37.934  22.909  25.921  1.00  0.00    -0.269 OA
BRANCH  23  26
ATOM     26  C   UNL A   1      39.520  24.370  26.859  1.00  0.00     0.039 A 
ATOM     27  C   UNL A   1      40.253  25.340  26.167  1.00  0.00     0.014 A 
ATOM     28  C   UNL A   1      39.223  24.568  28.210  1.00  0.00     0.014 A 
ATOM     29  C   UNL A   1      40.641  26.517  26.814  1.00  0.00     0.010 A 
ATOM     30  C   UNL A   1      39.522  25.781  28.824  1.00  0.00     0.010 A 
ATOM     31  C   UNL A   1      40.257  26.760  28.143  1.00  0.00    -0.014 A 
BRANCH  31  32
ATOM     32  C   UNL A   1      40.657  28.002  28.856  1.00  0.00     0.031 A 
ATOM     33  C   UNL A   1      42.028  28.105  29.479  1.00  0.00     0.074 A 
ATOM     34  C   UNL A   1      39.778  29.016  28.997  1.00  0.00     0.049 A 
ATOM     35  N   UNL A   1      42.536  29.066  30.205  1.00  0.00    -0.248 NA
ATOM     36  C   UNL A   1      42.935  26.960  29.284  1.00  0.00     0.031 C 
ATOM     37  C   UNL A   1      38.409  29.031  28.478  1.00  0.00     0.029 A 
ATOM     38  N   UNL A   1      39.908  30.230  29.624  1.00  0.00    -0.354 N 
ATOM     39  C   UNL A   1      43.804  28.632  30.576  1.00  0.00     0.074 A 
ATOM     40  C   UNL A   1      43.969  27.300  30.038  1.00  0.00     0.031 C 
ATOM     41  C   UNL A   1      37.837  30.207  28.782  1.00  0.00     0.029 A 
ATOM     42  C   UNL A   1      38.781  31.015  29.548  1.00  0.00     0.049 A 
ATOM     43  H   UNL A   1      40.731  30.513  30.086  1.00  0.00     0.167 HD
ATOM     44  C   UNL A   1      44.758  29.287  31.281  1.00  0.00     0.031 A 
ATOM     45  C   UNL A   1      38.533  32.244  30.042  1.00  0.00     0.031 A 
ATOM     46  C   UNL A   1      44.607  30.625  31.788  1.00  0.00     0.049 A 
ATOM     47  C   UNL A   1      39.613  32.960  30.807  1.00  0.00     0.074 A 
ATOM     48  C   UNL A   1      45.536  31.398  32.463  1.00  0.00     0.029 A 
ATOM     49  N   UNL A   1      43.458  31.390  31.668  1.00  0.00    -0.354 N 
ATOM     50  N   UNL A   1      40.822  32.550  31.103  1.00  0.00    -0.248 NA
ATOM     51  C   UNL A   1      39.295  34.310  31.294  1.00  0.00     0.031 C 
ATOM     52  C   UNL A   1      44.934  32.620  32.783  1.00  0.00     0.029 A 
ATOM     53  C   UNL A   1      43.648  32.623  32.267  1.00  0.00     0.049 A 
ATOM     54  H   UNL A   1      42.630  31.100  31.222  1.00  0.00     0.167 HD
ATOM     55  C   UNL A   1      41.420  33.601  31.790  1.00  0.00     0.074 A 
ATOM     56  C   UNL A   1      40.443  34.670  31.853  1.00  0.00     0.031 C 
ATOM     57  C   UNL A   1      42.666  33.676  32.318  1.00  0.00     0.031 A 
BRANCH  44  58
ATOM     58  C   UNL A   1      46.052  28.562  31.539  1.00  0.00    -0.014 A 
ATOM     59  C   UNL A   1      47.147  28.697  30.666  1.00  0.00     0.010 A 
ATOM     60  C   UNL A   1      46.184  27.752  32.682  1.00  0.00     0.010 A 
ATOM     61  C   UNL A   1      48.334  28.000  30.905  1.00  0.00     0.020 A 
ATOM     62  C   UNL A   1      47.381  27.074  32.939  1.00  0.00     0.020 A 
ATOM     63  C   UNL A   1      48.440  27.187  32.037  1.00  0.00     0.054 A 
BRANCH  63  64
ATOM     64  S   UNL A   1      49.997  26.302  32.330  1.00  0.00     0.124 S 
ATOM     65  O   UNL A   1      49.773  25.734  33.657  1.00  0.00    -0.237 OA
ATOM     66  O   UNL A   1      50.030  25.337  31.233  1.00  0.00    -0.237 OA
ATOM     67  O   UNL A   1      51.010  27.352  32.263  1.00  0.00    -0.744 OA
ENDBRANCH  63  64
ENDBRANCH  44  58
BRANCH  45  68
ATOM     68  C   UNL A   1      37.213  32.887  29.803  1.00  0.00    -0.014 A 
ATOM     69  C   UNL A   1      36.251  32.936  30.827  1.00  0.00     0.010 A 
ATOM     70  C   UNL A   1      36.918  33.470  28.557  1.00  0.00     0.010 A 
ATOM     71  C   UNL A   1      35.011  33.543  30.606  1.00  0.00     0.020 A 
ATOM     72  C   UNL A   1      35.688  34.100  28.341  1.00  0.00     0.020 A 
ATOM     73  C   UNL A   1      34.738  34.122  29.364  1.00  0.00     0.054 A 
BRANCH  73  74
ATOM     74  S   UNL A   1      33.146  34.957  29.117  1.00  0.00     0.124 S 
ATOM     75  O   UNL A   1      32.543  34.858  30.442  1.00  0.00    -0.237 OA
ATOM     76  O   UNL A   1      33.551  36.299  28.703  1.00  0.00    -0.237 OA
ATOM     77  O   UNL A   1      32.503  34.162  28.073  1.00  0.00    -0.744 OA
ENDBRANCH  73  74
ENDBRANCH  45  68
BRANCH  57  78
ATOM     78  C   UNL A   1      43.060  34.966  32.983  1.00  0.00    -0.014 A 
ATOM     79  C   UNL A   1      42.867  35.163  34.362  1.00  0.00     0.010 A 
ATOM     80  C   UNL A   1      43.684  35.974  32.225  1.00  0.00     0.010 A 
ATOM     81  C   UNL A   1      43.268  36.357  34.967  1.00  0.00     0.020 A 
ATOM     82  C   UNL A   1      44.108  37.159  32.831  1.00  0.00     0.020 A 
ATOM     83  C   UNL A   1      43.885  37.348  34.197  1.00  0.00     0.054 A 
BRANCH  83  84
ATOM     84  S   UNL A   1      44.439  38.870  35.012  1.00  0.00     0.124 S 
ATOM     85  O   UNL A   1      44.134  38.592  36.413  1.00  0.00    -0.237 OA
ATOM     86  O   UNL A   1      45.860  38.917  34.676  1.00  0.00    -0.237 OA
ATOM     87  O   UNL A   1      43.624  39.912  34.392  1.00  0.00    -0.744 OA
ENDBRANCH  83  84
ENDBRANCH  57  78
ENDBRANCH  31  32
ENDBRANCH  23  26
ENDBRANCH  21  22
ENDBRANCH   1  21
TORSDOF 15
ENDMDL
MODEL 2
REMARK VINA RESULT:      -9.4      4.110     11.157
REMARK SMILES CC1(C)O[C@](C)(C(C)(C)O)CC[C@H]1C(=O)NCCCNC(=O)c1ccc(-c2c3nc(c(-c4ccc(S(=O)(=O)[O-])cc4)c4ccc([nH]4)c(-c4ccc(S(=O)(=O)[O-])cc4)c4nc(c(-c5ccc(S(=O)(=O)[O-])cc5)c5ccc2[nH]5)C=C4)C=C3)cc1
REMARK SMILES IDX 18 1 17 2 16 3 14 4 15 5 13 7 1 8 2 9 3 10 4 11 5 12 12 13
REMARK SMILES IDX 6 14 11 15 7 16 8 17 9 18 10 19 19 21 20 22 21 23 22 25
REMARK SMILES IDX 23 26 24 27 82 28 25 29 81 30 26 31 27 32 28 33 75 34 29 35
REMARK SMILES IDX 80 36 74 37 76 38 30 39 79 40 73 41 72 42 31 44 61 45 42 46
REMARK SMILES IDX 60 47 43 48 46 49 59 50 77 51 44 52 45 53 58 55 78 56 47 57
REMARK SMILES IDX 32 58 33 59 41 60 34 61 40 62 35 63 36 64 37 65 38 66 39 67
REMARK SMILES IDX 62 68 63 69 71 70 64 71 70 72 65 73 66 74 67 75 68 76 69 77
REMARK SMILES IDX 48 78 49 79 57 80 50 81 56 82 51 83 52 84 53 85 54 86 55 87
REMARK H PARENT 16 6 10 20 20 24 76 43 46 54
REMARK Flexibility Score: inf
ROOT
ATOM      1  C   UNL A   1      33.822  28.057  25.171  1.00  0.00     0.042 C 
ENDROOT
BRANCH   1   2
ATOM      2  C   UNL A   1      32.440  27.959  24.534  1.00  0.00     0.117 C 
BRANCH   2   3
ATOM      3  N   UNL A   1      32.471  27.367  23.206  1.00  0.00    -0.356 N 
ATOM      4  C   UNL A   1      32.693  26.110  22.746  1.00  0.00     0.226 C 
ATOM      5  O   UNL A   1      32.660  25.971  21.518  1.00  0.00    -0.275 OA
ATOM      6  H   UNL A   1      32.295  28.017  22.487  1.00  0.00     0.163 HD
BRANCH   4   7
ATOM      7  C   UNL A   1      32.979  24.896  23.631  1.00  0.00     0.110 C 
ATOM      8  C   UNL A   1      30.499  24.059  23.358  1.00  0.00     0.043 C 
ATOM      9  C   UNL A   1      31.724  24.226  24.257  1.00  0.00     0.075 C 
ATOM     10  C   UNL A   1      31.239  25.107  25.436  1.00  0.00     0.043 C 
ATOM     11  O   UNL A   1      32.004  22.956  24.869  1.00  0.00    -0.366 OA
ATOM     12  C   UNL A   1      32.893  22.022  24.237  1.00  0.00     0.094 C 
ATOM     13  C   UNL A   1      34.068  23.967  23.087  1.00  0.00     0.019 C 
ATOM     14  C   UNL A   1      32.313  21.457  22.922  1.00  0.00     0.045 C 
ATOM     15  C   UNL A   1      34.235  22.731  23.964  1.00  0.00     0.039 C 
BRANCH  12  16
ATOM     16  C   UNL A   1      33.072  20.821  25.257  1.00  0.00     0.088 C 
ATOM     17  C   UNL A   1      34.082  19.769  24.768  1.00  0.00     0.045 C 
ATOM     18  C   UNL A   1      33.541  21.318  26.640  1.00  0.00     0.045 C 
BRANCH  16  19
ATOM     19  O   UNL A   1      31.815  20.148  25.435  1.00  0.00    -0.387 OA
ATOM     20  H   UNL A   1      31.343  20.114  24.587  1.00  0.00     0.211 HD
ENDBRANCH  16  19
ENDBRANCH  12  16
ENDBRANCH   4   7
ENDBRANCH   2   3
ENDBRANCH   1   2
BRANCH   1  21
ATOM     21  C   UNL A   1      33.793  28.210  26.681  1.00  0.00     0.118 C 
BRANCH  21  22
ATOM     22  N   UNL A   1      33.571  29.588  27.084  1.00  0.00    -0.352 N 
ATOM     23  C   UNL A   1      34.354  30.416  27.853  1.00  0.00     0.251 C 
ATOM     24  H   UNL A   1      32.733  29.988  26.757  1.00  0.00     0.163 HD
ATOM     25  O   UNL A   1      33.872  31.459  28.289  1.00  0.00    -0.269 OA
BRANCH  23  26
ATOM     26  C   UNL A   1      35.757  30.058  28.174  1.00  0.00     0.039 A 
ATOM     27  C   UNL A   1      36.071  29.641  29.472  1.00  0.00     0.014 A 
ATOM     28  C   UNL A   1      36.776  30.176  27.225  1.00  0.00     0.014 A 
ATOM     29  C   UNL A   1      37.388  29.300  29.798  1.00  0.00     0.010 A 
ATOM     30  C   UNL A   1      38.065  29.742  27.521  1.00  0.00     0.010 A 
ATOM     31  C   UNL A   1      38.394  29.323  28.818  1.00  0.00    -0.014 A 
BRANCH  31  32
ATOM     32  C   UNL A   1      39.802  28.968  29.136  1.00  0.00     0.031 A 
ATOM     33  C   UNL A   1      40.704  29.982  29.796  1.00  0.00     0.074 A 
ATOM     34  C   UNL A   1      40.292  27.761  28.786  1.00  0.00     0.049 A 
ATOM     35  N   UNL A   1      41.976  29.893  30.084  1.00  0.00    -0.248 NA
ATOM     36  C   UNL A   1      40.100  31.278  30.151  1.00  0.00     0.031 C 
ATOM     37  C   UNL A   1      39.540  26.703  28.107  1.00  0.00     0.029 A 
ATOM     38  N   UNL A   1      41.545  27.223  28.949  1.00  0.00    -0.354 N 
ATOM     39  C   UNL A   1      42.331  31.125  30.624  1.00  0.00     0.074 A 
ATOM     40  C   UNL A   1      41.152  31.961  30.578  1.00  0.00     0.031 C 
ATOM     41  C   UNL A   1      40.337  25.635  27.941  1.00  0.00     0.029 A 
ATOM     42  C   UNL A   1      41.664  25.942  28.464  1.00  0.00     0.049 A 
ATOM     43  H   UNL A   1      42.289  27.710  29.374  1.00  0.00     0.167 HD
ATOM     44  C   UNL A   1      43.521  31.521  31.135  1.00  0.00     0.031 A 
ATOM     45  C   UNL A   1      42.723  25.109  28.439  1.00  0.00     0.031 A 
ATOM     46  C   UNL A   1      44.685  30.680  31.212  1.00  0.00     0.049 A 
ATOM     47  C   UNL A   1      44.031  25.565  29.028  1.00  0.00     0.074 A 
ATOM     48  C   UNL A   1      45.920  30.969  31.764  1.00  0.00     0.029 A 
ATOM     49  N   UNL A   1      44.754  29.382  30.730  1.00  0.00    -0.354 N 
ATOM     50  N   UNL A   1      44.329  26.717  29.578  1.00  0.00    -0.248 NA
ATOM     51  C   UNL A   1      45.141  24.601  29.000  1.00  0.00     0.031 C 
ATOM     52  C   UNL A   1      46.749  29.856  31.583  1.00  0.00     0.029 A 
ATOM     53  C   UNL A   1      46.014  28.860  30.960  1.00  0.00     0.049 A 
ATOM     54  H   UNL A   1      44.016  28.903  30.289  1.00  0.00     0.167 HD
ATOM     55  C   UNL A   1      45.654  26.608  29.986  1.00  0.00     0.074 A 
ATOM     56  C   UNL A   1      46.095  25.274  29.631  1.00  0.00     0.031 C 
ATOM     57  C   UNL A   1      46.435  27.529  30.602  1.00  0.00     0.031 A 
BRANCH  44  58
ATOM     58  C   UNL A   1      43.618  32.932  31.654  1.00  0.00    -0.014 A 
ATOM     59  C   UNL A   1      43.375  33.224  33.009  1.00  0.00     0.010 A 
ATOM     60  C   UNL A   1      43.980  33.975  30.783  1.00  0.00     0.010 A 
ATOM     61  C   UNL A   1      43.446  34.540  33.473  1.00  0.00     0.020 A 
ATOM     62  C   UNL A   1      44.079  35.290  31.251  1.00  0.00     0.020 A 
ATOM     63  C   UNL A   1      43.790  35.566  32.588  1.00  0.00     0.054 A 
BRANCH  63  64
ATOM     64  S   UNL A   1      43.886  37.264  33.219  1.00  0.00     0.124 S 
ATOM     65  O   UNL A   1      45.164  37.249  33.926  1.00  0.00    -0.237 OA
ATOM     66  O   UNL A   1      43.856  38.065  31.997  1.00  0.00    -0.237 OA
ATOM     67  O   UNL A   1      42.704  37.386  34.069  1.00  0.00    -0.744 OA
ENDBRANCH  63  64
ENDBRANCH  44  58
BRANCH  45  68
ATOM     68  C   UNL A   1      42.581  23.746  27.859  1.00  0.00    -0.014 A 
ATOM     69  C   UNL A   1      42.110  22.684  28.650  1.00  0.00     0.010 A 
ATOM     70  C   UNL A   1      42.898  23.507  26.510  1.00  0.00     0.010 A 
ATOM     71  C   UNL A   1      41.971  21.403  28.107  1.00  0.00     0.020 A 
ATOM     72  C   UNL A   1      42.737  22.233  25.957  1.00  0.00     0.020 A 
ATOM     73  C   UNL A   1      42.285  21.186  26.763  1.00  0.00     0.054 A 
BRANCH  73  74
ATOM     74  S   UNL A   1      42.043  19.530  26.062  1.00  0.00     0.124 S 
ATOM     75  O   UNL A   1      42.494  18.671  27.151  1.00  0.00    -0.237 OA
ATOM     76  O   UNL A   1      40.607  19.508  25.789  1.00  0.00    -0.237 OA
ATOM     77  O   UNL A   1      42.893  19.535  24.874  1.00  0.00    -0.744 OA
ENDBRANCH  73  74
ENDBRANCH  45  68
BRANCH  57  78
ATOM     78  C   UNL A   1      47.837  27.119  30.962  1.00  0.00    -0.014 A 
ATOM     79  C   UNL A   1      48.114  26.463  32.174  1.00  0.00     0.010 A 
ATOM     80  C   UNL A   1      48.881  27.344  30.046  1.00  0.00     0.010 A 
ATOM     81  C   UNL A   1      49.418  26.062  32.476  1.00  0.00     0.020 A 
ATOM     82  C   UNL A   1      50.182  26.923  30.335  1.00  0.00     0.020 A 
ATOM     83  C   UNL A   1      50.443  26.297  31.555  1.00  0.00     0.054 A 
BRANCH  83  84
ATOM     84  S   UNL A   1      52.120  25.726  31.949  1.00  0.00     0.124 S 
ATOM     85  O   UNL A   1      51.867  24.391  32.486  1.00  0.00    -0.237 OA
ATOM     86  O   UNL A   1      52.787  25.766  30.651  1.00  0.00    -0.237 OA
ATOM     87  O   UNL A   1      52.600  26.707  32.920  1.00  0.00    -0.744 OA
ENDBRANCH  83  84
ENDBRANCH  57  78
ENDBRANCH  31  32
ENDBRANCH  23  26
ENDBRANCH  21  22
ENDBRANCH   1  21
TORSDOF 15
ENDMDL
MODEL 3
REMARK VINA RESULT:      -9.3      4.408     10.708
REMARK SMILES CC1(C)O[C@](C)(C(C)(C)O)CC[C@H]1C(=O)NCCCNC(=O)c1ccc(-c2c3nc(c(-c4ccc(S(=O)(=O)[O-])cc4)c4ccc([nH]4)c(-c4ccc(S(=O)(=O)[O-])cc4)c4nc(c(-c5ccc(S(=O)(=O)[O-])cc5)c5ccc2[nH]5)C=C4)C=C3)cc1
REMARK SMILES IDX 18 1 17 2 16 3 14 4 15 5 13 7 1 8 2 9 3 10 4 11 5 12 12 13
REMARK SMILES IDX 6 14 11 15 7 16 8 17 9 18 10 19 19 21 20 22 21 23 22 25
REMARK SMILES IDX 23 26 24 27 82 28 25 29 81 30 26 31 27 32 28 33 75 34 29 35
REMARK SMILES IDX 80 36 74 37 76 38 30 39 79 40 73 41 72 42 31 44 61 45 42 46
REMARK SMILES IDX 60 47 43 48 46 49 59 50 77 51 44 52 45 53 58 55 78 56 47 57
REMARK SMILES IDX 32 58 33 59 41 60 34 61 40 62 35 63 36 64 37 65 38 66 39 67
REMARK SMILES IDX 62 68 63 69 71 70 64 71 70 72 65 73 66 74 67 75 68 76 69 77
REMARK SMILES IDX 48 78 49 79 57 80 50 81 56 82 51 83 52 84 53 85 54 86 55 87
REMARK H PARENT 16 6 10 20 20 24 76 43 46 54
REMARK Flexibility Score: inf
ROOT
ATOM      1  C   UNL A   1      38.140  23.896  26.360  1.00  0.00     0.042 C 
ENDROOT
BRANCH   1   2
ATOM      2  C   UNL A   1      37.637  22.525  25.924  1.00  0.00     0.117 C 
BRANCH   2   3
ATOM      3  N   UNL A   1      36.295  22.236  26.409  1.00  0.00    -0.356 N 
ATOM      4  C   UNL A   1      35.070  22.748  26.132  1.00  0.00     0.226 C 
ATOM      5  O   UNL A   1      34.126  22.259  26.764  1.00  0.00    -0.275 OA
ATOM      6  H   UNL A   1      36.273  21.516  27.080  1.00  0.00     0.163 HD
BRANCH   4   7
ATOM      7  C   UNL A   1      34.798  23.863  25.122  1.00  0.00     0.110 C 
ATOM      8  C   UNL A   1      33.541  22.179  23.538  1.00  0.00     0.043 C 
ATOM      9  C   UNL A   1      34.474  23.382  23.680  1.00  0.00     0.075 C 
ATOM     10  C   UNL A   1      35.798  22.944  23.004  1.00  0.00     0.043 C 
ATOM     11  O   UNL A   1      33.983  24.431  22.828  1.00  0.00    -0.366 OA
ATOM     12  C   UNL A   1      33.049  25.400  23.329  1.00  0.00     0.094 C 
ATOM     13  C   UNL A   1      33.963  25.020  25.676  1.00  0.00     0.019 C 
ATOM     14  C   UNL A   1      31.673  24.778  23.649  1.00  0.00     0.045 C 
ATOM     15  C   UNL A   1      33.647  26.048  24.594  1.00  0.00     0.039 C 
BRANCH  12  16
ATOM     16  C   UNL A   1      32.855  26.467  22.171  1.00  0.00     0.088 C 
ATOM     17  C   UNL A   1      31.388  26.896  21.997  1.00  0.00     0.045 C 
ATOM     18  C   UNL A   1      33.692  27.737  22.426  1.00  0.00     0.045 C 
BRANCH  16  19
ATOM     19  O   UNL A   1      33.280  25.903  20.920  1.00  0.00    -0.387 OA
ATOM     20  H   UNL A   1      33.937  26.487  20.509  1.00  0.00     0.211 HD
ENDBRANCH  16  19
ENDBRANCH  12  16
ENDBRANCH   4   7
ENDBRANCH   2   3
ENDBRANCH   1   2
BRANCH   1  21
ATOM     21  C   UNL A   1      39.568  23.891  26.877  1.00  0.00     0.118 C 
BRANCH  21  22
ATOM     22  N   UNL A   1      40.480  24.552  25.960  1.00  0.00    -0.352 N 
ATOM     23  C   UNL A   1      40.998  25.825  26.002  1.00  0.00     0.251 C 
ATOM     24  H   UNL A   1      40.771  24.006  25.195  1.00  0.00     0.163 HD
ATOM     25  O   UNL A   1      41.549  26.279  25.002  1.00  0.00    -0.269 OA
BRANCH  23  26
ATOM     26  C   UNL A   1      40.884  26.657  27.225  1.00  0.00     0.039 A 
ATOM     27  C   UNL A   1      40.017  26.249  28.244  1.00  0.00     0.014 A 
ATOM     28  C   UNL A   1      41.582  27.860  27.357  1.00  0.00     0.014 A 
ATOM     29  C   UNL A   1      39.892  27.018  29.406  1.00  0.00     0.010 A 
ATOM     30  C   UNL A   1      41.534  28.572  28.552  1.00  0.00     0.010 A 
ATOM     31  C   UNL A   1      40.669  28.175  29.581  1.00  0.00    -0.014 A 
BRANCH  31  32
ATOM     32  C   UNL A   1      40.555  29.014  30.804  1.00  0.00     0.031 A 
ATOM     33  C   UNL A   1      39.499  30.088  30.885  1.00  0.00     0.074 A 
ATOM     34  C   UNL A   1      41.429  28.854  31.819  1.00  0.00     0.049 A 
ATOM     35  N   UNL A   1      39.288  30.970  31.827  1.00  0.00    -0.248 NA
ATOM     36  C   UNL A   1      38.579  30.205  29.740  1.00  0.00     0.031 C 
ATOM     37  C   UNL A   1      42.521  27.879  31.853  1.00  0.00     0.029 A 
ATOM     38  N   UNL A   1      41.537  29.514  33.018  1.00  0.00    -0.354 N 
ATOM     39  C   UNL A   1      38.235  31.761  31.377  1.00  0.00     0.074 A 
ATOM     40  C   UNL A   1      37.884  31.287  30.058  1.00  0.00     0.031 C 
ATOM     41  C   UNL A   1      43.168  27.985  33.026  1.00  0.00     0.029 A 
ATOM     42  C   UNL A   1      42.564  29.057  33.810  1.00  0.00     0.049 A 
ATOM     43  H   UNL A   1      40.935  30.246  33.286  1.00  0.00     0.167 HD
ATOM     44  C   UNL A   1      37.600  32.776  32.011  1.00  0.00     0.031 A 
ATOM     45  C   UNL A   1      42.976  29.458  35.029  1.00  0.00     0.031 A 
ATOM     46  C   UNL A   1      37.926  33.226  33.337  1.00  0.00     0.049 A 
ATOM     47  C   UNL A   1      42.245  30.575  35.722  1.00  0.00     0.074 A 
ATOM     48  C   UNL A   1      37.304  34.208  34.090  1.00  0.00     0.029 A 
ATOM     49  N   UNL A   1      38.958  32.720  34.112  1.00  0.00    -0.354 N 
ATOM     50  N   UNL A   1      41.221  31.276  35.298  1.00  0.00    -0.248 NA
ATOM     51  C   UNL A   1      42.721  30.948  37.062  1.00  0.00     0.031 C 
ATOM     52  C   UNL A   1      37.985  34.319  35.308  1.00  0.00     0.029 A 
ATOM     53  C   UNL A   1      39.000  33.376  35.330  1.00  0.00     0.049 A 
ATOM     54  H   UNL A   1      39.571  32.001  33.836  1.00  0.00     0.167 HD
ATOM     55  C   UNL A   1      40.912  32.155  36.330  1.00  0.00     0.074 A 
ATOM     56  C   UNL A   1      41.850  31.889  37.402  1.00  0.00     0.031 C 
ATOM     57  C   UNL A   1      39.939  33.097  36.386  1.00  0.00     0.031 A 
BRANCH  44  58
ATOM     58  C   UNL A   1      36.482  33.464  31.273  1.00  0.00    -0.014 A 
ATOM     59  C   UNL A   1      36.649  33.899  29.945  1.00  0.00     0.010 A 
ATOM     60  C   UNL A   1      35.241  33.658  31.905  1.00  0.00     0.010 A 
ATOM     61  C   UNL A   1      35.612  34.557  29.280  1.00  0.00     0.020 A 
ATOM     62  C   UNL A   1      34.191  34.293  31.233  1.00  0.00     0.020 A 
ATOM     63  C   UNL A   1      34.391  34.756  29.932  1.00  0.00     0.054 A 
BRANCH  63  64
ATOM     64  S   UNL A   1      33.057  35.603  29.041  1.00  0.00     0.124 S 
ATOM     65  O   UNL A   1      32.169  35.994  30.132  1.00  0.00    -0.237 OA
ATOM     66  O   UNL A   1      33.758  36.702  28.379  1.00  0.00    -0.237 OA
ATOM     67  O   UNL A   1      32.530  34.575  28.146  1.00  0.00    -0.744 OA
ENDBRANCH  63  64
ENDBRANCH  44  58
BRANCH  45  68
ATOM     68  C   UNL A   1      44.125  28.777  35.685  1.00  0.00    -0.014 A 
ATOM     69  C   UNL A   1      45.433  29.258  35.503  1.00  0.00     0.010 A 
ATOM     70  C   UNL A   1      43.916  27.656  36.508  1.00  0.00     0.010 A 
ATOM     71  C   UNL A   1      46.515  28.622  36.121  1.00  0.00     0.020 A 
ATOM     72  C   UNL A   1      44.991  27.033  37.147  1.00  0.00     0.020 A 
ATOM     73  C   UNL A   1      46.286  27.513  36.941  1.00  0.00     0.054 A 
BRANCH  73  74
ATOM     74  S   UNL A   1      47.696  26.739  37.780  1.00  0.00     0.124 S 
ATOM     75  O   UNL A   1      47.989  27.703  38.834  1.00  0.00    -0.237 OA
ATOM     76  O   UNL A   1      47.139  25.463  38.225  1.00  0.00    -0.237 OA
ATOM     77  O   UNL A   1      48.703  26.633  36.727  1.00  0.00    -0.744 OA
ENDBRANCH  73  74
ENDBRANCH  45  68
BRANCH  57  78
ATOM     78  C   UNL A   1      39.813  33.889  37.659  1.00  0.00    -0.014 A 
ATOM     79  C   UNL A   1      40.534  35.081  37.847  1.00  0.00     0.010 A 
ATOM     80  C   UNL A   1      38.917  33.461  38.656  1.00  0.00     0.010 A 
ATOM     81  C   UNL A   1      40.380  35.819  39.024  1.00  0.00     0.020 A 
ATOM     82  C   UNL A   1      38.743  34.209  39.823  1.00  0.00     0.020 A 
ATOM     83  C   UNL A   1      39.487  35.377  40.005  1.00  0.00     0.054 A 
BRANCH  83  84
ATOM     84  S   UNL A   1      39.269  36.375  41.503  1.00  0.00     0.124 S 
ATOM     85  O   UNL A   1      40.591  36.294  42.117  1.00  0.00    -0.237 OA
ATOM     86  O   UNL A   1      38.903  37.685  40.969  1.00  0.00    -0.237 OA
ATOM     87  O   UNL A   1      38.203  35.685  42.228  1.00  0.00    -0.744 OA
ENDBRANCH  83  84
ENDBRANCH  57  78
ENDBRANCH  31  32
ENDBRANCH  23  26
ENDBRANCH  21  22
ENDBRANCH   1  21
TORSDOF 15
ENDMDL
