MODEL 1
REMARK VINA RESULT:     -10.5      0.000      0.000
REMARK SMILES CCCOc1ccccc1O[C@@H]1CC[C@@]([NH3+])(C(=O)NCCCNC(=O)c2ccc(-c3c4nc(c(-c5ccc(S(=O)(=O)[O-])cc5)c5ccc([nH]5)c(-c5ccc(S(=O)(=O)[O-])cc5)c5nc(c(-c6ccc(S(=O)(=O)[O-])cc6)c6ccc3[nH]6)C=C5)C=C4)cc2)C1
REMARK SMILES IDX 20 1 19 2 17 3 18 4 15 6 12 7 13 8 86 9 14 10 11 11 10 12
REMARK SMILES IDX 5 13 6 14 7 15 9 16 8 17 4 18 3 19 2 20 1 21 16 22 21 26
REMARK SMILES IDX 22 27 23 28 24 29 25 31 26 32 27 33 85 34 28 35 84 36 29 37
REMARK SMILES IDX 30 38 31 39 78 40 32 41 83 42 77 43 79 44 33 45 82 46 76 47
REMARK SMILES IDX 75 48 34 50 64 51 45 52 63 53 46 54 49 55 62 56 80 57 47 58
REMARK SMILES IDX 48 59 61 61 81 62 50 63 35 64 36 65 44 66 37 67 43 68 38 69
REMARK SMILES IDX 39 70 40 71 41 72 42 73 65 74 66 75 74 76 67 77 73 78 68 79
REMARK SMILES IDX 69 80 70 81 71 82 72 83 51 84 52 85 60 86 53 87 59 88 54 89
REMARK SMILES IDX 55 90 56 91 57 92 58 93
REMARK H PARENT 19 5 16 23 16 24 16 25 23 30 79 49 49 60
REMARK Flexibility Score: inf
ROOT
ATOM      1  C   UNL A   1      32.624  27.747  24.394  1.00  0.00     0.118 C 
ENDROOT
BRANCH   1   2
ATOM      2  N   UNL A   1      32.860  27.370  23.018  1.00  0.00    -0.351 N 
ATOM      3  C   UNL A   1      33.266  26.184  22.503  1.00  0.00     0.281 C 
ATOM      4  O   UNL A   1      33.649  26.211  21.328  1.00  0.00    -0.268 OA
ATOM      5  H   UNL A   1      32.701  28.082  22.356  1.00  0.00     0.163 HD
BRANCH   3   6
ATOM      6  C   UNL A   1      33.141  24.864  23.321  1.00  0.00     0.177 C 
ATOM      7  C   UNL A   1      33.660  24.471  25.721  1.00  0.00     0.180 C 
ATOM      8  C   UNL A   1      32.201  24.109  25.490  1.00  0.00     0.052 C 
ATOM      9  C   UNL A   1      34.262  24.837  24.369  1.00  0.00     0.124 C 
ATOM     10  C   UNL A   1      31.843  24.681  24.117  1.00  0.00     0.083 C 
BRANCH   7  11
ATOM     11  O   UNL A   1      34.471  23.646  26.567  1.00  0.00    -0.486 OA
BRANCH  11  12
ATOM     12  C   UNL A   1      35.490  22.883  26.073  1.00  0.00     0.161 A 
ATOM     13  C   UNL A   1      35.357  21.693  25.359  1.00  0.00     0.161 A 
ATOM     14  C   UNL A   1      36.475  20.947  24.964  1.00  0.00     0.050 A 
ATOM     15  C   UNL A   1      37.743  21.504  25.075  1.00  0.00     0.004 A 
ATOM     16  C   UNL A   1      36.764  23.455  26.128  1.00  0.00     0.050 A 
ATOM     17  C   UNL A   1      37.880  22.786  25.604  1.00  0.00     0.004 A 
BRANCH  13  18
ATOM     18  O   UNL A   1      34.142  21.306  24.870  1.00  0.00    -0.490 OA
BRANCH  18  19
ATOM     19  C   UNL A   1      33.544  20.322  25.748  1.00  0.00     0.229 C 
BRANCH  19  20
ATOM     20  C   UNL A   1      32.952  19.087  25.037  1.00  0.00     0.038 C 
ATOM     21  C   UNL A   1      33.976  18.150  24.415  1.00  0.00     0.007 C 
ENDBRANCH  19  20
ENDBRANCH  18  19
ENDBRANCH  13  18
ENDBRANCH  11  12
ENDBRANCH   7  11
BRANCH   6  22
ATOM     22  N   UNL A   1      33.307  23.731  22.370  1.00  0.00    -0.345 N 
ATOM     23  H   UNL A   1      33.183  24.066  21.414  1.00  0.00     0.345 HD
ATOM     24  H   UNL A   1      32.610  23.014  22.572  1.00  0.00     0.345 HD
ATOM     25  H   UNL A   1      34.242  23.335  22.473  1.00  0.00     0.345 HD
ENDBRANCH   6  22
ENDBRANCH   3   6
ENDBRANCH   1   2
BRANCH   1  26
ATOM     26  C   UNL A   1      33.878  28.370  24.994  1.00  0.00     0.042 C 
BRANCH  26  27
ATOM     27  C   UNL A   1      33.849  28.415  26.516  1.00  0.00     0.118 C 
BRANCH  27  28
ATOM     28  N   UNL A   1      33.675  29.773  27.016  1.00  0.00    -0.352 N 
ATOM     29  C   UNL A   1      34.487  30.472  27.871  1.00  0.00     0.251 C 
ATOM     30  H   UNL A   1      32.874  30.249  26.700  1.00  0.00     0.163 HD
ATOM     31  O   UNL A   1      34.080  31.496  28.422  1.00  0.00    -0.269 OA
BRANCH  29  32
ATOM     32  C   UNL A   1      35.845  29.965  28.128  1.00  0.00     0.039 A 
ATOM     33  C   UNL A   1      36.821  30.076  27.138  1.00  0.00     0.014 A 
ATOM     34  C   UNL A   1      36.155  29.428  29.381  1.00  0.00     0.014 A 
ATOM     35  C   UNL A   1      38.129  29.693  27.428  1.00  0.00     0.010 A 
ATOM     36  C   UNL A   1      37.476  29.154  29.700  1.00  0.00     0.010 A 
ATOM     37  C   UNL A   1      38.473  29.260  28.721  1.00  0.00    -0.014 A 
BRANCH  37  38
ATOM     38  C   UNL A   1      39.864  28.876  29.062  1.00  0.00     0.031 A 
ATOM     39  C   UNL A   1      40.765  29.874  29.740  1.00  0.00     0.074 A 
ATOM     40  C   UNL A   1      40.328  27.660  28.714  1.00  0.00     0.049 A 
ATOM     41  N   UNL A   1      42.022  29.751  30.079  1.00  0.00    -0.248 NA
ATOM     42  C   UNL A   1      40.188  31.194  30.050  1.00  0.00     0.031 C 
ATOM     43  C   UNL A   1      39.561  26.627  28.009  1.00  0.00     0.029 A 
ATOM     44  N   UNL A   1      41.558  27.084  28.904  1.00  0.00    -0.354 N 
ATOM     45  C   UNL A   1      42.387  30.978  30.619  1.00  0.00     0.074 A 
ATOM     46  C   UNL A   1      41.242  31.852  30.505  1.00  0.00     0.031 C 
ATOM     47  C   UNL A   1      40.326  25.534  27.864  1.00  0.00     0.029 A 
ATOM     48  C   UNL A   1      41.649  25.800  28.420  1.00  0.00     0.049 A 
ATOM     49  H   UNL A   1      42.306  27.547  29.346  1.00  0.00     0.167 HD
ATOM     50  C   UNL A   1      43.563  31.339  31.186  1.00  0.00     0.031 A 
ATOM     51  C   UNL A   1      42.683  24.937  28.422  1.00  0.00     0.031 A 
ATOM     52  C   UNL A   1      44.690  30.457  31.310  1.00  0.00     0.049 A 
ATOM     53  C   UNL A   1      43.982  25.362  29.051  1.00  0.00     0.074 A 
ATOM     54  C   UNL A   1      45.908  30.700  31.920  1.00  0.00     0.029 A 
ATOM     55  N   UNL A   1      44.739  29.162  30.815  1.00  0.00    -0.354 N 
ATOM     56  N   UNL A   1      44.285  26.504  29.623  1.00  0.00    -0.248 NA
ATOM     57  C   UNL A   1      45.073  24.380  29.047  1.00  0.00     0.031 C 
ATOM     58  C   UNL A   1      46.715  29.572  31.742  1.00  0.00     0.029 A 
ATOM     59  C   UNL A   1      45.976  28.602  31.081  1.00  0.00     0.049 A 
ATOM     60  H   UNL A   1      44.003  28.709  30.345  1.00  0.00     0.167 HD
ATOM     61  C   UNL A   1      45.594  26.365  30.074  1.00  0.00     0.074 A 
ATOM     62  C   UNL A   1      46.015  25.024  29.722  1.00  0.00     0.031 C 
ATOM     63  C   UNL A   1      46.375  27.264  30.721  1.00  0.00     0.031 A 
BRANCH  50  64
ATOM     64  C   UNL A   1      43.683  32.747  31.708  1.00  0.00    -0.014 A 
ATOM     65  C   UNL A   1      43.992  33.819  30.852  1.00  0.00     0.010 A 
ATOM     66  C   UNL A   1      43.450  33.009  33.071  1.00  0.00     0.010 A 
ATOM     67  C   UNL A   1      44.108  35.118  31.353  1.00  0.00     0.020 A 
ATOM     68  C   UNL A   1      43.533  34.311  33.572  1.00  0.00     0.020 A 
ATOM     69  C   UNL A   1      43.878  35.355  32.712  1.00  0.00     0.054 A 
BRANCH  69  70
ATOM     70  S   UNL A   1      44.006  37.056  33.329  1.00  0.00     0.124 S 
ATOM     71  O   UNL A   1      44.142  37.816  32.089  1.00  0.00    -0.237 OA
ATOM     72  O   UNL A   1      42.742  37.234  34.038  1.00  0.00    -0.237 OA
ATOM     73  O   UNL A   1      45.196  37.029  34.177  1.00  0.00    -0.744 OA
ENDBRANCH  69  70
ENDBRANCH  50  64
BRANCH  51  74
ATOM     74  C   UNL A   1      42.524  23.582  27.825  1.00  0.00    -0.014 A 
ATOM     75  C   UNL A   1      42.950  23.325  26.509  1.00  0.00     0.010 A 
ATOM     76  C   UNL A   1      41.958  22.535  28.575  1.00  0.00     0.010 A 
ATOM     77  C   UNL A   1      42.793  22.054  25.948  1.00  0.00     0.020 A 
ATOM     78  C   UNL A   1      41.828  21.254  28.028  1.00  0.00     0.020 A 
ATOM     79  C   UNL A   1      42.235  21.025  26.713  1.00  0.00     0.054 A 
BRANCH  79  80
ATOM     80  S   UNL A   1      42.084  19.373  25.980  1.00  0.00     0.124 S 
ATOM     81  O   UNL A   1      42.610  18.520  27.042  1.00  0.00    -0.237 OA
ATOM     82  O   UNL A   1      40.647  19.268  25.735  1.00  0.00    -0.237 OA
ATOM     83  O   UNL A   1      42.909  19.455  24.777  1.00  0.00    -0.744 OA
ENDBRANCH  79  80
ENDBRANCH  51  74
BRANCH  63  84
ATOM     84  C   UNL A   1      47.756  26.818  31.126  1.00  0.00    -0.014 A 
ATOM     85  C   UNL A   1      47.967  26.061  32.292  1.00  0.00     0.010 A 
ATOM     86  C   UNL A   1      48.849  27.111  30.290  1.00  0.00     0.010 A 
ATOM     87  C   UNL A   1      49.253  25.635  32.631  1.00  0.00     0.020 A 
ATOM     88  C   UNL A   1      50.130  26.659  30.608  1.00  0.00     0.020 A 
ATOM     89  C   UNL A   1      50.327  25.936  31.786  1.00  0.00     0.054 A 
BRANCH  89  90
ATOM     90  S   UNL A   1      51.979  25.331  32.226  1.00  0.00     0.124 S 
ATOM     91  O   UNL A   1      52.783  25.803  31.103  1.00  0.00    -0.237 OA
ATOM     92  O   UNL A   1      52.231  25.996  33.503  1.00  0.00    -0.237 OA
ATOM     93  O   UNL A   1      51.808  23.882  32.307  1.00  0.00    -0.744 OA
ENDBRANCH  89  90
ENDBRANCH  63  84
ENDBRANCH  37  38
ENDBRANCH  29  32
ENDBRANCH  27  28
ENDBRANCH  26  27
ENDBRANCH   1  26
TORSDOF 19
ENDMDL
MODEL 2
REMARK VINA RESULT:     -10.3      0.650      1.914
REMARK SMILES CCCOc1ccccc1O[C@@H]1CC[C@@]([NH3+])(C(=O)NCCCNC(=O)c2ccc(-c3c4nc(c(-c5ccc(S(=O)(=O)[O-])cc5)c5ccc([nH]5)c(-c5ccc(S(=O)(=O)[O-])cc5)c5nc(c(-c6ccc(S(=O)(=O)[O-])cc6)c6ccc3[nH]6)C=C5)C=C4)cc2)C1
REMARK SMILES IDX 20 1 19 2 17 3 18 4 15 6 12 7 13 8 86 9 14 10 11 11 10 12
REMARK SMILES IDX 5 13 6 14 7 15 9 16 8 17 4 18 3 19 2 20 1 21 16 22 21 26
REMARK SMILES IDX 22 27 23 28 24 29 25 31 26 32 27 33 85 34 28 35 84 36 29 37
REMARK SMILES IDX 30 38 31 39 78 40 32 41 83 42 77 43 79 44 33 45 82 46 76 47
REMARK SMILES IDX 75 48 34 50 64 51 45 52 63 53 46 54 49 55 62 56 80 57 47 58
REMARK SMILES IDX 48 59 61 61 81 62 50 63 35 64 36 65 44 66 37 67 43 68 38 69
REMARK SMILES IDX 39 70 40 71 41 72 42 73 65 74 66 75 74 76 67 77 73 78 68 79
REMARK SMILES IDX 69 80 70 81 71 82 72 83 51 84 52 85 60 86 53 87 59 88 54 89
REMARK SMILES IDX 55 90 56 91 57 92 58 93
REMARK H PARENT 19 5 16 23 16 24 16 25 23 30 79 49 49 60
REMARK Flexibility Score: inf
ROOT
ATOM      1  C   UNL A   1      32.921  27.135  24.722  1.00  0.00     0.118 C 
ENDROOT
BRANCH   1   2
ATOM      2  N   UNL A   1      33.130  27.007  23.297  1.00  0.00    -0.351 N 
ATOM      3  C   UNL A   1      33.185  25.892  22.528  1.00  0.00     0.281 C 
ATOM      4  O   UNL A   1      33.644  26.046  21.391  1.00  0.00    -0.268 OA
ATOM      5  H   UNL A   1      33.250  27.856  22.814  1.00  0.00     0.163 HD
BRANCH   3   6
ATOM      6  C   UNL A   1      32.596  24.538  23.025  1.00  0.00     0.177 C 
ATOM      7  C   UNL A   1      32.460  23.666  25.350  1.00  0.00     0.180 C 
ATOM      8  C   UNL A   1      31.048  23.725  24.786  1.00  0.00     0.052 C 
ATOM      9  C   UNL A   1      33.417  24.068  24.234  1.00  0.00     0.124 C 
ATOM     10  C   UNL A   1      31.143  24.571  23.515  1.00  0.00     0.083 C 
BRANCH   7  11
ATOM     11  O   UNL A   1      32.861  22.543  26.146  1.00  0.00    -0.486 OA
BRANCH  11  12
ATOM     12  C   UNL A   1      33.343  21.394  25.587  1.00  0.00     0.161 A 
ATOM     13  C   UNL A   1      34.685  21.039  25.461  1.00  0.00     0.161 A 
ATOM     14  C   UNL A   1      35.074  19.869  24.798  1.00  0.00     0.050 A 
ATOM     15  C   UNL A   1      34.113  18.924  24.457  1.00  0.00     0.004 A 
ATOM     16  C   UNL A   1      32.393  20.413  25.290  1.00  0.00     0.050 A 
ATOM     17  C   UNL A   1      32.776  19.173  24.759  1.00  0.00     0.004 A 
BRANCH  13  18
ATOM     18  O   UNL A   1      35.654  21.728  26.133  1.00  0.00    -0.490 OA
BRANCH  18  19
ATOM     19  C   UNL A   1      36.735  22.070  25.233  1.00  0.00     0.229 C 
BRANCH  19  20
ATOM     20  C   UNL A   1      38.147  21.718  25.744  1.00  0.00     0.038 C 
ATOM     21  C   UNL A   1      38.923  22.880  26.345  1.00  0.00     0.007 C 
ENDBRANCH  19  20
ENDBRANCH  18  19
ENDBRANCH  13  18
ENDBRANCH  11  12
ENDBRANCH   7  11
BRANCH   6  22
ATOM     22  N   UNL A   1      32.724  23.558  21.912  1.00  0.00    -0.345 N 
ATOM     23  H   UNL A   1      31.879  23.579  21.341  1.00  0.00     0.345 HD
ATOM     24  H   UNL A   1      32.851  22.622  22.297  1.00  0.00     0.345 HD
ATOM     25  H   UNL A   1      33.530  23.801  21.336  1.00  0.00     0.345 HD
ENDBRANCH   6  22
ENDBRANCH   3   6
ENDBRANCH   1   2
BRANCH   1  26
ATOM     26  C   UNL A   1      33.909  28.133  25.314  1.00  0.00     0.042 C 
BRANCH  26  27
ATOM     27  C   UNL A   1      33.710  28.350  26.809  1.00  0.00     0.118 C 
BRANCH  27  28
ATOM     28  N   UNL A   1      33.576  29.763  27.138  1.00  0.00    -0.352 N 
ATOM     29  C   UNL A   1      34.421  30.545  27.880  1.00  0.00     0.251 C 
ATOM     30  H   UNL A   1      32.776  30.213  26.784  1.00  0.00     0.163 HD
ATOM     31  O   UNL A   1      34.048  31.639  28.308  1.00  0.00    -0.269 OA
BRANCH  29  32
ATOM     32  C   UNL A   1      35.775  30.044  28.169  1.00  0.00     0.039 A 
ATOM     33  C   UNL A   1      36.759  30.114  27.183  1.00  0.00     0.014 A 
ATOM     34  C   UNL A   1      36.074  29.556  29.444  1.00  0.00     0.014 A 
ATOM     35  C   UNL A   1      38.065  29.739  27.498  1.00  0.00     0.010 A 
ATOM     36  C   UNL A   1      37.392  29.290  29.784  1.00  0.00     0.010 A 
ATOM     37  C   UNL A   1      38.397  29.356  28.810  1.00  0.00    -0.014 A 
BRANCH  37  38
ATOM     38  C   UNL A   1      39.783  28.981  29.177  1.00  0.00     0.031 A 
ATOM     39  C   UNL A   1      40.660  29.980  29.884  1.00  0.00     0.074 A 
ATOM     40  C   UNL A   1      40.266  27.772  28.828  1.00  0.00     0.049 A 
ATOM     41  N   UNL A   1      41.910  29.866  30.248  1.00  0.00    -0.248 NA
ATOM     42  C   UNL A   1      40.065  31.292  30.193  1.00  0.00     0.031 C 
ATOM     43  C   UNL A   1      39.524  26.740  28.097  1.00  0.00     0.029 A 
ATOM     44  N   UNL A   1      41.497  27.207  29.038  1.00  0.00    -0.354 N 
ATOM     45  C   UNL A   1      42.253  31.092  30.808  1.00  0.00     0.074 A 
ATOM     46  C   UNL A   1      41.103  31.956  30.677  1.00  0.00     0.031 C 
ATOM     47  C   UNL A   1      40.303  25.655  27.957  1.00  0.00     0.029 A 
ATOM     48  C   UNL A   1      41.610  25.929  28.545  1.00  0.00     0.049 A 
ATOM     49  H   UNL A   1      42.231  27.672  29.500  1.00  0.00     0.167 HD
ATOM     50  C   UNL A   1      43.412  31.458  31.402  1.00  0.00     0.031 A 
ATOM     51  C   UNL A   1      42.652  25.075  28.560  1.00  0.00     0.031 A 
ATOM     52  C   UNL A   1      44.545  30.585  31.543  1.00  0.00     0.049 A 
ATOM     53  C   UNL A   1      43.933  25.506  29.221  1.00  0.00     0.074 A 
ATOM     54  C   UNL A   1      45.748  30.833  32.181  1.00  0.00     0.029 A 
ATOM     55  N   UNL A   1      44.617  29.296  31.036  1.00  0.00    -0.354 N 
ATOM     56  N   UNL A   1      44.214  26.645  29.810  1.00  0.00    -0.248 NA
ATOM     57  C   UNL A   1      45.034  24.533  29.231  1.00  0.00     0.031 C 
ATOM     58  C   UNL A   1      46.569  29.715  32.009  1.00  0.00     0.029 A 
ATOM     59  C   UNL A   1      45.853  28.744  31.324  1.00  0.00     0.049 A 
ATOM     60  H   UNL A   1      43.895  28.840  30.546  1.00  0.00     0.167 HD
ATOM     61  C   UNL A   1      45.514  26.513  30.288  1.00  0.00     0.074 A 
ATOM     62  C   UNL A   1      45.955  25.180  29.932  1.00  0.00     0.031 C 
ATOM     63  C   UNL A   1      46.273  27.413  30.960  1.00  0.00     0.031 A 
BRANCH  50  64
ATOM     64  C   UNL A   1      43.508  32.861  31.940  1.00  0.00    -0.014 A 
ATOM     65  C   UNL A   1      43.248  33.144  33.294  1.00  0.00     0.010 A 
ATOM     66  C   UNL A   1      43.897  33.911  31.088  1.00  0.00     0.010 A 
ATOM     67  C   UNL A   1      43.333  34.453  33.775  1.00  0.00     0.020 A 
ATOM     68  C   UNL A   1      44.014  35.217  31.572  1.00  0.00     0.020 A 
ATOM     69  C   UNL A   1      43.716  35.482  32.910  1.00  0.00     0.054 A 
BRANCH  69  70
ATOM     70  S   UNL A   1      43.847  37.166  33.570  1.00  0.00     0.124 S 
ATOM     71  O   UNL A   1      42.567  37.319  34.258  1.00  0.00    -0.237 OA
ATOM     72  O   UNL A   1      45.018  37.079  34.437  1.00  0.00    -0.237 OA
ATOM     73  O   UNL A   1      44.016  37.994  32.378  1.00  0.00    -0.744 OA
ENDBRANCH  69  70
ENDBRANCH  50  64
BRANCH  51  74
ATOM     74  C   UNL A   1      42.519  23.724  27.947  1.00  0.00    -0.014 A 
ATOM     75  C   UNL A   1      42.113  22.622  28.723  1.00  0.00     0.010 A 
ATOM     76  C   UNL A   1      42.785  23.533  26.579  1.00  0.00     0.010 A 
ATOM     77  C   UNL A   1      41.997  21.354  28.147  1.00  0.00     0.020 A 
ATOM     78  C   UNL A   1      42.641  22.272  25.993  1.00  0.00     0.020 A 
ATOM     79  C   UNL A   1      42.259  21.187  26.784  1.00  0.00     0.054 A 
BRANCH  79  80
ATOM     80  S   UNL A   1      42.056  19.541  26.049  1.00  0.00     0.124 S 
ATOM     81  O   UNL A   1      42.584  18.673  27.098  1.00  0.00    -0.237 OA
ATOM     82  O   UNL A   1      40.613  19.469  25.833  1.00  0.00    -0.237 OA
ATOM     83  O   UNL A   1      42.859  19.609  24.830  1.00  0.00    -0.744 OA
ENDBRANCH  79  80
ENDBRANCH  51  74
BRANCH  63  84
ATOM     84  C   UNL A   1      47.648  26.976  31.390  1.00  0.00    -0.014 A 
ATOM     85  C   UNL A   1      48.776  27.207  30.581  1.00  0.00     0.010 A 
ATOM     86  C   UNL A   1      47.819  26.380  32.653  1.00  0.00     0.010 A 
ATOM     87  C   UNL A   1      50.044  26.817  31.015  1.00  0.00     0.020 A 
ATOM     88  C   UNL A   1      49.091  26.020  33.104  1.00  0.00     0.020 A 
ATOM     89  C   UNL A   1      50.194  26.227  32.275  1.00  0.00     0.054 A 
BRANCH  89  90
ATOM     90  S   UNL A   1      51.859  25.773  32.832  1.00  0.00     0.124 S 
ATOM     91  O   UNL A   1      52.586  27.029  32.672  1.00  0.00    -0.237 OA
ATOM     92  O   UNL A   1      51.628  25.352  34.213  1.00  0.00    -0.237 OA
ATOM     93  O   UNL A   1      52.251  24.703  31.918  1.00  0.00    -0.744 OA
ENDBRANCH  89  90
ENDBRANCH  63  84
ENDBRANCH  37  38
ENDBRANCH  29  32
ENDBRANCH  27  28
ENDBRANCH  26  27
ENDBRANCH   1  26
TORSDOF 19
ENDMDL
MODEL 3
REMARK VINA RESULT:     -10.1      2.635      9.408
REMARK SMILES CCCOc1ccccc1O[C@@H]1CC[C@@]([NH3+])(C(=O)NCCCNC(=O)c2ccc(-c3c4nc(c(-c5ccc(S(=O)(=O)[O-])cc5)c5ccc([nH]5)c(-c5ccc(S(=O)(=O)[O-])cc5)c5nc(c(-c6ccc(S(=O)(=O)[O-])cc6)c6ccc3[nH]6)C=C5)C=C4)cc2)C1
REMARK SMILES IDX 20 1 19 2 17 3 18 4 15 6 12 7 13 8 86 9 14 10 11 11 10 12
REMARK SMILES IDX 5 13 6 14 7 15 9 16 8 17 4 18 3 19 2 20 1 21 16 22 21 26
REMARK SMILES IDX 22 27 23 28 24 29 25 31 26 32 27 33 85 34 28 35 84 36 29 37
REMARK SMILES IDX 30 38 31 39 78 40 32 41 83 42 77 43 79 44 33 45 82 46 76 47
REMARK SMILES IDX 75 48 34 50 64 51 45 52 63 53 46 54 49 55 62 56 80 57 47 58
REMARK SMILES IDX 48 59 61 61 81 62 50 63 35 64 36 65 44 66 37 67 43 68 38 69
REMARK SMILES IDX 39 70 40 71 41 72 42 73 65 74 66 75 74 76 67 77 73 78 68 79
REMARK SMILES IDX 69 80 70 81 71 82 72 83 51 84 52 85 60 86 53 87 59 88 54 89
REMARK SMILES IDX 55 90 56 91 57 92 58 93
REMARK H PARENT 19 5 16 23 16 24 16 25 23 30 79 49 49 60
REMARK Flexibility Score: inf
ROOT
ATOM      1  C   UNL A   1      34.603  22.135  25.474  1.00  0.00     0.118 C 
ENDROOT
BRANCH   1   2
ATOM      2  N   UNL A   1      33.245  21.901  25.913  1.00  0.00    -0.351 N 
ATOM      3  C   UNL A   1      32.101  22.539  25.564  1.00  0.00     0.281 C 
ATOM      4  O   UNL A   1      31.123  22.322  26.287  1.00  0.00    -0.268 OA
ATOM      5  H   UNL A   1      33.136  21.169  26.562  1.00  0.00     0.163 HD
BRANCH   3   6
ATOM      6  C   UNL A   1      32.019  23.396  24.266  1.00  0.00     0.177 C 
ATOM      7  C   UNL A   1      33.614  25.114  23.436  1.00  0.00     0.180 C 
ATOM      8  C   UNL A   1      33.488  24.036  22.370  1.00  0.00     0.052 C 
ATOM      9  C   UNL A   1      32.635  24.772  24.553  1.00  0.00     0.124 C 
ATOM     10  C   UNL A   1      32.786  22.859  23.050  1.00  0.00     0.083 C 
BRANCH   7  11
ATOM     11  O   UNL A   1      33.667  26.494  23.048  1.00  0.00    -0.486 OA
BRANCH  11  12
ATOM     12  C   UNL A   1      32.669  27.372  23.360  1.00  0.00     0.161 A 
ATOM     13  C   UNL A   1      32.680  28.295  24.403  1.00  0.00     0.161 A 
ATOM     14  C   UNL A   1      31.567  29.098  24.683  1.00  0.00     0.050 A 
ATOM     15  C   UNL A   1      30.515  29.149  23.777  1.00  0.00     0.004 A 
ATOM     16  C   UNL A   1      31.632  27.474  22.429  1.00  0.00     0.050 A 
ATOM     17  C   UNL A   1      30.578  28.379  22.617  1.00  0.00     0.004 A 
BRANCH  13  18
ATOM     18  O   UNL A   1      33.836  28.573  25.075  1.00  0.00    -0.490 OA
BRANCH  18  19
ATOM     19  C   UNL A   1      33.663  28.313  26.489  1.00  0.00     0.229 C 
BRANCH  19  20
ATOM     20  C   UNL A   1      34.552  29.162  27.423  1.00  0.00     0.038 C 
ATOM     21  C   UNL A   1      34.149  30.623  27.542  1.00  0.00     0.007 C 
ENDBRANCH  19  20
ENDBRANCH  18  19
ENDBRANCH  13  18
ENDBRANCH  11  12
ENDBRANCH   7  11
BRANCH   6  22
ATOM     22  N   UNL A   1      30.579  23.547  23.919  1.00  0.00    -0.345 N 
ATOM     23  H   UNL A   1      30.347  22.921  23.146  1.00  0.00     0.345 HD
ATOM     24  H   UNL A   1      30.396  24.511  23.642  1.00  0.00     0.345 HD
ATOM     25  H   UNL A   1      30.008  23.311  24.730  1.00  0.00     0.345 HD
ENDBRANCH   6  22
ENDBRANCH   3   6
ENDBRANCH   1   2
BRANCH   1  26
ATOM     26  C   UNL A   1      35.296  23.125  26.402  1.00  0.00     0.042 C 
BRANCH  26  27
ATOM     27  C   UNL A   1      36.598  23.668  25.826  1.00  0.00     0.118 C 
BRANCH  27  28
ATOM     28  N   UNL A   1      37.694  22.719  25.974  1.00  0.00    -0.352 N 
ATOM     29  C   UNL A   1      38.987  22.970  26.351  1.00  0.00     0.251 C 
ATOM     30  H   UNL A   1      37.479  21.780  25.778  1.00  0.00     0.163 HD
ATOM     31  O   UNL A   1      39.867  22.128  26.167  1.00  0.00    -0.269 OA
BRANCH  29  32
ATOM     32  C   UNL A   1      39.304  24.271  26.964  1.00  0.00     0.039 A 
ATOM     33  C   UNL A   1      38.945  24.513  28.289  1.00  0.00     0.014 A 
ATOM     34  C   UNL A   1      40.011  25.227  26.228  1.00  0.00     0.014 A 
ATOM     35  C   UNL A   1      39.344  25.704  28.895  1.00  0.00     0.010 A 
ATOM     36  C   UNL A   1      40.499  26.357  26.866  1.00  0.00     0.010 A 
ATOM     37  C   UNL A   1      40.152  26.619  28.198  1.00  0.00    -0.014 A 
BRANCH  37  38
ATOM     38  C   UNL A   1      40.614  27.878  28.830  1.00  0.00     0.031 A 
ATOM     39  C   UNL A   1      42.019  27.969  29.364  1.00  0.00     0.074 A 
ATOM     40  C   UNL A   1      39.759  28.911  28.972  1.00  0.00     0.049 A 
ATOM     41  N   UNL A   1      42.599  28.959  29.991  1.00  0.00    -0.248 NA
ATOM     42  C   UNL A   1      42.874  26.780  29.203  1.00  0.00     0.031 C 
ATOM     43  C   UNL A   1      38.359  28.920  28.537  1.00  0.00     0.029 A 
ATOM     44  N   UNL A   1      39.941  30.153  29.523  1.00  0.00    -0.354 N 
ATOM     45  C   UNL A   1      43.873  28.505  30.313  1.00  0.00     0.074 A 
ATOM     46  C   UNL A   1      43.960  27.132  29.873  1.00  0.00     0.031 C 
ATOM     47  C   UNL A   1      37.824  30.122  28.803  1.00  0.00     0.029 A 
ATOM     48  C   UNL A   1      38.824  30.952  29.466  1.00  0.00     0.049 A 
ATOM     49  H   UNL A   1      40.792  30.445  29.923  1.00  0.00     0.167 HD
ATOM     50  C   UNL A   1      44.890  29.180  30.899  1.00  0.00     0.031 A 
ATOM     51  C   UNL A   1      38.628  32.211  29.904  1.00  0.00     0.031 A 
ATOM     52  C   UNL A   1      44.799  30.551  31.319  1.00  0.00     0.049 A 
ATOM     53  C   UNL A   1      39.770  32.938  30.558  1.00  0.00     0.074 A 
ATOM     54  C   UNL A   1      45.786  31.349  31.868  1.00  0.00     0.029 A 
ATOM     55  N   UNL A   1      43.653  31.328  31.236  1.00  0.00    -0.354 N 
ATOM     56  N   UNL A   1      40.992  32.517  30.789  1.00  0.00    -0.248 NA
ATOM     57  C   UNL A   1      39.514  34.315  31.000  1.00  0.00     0.031 C 
ATOM     58  C   UNL A   1      45.221  32.591  32.172  1.00  0.00     0.029 A 
ATOM     59  C   UNL A   1      43.900  32.589  31.749  1.00  0.00     0.049 A 
ATOM     60  H   UNL A   1      42.791  31.027  30.867  1.00  0.00     0.167 HD
ATOM     61  C   UNL A   1      41.658  33.588  31.375  1.00  0.00     0.074 A 
ATOM     62  C   UNL A   1      40.707  34.679  31.448  1.00  0.00     0.031 C 
ATOM     63  C   UNL A   1      42.939  33.662  31.813  1.00  0.00     0.031 A 
BRANCH  50  64
ATOM     64  C   UNL A   1      46.182  28.438  31.121  1.00  0.00    -0.014 A 
ATOM     65  C   UNL A   1      46.414  27.712  32.303  1.00  0.00     0.010 A 
ATOM     66  C   UNL A   1      47.169  28.440  30.118  1.00  0.00     0.010 A 
ATOM     67  C   UNL A   1      47.622  27.036  32.496  1.00  0.00     0.020 A 
ATOM     68  C   UNL A   1      48.366  27.740  30.293  1.00  0.00     0.020 A 
ATOM     69  C   UNL A   1      48.591  27.055  31.489  1.00  0.00     0.054 A 
BRANCH  69  70
ATOM     70  S   UNL A   1      50.136  26.145  31.756  1.00  0.00     0.124 S 
ATOM     71  O   UNL A   1      49.901  24.922  30.991  1.00  0.00    -0.237 OA
ATOM     72  O   UNL A   1      51.139  27.049  31.199  1.00  0.00    -0.237 OA
ATOM     73  O   UNL A   1      50.192  25.972  33.205  1.00  0.00    -0.744 OA
ENDBRANCH  69  70
ENDBRANCH  50  64
BRANCH  51  74
ATOM     74  C   UNL A   1      37.303  32.866  29.720  1.00  0.00    -0.014 A 
ATOM     75  C   UNL A   1      36.430  33.036  30.811  1.00  0.00     0.010 A 
ATOM     76  C   UNL A   1      36.911  33.337  28.454  1.00  0.00     0.010 A 
ATOM     77  C   UNL A   1      35.184  33.644  30.634  1.00  0.00     0.020 A 
ATOM     78  C   UNL A   1      35.678  33.974  28.279  1.00  0.00     0.020 A 
ATOM     79  C   UNL A   1      34.817  34.112  29.369  1.00  0.00     0.054 A 
BRANCH  79  80
ATOM     80  S   UNL A   1      33.214  34.940  29.174  1.00  0.00     0.124 S 
ATOM     81  O   UNL A   1      33.613  36.271  28.723  1.00  0.00    -0.237 OA
ATOM     82  O   UNL A   1      32.550  34.106  28.176  1.00  0.00    -0.237 OA
ATOM     83  O   UNL A   1      32.632  34.881  30.513  1.00  0.00    -0.744 OA
ENDBRANCH  79  80
ENDBRANCH  51  74
BRANCH  63  84
ATOM     84  C   UNL A   1      43.403  34.979  32.377  1.00  0.00    -0.014 A 
ATOM     85  C   UNL A   1      43.327  35.253  33.754  1.00  0.00     0.010 A 
ATOM     86  C   UNL A   1      43.982  35.932  31.518  1.00  0.00     0.010 A 
ATOM     87  C   UNL A   1      43.790  36.470  34.256  1.00  0.00     0.020 A 
ATOM     88  C   UNL A   1      44.477  37.136  32.022  1.00  0.00     0.020 A 
ATOM     89  C   UNL A   1      44.364  37.404  33.387  1.00  0.00     0.054 A 
BRANCH  89  90
ATOM     90  S   UNL A   1      44.999  38.958  34.072  1.00  0.00     0.124 S 
ATOM     91  O   UNL A   1      43.777  39.740  34.233  1.00  0.00    -0.237 OA
ATOM     92  O   UNL A   1      45.636  38.522  35.313  1.00  0.00    -0.237 OA
ATOM     93  O   UNL A   1      45.918  39.441  33.043  1.00  0.00    -0.744 OA
ENDBRANCH  89  90
ENDBRANCH  63  84
ENDBRANCH  37  38
ENDBRANCH  29  32
ENDBRANCH  27  28
ENDBRANCH  26  27
ENDBRANCH   1  26
TORSDOF 19
ENDMDL
