MODEL 1
REMARK VINA RESULT:     -12.3      0.000      0.000
REMARK SMILES O=C(NCCCNC(=O)[C@]12CCC[NH2+][C@@H]1CCN(C(=O)Cc1c(F)cccc1Cl)C2)c1ccc(-c2c3nc(c(-c4ccc(S(=O)(=O)[O-])cc4)c4ccc([nH]4)c(-c4ccc(S(=O)(=O)[O-])cc4)c4nc(c(-c5ccc(S(=O)(=O)[O-])cc5)c5ccc2[nH]5)C=C4)C=C3)cc1
REMARK SMILES IDX 5 1 4 2 3 3 1 4 2 5 31 7 32 8 90 9 33 10 89 11 34 12 35 13
REMARK SMILES IDX 36 14 83 15 37 16 88 17 82 18 84 19 38 20 87 21 81 22 80 23
REMARK SMILES IDX 39 25 69 26 50 27 68 28 51 29 54 30 67 31 85 32 52 33 53 34
REMARK SMILES IDX 66 36 86 37 55 38 40 39 41 40 49 41 42 42 48 43 43 44 44 45
REMARK SMILES IDX 45 46 46 47 47 48 70 49 71 50 79 51 72 52 78 53 73 54 74 55
REMARK SMILES IDX 75 56 76 57 77 58 56 59 57 60 65 61 58 62 64 63 59 64 60 65
REMARK SMILES IDX 61 66 62 67 63 68 6 69 7 70 8 71 9 73 10 74 11 75 15 76
REMARK SMILES IDX 30 77 12 78 14 79 16 80 18 81 13 82 17 85 19 86 20 87 21 88
REMARK SMILES IDX 22 89 23 90 28 91 24 92 25 93 27 94 29 95 26 96
REMARK H PARENT 3 6 84 24 54 35 7 72 14 83 14 84
REMARK Flexibility Score: inf
ROOT
ATOM      1  C   UNL A   1      34.041  28.895  27.120  1.00  0.00     0.042 C 
ENDROOT
BRANCH   1   2
ATOM      2  C   UNL A   1      35.411  29.301  27.656  1.00  0.00     0.118 C 
BRANCH   2   3
ATOM      3  N   UNL A   1      35.399  29.611  29.076  1.00  0.00    -0.352 N 
ATOM      4  O   UNL A   1      36.117  29.686  31.204  1.00  0.00    -0.269 OA
ATOM      5  C   UNL A   1      36.402  29.567  30.014  1.00  0.00     0.251 C 
ATOM      6  H   UNL A   1      34.525  29.900  29.426  1.00  0.00     0.163 HD
BRANCH   5   7
ATOM      7  C   UNL A   1      37.804  29.306  29.614  1.00  0.00     0.039 A 
ATOM      8  C   UNL A   1      38.736  28.778  30.507  1.00  0.00     0.014 A 
ATOM      9  C   UNL A   1      38.188  29.567  28.294  1.00  0.00     0.014 A 
ATOM     10  C   UNL A   1      40.075  28.696  30.151  1.00  0.00     0.010 A 
ATOM     11  C   UNL A   1      39.517  29.400  27.902  1.00  0.00     0.010 A 
ATOM     12  C   UNL A   1      40.472  28.986  28.839  1.00  0.00    -0.014 A 
BRANCH  12  13
ATOM     13  C   UNL A   1      41.851  28.652  28.428  1.00  0.00     0.031 A 
ATOM     14  C   UNL A   1      42.232  27.275  27.987  1.00  0.00     0.074 A 
ATOM     15  C   UNL A   1      42.752  29.651  28.455  1.00  0.00     0.049 A 
ATOM     16  N   UNL A   1      43.391  26.849  27.557  1.00  0.00    -0.248 NA
ATOM     17  C   UNL A   1      41.188  26.241  28.035  1.00  0.00     0.031 C 
ATOM     18  C   UNL A   1      42.464  31.024  28.887  1.00  0.00     0.029 A 
ATOM     19  N   UNL A   1      44.074  29.682  28.105  1.00  0.00    -0.354 N 
ATOM     20  C   UNL A   1      43.227  25.495  27.297  1.00  0.00     0.074 A 
ATOM     21  C   UNL A   1      41.855  25.167  27.629  1.00  0.00     0.031 C 
ATOM     22  C   UNL A   1      43.567  31.769  28.746  1.00  0.00     0.029 A 
ATOM     23  C   UNL A   1      44.650  30.917  28.270  1.00  0.00     0.049 A 
ATOM     24  H   UNL A   1      44.563  28.897  27.768  1.00  0.00     0.167 HD
ATOM     25  C   UNL A   1      44.145  24.615  26.830  1.00  0.00     0.031 A 
ATOM     26  C   UNL A   1      45.918  31.323  28.083  1.00  0.00     0.031 A 
ATOM     27  C   UNL A   1      45.510  24.967  26.530  1.00  0.00     0.049 A 
ATOM     28  C   UNL A   1      46.916  30.331  27.577  1.00  0.00     0.074 A 
ATOM     29  C   UNL A   1      46.516  24.163  26.022  1.00  0.00     0.029 A 
ATOM     30  N   UNL A   1      46.064  26.225  26.723  1.00  0.00    -0.354 N 
ATOM     31  N   UNL A   1      46.731  29.064  27.290  1.00  0.00    -0.248 NA
ATOM     32  C   UNL A   1      48.284  30.813  27.367  1.00  0.00     0.031 C 
ATOM     33  C   UNL A   1      47.689  24.924  25.955  1.00  0.00     0.029 A 
ATOM     34  C   UNL A   1      47.404  26.214  26.374  1.00  0.00     0.049 A 
ATOM     35  H   UNL A   1      45.575  27.011  27.059  1.00  0.00     0.167 HD
ATOM     36  C   UNL A   1      47.961  28.593  26.855  1.00  0.00     0.074 A 
ATOM     37  C   UNL A   1      48.878  29.718  26.907  1.00  0.00     0.031 C 
ATOM     38  C   UNL A   1      48.298  27.345  26.448  1.00  0.00     0.031 A 
BRANCH  25  39
ATOM     39  C   UNL A   1      43.714  23.181  26.667  1.00  0.00    -0.014 A 
ATOM     40  C   UNL A   1      44.034  22.443  25.514  1.00  0.00     0.010 A 
ATOM     41  C   UNL A   1      42.991  22.553  27.699  1.00  0.00     0.010 A 
ATOM     42  C   UNL A   1      43.595  21.122  25.371  1.00  0.00     0.020 A 
ATOM     43  C   UNL A   1      42.569  21.226  27.570  1.00  0.00     0.020 A 
ATOM     44  C   UNL A   1      42.854  20.526  26.396  1.00  0.00     0.054 A 
BRANCH  44  45
ATOM     45  S   UNL A   1      42.282  18.817  26.187  1.00  0.00     0.124 S 
ATOM     46  O   UNL A   1      43.188  18.323  25.152  1.00  0.00    -0.237 OA
ATOM     47  O   UNL A   1      42.476  18.243  27.516  1.00  0.00    -0.237 OA
ATOM     48  O   UNL A   1      40.889  18.966  25.774  1.00  0.00    -0.744 OA
ENDBRANCH  44  45
ENDBRANCH  25  39
BRANCH  26  49
ATOM     49  C   UNL A   1      46.264  32.733  28.397  1.00  0.00    -0.014 A 
ATOM     50  C   UNL A   1      46.803  33.076  29.647  1.00  0.00     0.010 A 
ATOM     51  C   UNL A   1      46.203  33.706  27.381  1.00  0.00     0.010 A 
ATOM     52  C   UNL A   1      47.303  34.363  29.867  1.00  0.00     0.020 A 
ATOM     53  C   UNL A   1      46.723  34.986  27.590  1.00  0.00     0.020 A 
ATOM     54  C   UNL A   1      47.273  35.305  28.833  1.00  0.00     0.054 A 
BRANCH  54  55
ATOM     55  S   UNL A   1      48.058  36.921  29.092  1.00  0.00     0.124 S 
ATOM     56  O   UNL A   1      48.556  36.801  30.458  1.00  0.00    -0.237 OA
ATOM     57  O   UNL A   1      49.076  36.952  28.045  1.00  0.00    -0.237 OA
ATOM     58  O   UNL A   1      46.959  37.867  28.905  1.00  0.00    -0.744 OA
ENDBRANCH  54  55
ENDBRANCH  26  49
BRANCH  38  59
ATOM     59  C   UNL A   1      49.721  27.132  26.019  1.00  0.00    -0.014 A 
ATOM     60  C   UNL A   1      50.678  26.636  26.919  1.00  0.00     0.010 A 
ATOM     61  C   UNL A   1      50.082  27.366  24.680  1.00  0.00     0.010 A 
ATOM     62  C   UNL A   1      51.983  26.387  26.489  1.00  0.00     0.020 A 
ATOM     63  C   UNL A   1      51.382  27.100  24.243  1.00  0.00     0.020 A 
ATOM     64  C   UNL A   1      52.326  26.619  25.153  1.00  0.00     0.054 A 
BRANCH  64  65
ATOM     65  S   UNL A   1      54.008  26.224  24.600  1.00  0.00     0.124 S 
ATOM     66  O   UNL A   1      54.421  25.223  25.580  1.00  0.00    -0.237 OA
ATOM     67  O   UNL A   1      53.792  25.725  23.244  1.00  0.00    -0.237 OA
ATOM     68  O   UNL A   1      54.707  27.504  24.682  1.00  0.00    -0.744 OA
ENDBRANCH  64  65
ENDBRANCH  38  59
ENDBRANCH  12  13
ENDBRANCH   5   7
ENDBRANCH   2   3
ENDBRANCH   1   2
BRANCH   1  69
ATOM     69  C   UNL A   1      34.136  27.855  26.007  1.00  0.00     0.117 C 
BRANCH  69  70
ATOM     70  N   UNL A   1      33.398  26.660  26.377  1.00  0.00    -0.355 N 
ATOM     71  C   UNL A   1      32.378  26.019  25.773  1.00  0.00     0.234 C 
ATOM     72  H   UNL A   1      33.695  26.246  27.219  1.00  0.00     0.163 HD
ATOM     73  O   UNL A   1      31.537  25.605  26.582  1.00  0.00    -0.274 OA
BRANCH  71  74
ATOM     74  C   UNL A   1      32.260  25.723  24.256  1.00  0.00     0.118 C 
ATOM     75  C   UNL A   1      32.074  27.122  23.568  1.00  0.00     0.031 C 
ATOM     76  C   UNL A   1      31.007  24.931  23.819  1.00  0.00     0.201 C 
ATOM     77  C   UNL A   1      33.549  25.067  23.721  1.00  0.00     0.142 C 
ATOM     78  C   UNL A   1      30.716  27.773  23.915  1.00  0.00     0.063 C 
ATOM     79  N   UNL A   1      29.761  25.483  24.369  1.00  0.00    -0.343 N 
ATOM     80  C   UNL A   1      31.112  23.429  24.021  1.00  0.00     0.087 C 
ATOM     81  N   UNL A   1      33.565  23.591  23.690  1.00  0.00    -0.341 N 
ATOM     82  C   UNL A   1      29.524  26.817  23.804  1.00  0.00     0.260 C 
ATOM     83  H   UNL A   1      28.982  24.869  24.130  1.00  0.00     0.346 HD
ATOM     84  H   UNL A   1      29.839  25.554  25.384  1.00  0.00     0.346 HD
ATOM     85  C   UNL A   1      32.337  22.924  23.273  1.00  0.00     0.125 C 
BRANCH  81  86
ATOM     86  C   UNL A   1      34.819  22.977  23.727  1.00  0.00     0.227 C 
ATOM     87  O   UNL A   1      35.631  23.170  22.816  1.00  0.00    -0.275 OA
BRANCH  86  88
ATOM     88  C   UNL A   1      35.222  22.109  24.919  1.00  0.00     0.140 C 
BRANCH  88  89
ATOM     89  C   UNL A   1      36.616  22.423  25.416  1.00  0.00     0.016 A 
ATOM     90  C   UNL A   1      36.861  23.705  25.934  1.00  0.00     0.128 A 
ATOM     91  C   UNL A   1      37.687  21.517  25.413  1.00  0.00     0.047 A 
ATOM     92  F   UNL A   1      35.885  24.623  25.924  1.00  0.00    -0.207 F 
ATOM     93  C   UNL A   1      38.100  24.077  26.443  1.00  0.00     0.039 A 
ATOM     94  C   UNL A   1      38.938  21.882  25.928  1.00  0.00     0.021 A 
ATOM     95  Cl  UNL A   1      37.560  19.924  24.761  1.00  0.00    -0.084 Cl
ATOM     96  C   UNL A   1      39.144  23.162  26.437  1.00  0.00     0.005 A 
ENDBRANCH  88  89
ENDBRANCH  86  88
ENDBRANCH  81  86
ENDBRANCH  71  74
ENDBRANCH  69  70
ENDBRANCH   1  69
TORSDOF 16
ENDMDL
MODEL 2
REMARK VINA RESULT:     -12.2      1.245      8.196
REMARK SMILES O=C(NCCCNC(=O)[C@]12CCC[NH2+][C@@H]1CCN(C(=O)Cc1c(F)cccc1Cl)C2)c1ccc(-c2c3nc(c(-c4ccc(S(=O)(=O)[O-])cc4)c4ccc([nH]4)c(-c4ccc(S(=O)(=O)[O-])cc4)c4nc(c(-c5ccc(S(=O)(=O)[O-])cc5)c5ccc2[nH]5)C=C4)C=C3)cc1
REMARK SMILES IDX 5 1 4 2 3 3 1 4 2 5 31 7 32 8 90 9 33 10 89 11 34 12 35 13
REMARK SMILES IDX 36 14 83 15 37 16 88 17 82 18 84 19 38 20 87 21 81 22 80 23
REMARK SMILES IDX 39 25 69 26 50 27 68 28 51 29 54 30 67 31 85 32 52 33 53 34
REMARK SMILES IDX 66 36 86 37 55 38 40 39 41 40 49 41 42 42 48 43 43 44 44 45
REMARK SMILES IDX 45 46 46 47 47 48 70 49 71 50 79 51 72 52 78 53 73 54 74 55
REMARK SMILES IDX 75 56 76 57 77 58 56 59 57 60 65 61 58 62 64 63 59 64 60 65
REMARK SMILES IDX 61 66 62 67 63 68 6 69 7 70 8 71 9 73 10 74 11 75 15 76
REMARK SMILES IDX 30 77 12 78 14 79 16 80 18 81 13 82 17 85 19 86 20 87 21 88
REMARK SMILES IDX 22 89 23 90 28 91 24 92 25 93 27 94 29 95 26 96
REMARK H PARENT 3 6 84 24 54 35 7 72 14 83 14 84
REMARK Flexibility Score: inf
ROOT
ATOM      1  C   UNL A   1      34.009  29.333  27.299  1.00  0.00     0.042 C 
ENDROOT
BRANCH   1   2
ATOM      2  C   UNL A   1      35.414  29.561  27.850  1.00  0.00     0.118 C 
BRANCH   2   3
ATOM      3  N   UNL A   1      35.426  29.872  29.271  1.00  0.00    -0.352 N 
ATOM      4  O   UNL A   1      36.173  29.935  31.388  1.00  0.00    -0.269 OA
ATOM      5  C   UNL A   1      36.441  29.809  30.195  1.00  0.00     0.251 C 
ATOM      6  H   UNL A   1      34.562  30.177  29.631  1.00  0.00     0.163 HD
BRANCH   5   7
ATOM      7  C   UNL A   1      37.832  29.523  29.777  1.00  0.00     0.039 A 
ATOM      8  C   UNL A   1      38.777  29.020  30.669  1.00  0.00     0.014 A 
ATOM      9  C   UNL A   1      38.190  29.733  28.441  1.00  0.00     0.014 A 
ATOM     10  C   UNL A   1      40.108  28.913  30.290  1.00  0.00     0.010 A 
ATOM     11  C   UNL A   1      39.510  29.540  28.028  1.00  0.00     0.010 A 
ATOM     12  C   UNL A   1      40.480  29.152  28.960  1.00  0.00    -0.014 A 
BRANCH  12  13
ATOM     13  C   UNL A   1      41.849  28.792  28.534  1.00  0.00     0.031 A 
ATOM     14  C   UNL A   1      42.957  29.795  28.508  1.00  0.00     0.074 A 
ATOM     15  C   UNL A   1      42.059  27.509  28.184  1.00  0.00     0.049 A 
ATOM     16  N   UNL A   1      44.214  29.612  28.200  1.00  0.00    -0.248 NA
ATOM     17  C   UNL A   1      42.617  31.181  28.865  1.00  0.00     0.031 C 
ATOM     18  C   UNL A   1      41.025  26.468  28.169  1.00  0.00     0.029 A 
ATOM     19  N   UNL A   1      43.195  26.858  27.791  1.00  0.00    -0.354 N 
ATOM     20  C   UNL A   1      44.819  30.857  28.310  1.00  0.00     0.074 A 
ATOM     21  C   UNL A   1      43.785  31.793  28.702  1.00  0.00     0.031 C 
ATOM     22  C   UNL A   1      41.582  25.303  27.819  1.00  0.00     0.029 A 
ATOM     23  C   UNL A   1      42.993  25.525  27.528  1.00  0.00     0.049 A 
ATOM     24  H   UNL A   1      44.070  27.300  27.704  1.00  0.00     0.167 HD
ATOM     25  C   UNL A   1      46.117  31.179  28.095  1.00  0.00     0.031 A 
ATOM     26  C   UNL A   1      43.842  24.584  27.080  1.00  0.00     0.031 A 
ATOM     27  C   UNL A   1      47.119  30.229  27.684  1.00  0.00     0.049 A 
ATOM     28  C   UNL A   1      45.267  24.965  26.840  1.00  0.00     0.074 A 
ATOM     29  C   UNL A   1      48.470  30.440  27.467  1.00  0.00     0.029 A 
ATOM     30  N   UNL A   1      46.876  28.889  27.413  1.00  0.00    -0.354 N 
ATOM     31  N   UNL A   1      45.833  26.139  26.996  1.00  0.00    -0.248 NA
ATOM     32  C   UNL A   1      46.168  23.909  26.370  1.00  0.00     0.031 C 
ATOM     33  C   UNL A   1      49.032  29.238  27.019  1.00  0.00     0.029 A 
ATOM     34  C   UNL A   1      48.044  28.266  27.002  1.00  0.00     0.049 A 
ATOM     35  H   UNL A   1      46.001  28.446  27.499  1.00  0.00     0.167 HD
ATOM     36  C   UNL A   1      47.164  25.963  26.650  1.00  0.00     0.074 A 
ATOM     37  C   UNL A   1      47.318  24.566  26.288  1.00  0.00     0.031 C 
ATOM     38  C   UNL A   1      48.166  26.876  26.635  1.00  0.00     0.031 A 
BRANCH  25  39
ATOM     39  C   UNL A   1      46.510  32.625  28.251  1.00  0.00    -0.014 A 
ATOM     40  C   UNL A   1      46.450  33.524  27.171  1.00  0.00     0.010 A 
ATOM     41  C   UNL A   1      46.930  33.097  29.508  1.00  0.00     0.010 A 
ATOM     42  C   UNL A   1      46.850  34.855  27.332  1.00  0.00     0.020 A 
ATOM     43  C   UNL A   1      47.311  34.432  29.680  1.00  0.00     0.020 A 
ATOM     44  C   UNL A   1      47.290  35.297  28.584  1.00  0.00     0.054 A 
BRANCH  44  45
ATOM     45  S   UNL A   1      47.819  37.023  28.770  1.00  0.00     0.124 S 
ATOM     46  O   UNL A   1      47.213  37.649  27.596  1.00  0.00    -0.237 OA
ATOM     47  O   UNL A   1      47.237  37.405  30.054  1.00  0.00    -0.237 OA
ATOM     48  O   UNL A   1      49.277  36.943  28.749  1.00  0.00    -0.744 OA
ENDBRANCH  44  45
ENDBRANCH  25  39
BRANCH  26  49
ATOM     49  C   UNL A   1      43.316  23.216  26.839  1.00  0.00    -0.014 A 
ATOM     50  C   UNL A   1      43.253  22.692  25.537  1.00  0.00     0.010 A 
ATOM     51  C   UNL A   1      43.032  22.377  27.934  1.00  0.00     0.010 A 
ATOM     52  C   UNL A   1      42.942  21.345  25.337  1.00  0.00     0.020 A 
ATOM     53  C   UNL A   1      42.743  21.024  27.737  1.00  0.00     0.020 A 
ATOM     54  C   UNL A   1      42.703  20.516  26.438  1.00  0.00     0.054 A 
BRANCH  54  55
ATOM     55  S   UNL A   1      42.445  18.740  26.164  1.00  0.00     0.124 S 
ATOM     56  O   UNL A   1      43.430  18.447  25.127  1.00  0.00    -0.237 OA
ATOM     57  O   UNL A   1      42.723  18.171  27.481  1.00  0.00    -0.237 OA
ATOM     58  O   UNL A   1      41.048  18.660  25.745  1.00  0.00    -0.744 OA
ENDBRANCH  54  55
ENDBRANCH  26  49
BRANCH  38  59
ATOM     59  C   UNL A   1      49.524  26.387  26.220  1.00  0.00    -0.014 A 
ATOM     60  C   UNL A   1      50.007  26.619  24.922  1.00  0.00     0.010 A 
ATOM     61  C   UNL A   1      50.349  25.752  27.165  1.00  0.00     0.010 A 
ATOM     62  C   UNL A   1      51.295  26.210  24.569  1.00  0.00     0.020 A 
ATOM     63  C   UNL A   1      51.644  25.358  26.820  1.00  0.00     0.020 A 
ATOM     64  C   UNL A   1      52.105  25.585  25.521  1.00  0.00     0.054 A 
BRANCH  64  65
ATOM     65  S   UNL A   1      53.799  25.124  25.062  1.00  0.00     0.124 S 
ATOM     66  O   UNL A   1      54.570  25.648  26.185  1.00  0.00    -0.237 OA
ATOM     67  O   UNL A   1      53.724  23.667  24.974  1.00  0.00    -0.237 OA
ATOM     68  O   UNL A   1      54.009  25.808  23.787  1.00  0.00    -0.744 OA
ENDBRANCH  64  65
ENDBRANCH  38  59
ENDBRANCH  12  13
ENDBRANCH   5   7
ENDBRANCH   2   3
ENDBRANCH   1   2
BRANCH   1  69
ATOM     69  C   UNL A   1      33.996  28.369  26.116  1.00  0.00     0.117 C 
BRANCH  69  70
ATOM     70  N   UNL A   1      32.943  27.384  26.287  1.00  0.00    -0.355 N 
ATOM     71  C   UNL A   1      31.952  26.986  25.464  1.00  0.00     0.234 C 
ATOM     72  H   UNL A   1      32.955  26.925  27.157  1.00  0.00     0.163 HD
ATOM     73  O   UNL A   1      30.889  26.791  26.069  1.00  0.00    -0.274 OA
BRANCH  71  74
ATOM     74  C   UNL A   1      32.087  26.702  23.947  1.00  0.00     0.118 C 
ATOM     75  C   UNL A   1      32.296  28.105  23.274  1.00  0.00     0.031 C 
ATOM     76  C   UNL A   1      30.824  26.147  23.250  1.00  0.00     0.201 C 
ATOM     77  C   UNL A   1      33.317  25.817  23.659  1.00  0.00     0.142 C 
ATOM     78  C   UNL A   1      31.037  28.995  23.362  1.00  0.00     0.063 C 
ATOM     79  N   UNL A   1      29.614  26.922  23.557  1.00  0.00    -0.343 N 
ATOM     80  C   UNL A   1      30.614  24.653  23.428  1.00  0.00     0.087 C 
ATOM     81  N   UNL A   1      33.072  24.363  23.593  1.00  0.00    -0.341 N 
ATOM     82  C   UNL A   1      29.739  28.271  22.992  1.00  0.00     0.260 C 
ATOM     83  H   UNL A   1      28.801  26.457  23.152  1.00  0.00     0.346 HD
ATOM     84  H   UNL A   1      29.500  26.987  24.569  1.00  0.00     0.346 HD
ATOM     85  C   UNL A   1      31.852  23.926  22.924  1.00  0.00     0.125 C 
BRANCH  81  86
ATOM     86  C   UNL A   1      34.163  23.532  23.861  1.00  0.00     0.227 C 
ATOM     87  O   UNL A   1      35.099  23.458  23.058  1.00  0.00    -0.275 OA
BRANCH  86  88
ATOM     88  C   UNL A   1      34.237  22.750  25.172  1.00  0.00     0.140 C 
BRANCH  88  89
ATOM     89  C   UNL A   1      34.058  21.262  24.968  1.00  0.00     0.016 A 
ATOM     90  C   UNL A   1      32.750  20.755  24.910  1.00  0.00     0.128 A 
ATOM     91  C   UNL A   1      35.110  20.346  24.816  1.00  0.00     0.047 A 
ATOM     92  F   UNL A   1      31.710  21.579  25.089  1.00  0.00    -0.207 F 
ATOM     93  C   UNL A   1      32.485  19.407  24.694  1.00  0.00     0.039 A 
ATOM     94  C   UNL A   1      34.851  18.987  24.595  1.00  0.00     0.021 A 
ATOM     95  Cl  UNL A   1      36.770  20.804  24.919  1.00  0.00    -0.084 Cl
ATOM     96  C   UNL A   1      33.540  18.519  24.540  1.00  0.00     0.005 A 
ENDBRANCH  88  89
ENDBRANCH  86  88
ENDBRANCH  81  86
ENDBRANCH  71  74
ENDBRANCH  69  70
ENDBRANCH   1  69
TORSDOF 16
ENDMDL
MODEL 3
REMARK VINA RESULT:     -12.1      6.559     11.445
REMARK SMILES O=C(NCCCNC(=O)[C@]12CCC[NH2+][C@@H]1CCN(C(=O)Cc1c(F)cccc1Cl)C2)c1ccc(-c2c3nc(c(-c4ccc(S(=O)(=O)[O-])cc4)c4ccc([nH]4)c(-c4ccc(S(=O)(=O)[O-])cc4)c4nc(c(-c5ccc(S(=O)(=O)[O-])cc5)c5ccc2[nH]5)C=C4)C=C3)cc1
REMARK SMILES IDX 5 1 4 2 3 3 1 4 2 5 31 7 32 8 90 9 33 10 89 11 34 12 35 13
REMARK SMILES IDX 36 14 83 15 37 16 88 17 82 18 84 19 38 20 87 21 81 22 80 23
REMARK SMILES IDX 39 25 69 26 50 27 68 28 51 29 54 30 67 31 85 32 52 33 53 34
REMARK SMILES IDX 66 36 86 37 55 38 40 39 41 40 49 41 42 42 48 43 43 44 44 45
REMARK SMILES IDX 45 46 46 47 47 48 70 49 71 50 79 51 72 52 78 53 73 54 74 55
REMARK SMILES IDX 75 56 76 57 77 58 56 59 57 60 65 61 58 62 64 63 59 64 60 65
REMARK SMILES IDX 61 66 62 67 63 68 6 69 7 70 8 71 9 73 10 74 11 75 15 76
REMARK SMILES IDX 30 77 12 78 14 79 16 80 18 81 13 82 17 85 19 86 20 87 21 88
REMARK SMILES IDX 22 89 23 90 28 91 24 92 25 93 27 94 29 95 26 96
REMARK H PARENT 3 6 84 24 54 35 7 72 14 83 14 84
REMARK Flexibility Score: inf
ROOT
ATOM      1  C   UNL A   1      37.686  23.154  25.903  1.00  0.00     0.042 C 
ENDROOT
BRANCH   1   2
ATOM      2  C   UNL A   1      38.584  24.162  26.616  1.00  0.00     0.118 C 
BRANCH   2   3
ATOM      3  N   UNL A   1      39.811  24.446  25.890  1.00  0.00    -0.352 N 
ATOM      4  O   UNL A   1      41.622  25.593  25.219  1.00  0.00    -0.269 OA
ATOM      5  C   UNL A   1      40.760  25.421  26.079  1.00  0.00     0.251 C 
ATOM      6  H   UNL A   1      39.991  23.840  25.136  1.00  0.00     0.163 HD
BRANCH   5   7
ATOM      7  C   UNL A   1      40.714  26.308  27.264  1.00  0.00     0.039 A 
ATOM      8  C   UNL A   1      41.491  27.462  27.348  1.00  0.00     0.014 A 
ATOM      9  C   UNL A   1      39.838  25.990  28.308  1.00  0.00     0.014 A 
ATOM     10  C   UNL A   1      41.544  28.183  28.533  1.00  0.00     0.010 A 
ATOM     11  C   UNL A   1      39.819  26.764  29.470  1.00  0.00     0.010 A 
ATOM     12  C   UNL A   1      40.692  27.851  29.595  1.00  0.00    -0.014 A 
BRANCH  12  13
ATOM     13  C   UNL A   1      40.596  28.781  30.740  1.00  0.00     0.031 A 
ATOM     14  C   UNL A   1      41.522  28.691  31.910  1.00  0.00     0.074 A 
ATOM     15  C   UNL A   1      39.642  29.728  30.675  1.00  0.00     0.049 A 
ATOM     16  N   UNL A   1      41.583  29.465  32.962  1.00  0.00    -0.248 NA
ATOM     17  C   UNL A   1      42.502  27.594  31.909  1.00  0.00     0.031 C 
ATOM     18  C   UNL A   1      38.686  29.877  29.572  1.00  0.00     0.029 A 
ATOM     19  N   UNL A   1      39.324  30.746  31.531  1.00  0.00    -0.354 N 
ATOM     20  C   UNL A   1      42.594  28.946  33.759  1.00  0.00     0.074 A 
ATOM     21  C   UNL A   1      43.113  27.780  33.073  1.00  0.00     0.031 C 
ATOM     22  C   UNL A   1      37.911  30.942  29.803  1.00  0.00     0.029 A 
ATOM     23  C   UNL A   1      38.274  31.515  31.093  1.00  0.00     0.049 A 
ATOM     24  H   UNL A   1      39.799  30.910  32.378  1.00  0.00     0.167 HD
ATOM     25  C   UNL A   1      43.037  29.405  34.955  1.00  0.00     0.031 A 
ATOM     26  C   UNL A   1      37.652  32.557  31.672  1.00  0.00     0.031 A 
ATOM     27  C   UNL A   1      42.486  30.556  35.623  1.00  0.00     0.049 A 
ATOM     28  C   UNL A   1      38.151  33.039  32.996  1.00  0.00     0.074 A 
ATOM     29  C   UNL A   1      42.878  31.127  36.822  1.00  0.00     0.029 A 
ATOM     30  N   UNL A   1      41.413  31.305  35.157  1.00  0.00    -0.354 N 
ATOM     31  N   UNL A   1      39.142  32.565  33.714  1.00  0.00    -0.248 NA
ATOM     32  C   UNL A   1      37.462  34.189  33.589  1.00  0.00     0.031 C 
ATOM     33  C   UNL A   1      42.010  32.190  37.102  1.00  0.00     0.029 A 
ATOM     34  C   UNL A   1      41.109  32.313  36.056  1.00  0.00     0.049 A 
ATOM     35  H   UNL A   1      40.937  31.141  34.310  1.00  0.00     0.167 HD
ATOM     36  C   UNL A   1      39.203  33.364  34.846  1.00  0.00     0.074 A 
ATOM     37  C   UNL A   1      38.154  34.359  34.708  1.00  0.00     0.031 C 
ATOM     38  C   UNL A   1      40.050  33.282  35.900  1.00  0.00     0.031 A 
BRANCH  25  39
ATOM     39  C   UNL A   1      44.135  28.629  35.634  1.00  0.00    -0.014 A 
ATOM     40  C   UNL A   1      43.850  27.596  36.545  1.00  0.00     0.010 A 
ATOM     41  C   UNL A   1      45.479  28.927  35.341  1.00  0.00     0.010 A 
ATOM     42  C   UNL A   1      44.886  26.911  37.188  1.00  0.00     0.020 A 
ATOM     43  C   UNL A   1      46.518  28.230  35.964  1.00  0.00     0.020 A 
ATOM     44  C   UNL A   1      46.215  27.241  36.902  1.00  0.00     0.054 A 
BRANCH  44  45
ATOM     45  S   UNL A   1      47.545  26.351  37.757  1.00  0.00     0.124 S 
ATOM     46  O   UNL A   1      48.363  27.451  38.263  1.00  0.00    -0.237 OA
ATOM     47  O   UNL A   1      46.825  25.587  38.773  1.00  0.00    -0.237 OA
ATOM     48  O   UNL A   1      48.161  25.551  36.701  1.00  0.00    -0.744 OA
ENDBRANCH  44  45
ENDBRANCH  25  39
BRANCH  26  49
ATOM     49  C   UNL A   1      36.495  33.169  30.970  1.00  0.00    -0.014 A 
ATOM     50  C   UNL A   1      35.256  33.303  31.615  1.00  0.00     0.010 A 
ATOM     51  C   UNL A   1      36.685  33.767  29.708  1.00  0.00     0.010 A 
ATOM     52  C   UNL A   1      34.232  34.049  31.022  1.00  0.00     0.020 A 
ATOM     53  C   UNL A   1      35.672  34.531  29.125  1.00  0.00     0.020 A 
ATOM     54  C   UNL A   1      34.452  34.670  29.788  1.00  0.00     0.054 A 
BRANCH  54  55
ATOM     55  S   UNL A   1      33.164  35.753  29.106  1.00  0.00     0.124 S 
ATOM     56  O   UNL A   1      32.497  36.228  30.314  1.00  0.00    -0.237 OA
ATOM     57  O   UNL A   1      33.941  36.751  28.376  1.00  0.00    -0.237 OA
ATOM     58  O   UNL A   1      32.376  34.855  28.264  1.00  0.00    -0.744 OA
ENDBRANCH  54  55
ENDBRANCH  26  49
BRANCH  38  59
ATOM     59  C   UNL A   1      39.883  34.304  36.987  1.00  0.00    -0.014 A 
ATOM     60  C   UNL A   1      40.497  35.563  36.893  1.00  0.00     0.010 A 
ATOM     61  C   UNL A   1      39.043  34.022  38.079  1.00  0.00     0.010 A 
ATOM     62  C   UNL A   1      40.284  36.524  37.883  1.00  0.00     0.020 A 
ATOM     63  C   UNL A   1      38.813  34.987  39.062  1.00  0.00     0.020 A 
ATOM     64  C   UNL A   1      39.442  36.230  38.960  1.00  0.00     0.054 A 
BRANCH  64  65
ATOM     65  S   UNL A   1      39.124  37.517  40.199  1.00  0.00     0.124 S 
ATOM     66  O   UNL A   1      38.588  36.739  41.312  1.00  0.00    -0.237 OA
ATOM     67  O   UNL A   1      40.450  38.092  40.413  1.00  0.00    -0.237 OA
ATOM     68  O   UNL A   1      38.167  38.403  39.539  1.00  0.00    -0.744 OA
ENDBRANCH  64  65
ENDBRANCH  38  59
ENDBRANCH  12  13
ENDBRANCH   5   7
ENDBRANCH   2   3
ENDBRANCH   1   2
BRANCH   1  69
ATOM     69  C   UNL A   1      36.203  23.424  26.142  1.00  0.00     0.117 C 
BRANCH  69  70
ATOM     70  N   UNL A   1      35.534  23.685  24.880  1.00  0.00    -0.355 N 
ATOM     71  C   UNL A   1      34.421  23.156  24.334  1.00  0.00     0.234 C 
ATOM     72  H   UNL A   1      35.972  24.369  24.324  1.00  0.00     0.163 HD
ATOM     73  O   UNL A   1      34.536  22.974  23.114  1.00  0.00    -0.274 OA
BRANCH  71  74
ATOM     74  C   UNL A   1      33.091  22.872  25.076  1.00  0.00     0.118 C 
ATOM     75  C   UNL A   1      33.356  21.587  25.938  1.00  0.00     0.031 C 
ATOM     76  C   UNL A   1      31.893  22.472  24.184  1.00  0.00     0.201 C 
ATOM     77  C   UNL A   1      32.722  24.039  26.014  1.00  0.00     0.142 C 
ATOM     78  C   UNL A   1      33.560  20.326  25.068  1.00  0.00     0.063 C 
ATOM     79  N   UNL A   1      32.224  21.410  23.224  1.00  0.00    -0.343 N 
ATOM     80  C   UNL A   1      31.182  23.643  23.527  1.00  0.00     0.087 C 
ATOM     81  N   UNL A   1      31.827  25.070  25.451  1.00  0.00    -0.341 N 
ATOM     82  C   UNL A   1      32.524  20.170  23.950  1.00  0.00     0.260 C 
ATOM     83  H   UNL A   1      31.431  21.256  22.601  1.00  0.00     0.346 HD
ATOM     84  H   UNL A   1      33.038  21.688  22.676  1.00  0.00     0.346 HD
ATOM     85  C   UNL A   1      30.726  24.605  24.614  1.00  0.00     0.125 C 
BRANCH  81  86
ATOM     86  C   UNL A   1      31.894  26.340  26.028  1.00  0.00     0.227 C 
ATOM     87  O   UNL A   1      31.156  26.632  26.975  1.00  0.00    -0.275 OA
BRANCH  86  88
ATOM     88  C   UNL A   1      32.918  27.362  25.534  1.00  0.00     0.140 C 
BRANCH  88  89
ATOM     89  C   UNL A   1      32.567  28.775  25.944  1.00  0.00     0.016 A 
ATOM     90  C   UNL A   1      33.274  29.349  27.012  1.00  0.00     0.128 A 
ATOM     91  C   UNL A   1      31.591  29.567  25.320  1.00  0.00     0.047 A 
ATOM     92  F   UNL A   1      34.188  28.624  27.669  1.00  0.00    -0.207 F 
ATOM     93  C   UNL A   1      33.044  30.652  27.441  1.00  0.00     0.039 A 
ATOM     94  C   UNL A   1      31.356  30.882  25.744  1.00  0.00     0.021 A 
ATOM     95  Cl  UNL A   1      30.601  28.987  24.032  1.00  0.00    -0.084 Cl
ATOM     96  C   UNL A   1      32.078  31.420  26.806  1.00  0.00     0.005 A 
ENDBRANCH  88  89
ENDBRANCH  86  88
ENDBRANCH  81  86
ENDBRANCH  71  74
ENDBRANCH  69  70
ENDBRANCH   1  69
TORSDOF 16
ENDMDL
