MODEL 1
REMARK VINA RESULT:     -10.3      0.000      0.000
REMARK SMILES CC[C@](C)(NC(=O)NC[C@@H](C)[NH+](C)C)C(=O)NCCCNC(=O)c1ccc(-c2c3nc(c(-c4ccc(S(=O)(=O)[O-])cc4)c4ccc([nH]4)c(-c4ccc(S(=O)(=O)[O-])cc4)c4nc(c(-c5ccc(S(=O)(=O)[O-])cc5)c5ccc2[nH]5)C=C4)C=C3)cc1
REMARK SMILES IDX 18 1 17 2 15 3 16 4 3 6 4 7 2 8 1 9 5 10 6 11 7 13 8 14 9 16
REMARK SMILES IDX 10 17 11 18 12 19 13 20 14 21 19 23 20 24 21 25 22 26 23 28
REMARK SMILES IDX 24 29 25 30 83 31 26 32 82 33 27 34 28 35 29 36 76 37 30 38
REMARK SMILES IDX 81 39 75 40 77 41 31 42 80 43 74 44 73 45 32 47 62 48 43 49
REMARK SMILES IDX 61 50 44 51 47 52 60 53 78 54 45 55 46 56 59 58 79 59 48 60
REMARK SMILES IDX 33 61 34 62 42 63 35 64 41 65 36 66 37 67 38 68 39 69 40 70
REMARK SMILES IDX 63 71 64 72 72 73 65 74 71 75 66 76 67 77 68 78 69 79 70 80
REMARK SMILES IDX 49 81 50 82 58 83 51 84 57 85 52 86 53 87 54 88 55 89 56 90
REMARK H PARENT 17 5 5 12 8 15 12 22 21 27 77 46 47 57
REMARK Flexibility Score: inf
ROOT
ATOM      1  C   UNL A   1      32.252  30.369  26.500  1.00  0.00     0.117 C 
ENDROOT
BRANCH   1   2
ATOM      2  N   UNL A   1      33.072  30.090  25.331  1.00  0.00    -0.354 N 
ATOM      3  C   UNL A   1      33.071  29.079  24.407  1.00  0.00     0.245 C 
ATOM      4  O   UNL A   1      33.489  29.360  23.276  1.00  0.00    -0.272 OA
ATOM      5  H   UNL A   1      33.770  30.765  25.172  1.00  0.00     0.163 HD
BRANCH   3   6
ATOM      6  C   UNL A   1      32.429  27.697  24.667  1.00  0.00     0.117 C 
ATOM      7  C   UNL A   1      31.047  27.769  25.360  1.00  0.00     0.045 C 
BRANCH   6   8
ATOM      8  C   UNL A   1      33.395  26.941  25.640  1.00  0.00     0.035 C 
ATOM      9  C   UNL A   1      34.045  25.687  25.048  1.00  0.00     0.007 C 
ENDBRANCH   6   8
BRANCH   6  10
ATOM     10  N   UNL A   1      32.281  26.949  23.409  1.00  0.00    -0.324 N 
ATOM     11  C   UNL A   1      31.394  26.956  22.407  1.00  0.00     0.315 C 
ATOM     12  H   UNL A   1      33.000  26.291  23.272  1.00  0.00     0.166 HD
ATOM     13  O   UNL A   1      31.470  26.022  21.601  1.00  0.00    -0.249 OA
ATOM     14  N   UNL A   1      30.474  27.893  22.154  1.00  0.00    -0.332 N 
ATOM     15  H   UNL A   1      30.024  27.721  21.296  1.00  0.00     0.165 HD
BRANCH  14  16
ATOM     16  C   UNL A   1      29.945  29.104  22.792  1.00  0.00     0.182 C 
BRANCH  16  17
ATOM     17  C   UNL A   1      28.500  29.503  22.337  1.00  0.00     0.200 C 
ATOM     18  C   UNL A   1      27.424  28.662  23.036  1.00  0.00     0.077 C 
BRANCH  17  19
ATOM     19  N   UNL A   1      28.249  30.956  22.407  1.00  0.00    -0.336 N 
ATOM     20  C   UNL A   1      28.924  31.641  23.504  1.00  0.00     0.332 C 
ATOM     21  C   UNL A   1      28.406  31.681  21.155  1.00  0.00     0.332 C 
ATOM     22  H   UNL A   1      27.251  30.978  22.616  1.00  0.00     0.347 HD
ENDBRANCH  17  19
ENDBRANCH  16  17
ENDBRANCH  14  16
ENDBRANCH   6  10
ENDBRANCH   3   6
ENDBRANCH   1   2
BRANCH   1  23
ATOM     23  C   UNL A   1      31.922  31.813  26.892  1.00  0.00     0.042 C 
BRANCH  23  24
ATOM     24  C   UNL A   1      33.024  32.795  27.285  1.00  0.00     0.118 C 
BRANCH  24  25
ATOM     25  N   UNL A   1      32.567  34.093  27.740  1.00  0.00    -0.352 N 
ATOM     26  C   UNL A   1      33.064  34.862  28.770  1.00  0.00     0.251 C 
ATOM     27  H   UNL A   1      31.801  34.474  27.252  1.00  0.00     0.163 HD
ATOM     28  O   UNL A   1      32.532  35.923  29.057  1.00  0.00    -0.269 OA
BRANCH  26  29
ATOM     29  C   UNL A   1      34.227  34.378  29.552  1.00  0.00     0.039 A 
ATOM     30  C   UNL A   1      34.011  33.908  30.850  1.00  0.00     0.014 A 
ATOM     31  C   UNL A   1      35.517  34.387  29.013  1.00  0.00     0.014 A 
ATOM     32  C   UNL A   1      35.077  33.380  31.585  1.00  0.00     0.010 A 
ATOM     33  C   UNL A   1      36.577  33.832  29.740  1.00  0.00     0.010 A 
ATOM     34  C   UNL A   1      36.364  33.307  31.024  1.00  0.00    -0.014 A 
BRANCH  34  35
ATOM     35  C   UNL A   1      37.471  32.620  31.747  1.00  0.00     0.031 A 
ATOM     36  C   UNL A   1      37.974  33.135  33.068  1.00  0.00     0.074 A 
ATOM     37  C   UNL A   1      38.060  31.548  31.182  1.00  0.00     0.049 A 
ATOM     38  N   UNL A   1      38.946  32.672  33.814  1.00  0.00    -0.248 NA
ATOM     39  C   UNL A   1      37.307  34.325  33.617  1.00  0.00     0.031 C 
ATOM     40  C   UNL A   1      37.686  30.961  29.893  1.00  0.00     0.029 A 
ATOM     41  N   UNL A   1      39.104  30.765  31.612  1.00  0.00    -0.354 N 
ATOM     42  C   UNL A   1      39.013  33.514  34.918  1.00  0.00     0.074 A 
ATOM     43  C   UNL A   1      38.006  34.537  34.725  1.00  0.00     0.031 C 
ATOM     44  C   UNL A   1      38.477  29.905  29.645  1.00  0.00     0.029 A 
ATOM     45  C   UNL A   1      39.438  29.761  30.735  1.00  0.00     0.049 A 
ATOM     46  H   UNL A   1      39.567  30.910  32.468  1.00  0.00     0.167 HD
ATOM     47  C   UNL A   1      39.830  33.438  35.998  1.00  0.00     0.031 A 
ATOM     48  C   UNL A   1      40.415  28.834  30.788  1.00  0.00     0.031 A 
ATOM     49  C   UNL A   1      40.840  32.428  36.187  1.00  0.00     0.049 A 
ATOM     50  C   UNL A   1      41.336  28.796  31.977  1.00  0.00     0.074 A 
ATOM     51  C   UNL A   1      41.680  32.245  37.273  1.00  0.00     0.029 A 
ATOM     52  N   UNL A   1      41.159  31.439  35.268  1.00  0.00    -0.354 N 
ATOM     53  N   UNL A   1      41.337  29.560  33.042  1.00  0.00    -0.248 NA
ATOM     54  C   UNL A   1      42.385  27.766  31.971  1.00  0.00     0.031 C 
ATOM     55  C   UNL A   1      42.544  31.182  36.986  1.00  0.00     0.029 A 
ATOM     56  C   UNL A   1      42.205  30.665  35.746  1.00  0.00     0.049 A 
ATOM     57  H   UNL A   1      40.708  31.307  34.403  1.00  0.00     0.167 HD
ATOM     58  C   UNL A   1      42.374  29.092  33.842  1.00  0.00     0.074 A 
ATOM     59  C   UNL A   1      42.965  27.966  33.148  1.00  0.00     0.031 C 
ATOM     60  C   UNL A   1      42.797  29.554  35.045  1.00  0.00     0.031 A 
BRANCH  47  61
ATOM     61  C   UNL A   1      39.676  34.493  37.063  1.00  0.00    -0.014 A 
ATOM     62  C   UNL A   1      38.860  34.275  38.187  1.00  0.00     0.010 A 
ATOM     63  C   UNL A   1      40.398  35.697  36.965  1.00  0.00     0.010 A 
ATOM     64  C   UNL A   1      38.734  35.258  39.173  1.00  0.00     0.020 A 
ATOM     65  C   UNL A   1      40.296  36.673  37.961  1.00  0.00     0.020 A 
ATOM     66  C   UNL A   1      39.450  36.454  39.051  1.00  0.00     0.054 A 
BRANCH  66  67
ATOM     67  S   UNL A   1      39.280  37.707  40.352  1.00  0.00     0.124 S 
ATOM     68  O   UNL A   1      39.020  36.883  41.530  1.00  0.00    -0.237 OA
ATOM     69  O   UNL A   1      40.579  38.373  40.327  1.00  0.00    -0.237 OA
ATOM     70  O   UNL A   1      38.155  38.523  39.903  1.00  0.00    -0.744 OA
ENDBRANCH  66  67
ENDBRANCH  47  61
BRANCH  48  71
ATOM     71  C   UNL A   1      40.574  27.859  29.674  1.00  0.00    -0.014 A 
ATOM     72  C   UNL A   1      41.573  28.041  28.703  1.00  0.00     0.010 A 
ATOM     73  C   UNL A   1      39.731  26.736  29.586  1.00  0.00     0.010 A 
ATOM     74  C   UNL A   1      41.719  27.126  27.657  1.00  0.00     0.020 A 
ATOM     75  C   UNL A   1      39.890  25.805  28.557  1.00  0.00     0.020 A 
ATOM     76  C   UNL A   1      40.878  26.012  27.591  1.00  0.00     0.054 A 
BRANCH  76  77
ATOM     77  S   UNL A   1      41.121  24.807  26.256  1.00  0.00     0.124 S 
ATOM     78  O   UNL A   1      41.269  25.672  25.090  1.00  0.00    -0.237 OA
ATOM     79  O   UNL A   1      42.328  24.103  26.683  1.00  0.00    -0.237 OA
ATOM     80  O   UNL A   1      39.899  24.006  26.293  1.00  0.00    -0.744 OA
ENDBRANCH  76  77
ENDBRANCH  48  71
BRANCH  60  81
ATOM     81  C   UNL A   1      43.947  28.835  35.700  1.00  0.00    -0.014 A 
ATOM     82  C   UNL A   1      45.275  29.246  35.489  1.00  0.00     0.010 A 
ATOM     83  C   UNL A   1      43.694  27.763  36.575  1.00  0.00     0.010 A 
ATOM     84  C   UNL A   1      46.331  28.580  36.119  1.00  0.00     0.020 A 
ATOM     85  C   UNL A   1      44.743  27.112  37.228  1.00  0.00     0.020 A 
ATOM     86  C   UNL A   1      46.057  27.517  36.985  1.00  0.00     0.054 A 
BRANCH  86  87
ATOM     87  S   UNL A   1      47.441  26.698  37.827  1.00  0.00     0.124 S 
ATOM     88  O   UNL A   1      46.978  25.316  37.900  1.00  0.00    -0.237 OA
ATOM     89  O   UNL A   1      48.559  26.939  36.917  1.00  0.00    -0.237 OA
ATOM     90  O   UNL A   1      47.528  27.394  39.109  1.00  0.00    -0.744 OA
ENDBRANCH  86  87
ENDBRANCH  60  81
ENDBRANCH  34  35
ENDBRANCH  26  29
ENDBRANCH  24  25
ENDBRANCH  23  24
ENDBRANCH   1  23
TORSDOF 18
ENDMDL
MODEL 2
REMARK VINA RESULT:      -9.6      1.244      8.429
REMARK SMILES CC[C@](C)(NC(=O)NC[C@@H](C)[NH+](C)C)C(=O)NCCCNC(=O)c1ccc(-c2c3nc(c(-c4ccc(S(=O)(=O)[O-])cc4)c4ccc([nH]4)c(-c4ccc(S(=O)(=O)[O-])cc4)c4nc(c(-c5ccc(S(=O)(=O)[O-])cc5)c5ccc2[nH]5)C=C4)C=C3)cc1
REMARK SMILES IDX 18 1 17 2 15 3 16 4 3 6 4 7 2 8 1 9 5 10 6 11 7 13 8 14 9 16
REMARK SMILES IDX 10 17 11 18 12 19 13 20 14 21 19 23 20 24 21 25 22 26 23 28
REMARK SMILES IDX 24 29 25 30 83 31 26 32 82 33 27 34 28 35 29 36 76 37 30 38
REMARK SMILES IDX 81 39 75 40 77 41 31 42 80 43 74 44 73 45 32 47 62 48 43 49
REMARK SMILES IDX 61 50 44 51 47 52 60 53 78 54 45 55 46 56 59 58 79 59 48 60
REMARK SMILES IDX 33 61 34 62 42 63 35 64 41 65 36 66 37 67 38 68 39 69 40 70
REMARK SMILES IDX 63 71 64 72 72 73 65 74 71 75 66 76 67 77 68 78 69 79 70 80
REMARK SMILES IDX 49 81 50 82 58 83 51 84 57 85 52 86 53 87 54 88 55 89 56 90
REMARK H PARENT 17 5 5 12 8 15 12 22 21 27 77 46 47 57
REMARK Flexibility Score: inf
ROOT
ATOM      1  C   UNL A   1      32.406  29.977  26.797  1.00  0.00     0.117 C 
ENDROOT
BRANCH   1   2
ATOM      2  N   UNL A   1      33.380  29.547  25.807  1.00  0.00    -0.354 N 
ATOM      3  C   UNL A   1      33.460  28.455  24.985  1.00  0.00     0.245 C 
ATOM      4  O   UNL A   1      34.070  28.606  23.918  1.00  0.00    -0.272 OA
ATOM      5  H   UNL A   1      34.139  30.168  25.708  1.00  0.00     0.163 HD
BRANCH   3   6
ATOM      6  C   UNL A   1      32.694  27.139  25.252  1.00  0.00     0.117 C 
ATOM      7  C   UNL A   1      31.460  27.307  26.171  1.00  0.00     0.045 C 
BRANCH   6   8
ATOM      8  C   UNL A   1      33.697  26.192  25.994  1.00  0.00     0.035 C 
ATOM      9  C   UNL A   1      34.478  25.246  25.077  1.00  0.00     0.007 C 
ENDBRANCH   6   8
BRANCH   6  10
ATOM     10  N   UNL A   1      32.254  26.529  23.988  1.00  0.00    -0.324 N 
ATOM     11  C   UNL A   1      31.284  26.790  23.103  1.00  0.00     0.315 C 
ATOM     12  H   UNL A   1      32.797  25.749  23.734  1.00  0.00     0.166 HD
ATOM     13  O   UNL A   1      31.071  25.920  22.251  1.00  0.00    -0.249 OA
ATOM     14  N   UNL A   1      30.563  27.912  23.009  1.00  0.00    -0.332 N 
ATOM     15  H   UNL A   1      29.995  27.898  22.205  1.00  0.00     0.165 HD
BRANCH  14  16
ATOM     16  C   UNL A   1      30.375  29.157  23.762  1.00  0.00     0.182 C 
BRANCH  16  17
ATOM     17  C   UNL A   1      29.542  30.253  23.015  1.00  0.00     0.200 C 
ATOM     18  C   UNL A   1      29.669  30.133  21.491  1.00  0.00     0.077 C 
BRANCH  17  19
ATOM     19  N   UNL A   1      28.145  30.341  23.485  1.00  0.00    -0.336 N 
ATOM     20  C   UNL A   1      27.529  31.655  23.328  1.00  0.00     0.332 C 
ATOM     21  C   UNL A   1      27.259  29.284  23.022  1.00  0.00     0.332 C 
ATOM     22  H   UNL A   1      28.259  30.188  24.487  1.00  0.00     0.347 HD
ENDBRANCH  17  19
ENDBRANCH  16  17
ENDBRANCH  14  16
ENDBRANCH   6  10
ENDBRANCH   3   6
ENDBRANCH   1   2
BRANCH   1  23
ATOM     23  C   UNL A   1      32.071  31.463  26.965  1.00  0.00     0.042 C 
BRANCH  23  24
ATOM     24  C   UNL A   1      33.168  32.497  27.210  1.00  0.00     0.118 C 
BRANCH  24  25
ATOM     25  N   UNL A   1      32.749  33.695  27.912  1.00  0.00    -0.352 N 
ATOM     26  C   UNL A   1      33.356  34.314  28.983  1.00  0.00     0.251 C 
ATOM     27  H   UNL A   1      31.925  34.119  27.581  1.00  0.00     0.163 HD
ATOM     28  O   UNL A   1      32.846  35.301  29.492  1.00  0.00    -0.269 OA
BRANCH  26  29
ATOM     29  C   UNL A   1      34.612  33.756  29.540  1.00  0.00     0.039 A 
ATOM     30  C   UNL A   1      35.829  34.267  29.084  1.00  0.00     0.014 A 
ATOM     31  C   UNL A   1      34.590  32.739  30.499  1.00  0.00     0.014 A 
ATOM     32  C   UNL A   1      37.028  33.808  29.640  1.00  0.00     0.010 A 
ATOM     33  C   UNL A   1      35.788  32.303  31.075  1.00  0.00     0.010 A 
ATOM     34  C   UNL A   1      37.017  32.846  30.665  1.00  0.00    -0.014 A 
BRANCH  34  35
ATOM     35  C   UNL A   1      38.277  32.458  31.357  1.00  0.00     0.031 A 
ATOM     36  C   UNL A   1      39.183  31.401  30.788  1.00  0.00     0.074 A 
ATOM     37  C   UNL A   1      38.583  33.032  32.538  1.00  0.00     0.049 A 
ATOM     38  N   UNL A   1      40.302  30.927  31.277  1.00  0.00    -0.248 NA
ATOM     39  C   UNL A   1      38.779  30.794  29.512  1.00  0.00     0.031 C 
ATOM     40  C   UNL A   1      37.778  34.052  33.214  1.00  0.00     0.029 A 
ATOM     41  N   UNL A   1      39.647  32.834  33.384  1.00  0.00    -0.354 N 
ATOM     42  C   UNL A   1      40.734  29.962  30.374  1.00  0.00     0.074 A 
ATOM     43  C   UNL A   1      39.737  29.896  29.325  1.00  0.00     0.031 C 
ATOM     44  C   UNL A   1      38.383  34.400  34.361  1.00  0.00     0.029 A 
ATOM     45  C   UNL A   1      39.596  33.604  34.523  1.00  0.00     0.049 A 
ATOM     46  H   UNL A   1      40.376  32.202  33.193  1.00  0.00     0.167 HD
ATOM     47  C   UNL A   1      41.862  29.210  30.408  1.00  0.00     0.031 A 
ATOM     48  C   UNL A   1      40.422  33.658  35.587  1.00  0.00     0.031 A 
ATOM     49  C   UNL A   1      42.849  29.266  31.456  1.00  0.00     0.049 A 
ATOM     50  C   UNL A   1      41.644  32.782  35.622  1.00  0.00     0.074 A 
ATOM     51  C   UNL A   1      44.046  28.575  31.547  1.00  0.00     0.029 A 
ATOM     52  N   UNL A   1      42.752  30.045  32.599  1.00  0.00    -0.354 N 
ATOM     53  N   UNL A   1      42.069  31.926  34.723  1.00  0.00    -0.248 NA
ATOM     54  C   UNL A   1      42.500  32.882  36.813  1.00  0.00     0.031 C 
ATOM     55  C   UNL A   1      44.645  28.893  32.772  1.00  0.00     0.029 A 
ATOM     56  C   UNL A   1      43.851  29.827  33.417  1.00  0.00     0.049 A 
ATOM     57  H   UNL A   1      42.013  30.663  32.800  1.00  0.00     0.167 HD
ATOM     58  C   UNL A   1      43.252  31.401  35.233  1.00  0.00     0.074 A 
ATOM     59  C   UNL A   1      43.485  32.048  36.507  1.00  0.00     0.031 C 
ATOM     60  C   UNL A   1      44.071  30.465  34.690  1.00  0.00     0.031 A 
BRANCH  47  61
ATOM     61  C   UNL A   1      42.084  28.238  29.277  1.00  0.00    -0.014 A 
ATOM     62  C   UNL A   1      42.787  28.621  28.121  1.00  0.00     0.010 A 
ATOM     63  C   UNL A   1      41.632  26.911  29.395  1.00  0.00     0.010 A 
ATOM     64  C   UNL A   1      42.995  27.706  27.084  1.00  0.00     0.020 A 
ATOM     65  C   UNL A   1      41.861  25.986  28.372  1.00  0.00     0.020 A 
ATOM     66  C   UNL A   1      42.526  26.395  27.214  1.00  0.00     0.054 A 
BRANCH  66  67
ATOM     67  S   UNL A   1      42.823  25.225  25.860  1.00  0.00     0.124 S 
ATOM     68  O   UNL A   1      41.881  24.155  26.176  1.00  0.00    -0.237 OA
ATOM     69  O   UNL A   1      42.499  26.016  24.676  1.00  0.00    -0.237 OA
ATOM     70  O   UNL A   1      44.234  24.876  26.006  1.00  0.00    -0.744 OA
ENDBRANCH  66  67
ENDBRANCH  47  61
BRANCH  48  71
ATOM     71  C   UNL A   1      40.118  34.581  36.715  1.00  0.00    -0.014 A 
ATOM     72  C   UNL A   1      40.663  35.875  36.746  1.00  0.00     0.010 A 
ATOM     73  C   UNL A   1      39.269  34.170  37.760  1.00  0.00     0.010 A 
ATOM     74  C   UNL A   1      40.378  36.739  37.807  1.00  0.00     0.020 A 
ATOM     75  C   UNL A   1      38.961  35.039  38.809  1.00  0.00     0.020 A 
ATOM     76  C   UNL A   1      39.526  36.317  38.832  1.00  0.00     0.054 A 
BRANCH  76  77
ATOM     77  S   UNL A   1      39.125  37.473  40.171  1.00  0.00     0.124 S 
ATOM     78  O   UNL A   1      40.436  38.021  40.502  1.00  0.00    -0.237 OA
ATOM     79  O   UNL A   1      38.197  38.397  39.522  1.00  0.00    -0.237 OA
ATOM     80  O   UNL A   1      38.524  36.618  41.192  1.00  0.00    -0.744 OA
ENDBRANCH  76  77
ENDBRANCH  48  71
BRANCH  60  81
ATOM     81  C   UNL A   1      45.308  30.093  35.465  1.00  0.00    -0.014 A 
ATOM     82  C   UNL A   1      46.508  30.808  35.304  1.00  0.00     0.010 A 
ATOM     83  C   UNL A   1      45.256  29.044  36.401  1.00  0.00     0.010 A 
ATOM     84  C   UNL A   1      47.642  30.463  36.045  1.00  0.00     0.020 A 
ATOM     85  C   UNL A   1      46.380  28.713  37.163  1.00  0.00     0.020 A 
ATOM     86  C   UNL A   1      47.570  29.416  36.970  1.00  0.00     0.054 A 
BRANCH  86  87
ATOM     87  S   UNL A   1      49.043  29.017  37.953  1.00  0.00     0.124 S 
ATOM     88  O   UNL A   1      48.459  28.388  39.134  1.00  0.00    -0.237 OA
ATOM     89  O   UNL A   1      49.787  28.123  37.068  1.00  0.00    -0.237 OA
ATOM     90  O   UNL A   1      49.668  30.317  38.185  1.00  0.00    -0.744 OA
ENDBRANCH  86  87
ENDBRANCH  60  81
ENDBRANCH  34  35
ENDBRANCH  26  29
ENDBRANCH  24  25
ENDBRANCH  23  24
ENDBRANCH   1  23
TORSDOF 18
ENDMDL
MODEL 3
REMARK VINA RESULT:      -9.1      1.704      8.814
REMARK SMILES CC[C@](C)(NC(=O)NC[C@@H](C)[NH+](C)C)C(=O)NCCCNC(=O)c1ccc(-c2c3nc(c(-c4ccc(S(=O)(=O)[O-])cc4)c4ccc([nH]4)c(-c4ccc(S(=O)(=O)[O-])cc4)c4nc(c(-c5ccc(S(=O)(=O)[O-])cc5)c5ccc2[nH]5)C=C4)C=C3)cc1
REMARK SMILES IDX 18 1 17 2 15 3 16 4 3 6 4 7 2 8 1 9 5 10 6 11 7 13 8 14 9 16
REMARK SMILES IDX 10 17 11 18 12 19 13 20 14 21 19 23 20 24 21 25 22 26 23 28
REMARK SMILES IDX 24 29 25 30 83 31 26 32 82 33 27 34 28 35 29 36 76 37 30 38
REMARK SMILES IDX 81 39 75 40 77 41 31 42 80 43 74 44 73 45 32 47 62 48 43 49
REMARK SMILES IDX 61 50 44 51 47 52 60 53 78 54 45 55 46 56 59 58 79 59 48 60
REMARK SMILES IDX 33 61 34 62 42 63 35 64 41 65 36 66 37 67 38 68 39 69 40 70
REMARK SMILES IDX 63 71 64 72 72 73 65 74 71 75 66 76 67 77 68 78 69 79 70 80
REMARK SMILES IDX 49 81 50 82 58 83 51 84 57 85 52 86 53 87 54 88 55 89 56 90
REMARK H PARENT 17 5 5 12 8 15 12 22 21 27 77 46 47 57
REMARK Flexibility Score: inf
ROOT
ATOM      1  C   UNL A   1      33.228  29.452  25.530  1.00  0.00     0.117 C 
ENDROOT
BRANCH   1   2
ATOM      2  N   UNL A   1      32.306  28.493  26.117  1.00  0.00    -0.354 N 
ATOM      3  C   UNL A   1      31.422  27.594  25.581  1.00  0.00     0.245 C 
ATOM      4  O   UNL A   1      31.183  26.582  26.253  1.00  0.00    -0.272 OA
ATOM      5  H   UNL A   1      32.318  28.489  27.102  1.00  0.00     0.163 HD
BRANCH   3   6
ATOM      6  C   UNL A   1      30.869  27.709  24.142  1.00  0.00     0.117 C 
ATOM      7  C   UNL A   1      30.046  28.994  23.888  1.00  0.00     0.045 C 
BRANCH   6   8
ATOM      8  C   UNL A   1      29.899  26.494  23.949  1.00  0.00     0.035 C 
ATOM      9  C   UNL A   1      28.433  26.878  23.722  1.00  0.00     0.007 C 
ENDBRANCH   6   8
BRANCH   6  10
ATOM     10  N   UNL A   1      31.962  27.652  23.160  1.00  0.00    -0.324 N 
ATOM     11  C   UNL A   1      32.900  26.750  22.845  1.00  0.00     0.315 C 
ATOM     12  H   UNL A   1      32.017  28.464  22.607  1.00  0.00     0.166 HD
ATOM     13  O   UNL A   1      33.804  27.139  22.097  1.00  0.00    -0.249 OA
ATOM     14  N   UNL A   1      32.931  25.464  23.206  1.00  0.00    -0.332 N 
ATOM     15  H   UNL A   1      33.663  24.989  22.751  1.00  0.00     0.165 HD
BRANCH  14  16
ATOM     16  C   UNL A   1      32.185  24.558  24.088  1.00  0.00     0.182 C 
BRANCH  16  17
ATOM     17  C   UNL A   1      33.030  23.939  25.253  1.00  0.00     0.200 C 
ATOM     18  C   UNL A   1      34.234  24.816  25.620  1.00  0.00     0.077 C 
BRANCH  17  19
ATOM     19  N   UNL A   1      32.212  23.544  26.417  1.00  0.00    -0.336 N 
ATOM     20  C   UNL A   1      30.872  23.067  26.089  1.00  0.00     0.332 C 
ATOM     21  C   UNL A   1      32.866  22.665  27.374  1.00  0.00     0.332 C 
ATOM     22  H   UNL A   1      32.097  24.438  26.895  1.00  0.00     0.347 HD
ENDBRANCH  17  19
ENDBRANCH  16  17
ENDBRANCH  14  16
ENDBRANCH   6  10
ENDBRANCH   3   6
ENDBRANCH   1   2
BRANCH   1  23
ATOM     23  C   UNL A   1      34.025  30.411  26.420  1.00  0.00     0.042 C 
BRANCH  23  24
ATOM     24  C   UNL A   1      33.439  30.948  27.724  1.00  0.00     0.118 C 
BRANCH  24  25
ATOM     25  N   UNL A   1      33.025  32.337  27.695  1.00  0.00    -0.352 N 
ATOM     26  C   UNL A   1      33.607  33.416  28.326  1.00  0.00     0.251 C 
ATOM     27  H   UNL A   1      32.225  32.535  27.157  1.00  0.00     0.163 HD
ATOM     28  O   UNL A   1      33.105  34.525  28.235  1.00  0.00    -0.269 OA
BRANCH  26  29
ATOM     29  C   UNL A   1      34.826  33.216  29.146  1.00  0.00     0.039 A 
ATOM     30  C   UNL A   1      34.738  32.422  30.292  1.00  0.00     0.014 A 
ATOM     31  C   UNL A   1      36.043  33.806  28.791  1.00  0.00     0.014 A 
ATOM     32  C   UNL A   1      35.886  32.160  31.046  1.00  0.00     0.010 A 
ATOM     33  C   UNL A   1      37.196  33.519  29.530  1.00  0.00     0.010 A 
ATOM     34  C   UNL A   1      37.133  32.678  30.653  1.00  0.00    -0.014 A 
BRANCH  34  35
ATOM     35  C   UNL A   1      38.378  32.289  31.371  1.00  0.00     0.031 A 
ATOM     36  C   UNL A   1      39.299  31.236  30.815  1.00  0.00     0.074 A 
ATOM     37  C   UNL A   1      38.658  32.857  32.561  1.00  0.00     0.049 A 
ATOM     38  N   UNL A   1      40.407  30.761  31.327  1.00  0.00    -0.248 NA
ATOM     39  C   UNL A   1      38.923  30.635  29.528  1.00  0.00     0.031 C 
ATOM     40  C   UNL A   1      37.837  33.873  33.224  1.00  0.00     0.029 A 
ATOM     41  N   UNL A   1      39.703  32.657  33.429  1.00  0.00    -0.354 N 
ATOM     42  C   UNL A   1      40.860  29.802  30.429  1.00  0.00     0.074 A 
ATOM     43  C   UNL A   1      39.887  29.739  29.358  1.00  0.00     0.031 C 
ATOM     44  C   UNL A   1      38.416  34.216  34.386  1.00  0.00     0.029 A 
ATOM     45  C   UNL A   1      39.627  33.421  34.569  1.00  0.00     0.049 A 
ATOM     46  H   UNL A   1      40.437  32.027  33.250  1.00  0.00     0.167 HD
ATOM     47  C   UNL A   1      41.988  29.051  30.484  1.00  0.00     0.031 A 
ATOM     48  C   UNL A   1      40.429  33.471  35.651  1.00  0.00     0.031 A 
ATOM     49  C   UNL A   1      42.952  29.103  31.553  1.00  0.00     0.049 A 
ATOM     50  C   UNL A   1      41.652  32.596  35.708  1.00  0.00     0.074 A 
ATOM     51  C   UNL A   1      44.148  28.414  31.667  1.00  0.00     0.029 A 
ATOM     52  N   UNL A   1      42.830  29.877  32.697  1.00  0.00    -0.354 N 
ATOM     53  N   UNL A   1      42.097  31.746  34.815  1.00  0.00    -0.248 NA
ATOM     54  C   UNL A   1      42.481  32.692  36.918  1.00  0.00     0.031 C 
ATOM     55  C   UNL A   1      44.720  28.727  32.905  1.00  0.00     0.029 A 
ATOM     56  C   UNL A   1      43.910  29.656  33.538  1.00  0.00     0.049 A 
ATOM     57  H   UNL A   1      42.085  30.492  32.885  1.00  0.00     0.167 HD
ATOM     58  C   UNL A   1      43.270  31.220  35.348  1.00  0.00     0.074 A 
ATOM     59  C   UNL A   1      43.474  31.861  36.630  1.00  0.00     0.031 C 
ATOM     60  C   UNL A   1      44.102  30.288  34.818  1.00  0.00     0.031 A 
BRANCH  47  61
ATOM     61  C   UNL A   1      42.237  28.085  29.353  1.00  0.00    -0.014 A 
ATOM     62  C   UNL A   1      41.649  26.808  29.348  1.00  0.00     0.010 A 
ATOM     63  C   UNL A   1      43.024  28.480  28.256  1.00  0.00     0.010 A 
ATOM     64  C   UNL A   1      41.880  25.926  28.287  1.00  0.00     0.020 A 
ATOM     65  C   UNL A   1      43.236  27.612  27.180  1.00  0.00     0.020 A 
ATOM     66  C   UNL A   1      42.676  26.333  27.212  1.00  0.00     0.054 A 
BRANCH  66  67
ATOM     67  S   UNL A   1      42.947  25.174  25.842  1.00  0.00     0.124 S 
ATOM     68  O   UNL A   1      42.536  25.972  24.689  1.00  0.00    -0.237 OA
ATOM     69  O   UNL A   1      44.377  24.896  25.935  1.00  0.00    -0.237 OA
ATOM     70  O   UNL A   1      42.073  24.048  26.162  1.00  0.00    -0.744 OA
ENDBRANCH  66  67
ENDBRANCH  47  61
BRANCH  48  71
ATOM     71  C   UNL A   1      40.099  34.388  36.777  1.00  0.00    -0.014 A 
ATOM     72  C   UNL A   1      40.485  35.738  36.735  1.00  0.00     0.010 A 
ATOM     73  C   UNL A   1      39.386  33.914  37.894  1.00  0.00     0.010 A 
ATOM     74  C   UNL A   1      40.176  36.596  37.794  1.00  0.00     0.020 A 
ATOM     75  C   UNL A   1      39.052  34.774  38.943  1.00  0.00     0.020 A 
ATOM     76  C   UNL A   1      39.459  36.110  38.891  1.00  0.00     0.054 A 
BRANCH  76  77
ATOM     77  S   UNL A   1      39.020  37.254  40.229  1.00  0.00     0.124 S 
ATOM     78  O   UNL A   1      38.115  36.443  41.037  1.00  0.00    -0.237 OA
ATOM     79  O   UNL A   1      40.319  37.547  40.832  1.00  0.00    -0.237 OA
ATOM     80  O   UNL A   1      38.401  38.377  39.529  1.00  0.00    -0.744 OA
ENDBRANCH  76  77
ENDBRANCH  48  71
BRANCH  60  81
ATOM     81  C   UNL A   1      45.322  29.914  35.618  1.00  0.00    -0.014 A 
ATOM     82  C   UNL A   1      45.294  28.840  36.526  1.00  0.00     0.010 A 
ATOM     83  C   UNL A   1      46.526  30.614  35.424  1.00  0.00     0.010 A 
ATOM     84  C   UNL A   1      46.441  28.492  37.246  1.00  0.00     0.020 A 
ATOM     85  C   UNL A   1      47.682  30.253  36.122  1.00  0.00     0.020 A 
ATOM     86  C   UNL A   1      47.628  29.202  37.040  1.00  0.00     0.054 A 
BRANCH  86  87
ATOM     87  S   UNL A   1      49.114  28.702  37.953  1.00  0.00     0.124 S 
ATOM     88  O   UNL A   1      49.449  29.923  38.680  1.00  0.00    -0.237 OA
ATOM     89  O   UNL A   1      48.630  27.595  38.774  1.00  0.00    -0.237 OA
ATOM     90  O   UNL A   1      50.056  28.325  36.902  1.00  0.00    -0.744 OA
ENDBRANCH  86  87
ENDBRANCH  60  81
ENDBRANCH  34  35
ENDBRANCH  26  29
ENDBRANCH  24  25
ENDBRANCH  23  24
ENDBRANCH   1  23
TORSDOF 18
ENDMDL
