MODEL 1
REMARK VINA RESULT:     -11.6      0.000      0.000
REMARK SMILES C[C@@H](c1ccccn1)S(=O)(=O)N1CC[NH2+]C[C@@H]1C(=O)NCCCNC(=O)c1ccc(-c2c3nc(c(-c4ccc(S(=O)(=O)[O-])cc4)c4ccc([nH]4)c(-c4ccc(S(=O)(=O)[O-])cc4)c4nc(c(-c5ccc(S(=O)(=O)[O-])cc5)c5ccc2[nH]5)C=C4)C=C3)cc1
REMARK SMILES IDX 22 1 21 2 20 3 18 4 19 5 17 7 12 8 13 9 14 10 16 11 15 12
REMARK SMILES IDX 9 15 10 16 11 17 2 18 1 19 3 20 4 21 8 22 5 23 7 24 6 25
REMARK SMILES IDX 23 26 24 27 25 28 26 30 27 31 28 32 86 33 29 34 85 35 30 36
REMARK SMILES IDX 31 37 32 38 79 39 33 40 84 41 78 42 80 43 34 44 83 45 77 46
REMARK SMILES IDX 76 47 35 49 65 50 46 51 64 52 47 53 50 54 63 55 81 56 48 57
REMARK SMILES IDX 49 58 62 60 82 61 51 62 36 63 37 64 45 65 38 66 44 67 39 68
REMARK SMILES IDX 40 69 41 70 42 71 43 72 66 73 67 74 75 75 68 76 74 77 69 78
REMARK SMILES IDX 70 79 71 80 72 81 73 82 52 83 53 84 61 85 54 86 60 87 55 88
REMARK SMILES IDX 56 89 57 90 58 91 59 92
REMARK H PARENT 20 6 15 13 15 14 24 29 80 48 50 59
REMARK Flexibility Score: inf
ROOT
ATOM      1  C   UNL A   1      32.128  27.828  27.576  1.00  0.00     0.042 C 
ENDROOT
BRANCH   1   2
ATOM      2  C   UNL A   1      31.485  27.040  26.438  1.00  0.00     0.117 C 
BRANCH   2   3
ATOM      3  N   UNL A   1      31.563  25.612  26.660  1.00  0.00    -0.354 N 
ATOM      4  C   UNL A   1      32.105  24.622  25.907  1.00  0.00     0.244 C 
ATOM      5  O   UNL A   1      31.915  23.473  26.327  1.00  0.00    -0.273 OA
ATOM      6  H   UNL A   1      31.153  25.307  27.502  1.00  0.00     0.163 HD
BRANCH   4   7
ATOM      7  C   UNL A   1      32.903  24.905  24.616  1.00  0.00     0.216 C 
ATOM      8  N   UNL A   1      32.034  25.136  23.428  1.00  0.00    -0.177 NA
ATOM      9  C   UNL A   1      31.127  24.011  23.145  1.00  0.00     0.164 C 
ATOM     10  C   UNL A   1      31.947  22.709  22.983  1.00  0.00     0.277 C 
ATOM     11  C   UNL A   1      33.775  23.664  24.313  1.00  0.00     0.291 C 
ATOM     12  N   UNL A   1      32.998  22.439  23.987  1.00  0.00    -0.343 N 
ATOM     13  H   UNL A   1      33.634  21.732  23.618  1.00  0.00     0.346 HD
ATOM     14  H   UNL A   1      32.545  22.113  24.842  1.00  0.00     0.346 HD
BRANCH   8  15
ATOM     15  S   UNL A   1      32.380  26.320  22.307  1.00  0.00     0.223 S 
ATOM     16  O   UNL A   1      31.393  26.161  21.249  1.00  0.00    -0.211 OA
ATOM     17  O   UNL A   1      33.773  26.137  21.960  1.00  0.00    -0.211 OA
BRANCH  15  18
ATOM     18  C   UNL A   1      32.112  28.011  23.009  1.00  0.00     0.170 C 
ATOM     19  C   UNL A   1      33.239  28.976  22.642  1.00  0.00     0.033 C 
BRANCH  18  20
ATOM     20  C   UNL A   1      30.699  28.502  22.776  1.00  0.00     0.060 A 
ATOM     21  C   UNL A   1      29.572  27.898  23.340  1.00  0.00     0.025 A 
ATOM     22  N   UNL A   1      30.552  29.534  21.915  1.00  0.00    -0.260 NA
ATOM     23  C   UNL A   1      28.307  28.444  23.119  1.00  0.00     0.004 A 
ATOM     24  C   UNL A   1      29.318  30.041  21.697  1.00  0.00     0.111 A 
ATOM     25  C   UNL A   1      28.175  29.546  22.290  1.00  0.00     0.020 A 
ENDBRANCH  18  20
ENDBRANCH  15  18
ENDBRANCH   8  15
ENDBRANCH   4   7
ENDBRANCH   2   3
ENDBRANCH   1   2
BRANCH   1  26
ATOM     26  C   UNL A   1      33.423  28.563  27.227  1.00  0.00     0.118 C 
BRANCH  26  27
ATOM     27  N   UNL A   1      33.405  29.985  27.545  1.00  0.00    -0.352 N 
ATOM     28  C   UNL A   1      34.406  30.772  28.068  1.00  0.00     0.251 C 
ATOM     29  H   UNL A   1      32.557  30.449  27.357  1.00  0.00     0.163 HD
ATOM     30  O   UNL A   1      34.178  31.943  28.359  1.00  0.00    -0.269 OA
BRANCH  28  31
ATOM     31  C   UNL A   1      35.745  30.195  28.312  1.00  0.00     0.039 A 
ATOM     32  C   UNL A   1      36.691  30.218  27.282  1.00  0.00     0.014 A 
ATOM     33  C   UNL A   1      36.074  29.655  29.557  1.00  0.00     0.014 A 
ATOM     34  C   UNL A   1      37.995  29.776  27.529  1.00  0.00     0.010 A 
ATOM     35  C   UNL A   1      37.388  29.275  29.818  1.00  0.00     0.010 A 
ATOM     36  C   UNL A   1      38.365  29.340  28.811  1.00  0.00    -0.014 A 
BRANCH  36  37
ATOM     37  C   UNL A   1      39.760  28.939  29.133  1.00  0.00     0.031 A 
ATOM     38  C   UNL A   1      40.699  29.940  29.750  1.00  0.00     0.074 A 
ATOM     39  C   UNL A   1      40.207  27.712  28.796  1.00  0.00     0.049 A 
ATOM     40  N   UNL A   1      41.987  29.848  29.954  1.00  0.00    -0.248 NA
ATOM     41  C   UNL A   1      40.113  31.225  30.168  1.00  0.00     0.031 C 
ATOM     42  C   UNL A   1      39.404  26.651  28.183  1.00  0.00     0.029 A 
ATOM     43  N   UNL A   1      41.458  27.155  28.908  1.00  0.00    -0.354 N 
ATOM     44  C   UNL A   1      42.371  31.068  30.501  1.00  0.00     0.074 A 
ATOM     45  C   UNL A   1      41.187  31.897  30.558  1.00  0.00     0.031 C 
ATOM     46  C   UNL A   1      40.177  25.569  27.988  1.00  0.00     0.029 A 
ATOM     47  C   UNL A   1      41.540  25.872  28.415  1.00  0.00     0.049 A 
ATOM     48  H   UNL A   1      42.224  27.629  29.304  1.00  0.00     0.167 HD
ATOM     49  C   UNL A   1      43.594  31.457  30.934  1.00  0.00     0.031 A 
ATOM     50  C   UNL A   1      42.596  25.042  28.303  1.00  0.00     0.031 A 
ATOM     51  C   UNL A   1      44.766  30.625  30.894  1.00  0.00     0.049 A 
ATOM     52  C   UNL A   1      43.950  25.509  28.768  1.00  0.00     0.074 A 
ATOM     53  C   UNL A   1      46.047  30.921  31.327  1.00  0.00     0.029 A 
ATOM     54  N   UNL A   1      44.797  29.327  30.409  1.00  0.00    -0.354 N 
ATOM     55  N   UNL A   1      44.290  26.661  29.295  1.00  0.00    -0.248 NA
ATOM     56  C   UNL A   1      45.065  24.558  28.630  1.00  0.00     0.031 C 
ATOM     57  C   UNL A   1      46.861  29.813  31.073  1.00  0.00     0.029 A 
ATOM     58  C   UNL A   1      46.075  28.809  30.530  1.00  0.00     0.049 A 
ATOM     59  H   UNL A   1      44.025  28.844  30.033  1.00  0.00     0.167 HD
ATOM     60  C   UNL A   1      45.644  26.557  29.590  1.00  0.00     0.074 A 
ATOM     61  C   UNL A   1      46.063  25.231  29.185  1.00  0.00     0.031 C 
ATOM     62  C   UNL A   1      46.467  27.477  30.150  1.00  0.00     0.031 A 
BRANCH  49  63
ATOM     63  C   UNL A   1      43.723  32.848  31.494  1.00  0.00    -0.014 A 
ATOM     64  C   UNL A   1      44.120  33.920  30.674  1.00  0.00     0.010 A 
ATOM     65  C   UNL A   1      43.404  33.097  32.841  1.00  0.00     0.010 A 
ATOM     66  C   UNL A   1      44.234  35.209  31.200  1.00  0.00     0.020 A 
ATOM     67  C   UNL A   1      43.490  34.390  33.364  1.00  0.00     0.020 A 
ATOM     68  C   UNL A   1      43.920  35.435  32.543  1.00  0.00     0.054 A 
BRANCH  68  69
ATOM     69  S   UNL A   1      44.051  37.124  33.193  1.00  0.00     0.124 S 
ATOM     70  O   UNL A   1      45.392  37.119  33.772  1.00  0.00    -0.237 OA
ATOM     71  O   UNL A   1      43.888  37.943  31.994  1.00  0.00    -0.237 OA
ATOM     72  O   UNL A   1      42.956  37.210  34.156  1.00  0.00    -0.744 OA
ENDBRANCH  68  69
ENDBRANCH  49  63
BRANCH  50  73
ATOM     73  C   UNL A   1      42.423  23.677  27.735  1.00  0.00    -0.014 A 
ATOM     74  C   UNL A   1      42.093  22.596  28.573  1.00  0.00     0.010 A 
ATOM     75  C   UNL A   1      42.615  23.442  26.361  1.00  0.00     0.010 A 
ATOM     76  C   UNL A   1      41.993  21.302  28.055  1.00  0.00     0.020 A 
ATOM     77  C   UNL A   1      42.487  22.153  25.835  1.00  0.00     0.020 A 
ATOM     78  C   UNL A   1      42.195  21.087  26.689  1.00  0.00     0.054 A 
BRANCH  78  79
ATOM     79  S   UNL A   1      42.048  19.401  26.036  1.00  0.00     0.124 S 
ATOM     80  O   UNL A   1      42.906  19.457  24.857  1.00  0.00    -0.237 OA
ATOM     81  O   UNL A   1      42.545  18.588  27.143  1.00  0.00    -0.237 OA
ATOM     82  O   UNL A   1      40.618  19.264  25.766  1.00  0.00    -0.744 OA
ENDBRANCH  78  79
ENDBRANCH  50  73
BRANCH  62  83
ATOM     83  C   UNL A   1      47.888  27.067  30.431  1.00  0.00    -0.014 A 
ATOM     84  C   UNL A   1      48.921  27.329  29.515  1.00  0.00     0.010 A 
ATOM     85  C   UNL A   1      48.200  26.481  31.672  1.00  0.00     0.010 A 
ATOM     86  C   UNL A   1      50.241  26.996  29.830  1.00  0.00     0.020 A 
ATOM     87  C   UNL A   1      49.521  26.170  32.000  1.00  0.00     0.020 A 
ATOM     88  C   UNL A   1      50.534  26.422  31.072  1.00  0.00     0.054 A 
BRANCH  88  89
ATOM     89  S   UNL A   1      52.263  26.066  31.486  1.00  0.00     0.124 S 
ATOM     90  O   UNL A   1      52.915  26.168  30.184  1.00  0.00    -0.237 OA
ATOM     91  O   UNL A   1      52.591  27.125  32.438  1.00  0.00    -0.237 OA
ATOM     92  O   UNL A   1      52.214  24.720  32.055  1.00  0.00    -0.744 OA
ENDBRANCH  88  89
ENDBRANCH  62  83
ENDBRANCH  36  37
ENDBRANCH  28  31
ENDBRANCH  26  27
ENDBRANCH   1  26
TORSDOF 16
ENDMDL
MODEL 2
REMARK VINA RESULT:     -11.3      1.318      3.157
REMARK SMILES C[C@@H](c1ccccn1)S(=O)(=O)N1CC[NH2+]C[C@@H]1C(=O)NCCCNC(=O)c1ccc(-c2c3nc(c(-c4ccc(S(=O)(=O)[O-])cc4)c4ccc([nH]4)c(-c4ccc(S(=O)(=O)[O-])cc4)c4nc(c(-c5ccc(S(=O)(=O)[O-])cc5)c5ccc2[nH]5)C=C4)C=C3)cc1
REMARK SMILES IDX 22 1 21 2 20 3 18 4 19 5 17 7 12 8 13 9 14 10 16 11 15 12
REMARK SMILES IDX 9 15 10 16 11 17 2 18 1 19 3 20 4 21 8 22 5 23 7 24 6 25
REMARK SMILES IDX 23 26 24 27 25 28 26 30 27 31 28 32 86 33 29 34 85 35 30 36
REMARK SMILES IDX 31 37 32 38 79 39 33 40 84 41 78 42 80 43 34 44 83 45 77 46
REMARK SMILES IDX 76 47 35 49 65 50 46 51 64 52 47 53 50 54 63 55 81 56 48 57
REMARK SMILES IDX 49 58 62 60 82 61 51 62 36 63 37 64 45 65 38 66 44 67 39 68
REMARK SMILES IDX 40 69 41 70 42 71 43 72 66 73 67 74 75 75 68 76 74 77 69 78
REMARK SMILES IDX 70 79 71 80 72 81 73 82 52 83 53 84 61 85 54 86 60 87 55 88
REMARK SMILES IDX 56 89 57 90 58 91 59 92
REMARK H PARENT 20 6 15 13 15 14 24 29 80 48 50 59
REMARK Flexibility Score: inf
ROOT
ATOM      1  C   UNL A   1      33.695  28.086  25.898  1.00  0.00     0.042 C 
ENDROOT
BRANCH   1   2
ATOM      2  C   UNL A   1      33.190  29.073  24.849  1.00  0.00     0.117 C 
BRANCH   2   3
ATOM      3  N   UNL A   1      33.676  28.747  23.525  1.00  0.00    -0.354 N 
ATOM      4  C   UNL A   1      33.322  27.759  22.665  1.00  0.00     0.244 C 
ATOM      5  O   UNL A   1      34.007  27.682  21.636  1.00  0.00    -0.273 OA
ATOM      6  H   UNL A   1      34.384  29.345  23.191  1.00  0.00     0.163 HD
BRANCH   4   7
ATOM      7  C   UNL A   1      32.149  26.796  22.947  1.00  0.00     0.216 C 
ATOM      8  N   UNL A   1      32.592  25.458  23.433  1.00  0.00    -0.177 NA
ATOM      9  C   UNL A   1      33.506  24.776  22.501  1.00  0.00     0.164 C 
ATOM     10  C   UNL A   1      32.841  24.664  21.108  1.00  0.00     0.277 C 
ATOM     11  C   UNL A   1      31.387  26.573  21.620  1.00  0.00     0.291 C 
ATOM     12  N   UNL A   1      32.176  25.871  20.574  1.00  0.00    -0.343 N 
ATOM     13  H   UNL A   1      31.552  25.597  19.816  1.00  0.00     0.346 HD
ATOM     14  H   UNL A   1      32.899  26.510  20.239  1.00  0.00     0.346 HD
BRANCH   8  15
ATOM     15  S   UNL A   1      31.786  24.660  24.654  1.00  0.00     0.223 S 
ATOM     16  O   UNL A   1      31.331  23.406  24.071  1.00  0.00    -0.211 OA
ATOM     17  O   UNL A   1      30.780  25.584  25.130  1.00  0.00    -0.211 OA
BRANCH  15  18
ATOM     18  C   UNL A   1      32.934  24.199  26.030  1.00  0.00     0.170 C 
ATOM     19  C   UNL A   1      32.227  23.419  27.138  1.00  0.00     0.033 C 
BRANCH  18  20
ATOM     20  C   UNL A   1      34.230  23.611  25.511  1.00  0.00     0.060 A 
ATOM     21  C   UNL A   1      35.423  24.334  25.430  1.00  0.00     0.025 A 
ATOM     22  N   UNL A   1      34.175  22.344  25.044  1.00  0.00    -0.260 NA
ATOM     23  C   UNL A   1      36.589  23.704  24.990  1.00  0.00     0.004 A 
ATOM     24  C   UNL A   1      35.308  21.753  24.605  1.00  0.00     0.111 A 
ATOM     25  C   UNL A   1      36.536  22.382  24.580  1.00  0.00     0.020 A 
ENDBRANCH  18  20
ENDBRANCH  15  18
ENDBRANCH   8  15
ENDBRANCH   4   7
ENDBRANCH   2   3
ENDBRANCH   1   2
BRANCH   1  26
ATOM     26  C   UNL A   1      33.348  28.423  27.349  1.00  0.00     0.118 C 
BRANCH  26  27
ATOM     27  N   UNL A   1      33.320  29.851  27.639  1.00  0.00    -0.352 N 
ATOM     28  C   UNL A   1      34.323  30.660  28.122  1.00  0.00     0.251 C 
ATOM     29  H   UNL A   1      32.462  30.300  27.462  1.00  0.00     0.163 HD
ATOM     30  O   UNL A   1      34.087  31.834  28.395  1.00  0.00    -0.269 OA
BRANCH  28  31
ATOM     31  C   UNL A   1      35.674  30.104  28.346  1.00  0.00     0.039 A 
ATOM     32  C   UNL A   1      36.590  30.102  27.289  1.00  0.00     0.014 A 
ATOM     33  C   UNL A   1      36.044  29.609  29.598  1.00  0.00     0.014 A 
ATOM     34  C   UNL A   1      37.905  29.681  27.512  1.00  0.00     0.010 A 
ATOM     35  C   UNL A   1      37.369  29.251  29.834  1.00  0.00     0.010 A 
ATOM     36  C   UNL A   1      38.316  29.292  28.797  1.00  0.00    -0.014 A 
BRANCH  36  37
ATOM     37  C   UNL A   1      39.724  28.915  29.092  1.00  0.00     0.031 A 
ATOM     38  C   UNL A   1      40.660  29.935  29.681  1.00  0.00     0.074 A 
ATOM     39  C   UNL A   1      40.183  27.692  28.754  1.00  0.00     0.049 A 
ATOM     40  N   UNL A   1      41.954  29.865  29.857  1.00  0.00    -0.248 NA
ATOM     41  C   UNL A   1      40.063  31.214  30.102  1.00  0.00     0.031 C 
ATOM     42  C   UNL A   1      39.384  26.615  28.166  1.00  0.00     0.029 A 
ATOM     43  N   UNL A   1      41.444  27.156  28.842  1.00  0.00    -0.354 N 
ATOM     44  C   UNL A   1      42.330  31.094  30.387  1.00  0.00     0.074 A 
ATOM     45  C   UNL A   1      41.134  31.906  30.464  1.00  0.00     0.031 C 
ATOM     46  C   UNL A   1      40.170  25.544  27.962  1.00  0.00     0.029 A 
ATOM     47  C   UNL A   1      41.536  25.871  28.356  1.00  0.00     0.049 A 
ATOM     48  H   UNL A   1      42.212  27.645  29.218  1.00  0.00     0.167 HD
ATOM     49  C   UNL A   1      43.555  31.506  30.791  1.00  0.00     0.031 A 
ATOM     50  C   UNL A   1      42.602  25.057  28.228  1.00  0.00     0.031 A 
ATOM     51  C   UNL A   1      44.739  30.692  30.731  1.00  0.00     0.049 A 
ATOM     52  C   UNL A   1      43.959  25.548  28.660  1.00  0.00     0.074 A 
ATOM     53  C   UNL A   1      46.025  31.012  31.134  1.00  0.00     0.029 A 
ATOM     54  N   UNL A   1      44.781  29.391  30.255  1.00  0.00    -0.354 N 
ATOM     55  N   UNL A   1      44.292  26.709  29.171  1.00  0.00    -0.248 NA
ATOM     56  C   UNL A   1      45.085  24.614  28.505  1.00  0.00     0.031 C 
ATOM     57  C   UNL A   1      46.851  29.914  30.870  1.00  0.00     0.029 A 
ATOM     58  C   UNL A   1      46.069  28.894  30.352  1.00  0.00     0.049 A 
ATOM     59  H   UNL A   1      44.009  28.894  29.899  1.00  0.00     0.167 HD
ATOM     60  C   UNL A   1      45.654  26.628  29.437  1.00  0.00     0.074 A 
ATOM     61  C   UNL A   1      46.085  25.307  29.033  1.00  0.00     0.031 C 
ATOM     62  C   UNL A   1      46.474  27.565  29.972  1.00  0.00     0.031 A 
BRANCH  49  63
ATOM     63  C   UNL A   1      43.675  32.903  31.338  1.00  0.00    -0.014 A 
ATOM     64  C   UNL A   1      43.520  33.153  32.714  1.00  0.00     0.010 A 
ATOM     65  C   UNL A   1      43.987  33.971  30.478  1.00  0.00     0.010 A 
ATOM     66  C   UNL A   1      43.636  34.452  33.214  1.00  0.00     0.020 A 
ATOM     67  C   UNL A   1      44.132  35.268  30.979  1.00  0.00     0.020 A 
ATOM     68  C   UNL A   1      43.940  35.502  32.342  1.00  0.00     0.054 A 
BRANCH  68  69
ATOM     69  S   UNL A   1      44.112  37.175  33.024  1.00  0.00     0.124 S 
ATOM     70  O   UNL A   1      45.462  37.134  33.580  1.00  0.00    -0.237 OA
ATOM     71  O   UNL A   1      43.943  38.020  31.845  1.00  0.00    -0.237 OA
ATOM     72  O   UNL A   1      43.035  37.260  34.008  1.00  0.00    -0.744 OA
ENDBRANCH  68  69
ENDBRANCH  49  63
BRANCH  50  73
ATOM     73  C   UNL A   1      42.439  23.685  27.673  1.00  0.00    -0.014 A 
ATOM     74  C   UNL A   1      42.062  22.621  28.512  1.00  0.00     0.010 A 
ATOM     75  C   UNL A   1      42.686  23.427  26.312  1.00  0.00     0.010 A 
ATOM     76  C   UNL A   1      41.970  21.320  28.010  1.00  0.00     0.020 A 
ATOM     77  C   UNL A   1      42.566  22.131  25.800  1.00  0.00     0.020 A 
ATOM     78  C   UNL A   1      42.227  21.082  26.657  1.00  0.00     0.054 A 
BRANCH  78  79
ATOM     79  S   UNL A   1      42.089  19.387  26.024  1.00  0.00     0.124 S 
ATOM     80  O   UNL A   1      40.664  19.293  25.721  1.00  0.00    -0.237 OA
ATOM     81  O   UNL A   1      42.981  19.406  24.868  1.00  0.00    -0.237 OA
ATOM     82  O   UNL A   1      42.548  18.567  27.143  1.00  0.00    -0.744 OA
ENDBRANCH  78  79
ENDBRANCH  50  73
BRANCH  62  83
ATOM     83  C   UNL A   1      47.906  27.180  30.225  1.00  0.00    -0.014 A 
ATOM     84  C   UNL A   1      48.913  27.440  29.280  1.00  0.00     0.010 A 
ATOM     85  C   UNL A   1      48.257  26.620  31.468  1.00  0.00     0.010 A 
ATOM     86  C   UNL A   1      50.245  27.131  29.569  1.00  0.00     0.020 A 
ATOM     87  C   UNL A   1      49.590  26.332  31.769  1.00  0.00     0.020 A 
ATOM     88  C   UNL A   1      50.576  26.582  30.812  1.00  0.00     0.054 A 
BRANCH  88  89
ATOM     89  S   UNL A   1      52.319  26.257  31.190  1.00  0.00     0.124 S 
ATOM     90  O   UNL A   1      52.663  27.391  32.043  1.00  0.00    -0.237 OA
ATOM     91  O   UNL A   1      52.267  24.959  31.859  1.00  0.00    -0.237 OA
ATOM     92  O   UNL A   1      52.963  26.248  29.877  1.00  0.00    -0.744 OA
ENDBRANCH  88  89
ENDBRANCH  62  83
ENDBRANCH  36  37
ENDBRANCH  28  31
ENDBRANCH  26  27
ENDBRANCH   1  26
TORSDOF 16
ENDMDL
MODEL 3
REMARK VINA RESULT:     -11.3      1.648      3.473
REMARK SMILES C[C@@H](c1ccccn1)S(=O)(=O)N1CC[NH2+]C[C@@H]1C(=O)NCCCNC(=O)c1ccc(-c2c3nc(c(-c4ccc(S(=O)(=O)[O-])cc4)c4ccc([nH]4)c(-c4ccc(S(=O)(=O)[O-])cc4)c4nc(c(-c5ccc(S(=O)(=O)[O-])cc5)c5ccc2[nH]5)C=C4)C=C3)cc1
REMARK SMILES IDX 22 1 21 2 20 3 18 4 19 5 17 7 12 8 13 9 14 10 16 11 15 12
REMARK SMILES IDX 9 15 10 16 11 17 2 18 1 19 3 20 4 21 8 22 5 23 7 24 6 25
REMARK SMILES IDX 23 26 24 27 25 28 26 30 27 31 28 32 86 33 29 34 85 35 30 36
REMARK SMILES IDX 31 37 32 38 79 39 33 40 84 41 78 42 80 43 34 44 83 45 77 46
REMARK SMILES IDX 76 47 35 49 65 50 46 51 64 52 47 53 50 54 63 55 81 56 48 57
REMARK SMILES IDX 49 58 62 60 82 61 51 62 36 63 37 64 45 65 38 66 44 67 39 68
REMARK SMILES IDX 40 69 41 70 42 71 43 72 66 73 67 74 75 75 68 76 74 77 69 78
REMARK SMILES IDX 70 79 71 80 72 81 73 82 52 83 53 84 61 85 54 86 60 87 55 88
REMARK SMILES IDX 56 89 57 90 58 91 59 92
REMARK H PARENT 20 6 15 13 15 14 24 29 80 48 50 59
REMARK Flexibility Score: inf
ROOT
ATOM      1  C   UNL A   1      33.989  28.180  25.822  1.00  0.00     0.042 C 
ENDROOT
BRANCH   1   2
ATOM      2  C   UNL A   1      33.008  27.414  24.938  1.00  0.00     0.117 C 
BRANCH   2   3
ATOM      3  N   UNL A   1      31.841  26.981  25.676  1.00  0.00    -0.354 N 
ATOM      4  C   UNL A   1      31.516  25.772  26.198  1.00  0.00     0.244 C 
ATOM      5  O   UNL A   1      30.382  25.696  26.691  1.00  0.00    -0.273 OA
ATOM      6  H   UNL A   1      31.169  27.685  25.825  1.00  0.00     0.163 HD
BRANCH   4   7
ATOM      7  C   UNL A   1      32.489  24.574  26.182  1.00  0.00     0.216 C 
ATOM      8  N   UNL A   1      32.478  23.827  24.893  1.00  0.00    -0.177 NA
ATOM      9  C   UNL A   1      31.145  23.315  24.530  1.00  0.00     0.164 C 
ATOM     10  C   UNL A   1      30.593  22.438  25.680  1.00  0.00     0.277 C 
ATOM     11  C   UNL A   1      32.048  23.587  27.289  1.00  0.00     0.291 C 
ATOM     12  N   UNL A   1      30.718  22.965  27.056  1.00  0.00    -0.343 N 
ATOM     13  H   UNL A   1      30.590  22.199  27.716  1.00  0.00     0.346 HD
ATOM     14  H   UNL A   1      30.004  23.684  27.186  1.00  0.00     0.346 HD
BRANCH   8  15
ATOM     15  S   UNL A   1      33.883  23.259  24.198  1.00  0.00     0.223 S 
ATOM     16  O   UNL A   1      34.816  24.376  24.228  1.00  0.00    -0.211 OA
ATOM     17  O   UNL A   1      33.499  22.738  22.904  1.00  0.00    -0.211 OA
BRANCH  15  18
ATOM     18  C   UNL A   1      34.649  21.923  25.224  1.00  0.00     0.170 C 
ATOM     19  C   UNL A   1      34.321  20.527  24.695  1.00  0.00     0.033 C 
BRANCH  18  20
ATOM     20  C   UNL A   1      36.105  22.206  25.525  1.00  0.00     0.060 A 
ATOM     21  C   UNL A   1      37.136  21.303  25.252  1.00  0.00     0.025 A 
ATOM     22  N   UNL A   1      36.378  23.371  26.155  1.00  0.00    -0.260 NA
ATOM     23  C   UNL A   1      38.461  21.660  25.510  1.00  0.00     0.004 A 
ATOM     24  C   UNL A   1      37.664  23.696  26.415  1.00  0.00     0.111 A 
ATOM     25  C   UNL A   1      38.734  22.888  26.092  1.00  0.00     0.020 A 
ENDBRANCH  18  20
ENDBRANCH  15  18
ENDBRANCH   8  15
ENDBRANCH   4   7
ENDBRANCH   2   3
ENDBRANCH   1   2
BRANCH   1  26
ATOM     26  C   UNL A   1      33.516  28.461  27.250  1.00  0.00     0.118 C 
BRANCH  26  27
ATOM     27  N   UNL A   1      33.485  29.875  27.599  1.00  0.00    -0.352 N 
ATOM     28  C   UNL A   1      34.480  30.660  28.137  1.00  0.00     0.251 C 
ATOM     29  H   UNL A   1      32.632  30.335  27.424  1.00  0.00     0.163 HD
ATOM     30  O   UNL A   1      34.241  31.822  28.455  1.00  0.00    -0.269 OA
BRANCH  28  31
ATOM     31  C   UNL A   1      35.825  30.091  28.364  1.00  0.00     0.039 A 
ATOM     32  C   UNL A   1      36.762  30.130  27.327  1.00  0.00     0.014 A 
ATOM     33  C   UNL A   1      36.169  29.543  29.602  1.00  0.00     0.014 A 
ATOM     34  C   UNL A   1      38.071  29.695  27.558  1.00  0.00     0.010 A 
ATOM     35  C   UNL A   1      37.488  29.171  29.849  1.00  0.00     0.010 A 
ATOM     36  C   UNL A   1      38.455  29.251  28.833  1.00  0.00    -0.014 A 
BRANCH  36  37
ATOM     37  C   UNL A   1      39.856  28.858  29.141  1.00  0.00     0.031 A 
ATOM     38  C   UNL A   1      40.797  29.865  29.745  1.00  0.00     0.074 A 
ATOM     39  C   UNL A   1      40.305  27.633  28.800  1.00  0.00     0.049 A 
ATOM     40  N   UNL A   1      42.088  29.780  29.934  1.00  0.00    -0.248 NA
ATOM     41  C   UNL A   1      40.209  31.147  30.167  1.00  0.00     0.031 C 
ATOM     42  C   UNL A   1      39.501  26.567  28.198  1.00  0.00     0.029 A 
ATOM     43  N   UNL A   1      41.561  27.082  28.898  1.00  0.00    -0.354 N 
ATOM     44  C   UNL A   1      42.472  31.002  30.475  1.00  0.00     0.074 A 
ATOM     45  C   UNL A   1      41.284  31.826  30.544  1.00  0.00     0.031 C 
ATOM     46  C   UNL A   1      40.278  25.489  27.996  1.00  0.00     0.029 A 
ATOM     47  C   UNL A   1      41.644  25.799  28.406  1.00  0.00     0.049 A 
ATOM     48  H   UNL A   1      42.329  27.561  29.285  1.00  0.00     0.167 HD
ATOM     49  C   UNL A   1      43.697  31.398  30.894  1.00  0.00     0.031 A 
ATOM     50  C   UNL A   1      42.702  24.975  28.283  1.00  0.00     0.031 A 
ATOM     51  C   UNL A   1      44.873  30.572  30.841  1.00  0.00     0.049 A 
ATOM     52  C   UNL A   1      44.059  25.449  28.732  1.00  0.00     0.074 A 
ATOM     53  C   UNL A   1      46.158  30.876  31.258  1.00  0.00     0.029 A 
ATOM     54  N   UNL A   1      44.906  29.273  30.358  1.00  0.00    -0.354 N 
ATOM     55  N   UNL A   1      44.399  26.603  29.253  1.00  0.00    -0.248 NA
ATOM     56  C   UNL A   1      45.177  24.504  28.583  1.00  0.00     0.031 C 
ATOM     57  C   UNL A   1      46.975  29.771  30.997  1.00  0.00     0.029 A 
ATOM     58  C   UNL A   1      46.188  28.762  30.465  1.00  0.00     0.049 A 
ATOM     59  H   UNL A   1      44.132  28.787  29.991  1.00  0.00     0.167 HD
ATOM     60  C   UNL A   1      45.758  26.506  29.533  1.00  0.00     0.074 A 
ATOM     61  C   UNL A   1      46.179  25.183  29.125  1.00  0.00     0.031 C 
ATOM     62  C   UNL A   1      46.582  27.432  30.081  1.00  0.00     0.031 A 
BRANCH  49  63
ATOM     63  C   UNL A   1      43.826  32.791  31.450  1.00  0.00    -0.014 A 
ATOM     64  C   UNL A   1      43.565  33.050  32.808  1.00  0.00     0.010 A 
ATOM     65  C   UNL A   1      44.253  33.843  30.620  1.00  0.00     0.010 A 
ATOM     66  C   UNL A   1      43.691  34.345  33.317  1.00  0.00     0.020 A 
ATOM     67  C   UNL A   1      44.406  35.134  31.133  1.00  0.00     0.020 A 
ATOM     68  C   UNL A   1      44.109  35.379  32.475  1.00  0.00     0.054 A 
BRANCH  68  69
ATOM     69  S   UNL A   1      44.289  37.046  33.170  1.00  0.00     0.124 S 
ATOM     70  O   UNL A   1      43.728  37.876  32.108  1.00  0.00    -0.237 OA
ATOM     71  O   UNL A   1      43.496  36.970  34.394  1.00  0.00    -0.237 OA
ATOM     72  O   UNL A   1      45.730  37.182  33.372  1.00  0.00    -0.744 OA
ENDBRANCH  68  69
ENDBRANCH  49  63
BRANCH  50  73
ATOM     73  C   UNL A   1      42.530  23.608  27.719  1.00  0.00    -0.014 A 
ATOM     74  C   UNL A   1      42.297  22.513  28.571  1.00  0.00     0.010 A 
ATOM     75  C   UNL A   1      42.626  23.386  26.333  1.00  0.00     0.010 A 
ATOM     76  C   UNL A   1      42.199  21.219  28.052  1.00  0.00     0.020 A 
ATOM     77  C   UNL A   1      42.499  22.096  25.808  1.00  0.00     0.020 A 
ATOM     78  C   UNL A   1      42.305  21.018  26.673  1.00  0.00     0.054 A 
BRANCH  78  79
ATOM     79  S   UNL A   1      42.162  19.331  26.020  1.00  0.00     0.124 S 
ATOM     80  O   UNL A   1      42.705  18.535  27.118  1.00  0.00    -0.237 OA
ATOM     81  O   UNL A   1      40.725  19.199  25.794  1.00  0.00    -0.237 OA
ATOM     82  O   UNL A   1      42.976  19.364  24.807  1.00  0.00    -0.744 OA
ENDBRANCH  78  79
ENDBRANCH  50  73
BRANCH  62  83
ATOM     83  C   UNL A   1      48.008  27.029  30.347  1.00  0.00    -0.014 A 
ATOM     84  C   UNL A   1      49.042  27.363  29.455  1.00  0.00     0.010 A 
ATOM     85  C   UNL A   1      48.323  26.375  31.552  1.00  0.00     0.010 A 
ATOM     86  C   UNL A   1      50.365  27.034  29.759  1.00  0.00     0.020 A 
ATOM     87  C   UNL A   1      49.648  26.067  31.870  1.00  0.00     0.020 A 
ATOM     88  C   UNL A   1      50.661  26.391  30.966  1.00  0.00     0.054 A 
BRANCH  88  89
ATOM     89  S   UNL A   1      52.394  26.040  31.369  1.00  0.00     0.124 S 
ATOM     90  O   UNL A   1      53.024  26.068  30.053  1.00  0.00    -0.237 OA
ATOM     91  O   UNL A   1      52.747  27.144  32.259  1.00  0.00    -0.237 OA
ATOM     92  O   UNL A   1      52.342  24.726  32.007  1.00  0.00    -0.744 OA
ENDBRANCH  88  89
ENDBRANCH  62  83
ENDBRANCH  36  37
ENDBRANCH  28  31
ENDBRANCH  26  27
ENDBRANCH   1  26
TORSDOF 16
ENDMDL
