MODEL 1
REMARK VINA RESULT:     -10.4      0.000      0.000
REMARK SMILES C[C@@](NC(=O)CCOC1CC[NH2+]CC1)(C(=O)NCCCNC(=O)c1ccc(-c2c3nc(c(-c4ccc(S(=O)(=O)[O-])cc4)c4ccc([nH]4)c(-c4ccc(S(=O)(=O)[O-])cc4)c4nc(c(-c5ccc(S(=O)(=O)[O-])cc5)c5ccc2[nH]5)C=C4)C=C3)cc1)C(F)(F)F
REMARK SMILES IDX 18 1 17 2 15 3 16 4 2 6 1 7 3 8 4 9 5 11 6 12 7 13 8 14 9 15
REMARK SMILES IDX 10 16 14 17 11 18 13 19 12 20 84 23 85 24 86 25 87 26 19 27
REMARK SMILES IDX 20 28 21 29 22 30 23 32 24 33 25 34 83 35 26 36 82 37 27 38
REMARK SMILES IDX 28 39 29 40 76 41 30 42 81 43 75 44 77 45 31 46 80 47 74 48
REMARK SMILES IDX 73 49 32 51 62 52 43 53 61 54 44 55 47 56 60 57 78 58 45 59
REMARK SMILES IDX 46 60 59 62 79 63 48 64 33 65 34 66 42 67 35 68 41 69 36 70
REMARK SMILES IDX 37 71 38 72 39 73 40 74 63 75 64 76 72 77 65 78 71 79 66 80
REMARK SMILES IDX 67 81 68 82 69 83 70 84 49 85 50 86 58 87 51 88 57 89 52 90
REMARK SMILES IDX 53 91 54 92 55 93 56 94
REMARK H PARENT 17 5 3 10 12 21 12 22 21 31 77 50 47 61
REMARK Flexibility Score: inf
ROOT
ATOM      1  C   UNL A   1      33.294  29.011  24.817  1.00  0.00     0.117 C 
ENDROOT
BRANCH   1   2
ATOM      2  N   UNL A   1      33.862  28.232  23.737  1.00  0.00    -0.354 N 
ATOM      3  C   UNL A   1      33.240  27.366  22.882  1.00  0.00     0.254 C 
ATOM      4  O   UNL A   1      33.765  27.280  21.767  1.00  0.00    -0.272 OA
ATOM      5  H   UNL A   1      34.830  28.341  23.600  1.00  0.00     0.163 HD
BRANCH   3   6
ATOM      6  C   UNL A   1      31.965  26.553  23.239  1.00  0.00     0.212 C 
ATOM      7  C   UNL A   1      31.718  25.478  22.153  1.00  0.00     0.056 C 
BRANCH   6   8
ATOM      8  N   UNL A   1      31.896  25.838  24.556  1.00  0.00    -0.334 N 
ATOM      9  C   UNL A   1      32.894  25.566  25.441  1.00  0.00     0.223 C 
ATOM     10  H   UNL A   1      31.002  25.520  24.818  1.00  0.00     0.164 HD
ATOM     11  O   UNL A   1      32.754  25.907  26.613  1.00  0.00    -0.275 OA
BRANCH   9  12
ATOM     12  C   UNL A   1      33.991  24.630  25.025  1.00  0.00     0.128 C 
BRANCH  12  13
ATOM     13  C   UNL A   1      34.343  23.685  26.178  1.00  0.00     0.170 C 
BRANCH  13  14
ATOM     14  O   UNL A   1      35.580  22.977  26.069  1.00  0.00    -0.377 OA
BRANCH  14  15
ATOM     15  C   UNL A   1      36.498  23.293  25.009  1.00  0.00     0.129 C 
ATOM     16  C   UNL A   1      36.876  22.141  24.084  1.00  0.00     0.093 C 
ATOM     17  C   UNL A   1      37.773  23.841  25.661  1.00  0.00     0.093 C 
ATOM     18  C   UNL A   1      37.650  21.072  24.844  1.00  0.00     0.263 C 
ATOM     19  C   UNL A   1      38.524  22.729  26.382  1.00  0.00     0.263 C 
ATOM     20  N   UNL A   1      38.851  21.630  25.467  1.00  0.00    -0.346 N 
ATOM     21  H   UNL A   1      39.470  21.981  24.736  1.00  0.00     0.346 HD
ATOM     22  H   UNL A   1      39.302  20.891  26.006  1.00  0.00     0.346 HD
ENDBRANCH  14  15
ENDBRANCH  13  14
ENDBRANCH  12  13
ENDBRANCH   9  12
ENDBRANCH   6   8
BRANCH   6  23
ATOM     23  C   UNL A   1      30.787  27.559  23.130  1.00  0.00     0.420 C 
ATOM     24  F   UNL A   1      30.541  28.209  24.289  1.00  0.00    -0.168 F 
ATOM     25  F   UNL A   1      31.102  28.523  22.216  1.00  0.00    -0.168 F 
ATOM     26  F   UNL A   1      29.641  26.992  22.697  1.00  0.00    -0.168 F 
ENDBRANCH   6  23
ENDBRANCH   3   6
ENDBRANCH   1   2
BRANCH   1  27
ATOM     27  C   UNL A   1      34.131  29.038  26.084  1.00  0.00     0.042 C 
BRANCH  27  28
ATOM     28  C   UNL A   1      33.327  29.374  27.338  1.00  0.00     0.118 C 
BRANCH  28  29
ATOM     29  N   UNL A   1      33.615  30.691  27.912  1.00  0.00    -0.352 N 
ATOM     30  C   UNL A   1      34.790  31.184  28.443  1.00  0.00     0.251 C 
ATOM     31  H   UNL A   1      32.857  31.319  27.919  1.00  0.00     0.163 HD
ATOM     32  O   UNL A   1      34.832  32.325  28.899  1.00  0.00    -0.269 OA
BRANCH  30  33
ATOM     33  C   UNL A   1      35.976  30.305  28.536  1.00  0.00     0.039 A 
ATOM     34  C   UNL A   1      36.881  30.271  27.471  1.00  0.00     0.014 A 
ATOM     35  C   UNL A   1      36.259  29.621  29.716  1.00  0.00     0.014 A 
ATOM     36  C   UNL A   1      38.138  29.686  27.651  1.00  0.00     0.010 A 
ATOM     37  C   UNL A   1      37.546  29.148  29.931  1.00  0.00     0.010 A 
ATOM     38  C   UNL A   1      38.516  29.204  28.914  1.00  0.00    -0.014 A 
BRANCH  38  39
ATOM     39  C   UNL A   1      39.911  28.798  29.240  1.00  0.00     0.031 A 
ATOM     40  C   UNL A   1      40.864  29.812  29.820  1.00  0.00     0.074 A 
ATOM     41  C   UNL A   1      40.371  27.582  28.873  1.00  0.00     0.049 A 
ATOM     42  N   UNL A   1      42.166  29.762  29.918  1.00  0.00    -0.248 NA
ATOM     43  C   UNL A   1      40.272  31.074  30.294  1.00  0.00     0.031 C 
ATOM     44  C   UNL A   1      39.579  26.515  28.255  1.00  0.00     0.029 A 
ATOM     45  N   UNL A   1      41.636  27.046  28.945  1.00  0.00    -0.354 N 
ATOM     46  C   UNL A   1      42.554  31.007  30.401  1.00  0.00     0.074 A 
ATOM     47  C   UNL A   1      41.352  31.801  30.538  1.00  0.00     0.031 C 
ATOM     48  C   UNL A   1      40.364  25.450  28.033  1.00  0.00     0.029 A 
ATOM     49  C   UNL A   1      41.728  25.771  28.434  1.00  0.00     0.049 A 
ATOM     50  H   UNL A   1      42.403  27.529  29.328  1.00  0.00     0.167 HD
ATOM     51  C   UNL A   1      43.795  31.447  30.717  1.00  0.00     0.031 A 
ATOM     52  C   UNL A   1      42.792  24.957  28.284  1.00  0.00     0.031 A 
ATOM     53  C   UNL A   1      44.978  30.633  30.646  1.00  0.00     0.049 A 
ATOM     54  C   UNL A   1      44.152  25.440  28.709  1.00  0.00     0.074 A 
ATOM     55  C   UNL A   1      46.271  30.960  31.014  1.00  0.00     0.029 A 
ATOM     56  N   UNL A   1      45.006  29.320  30.202  1.00  0.00    -0.354 N 
ATOM     57  N   UNL A   1      44.494  26.613  29.185  1.00  0.00    -0.248 NA
ATOM     58  C   UNL A   1      45.267  24.491  28.582  1.00  0.00     0.031 C 
ATOM     59  C   UNL A   1      47.086  29.850  30.773  1.00  0.00     0.029 A 
ATOM     60  C   UNL A   1      46.292  28.820  30.295  1.00  0.00     0.049 A 
ATOM     61  H   UNL A   1      44.227  28.819  29.871  1.00  0.00     0.167 HD
ATOM     62  C   UNL A   1      45.856  26.530  29.449  1.00  0.00     0.074 A 
ATOM     63  C   UNL A   1      46.276  25.193  29.081  1.00  0.00     0.031 C 
ATOM     64  C   UNL A   1      46.684  27.477  29.953  1.00  0.00     0.031 A 
BRANCH  51  65
ATOM     65  C   UNL A   1      43.930  32.875  31.174  1.00  0.00    -0.014 A 
ATOM     66  C   UNL A   1      44.077  33.924  30.249  1.00  0.00     0.010 A 
ATOM     67  C   UNL A   1      43.894  33.176  32.549  1.00  0.00     0.010 A 
ATOM     68  C   UNL A   1      44.248  35.238  30.689  1.00  0.00     0.020 A 
ATOM     69  C   UNL A   1      44.033  34.494  32.992  1.00  0.00     0.020 A 
ATOM     70  C   UNL A   1      44.233  35.514  32.059  1.00  0.00     0.054 A 
BRANCH  70  71
ATOM     71  S   UNL A   1      44.457  37.228  32.605  1.00  0.00     0.124 S 
ATOM     72  O   UNL A   1      45.717  37.147  33.340  1.00  0.00    -0.237 OA
ATOM     73  O   UNL A   1      44.513  37.964  31.344  1.00  0.00    -0.237 OA
ATOM     74  O   UNL A   1      43.274  37.488  33.423  1.00  0.00    -0.744 OA
ENDBRANCH  70  71
ENDBRANCH  51  65
BRANCH  52  75
ATOM     75  C   UNL A   1      42.611  23.586  27.732  1.00  0.00    -0.014 A 
ATOM     76  C   UNL A   1      42.788  23.351  26.357  1.00  0.00     0.010 A 
ATOM     77  C   UNL A   1      42.279  22.508  28.571  1.00  0.00     0.010 A 
ATOM     78  C   UNL A   1      42.618  22.069  25.827  1.00  0.00     0.020 A 
ATOM     79  C   UNL A   1      42.131  21.219  28.049  1.00  0.00     0.020 A 
ATOM     80  C   UNL A   1      42.291  21.009  26.678  1.00  0.00     0.054 A 
BRANCH  80  81
ATOM     81  S   UNL A   1      42.126  19.343  25.976  1.00  0.00     0.124 S 
ATOM     82  O   UNL A   1      42.614  18.506  27.067  1.00  0.00    -0.237 OA
ATOM     83  O   UNL A   1      40.694  19.255  25.702  1.00  0.00    -0.237 OA
ATOM     84  O   UNL A   1      42.977  19.389  24.790  1.00  0.00    -0.744 OA
ENDBRANCH  80  81
ENDBRANCH  52  75
BRANCH  64  85
ATOM     85  C   UNL A   1      48.116  27.093  30.204  1.00  0.00    -0.014 A 
ATOM     86  C   UNL A   1      49.093  27.224  29.204  1.00  0.00     0.010 A 
ATOM     87  C   UNL A   1      48.500  26.688  31.496  1.00  0.00     0.010 A 
ATOM     88  C   UNL A   1      50.433  26.949  29.490  1.00  0.00     0.020 A 
ATOM     89  C   UNL A   1      49.840  26.433  31.790  1.00  0.00     0.020 A 
ATOM     90  C   UNL A   1      50.799  26.560  30.783  1.00  0.00     0.054 A 
BRANCH  90  91
ATOM     91  S   UNL A   1      52.554  26.290  31.152  1.00  0.00     0.124 S 
ATOM     92  O   UNL A   1      52.524  25.011  31.855  1.00  0.00    -0.237 OA
ATOM     93  O   UNL A   1      53.162  26.263  29.824  1.00  0.00    -0.237 OA
ATOM     94  O   UNL A   1      52.917  27.444  31.973  1.00  0.00    -0.744 OA
ENDBRANCH  90  91
ENDBRANCH  64  85
ENDBRANCH  38  39
ENDBRANCH  30  33
ENDBRANCH  28  29
ENDBRANCH  27  28
ENDBRANCH   1  27
TORSDOF 19
ENDMDL
MODEL 2
REMARK VINA RESULT:     -10.1      2.585      3.279
REMARK SMILES C[C@@](NC(=O)CCOC1CC[NH2+]CC1)(C(=O)NCCCNC(=O)c1ccc(-c2c3nc(c(-c4ccc(S(=O)(=O)[O-])cc4)c4ccc([nH]4)c(-c4ccc(S(=O)(=O)[O-])cc4)c4nc(c(-c5ccc(S(=O)(=O)[O-])cc5)c5ccc2[nH]5)C=C4)C=C3)cc1)C(F)(F)F
REMARK SMILES IDX 18 1 17 2 15 3 16 4 2 6 1 7 3 8 4 9 5 11 6 12 7 13 8 14 9 15
REMARK SMILES IDX 10 16 14 17 11 18 13 19 12 20 84 23 85 24 86 25 87 26 19 27
REMARK SMILES IDX 20 28 21 29 22 30 23 32 24 33 25 34 83 35 26 36 82 37 27 38
REMARK SMILES IDX 28 39 29 40 76 41 30 42 81 43 75 44 77 45 31 46 80 47 74 48
REMARK SMILES IDX 73 49 32 51 62 52 43 53 61 54 44 55 47 56 60 57 78 58 45 59
REMARK SMILES IDX 46 60 59 62 79 63 48 64 33 65 34 66 42 67 35 68 41 69 36 70
REMARK SMILES IDX 37 71 38 72 39 73 40 74 63 75 64 76 72 77 65 78 71 79 66 80
REMARK SMILES IDX 67 81 68 82 69 83 70 84 49 85 50 86 58 87 51 88 57 89 52 90
REMARK SMILES IDX 53 91 54 92 55 93 56 94
REMARK H PARENT 17 5 3 10 12 21 12 22 21 31 77 50 47 61
REMARK Flexibility Score: inf
ROOT
ATOM      1  C   UNL A   1      33.698  29.292  25.446  1.00  0.00     0.117 C 
ENDROOT
BRANCH   1   2
ATOM      2  N   UNL A   1      32.558  29.598  24.607  1.00  0.00    -0.354 N 
ATOM      3  C   UNL A   1      31.487  28.810  24.291  1.00  0.00     0.254 C 
ATOM      4  O   UNL A   1      30.442  29.431  24.065  1.00  0.00    -0.272 OA
ATOM      5  H   UNL A   1      32.554  30.498  24.210  1.00  0.00     0.163 HD
BRANCH   3   6
ATOM      6  C   UNL A   1      31.534  27.258  24.229  1.00  0.00     0.212 C 
ATOM      7  C   UNL A   1      30.337  26.739  23.395  1.00  0.00     0.056 C 
BRANCH   6   8
ATOM      8  N   UNL A   1      32.753  26.584  23.672  1.00  0.00    -0.334 N 
ATOM      9  C   UNL A   1      32.866  25.764  22.591  1.00  0.00     0.223 C 
ATOM     10  H   UNL A   1      33.592  26.759  24.157  1.00  0.00     0.164 HD
ATOM     11  O   UNL A   1      33.696  26.037  21.726  1.00  0.00    -0.275 OA
BRANCH   9  12
ATOM     12  C   UNL A   1      32.180  24.430  22.624  1.00  0.00     0.128 C 
BRANCH  12  13
ATOM     13  C   UNL A   1      33.121  23.368  23.201  1.00  0.00     0.170 C 
BRANCH  13  14
ATOM     14  O   UNL A   1      33.398  23.453  24.601  1.00  0.00    -0.377 OA
BRANCH  14  15
ATOM     15  C   UNL A   1      34.540  22.775  25.151  1.00  0.00     0.129 C 
ATOM     16  C   UNL A   1      34.653  21.287  24.833  1.00  0.00     0.093 C 
ATOM     17  C   UNL A   1      34.484  22.951  26.674  1.00  0.00     0.093 C 
ATOM     18  C   UNL A   1      33.507  20.512  25.471  1.00  0.00     0.263 C 
ATOM     19  C   UNL A   1      33.341  22.134  27.264  1.00  0.00     0.263 C 
ATOM     20  N   UNL A   1      33.471  20.715  26.920  1.00  0.00    -0.346 N 
ATOM     21  H   UNL A   1      34.335  20.354  27.325  1.00  0.00     0.346 HD
ATOM     22  H   UNL A   1      32.659  20.222  27.290  1.00  0.00     0.346 HD
ENDBRANCH  14  15
ENDBRANCH  13  14
ENDBRANCH  12  13
ENDBRANCH   9  12
ENDBRANCH   6   8
BRANCH   6  23
ATOM     23  C   UNL A   1      31.292  26.776  25.685  1.00  0.00     0.420 C 
ATOM     24  F   UNL A   1      32.384  26.205  26.239  1.00  0.00    -0.168 F 
ATOM     25  F   UNL A   1      30.990  27.852  26.470  1.00  0.00    -0.168 F 
ATOM     26  F   UNL A   1      30.250  25.926  25.798  1.00  0.00    -0.168 F 
ENDBRANCH   6  23
ENDBRANCH   3   6
ENDBRANCH   1   2
BRANCH   1  27
ATOM     27  C   UNL A   1      33.620  29.866  26.850  1.00  0.00     0.042 C 
BRANCH  27  28
ATOM     28  C   UNL A   1      34.801  29.473  27.734  1.00  0.00     0.118 C 
BRANCH  28  29
ATOM     29  N   UNL A   1      35.131  30.448  28.778  1.00  0.00    -0.352 N 
ATOM     30  C   UNL A   1      36.326  30.666  29.436  1.00  0.00     0.251 C 
ATOM     31  H   UNL A   1      34.390  31.034  29.052  1.00  0.00     0.163 HD
ATOM     32  O   UNL A   1      36.403  31.530  30.306  1.00  0.00    -0.269 OA
BRANCH  30  33
ATOM     33  C   UNL A   1      37.489  29.800  29.144  1.00  0.00     0.039 A 
ATOM     34  C   UNL A   1      37.990  29.752  27.839  1.00  0.00     0.014 A 
ATOM     35  C   UNL A   1      38.158  29.144  30.174  1.00  0.00     0.014 A 
ATOM     36  C   UNL A   1      39.245  29.183  27.602  1.00  0.00     0.010 A 
ATOM     37  C   UNL A   1      39.452  28.689  29.958  1.00  0.00     0.010 A 
ATOM     38  C   UNL A   1      40.028  28.732  28.676  1.00  0.00    -0.014 A 
BRANCH  38  39
ATOM     39  C   UNL A   1      41.459  28.347  28.526  1.00  0.00     0.031 A 
ATOM     40  C   UNL A   1      42.524  29.411  28.575  1.00  0.00     0.074 A 
ATOM     41  C   UNL A   1      41.793  27.082  28.190  1.00  0.00     0.049 A 
ATOM     42  N   UNL A   1      43.775  29.349  28.201  1.00  0.00    -0.248 NA
ATOM     43  C   UNL A   1      42.104  30.740  29.051  1.00  0.00     0.031 C 
ATOM     44  C   UNL A   1      40.865  25.955  28.056  1.00  0.00     0.029 A 
ATOM     45  N   UNL A   1      43.015  26.535  27.873  1.00  0.00    -0.354 N 
ATOM     46  C   UNL A   1      44.271  30.641  28.332  1.00  0.00     0.074 A 
ATOM     47  C   UNL A   1      43.176  31.471  28.785  1.00  0.00     0.031 C 
ATOM     48  C   UNL A   1      41.550  24.853  27.714  1.00  0.00     0.029 A 
ATOM     49  C   UNL A   1      42.956  25.199  27.545  1.00  0.00     0.049 A 
ATOM     50  H   UNL A   1      43.853  27.050  27.880  1.00  0.00     0.167 HD
ATOM     51  C   UNL A   1      45.528  31.095  28.113  1.00  0.00     0.031 A 
ATOM     52  C   UNL A   1      43.918  24.349  27.134  1.00  0.00     0.031 A 
ATOM     53  C   UNL A   1      46.630  30.254  27.731  1.00  0.00     0.049 A 
ATOM     54  C   UNL A   1      45.324  24.859  26.966  1.00  0.00     0.074 A 
ATOM     55  C   UNL A   1      47.957  30.602  27.557  1.00  0.00     0.029 A 
ATOM     56  N   UNL A   1      46.538  28.891  27.494  1.00  0.00    -0.354 N 
ATOM     57  N   UNL A   1      45.778  26.079  27.118  1.00  0.00    -0.248 NA
ATOM     58  C   UNL A   1      46.347  23.878  26.576  1.00  0.00     0.031 C 
ATOM     59  C   UNL A   1      48.666  29.452  27.193  1.00  0.00     0.029 A 
ATOM     60  C   UNL A   1      47.785  28.382  27.183  1.00  0.00     0.049 A 
ATOM     61  H   UNL A   1      45.707  28.365  27.541  1.00  0.00     0.167 HD
ATOM     62  C   UNL A   1      47.145  26.006  26.879  1.00  0.00     0.074 A 
ATOM     63  C   UNL A   1      47.446  24.622  26.573  1.00  0.00     0.031 C 
ATOM     64  C   UNL A   1      48.069  26.996  26.912  1.00  0.00     0.031 A 
BRANCH  51  65
ATOM     65  C   UNL A   1      45.774  32.569  28.288  1.00  0.00    -0.014 A 
ATOM     66  C   UNL A   1      46.355  33.075  29.465  1.00  0.00     0.010 A 
ATOM     67  C   UNL A   1      45.433  33.463  27.256  1.00  0.00     0.010 A 
ATOM     68  C   UNL A   1      46.533  34.450  29.633  1.00  0.00     0.020 A 
ATOM     69  C   UNL A   1      45.639  34.837  27.407  1.00  0.00     0.020 A 
ATOM     70  C   UNL A   1      46.166  35.323  28.605  1.00  0.00     0.054 A 
BRANCH  70  71
ATOM     71  S   UNL A   1      46.408  37.104  28.847  1.00  0.00     0.124 S 
ATOM     72  O   UNL A   1      47.101  37.139  30.133  1.00  0.00    -0.237 OA
ATOM     73  O   UNL A   1      47.216  37.480  27.690  1.00  0.00    -0.237 OA
ATOM     74  O   UNL A   1      45.049  37.640  28.857  1.00  0.00    -0.744 OA
ENDBRANCH  70  71
ENDBRANCH  51  65
BRANCH  52  75
ATOM     75  C   UNL A   1      43.594  22.918  26.880  1.00  0.00    -0.014 A 
ATOM     76  C   UNL A   1      44.003  22.304  25.684  1.00  0.00     0.010 A 
ATOM     77  C   UNL A   1      42.890  22.158  27.832  1.00  0.00     0.010 A 
ATOM     78  C   UNL A   1      43.701  20.963  25.433  1.00  0.00     0.020 A 
ATOM     79  C   UNL A   1      42.607  20.809  27.595  1.00  0.00     0.020 A 
ATOM     80  C   UNL A   1      43.004  20.222  26.393  1.00  0.00     0.054 A 
BRANCH  80  81
ATOM     81  S   UNL A   1      42.668  18.468  26.070  1.00  0.00     0.124 S 
ATOM     82  O   UNL A   1      41.247  18.487  25.743  1.00  0.00    -0.237 OA
ATOM     83  O   UNL A   1      43.570  18.172  24.959  1.00  0.00    -0.237 OA
ATOM     84  O   UNL A   1      43.014  17.819  27.332  1.00  0.00    -0.744 OA
ENDBRANCH  80  81
ENDBRANCH  52  75
BRANCH  64  85
ATOM     85  C   UNL A   1      49.506  26.622  26.678  1.00  0.00    -0.014 A 
ATOM     86  C   UNL A   1      50.287  26.051  27.696  1.00  0.00     0.010 A 
ATOM     87  C   UNL A   1      50.047  26.755  25.385  1.00  0.00     0.010 A 
ATOM     88  C   UNL A   1      51.591  25.625  27.428  1.00  0.00     0.020 A 
ATOM     89  C   UNL A   1      51.342  26.312  25.109  1.00  0.00     0.020 A 
ATOM     90  C   UNL A   1      52.108  25.754  26.135  1.00  0.00     0.054 A 
BRANCH  90  91
ATOM     91  S   UNL A   1      53.771  25.119  25.790  1.00  0.00     0.124 S 
ATOM     92  O   UNL A   1      53.489  23.766  25.319  1.00  0.00    -0.237 OA
ATOM     93  O   UNL A   1      54.267  26.047  24.776  1.00  0.00    -0.237 OA
ATOM     94  O   UNL A   1      54.448  25.200  27.083  1.00  0.00    -0.744 OA
ENDBRANCH  90  91
ENDBRANCH  64  85
ENDBRANCH  38  39
ENDBRANCH  30  33
ENDBRANCH  28  29
ENDBRANCH  27  28
ENDBRANCH   1  27
TORSDOF 19
ENDMDL
MODEL 3
REMARK VINA RESULT:      -9.8      2.151      8.547
REMARK SMILES C[C@@](NC(=O)CCOC1CC[NH2+]CC1)(C(=O)NCCCNC(=O)c1ccc(-c2c3nc(c(-c4ccc(S(=O)(=O)[O-])cc4)c4ccc([nH]4)c(-c4ccc(S(=O)(=O)[O-])cc4)c4nc(c(-c5ccc(S(=O)(=O)[O-])cc5)c5ccc2[nH]5)C=C4)C=C3)cc1)C(F)(F)F
REMARK SMILES IDX 18 1 17 2 15 3 16 4 2 6 1 7 3 8 4 9 5 11 6 12 7 13 8 14 9 15
REMARK SMILES IDX 10 16 14 17 11 18 13 19 12 20 84 23 85 24 86 25 87 26 19 27
REMARK SMILES IDX 20 28 21 29 22 30 23 32 24 33 25 34 83 35 26 36 82 37 27 38
REMARK SMILES IDX 28 39 29 40 76 41 30 42 81 43 75 44 77 45 31 46 80 47 74 48
REMARK SMILES IDX 73 49 32 51 62 52 43 53 61 54 44 55 47 56 60 57 78 58 45 59
REMARK SMILES IDX 46 60 59 62 79 63 48 64 33 65 34 66 42 67 35 68 41 69 36 70
REMARK SMILES IDX 37 71 38 72 39 73 40 74 63 75 64 76 72 77 65 78 71 79 66 80
REMARK SMILES IDX 67 81 68 82 69 83 70 84 49 85 50 86 58 87 51 88 57 89 52 90
REMARK SMILES IDX 53 91 54 92 55 93 56 94
REMARK H PARENT 17 5 3 10 12 21 12 22 21 31 77 50 47 61
REMARK Flexibility Score: inf
ROOT
ATOM      1  C   UNL A   1      33.260  27.000  25.311  1.00  0.00     0.117 C 
ENDROOT
BRANCH   1   2
ATOM      2  N   UNL A   1      33.747  26.741  23.973  1.00  0.00    -0.354 N 
ATOM      3  C   UNL A   1      33.781  25.560  23.284  1.00  0.00     0.254 C 
ATOM      4  O   UNL A   1      33.695  25.680  22.057  1.00  0.00    -0.272 OA
ATOM      5  H   UNL A   1      34.103  27.523  23.493  1.00  0.00     0.163 HD
BRANCH   3   6
ATOM      6  C   UNL A   1      33.897  24.163  23.953  1.00  0.00     0.212 C 
ATOM      7  C   UNL A   1      34.419  23.137  22.918  1.00  0.00     0.056 C 
BRANCH   6   8
ATOM      8  N   UNL A   1      34.760  24.003  25.170  1.00  0.00    -0.334 N 
ATOM      9  C   UNL A   1      35.545  22.952  25.536  1.00  0.00     0.223 C 
ATOM     10  H   UNL A   1      34.759  24.766  25.792  1.00  0.00     0.164 HD
ATOM     11  O   UNL A   1      36.727  23.163  25.802  1.00  0.00    -0.275 OA
BRANCH   9  12
ATOM     12  C   UNL A   1      34.890  21.644  25.866  1.00  0.00     0.128 C 
BRANCH  12  13
ATOM     13  C   UNL A   1      35.602  20.500  25.137  1.00  0.00     0.170 C 
BRANCH  13  14
ATOM     14  O   UNL A   1      34.781  19.419  24.689  1.00  0.00    -0.377 OA
BRANCH  14  15
ATOM     15  C   UNL A   1      33.361  19.455  24.908  1.00  0.00     0.129 C 
ATOM     16  C   UNL A   1      32.817  18.476  25.944  1.00  0.00     0.093 C 
ATOM     17  C   UNL A   1      32.685  19.175  23.560  1.00  0.00     0.093 C 
ATOM     18  C   UNL A   1      33.013  17.039  25.479  1.00  0.00     0.263 C 
ATOM     19  C   UNL A   1      32.886  17.719  23.156  1.00  0.00     0.263 C 
ATOM     20  N   UNL A   1      32.371  16.808  24.184  1.00  0.00    -0.346 N 
ATOM     21  H   UNL A   1      31.366  16.954  24.283  1.00  0.00     0.346 HD
ATOM     22  H   UNL A   1      32.576  15.853  23.894  1.00  0.00     0.346 HD
ENDBRANCH  14  15
ENDBRANCH  13  14
ENDBRANCH  12  13
ENDBRANCH   9  12
ENDBRANCH   6   8
BRANCH   6  23
ATOM     23  C   UNL A   1      32.441  23.740  24.288  1.00  0.00     0.420 C 
ATOM     24  F   UNL A   1      32.180  22.453  23.972  1.00  0.00    -0.168 F 
ATOM     25  F   UNL A   1      32.242  23.846  25.635  1.00  0.00    -0.168 F 
ATOM     26  F   UNL A   1      31.511  24.529  23.709  1.00  0.00    -0.168 F 
ENDBRANCH   6  23
ENDBRANCH   3   6
ENDBRANCH   1   2
BRANCH   1  27
ATOM     27  C   UNL A   1      33.463  28.427  25.791  1.00  0.00     0.042 C 
BRANCH  27  28
ATOM     28  C   UNL A   1      33.103  28.632  27.260  1.00  0.00     0.118 C 
BRANCH  28  29
ATOM     29  N   UNL A   1      33.186  30.021  27.720  1.00  0.00    -0.352 N 
ATOM     30  C   UNL A   1      34.280  30.741  28.160  1.00  0.00     0.251 C 
ATOM     31  H   UNL A   1      32.335  30.515  27.715  1.00  0.00     0.163 HD
ATOM     32  O   UNL A   1      34.146  31.906  28.526  1.00  0.00    -0.269 OA
BRANCH  30  33
ATOM     33  C   UNL A   1      35.598  30.077  28.264  1.00  0.00     0.039 A 
ATOM     34  C   UNL A   1      36.447  30.075  27.153  1.00  0.00     0.014 A 
ATOM     35  C   UNL A   1      36.042  29.576  29.485  1.00  0.00     0.014 A 
ATOM     36  C   UNL A   1      37.790  29.720  27.312  1.00  0.00     0.010 A 
ATOM     37  C   UNL A   1      37.399  29.341  29.666  1.00  0.00     0.010 A 
ATOM     38  C   UNL A   1      38.299  29.442  28.591  1.00  0.00    -0.014 A 
BRANCH  38  39
ATOM     39  C   UNL A   1      39.755  29.301  28.867  1.00  0.00     0.031 A 
ATOM     40  C   UNL A   1      40.450  28.002  28.552  1.00  0.00     0.074 A 
ATOM     41  C   UNL A   1      40.417  30.267  29.541  1.00  0.00     0.049 A 
ATOM     42  N   UNL A   1      41.616  27.568  28.953  1.00  0.00    -0.248 NA
ATOM     43  C   UNL A   1      39.703  27.041  27.724  1.00  0.00     0.031 C 
ATOM     44  C   UNL A   1      39.862  31.558  29.959  1.00  0.00     0.029 A 
ATOM     45  N   UNL A   1      41.707  30.299  30.020  1.00  0.00    -0.354 N 
ATOM     46  C   UNL A   1      41.712  26.262  28.485  1.00  0.00     0.074 A 
ATOM     47  C   UNL A   1      40.471  25.965  27.803  1.00  0.00     0.031 C 
ATOM     48  C   UNL A   1      40.807  32.262  30.601  1.00  0.00     0.029 A 
ATOM     49  C   UNL A   1      42.018  31.456  30.698  1.00  0.00     0.049 A 
ATOM     50  H   UNL A   1      42.347  29.564  29.889  1.00  0.00     0.167 HD
ATOM     51  C   UNL A   1      42.744  25.393  28.598  1.00  0.00     0.031 A 
ATOM     52  C   UNL A   1      43.143  31.824  31.343  1.00  0.00     0.031 A 
ATOM     53  C   UNL A   1      44.002  25.716  29.215  1.00  0.00     0.049 A 
ATOM     54  C   UNL A   1      44.305  30.869  31.394  1.00  0.00     0.074 A 
ATOM     55  C   UNL A   1      45.137  24.932  29.315  1.00  0.00     0.029 A 
ATOM     56  N   UNL A   1      44.299  26.931  29.812  1.00  0.00    -0.354 N 
ATOM     57  N   UNL A   1      44.385  29.648  30.924  1.00  0.00    -0.248 NA
ATOM     58  C   UNL A   1      45.529  31.343  32.056  1.00  0.00     0.031 C 
ATOM     59  C   UNL A   1      46.116  25.666  29.991  1.00  0.00     0.029 A 
ATOM     60  C   UNL A   1      45.602  26.922  30.275  1.00  0.00     0.049 A 
ATOM     61  H   UNL A   1      43.675  27.687  29.894  1.00  0.00     0.167 HD
ATOM     62  C   UNL A   1      45.678  29.221  31.201  1.00  0.00     0.074 A 
ATOM     63  C   UNL A   1      46.347  30.313  31.878  1.00  0.00     0.031 C 
ATOM     64  C   UNL A   1      46.259  28.030  30.918  1.00  0.00     0.031 A 
BRANCH  51  65
ATOM     65  C   UNL A   1      42.552  24.011  28.033  1.00  0.00    -0.014 A 
ATOM     66  C   UNL A   1      42.032  22.969  28.822  1.00  0.00     0.010 A 
ATOM     67  C   UNL A   1      42.882  23.751  26.690  1.00  0.00     0.010 A 
ATOM     68  C   UNL A   1      41.904  21.681  28.299  1.00  0.00     0.020 A 
ATOM     69  C   UNL A   1      42.725  22.471  26.153  1.00  0.00     0.020 A 
ATOM     70  C   UNL A   1      42.259  21.438  26.969  1.00  0.00     0.054 A 
BRANCH  70  71
ATOM     71  S   UNL A   1      42.082  19.757  26.314  1.00  0.00     0.124 S 
ATOM     72  O   UNL A   1      42.975  19.791  25.158  1.00  0.00    -0.237 OA
ATOM     73  O   UNL A   1      42.532  18.926  27.428  1.00  0.00    -0.237 OA
ATOM     74  O   UNL A   1      40.659  19.656  25.999  1.00  0.00    -0.744 OA
ENDBRANCH  70  71
ENDBRANCH  51  65
BRANCH  52  75
ATOM     75  C   UNL A   1      43.239  33.171  31.970  1.00  0.00    -0.014 A 
ATOM     76  C   UNL A   1      42.862  33.352  33.312  1.00  0.00     0.010 A 
ATOM     77  C   UNL A   1      43.718  34.274  31.241  1.00  0.00     0.010 A 
ATOM     78  C   UNL A   1      42.945  34.613  33.910  1.00  0.00     0.020 A 
ATOM     79  C   UNL A   1      43.825  35.532  31.842  1.00  0.00     0.020 A 
ATOM     80  C   UNL A   1      43.427  35.696  33.170  1.00  0.00     0.054 A 
BRANCH  80  81
ATOM     81  S   UNL A   1      43.576  37.313  33.982  1.00  0.00     0.124 S 
ATOM     82  O   UNL A   1      44.710  37.102  34.874  1.00  0.00    -0.237 OA
ATOM     83  O   UNL A   1      43.814  38.212  32.855  1.00  0.00    -0.237 OA
ATOM     84  O   UNL A   1      42.282  37.483  34.639  1.00  0.00    -0.744 OA
ENDBRANCH  80  81
ENDBRANCH  52  75
BRANCH  64  85
ATOM     85  C   UNL A   1      47.710  27.857  31.274  1.00  0.00    -0.014 A 
ATOM     86  C   UNL A   1      48.099  27.290  32.499  1.00  0.00     0.010 A 
ATOM     87  C   UNL A   1      48.693  28.179  30.319  1.00  0.00     0.010 A 
ATOM     88  C   UNL A   1      49.450  27.055  32.767  1.00  0.00     0.020 A 
ATOM     89  C   UNL A   1      50.041  27.926  30.576  1.00  0.00     0.020 A 
ATOM     90  C   UNL A   1      50.412  27.369  31.801  1.00  0.00     0.054 A 
BRANCH  90  91
ATOM     91  S   UNL A   1      52.150  26.977  32.138  1.00  0.00     0.124 S 
ATOM     92  O   UNL A   1      52.459  26.025  31.075  1.00  0.00    -0.237 OA
ATOM     93  O   UNL A   1      52.802  28.280  32.024  1.00  0.00    -0.237 OA
ATOM     94  O   UNL A   1      52.124  26.417  33.487  1.00  0.00    -0.744 OA
ENDBRANCH  90  91
ENDBRANCH  64  85
ENDBRANCH  38  39
ENDBRANCH  30  33
ENDBRANCH  28  29
ENDBRANCH  27  28
ENDBRANCH   1  27
TORSDOF 19
ENDMDL
