MODEL 1
REMARK VINA RESULT:     -13.7      0.000      0.000
REMARK SMILES Cc1ccc(C)c(-c2cc(C(=O)NCCCNC(=O)c3ccc(-c4c5nc(c(-c6ccc(S(=O)(=O)[O-])cc6)c6ccc([nH]6)c(-c6ccc(S(=O)(=O)[O-])cc6)c6nc(c(-c7ccc(S(=O)(=O)[O-])cc7)c7ccc4[nH]7)C=C6)C=C5)cc3)c3cc(C)ccc3n2)c1
REMARK SMILES IDX 16 1 15 2 14 3 13 4 11 5 12 6 10 8 8 9 9 10 87 11 86 12
REMARK SMILES IDX 80 13 85 14 81 15 84 16 82 17 83 18 7 19 1 20 2 21 3 22
REMARK SMILES IDX 88 23 4 24 5 25 6 26 17 27 18 28 19 30 20 31 21 32 79 33
REMARK SMILES IDX 22 34 78 35 23 36 24 37 25 38 72 39 26 40 77 41 71 42 73 43
REMARK SMILES IDX 27 44 76 45 70 46 69 47 28 49 58 50 39 51 57 52 40 53 43 54
REMARK SMILES IDX 56 55 74 56 41 57 42 58 55 60 75 61 44 62 29 63 30 64 38 65
REMARK SMILES IDX 31 66 37 67 32 68 33 69 34 70 35 71 36 72 59 73 60 74 68 75
REMARK SMILES IDX 61 76 67 77 62 78 63 79 64 80 65 81 66 82 45 83 46 84 54 85
REMARK SMILES IDX 47 86 53 87 48 88 49 89 50 90 51 91 52 92
REMARK H PARENT 13 7 17 29 73 48 43 59
REMARK Flexibility Score: inf
ROOT
ATOM      1  C   UNL A   1      39.649  23.026  27.081  1.00  0.00     0.118 C 
ENDROOT
BRANCH   1   2
ATOM      2  C   UNL A   1      38.872  24.207  26.570  1.00  0.00     0.042 C 
BRANCH   2   3
ATOM      3  C   UNL A   1      37.570  23.789  25.930  1.00  0.00     0.118 C 
BRANCH   3   4
ATOM      4  N   UNL A   1      37.543  23.252  24.577  1.00  0.00    -0.352 N 
ATOM      5  C   UNL A   1      36.446  23.154  23.730  1.00  0.00     0.252 C 
ATOM      6  O   UNL A   1      36.617  22.881  22.545  1.00  0.00    -0.269 OA
ATOM      7  H   UNL A   1      38.400  22.922  24.221  1.00  0.00     0.163 HD
BRANCH   5   8
ATOM      8  C   UNL A   1      35.057  23.252  24.265  1.00  0.00     0.051 A 
ATOM      9  C   UNL A   1      33.114  24.608  24.395  1.00  0.00     0.072 A 
ATOM     10  C   UNL A   1      34.484  24.522  24.233  1.00  0.00     0.043 A 
ATOM     11  N   UNL A   1      32.319  23.506  24.414  1.00  0.00    -0.248 NA
ATOM     12  C   UNL A   1      32.889  22.295  24.469  1.00  0.00     0.072 A 
ATOM     13  C   UNL A   1      34.271  22.126  24.587  1.00  0.00     0.013 A 
ATOM     14  C   UNL A   1      32.105  21.155  24.341  1.00  0.00     0.029 A 
ATOM     15  C   UNL A   1      34.783  20.841  24.882  1.00  0.00     0.014 A 
ATOM     16  C   UNL A   1      32.659  19.869  24.360  1.00  0.00     0.005 A 
ATOM     17  C   UNL A   1      34.008  19.701  24.661  1.00  0.00    -0.050 A 
ATOM     18  C   UNL A   1      34.674  18.362  24.514  1.00  0.00     0.044 C 
BRANCH   9  19
ATOM     19  C   UNL A   1      32.429  25.882  24.653  1.00  0.00     0.003 A 
ATOM     20  C   UNL A   1      31.599  28.165  27.614  1.00  0.00     0.044 C 
ATOM     21  C   UNL A   1      31.696  27.617  26.220  1.00  0.00    -0.050 A 
ATOM     22  C   UNL A   1      31.127  28.328  25.160  1.00  0.00     0.004 A 
ATOM     23  C   UNL A   1      32.344  26.402  25.959  1.00  0.00     0.014 A 
ATOM     24  C   UNL A   1      31.191  27.828  23.862  1.00  0.00     0.004 A 
ATOM     25  C   UNL A   1      31.820  26.601  23.596  1.00  0.00    -0.042 A 
ATOM     26  C   UNL A   1      31.835  26.118  22.168  1.00  0.00     0.045 C 
ENDBRANCH   9  19
ENDBRANCH   5   8
ENDBRANCH   3   4
ENDBRANCH   2   3
ENDBRANCH   1   2
BRANCH   1  27
ATOM     27  N   UNL A   1      40.574  22.342  26.195  1.00  0.00    -0.352 N 
ATOM     28  C   UNL A   1      41.948  22.551  26.077  1.00  0.00     0.251 C 
ATOM     29  H   UNL A   1      40.188  21.650  25.611  1.00  0.00     0.163 HD
ATOM     30  O   UNL A   1      42.597  21.849  25.320  1.00  0.00    -0.269 OA
BRANCH  28  31
ATOM     31  C   UNL A   1      42.634  23.620  26.870  1.00  0.00     0.039 A 
ATOM     32  C   UNL A   1      43.021  23.393  28.199  1.00  0.00     0.014 A 
ATOM     33  C   UNL A   1      42.700  24.934  26.409  1.00  0.00     0.014 A 
ATOM     34  C   UNL A   1      43.140  24.514  29.038  1.00  0.00     0.010 A 
ATOM     35  C   UNL A   1      43.443  25.828  27.110  1.00  0.00     0.010 A 
ATOM     36  C   UNL A   1      43.115  25.769  28.443  1.00  0.00    -0.014 A 
BRANCH  36  37
ATOM     37  C   UNL A   1      42.604  27.018  29.003  1.00  0.00     0.031 A 
ATOM     38  C   UNL A   1      43.443  28.200  28.684  1.00  0.00     0.074 A 
ATOM     39  C   UNL A   1      41.325  27.338  29.302  1.00  0.00     0.049 A 
ATOM     40  N   UNL A   1      44.416  28.662  29.390  1.00  0.00    -0.248 NA
ATOM     41  C   UNL A   1      43.320  28.806  27.344  1.00  0.00     0.031 C 
ATOM     42  C   UNL A   1      40.074  26.613  29.079  1.00  0.00     0.029 A 
ATOM     43  N   UNL A   1      40.898  28.534  29.803  1.00  0.00    -0.354 N 
ATOM     44  C   UNL A   1      44.917  29.732  28.668  1.00  0.00     0.074 A 
ATOM     45  C   UNL A   1      44.397  29.592  27.330  1.00  0.00     0.031 C 
ATOM     46  C   UNL A   1      39.026  27.453  29.299  1.00  0.00     0.029 A 
ATOM     47  C   UNL A   1      39.526  28.721  29.814  1.00  0.00     0.049 A 
ATOM     48  H   UNL A   1      41.524  29.217  30.136  1.00  0.00     0.167 HD
ATOM     49  C   UNL A   1      45.526  30.791  29.266  1.00  0.00     0.031 A 
ATOM     50  C   UNL A   1      38.891  29.860  30.194  1.00  0.00     0.031 A 
ATOM     51  C   UNL A   1      45.585  30.624  30.700  1.00  0.00     0.049 A 
ATOM     52  C   UNL A   1      39.867  30.690  30.956  1.00  0.00     0.074 A 
ATOM     53  C   UNL A   1      46.151  29.703  31.558  1.00  0.00     0.029 A 
ATOM     54  N   UNL A   1      44.597  31.259  31.423  1.00  0.00    -0.354 N 
ATOM     55  N   UNL A   1      40.403  30.333  32.091  1.00  0.00    -0.248 NA
ATOM     56  C   UNL A   1      40.536  31.795  30.287  1.00  0.00     0.031 C 
ATOM     57  C   UNL A   1      45.192  29.521  32.600  1.00  0.00     0.029 A 
ATOM     58  C   UNL A   1      44.107  30.366  32.346  1.00  0.00     0.049 A 
ATOM     59  H   UNL A   1      44.294  32.188  31.298  1.00  0.00     0.167 HD
ATOM     60  C   UNL A   1      41.679  30.879  32.084  1.00  0.00     0.074 A 
ATOM     61  C   UNL A   1      41.649  31.877  31.023  1.00  0.00     0.031 C 
ATOM     62  C   UNL A   1      42.711  30.275  32.747  1.00  0.00     0.031 A 
BRANCH  49  63
ATOM     63  C   UNL A   1      45.752  32.126  28.613  1.00  0.00    -0.014 A 
ATOM     64  C   UNL A   1      47.070  32.608  28.500  1.00  0.00     0.010 A 
ATOM     65  C   UNL A   1      44.713  33.011  28.261  1.00  0.00     0.010 A 
ATOM     66  C   UNL A   1      47.331  33.917  28.082  1.00  0.00     0.020 A 
ATOM     67  C   UNL A   1      44.962  34.300  27.790  1.00  0.00     0.020 A 
ATOM     68  C   UNL A   1      46.271  34.757  27.736  1.00  0.00     0.054 A 
BRANCH  68  69
ATOM     69  S   UNL A   1      46.607  36.473  27.278  1.00  0.00     0.124 S 
ATOM     70  O   UNL A   1      45.396  37.146  27.736  1.00  0.00    -0.237 OA
ATOM     71  O   UNL A   1      47.823  36.768  28.032  1.00  0.00    -0.237 OA
ATOM     72  O   UNL A   1      46.782  36.412  25.827  1.00  0.00    -0.744 OA
ENDBRANCH  68  69
ENDBRANCH  49  63
BRANCH  50  73
ATOM     73  C   UNL A   1      37.572  30.404  29.786  1.00  0.00    -0.014 A 
ATOM     74  C   UNL A   1      36.742  31.060  30.718  1.00  0.00     0.010 A 
ATOM     75  C   UNL A   1      37.248  30.526  28.421  1.00  0.00     0.010 A 
ATOM     76  C   UNL A   1      35.667  31.862  30.296  1.00  0.00     0.020 A 
ATOM     77  C   UNL A   1      36.174  31.320  27.993  1.00  0.00     0.020 A 
ATOM     78  C   UNL A   1      35.404  32.005  28.932  1.00  0.00     0.054 A 
BRANCH  78  79
ATOM     79  S   UNL A   1      34.134  33.188  28.388  1.00  0.00     0.124 S 
ATOM     80  O   UNL A   1      33.675  33.758  29.651  1.00  0.00    -0.237 OA
ATOM     81  O   UNL A   1      34.891  34.092  27.526  1.00  0.00    -0.237 OA
ATOM     82  O   UNL A   1      33.157  32.350  27.693  1.00  0.00    -0.744 OA
ENDBRANCH  78  79
ENDBRANCH  50  73
BRANCH  62  83
ATOM     83  C   UNL A   1      42.369  29.224  33.787  1.00  0.00    -0.014 A 
ATOM     84  C   UNL A   1      41.995  27.904  33.467  1.00  0.00     0.010 A 
ATOM     85  C   UNL A   1      42.558  29.549  35.143  1.00  0.00     0.010 A 
ATOM     86  C   UNL A   1      41.797  26.944  34.471  1.00  0.00     0.020 A 
ATOM     87  C   UNL A   1      42.383  28.592  36.149  1.00  0.00     0.020 A 
ATOM     88  C   UNL A   1      41.997  27.294  35.808  1.00  0.00     0.054 A 
BRANCH  88  89
ATOM     89  S   UNL A   1      41.815  26.026  37.093  1.00  0.00     0.124 S 
ATOM     90  O   UNL A   1      40.424  26.188  37.506  1.00  0.00    -0.237 OA
ATOM     91  O   UNL A   1      42.120  24.790  36.376  1.00  0.00    -0.237 OA
ATOM     92  O   UNL A   1      42.807  26.406  38.099  1.00  0.00    -0.744 OA
ENDBRANCH  88  89
ENDBRANCH  62  83
ENDBRANCH  36  37
ENDBRANCH  28  31
ENDBRANCH   1  27
TORSDOF 14
ENDMDL
MODEL 2
REMARK VINA RESULT:     -13.5      2.559      9.086
REMARK SMILES Cc1ccc(C)c(-c2cc(C(=O)NCCCNC(=O)c3ccc(-c4c5nc(c(-c6ccc(S(=O)(=O)[O-])cc6)c6ccc([nH]6)c(-c6ccc(S(=O)(=O)[O-])cc6)c6nc(c(-c7ccc(S(=O)(=O)[O-])cc7)c7ccc4[nH]7)C=C6)C=C5)cc3)c3cc(C)ccc3n2)c1
REMARK SMILES IDX 16 1 15 2 14 3 13 4 11 5 12 6 10 8 8 9 9 10 87 11 86 12
REMARK SMILES IDX 80 13 85 14 81 15 84 16 82 17 83 18 7 19 1 20 2 21 3 22
REMARK SMILES IDX 88 23 4 24 5 25 6 26 17 27 18 28 19 30 20 31 21 32 79 33
REMARK SMILES IDX 22 34 78 35 23 36 24 37 25 38 72 39 26 40 77 41 71 42 73 43
REMARK SMILES IDX 27 44 76 45 70 46 69 47 28 49 58 50 39 51 57 52 40 53 43 54
REMARK SMILES IDX 56 55 74 56 41 57 42 58 55 60 75 61 44 62 29 63 30 64 38 65
REMARK SMILES IDX 31 66 37 67 32 68 33 69 34 70 35 71 36 72 59 73 60 74 68 75
REMARK SMILES IDX 61 76 67 77 62 78 63 79 64 80 65 81 66 82 45 83 46 84 54 85
REMARK SMILES IDX 47 86 53 87 48 88 49 89 50 90 51 91 52 92
REMARK H PARENT 13 7 17 29 73 48 43 59
REMARK Flexibility Score: inf
ROOT
ATOM      1  C   UNL A   1      35.689  31.032  28.310  1.00  0.00     0.118 C 
ENDROOT
BRANCH   1   2
ATOM      2  C   UNL A   1      35.365  29.624  27.897  1.00  0.00     0.042 C 
BRANCH   2   3
ATOM      3  C   UNL A   1      34.114  29.559  27.055  1.00  0.00     0.118 C 
BRANCH   3   4
ATOM      4  N   UNL A   1      32.834  29.198  27.647  1.00  0.00    -0.352 N 
ATOM      5  C   UNL A   1      32.029  28.112  27.321  1.00  0.00     0.252 C 
ATOM      6  O   UNL A   1      31.087  27.815  28.050  1.00  0.00    -0.269 OA
ATOM      7  H   UNL A   1      32.501  29.789  28.360  1.00  0.00     0.163 HD
BRANCH   5   8
ATOM      8  C   UNL A   1      32.217  27.382  26.034  1.00  0.00     0.051 A 
ATOM      9  C   UNL A   1      32.724  25.286  25.044  1.00  0.00     0.072 A 
ATOM     10  C   UNL A   1      32.829  26.133  26.130  1.00  0.00     0.043 A 
ATOM     11  N   UNL A   1      31.919  25.566  23.985  1.00  0.00    -0.248 NA
ATOM     12  C   UNL A   1      31.360  26.781  23.898  1.00  0.00     0.072 A 
ATOM     13  C   UNL A   1      31.635  27.796  24.818  1.00  0.00     0.013 A 
ATOM     14  C   UNL A   1      30.420  27.040  22.908  1.00  0.00     0.029 A 
ATOM     15  C   UNL A   1      31.207  29.114  24.535  1.00  0.00     0.014 A 
ATOM     16  C   UNL A   1      29.785  28.283  22.798  1.00  0.00     0.005 A 
ATOM     17  C   UNL A   1      30.197  29.345  23.599  1.00  0.00    -0.050 A 
ATOM     18  C   UNL A   1      29.424  30.633  23.636  1.00  0.00     0.044 C 
BRANCH   9  19
ATOM     19  C   UNL A   1      33.540  24.072  24.908  1.00  0.00     0.003 A 
ATOM     20  C   UNL A   1      36.710  22.913  23.097  1.00  0.00     0.044 C 
ATOM     21  C   UNL A   1      35.485  22.918  23.965  1.00  0.00    -0.050 A 
ATOM     22  C   UNL A   1      35.121  21.755  24.648  1.00  0.00     0.004 A 
ATOM     23  C   UNL A   1      34.695  24.068  24.102  1.00  0.00     0.014 A 
ATOM     24  C   UNL A   1      33.978  21.734  25.443  1.00  0.00     0.004 A 
ATOM     25  C   UNL A   1      33.170  22.875  25.568  1.00  0.00    -0.042 A 
ATOM     26  C   UNL A   1      31.941  22.771  26.436  1.00  0.00     0.045 C 
ENDBRANCH   9  19
ENDBRANCH   5   8
ENDBRANCH   3   4
ENDBRANCH   2   3
ENDBRANCH   1   2
BRANCH   1  27
ATOM     27  N   UNL A   1      34.840  31.707  29.276  1.00  0.00    -0.352 N 
ATOM     28  C   UNL A   1      35.171  32.093  30.575  1.00  0.00     0.251 C 
ATOM     29  H   UNL A   1      33.924  31.918  28.979  1.00  0.00     0.163 HD
ATOM     30  O   UNL A   1      34.355  32.706  31.242  1.00  0.00    -0.269 OA
BRANCH  28  31
ATOM     31  C   UNL A   1      36.513  31.770  31.153  1.00  0.00     0.039 A 
ATOM     32  C   UNL A   1      37.557  32.706  31.116  1.00  0.00     0.014 A 
ATOM     33  C   UNL A   1      36.845  30.470  31.531  1.00  0.00     0.014 A 
ATOM     34  C   UNL A   1      38.872  32.211  31.151  1.00  0.00     0.010 A 
ATOM     35  C   UNL A   1      38.028  30.263  32.165  1.00  0.00     0.010 A 
ATOM     36  C   UNL A   1      39.046  30.870  31.471  1.00  0.00    -0.014 A 
BRANCH  36  37
ATOM     37  C   UNL A   1      40.093  29.965  31.004  1.00  0.00     0.031 A 
ATOM     38  C   UNL A   1      40.964  29.452  32.091  1.00  0.00     0.074 A 
ATOM     39  C   UNL A   1      40.085  29.172  29.910  1.00  0.00     0.049 A 
ATOM     40  N   UNL A   1      42.062  29.982  32.509  1.00  0.00    -0.248 NA
ATOM     41  C   UNL A   1      40.457  28.354  32.937  1.00  0.00     0.031 C 
ATOM     42  C   UNL A   1      39.034  28.891  28.932  1.00  0.00     0.029 A 
ATOM     43  N   UNL A   1      41.085  28.323  29.532  1.00  0.00    -0.354 N 
ATOM     44  C   UNL A   1      42.480  29.180  33.557  1.00  0.00     0.074 A 
ATOM     45  C   UNL A   1      41.338  28.388  33.939  1.00  0.00     0.031 C 
ATOM     46  C   UNL A   1      39.403  27.824  28.172  1.00  0.00     0.029 A 
ATOM     47  C   UNL A   1      40.768  27.442  28.513  1.00  0.00     0.049 A 
ATOM     48  H   UNL A   1      41.975  28.338  29.956  1.00  0.00     0.167 HD
ATOM     49  C   UNL A   1      43.793  29.042  33.886  1.00  0.00     0.031 A 
ATOM     50  C   UNL A   1      41.582  26.464  28.037  1.00  0.00     0.031 A 
ATOM     51  C   UNL A   1      44.639  29.839  33.028  1.00  0.00     0.049 A 
ATOM     52  C   UNL A   1      42.967  26.763  28.500  1.00  0.00     0.074 A 
ATOM     53  C   UNL A   1      44.761  31.185  32.748  1.00  0.00     0.029 A 
ATOM     54  N   UNL A   1      45.218  29.176  31.967  1.00  0.00    -0.354 N 
ATOM     55  N   UNL A   1      43.645  27.820  28.149  1.00  0.00    -0.248 NA
ATOM     56  C   UNL A   1      43.500  26.052  29.652  1.00  0.00     0.031 C 
ATOM     57  C   UNL A   1      45.005  31.256  31.342  1.00  0.00     0.029 A 
ATOM     58  C   UNL A   1      45.055  29.950  30.843  1.00  0.00     0.049 A 
ATOM     59  H   UNL A   1      45.668  28.300  32.007  1.00  0.00     0.167 HD
ATOM     60  C   UNL A   1      44.432  28.136  29.247  1.00  0.00     0.074 A 
ATOM     61  C   UNL A   1      44.405  26.939  30.078  1.00  0.00     0.031 C 
ATOM     62  C   UNL A   1      44.796  29.428  29.510  1.00  0.00     0.031 A 
BRANCH  49  63
ATOM     63  C   UNL A   1      44.347  27.934  34.738  1.00  0.00    -0.014 A 
ATOM     64  C   UNL A   1      44.671  26.709  34.124  1.00  0.00     0.010 A 
ATOM     65  C   UNL A   1      44.398  27.980  36.146  1.00  0.00     0.010 A 
ATOM     66  C   UNL A   1      45.004  25.582  34.885  1.00  0.00     0.020 A 
ATOM     67  C   UNL A   1      44.783  26.880  36.912  1.00  0.00     0.020 A 
ATOM     68  C   UNL A   1      45.050  25.676  36.276  1.00  0.00     0.054 A 
BRANCH  68  69
ATOM     69  S   UNL A   1      45.398  24.197  37.258  1.00  0.00     0.124 S 
ATOM     70  O   UNL A   1      46.855  24.230  37.339  1.00  0.00    -0.237 OA
ATOM     71  O   UNL A   1      44.686  24.473  38.503  1.00  0.00    -0.237 OA
ATOM     72  O   UNL A   1      44.836  23.114  36.453  1.00  0.00    -0.744 OA
ENDBRANCH  68  69
ENDBRANCH  49  63
BRANCH  50  73
ATOM     73  C   UNL A   1      41.250  25.171  27.387  1.00  0.00    -0.014 A 
ATOM     74  C   UNL A   1      42.193  24.506  26.578  1.00  0.00     0.010 A 
ATOM     75  C   UNL A   1      40.106  24.453  27.784  1.00  0.00     0.010 A 
ATOM     76  C   UNL A   1      42.031  23.153  26.235  1.00  0.00     0.020 A 
ATOM     77  C   UNL A   1      39.934  23.104  27.441  1.00  0.00     0.020 A 
ATOM     78  C   UNL A   1      40.911  22.453  26.688  1.00  0.00     0.054 A 
BRANCH  78  79
ATOM     79  S   UNL A   1      40.802  20.661  26.399  1.00  0.00     0.124 S 
ATOM     80  O   UNL A   1      41.987  20.402  25.587  1.00  0.00    -0.237 OA
ATOM     81  O   UNL A   1      40.834  20.118  27.754  1.00  0.00    -0.237 OA
ATOM     82  O   UNL A   1      39.525  20.502  25.702  1.00  0.00    -0.744 OA
ENDBRANCH  78  79
ENDBRANCH  50  73
BRANCH  62  83
ATOM     83  C   UNL A   1      44.650  30.447  28.395  1.00  0.00    -0.014 A 
ATOM     84  C   UNL A   1      43.598  31.382  28.326  1.00  0.00     0.010 A 
ATOM     85  C   UNL A   1      45.689  30.548  27.451  1.00  0.00     0.010 A 
ATOM     86  C   UNL A   1      43.574  32.372  27.334  1.00  0.00     0.020 A 
ATOM     87  C   UNL A   1      45.682  31.546  26.471  1.00  0.00     0.020 A 
ATOM     88  C   UNL A   1      44.621  32.451  26.412  1.00  0.00     0.054 A 
BRANCH  88  89
ATOM     89  S   UNL A   1      44.621  33.785  25.182  1.00  0.00     0.124 S 
ATOM     90  O   UNL A   1      44.216  33.092  23.962  1.00  0.00    -0.237 OA
ATOM     91  O   UNL A   1      43.646  34.728  25.724  1.00  0.00    -0.237 OA
ATOM     92  O   UNL A   1      46.003  34.265  25.190  1.00  0.00    -0.744 OA
ENDBRANCH  88  89
ENDBRANCH  62  83
ENDBRANCH  36  37
ENDBRANCH  28  31
ENDBRANCH   1  27
TORSDOF 14
ENDMDL
MODEL 3
REMARK VINA RESULT:     -12.9      1.438      1.855
REMARK SMILES Cc1ccc(C)c(-c2cc(C(=O)NCCCNC(=O)c3ccc(-c4c5nc(c(-c6ccc(S(=O)(=O)[O-])cc6)c6ccc([nH]6)c(-c6ccc(S(=O)(=O)[O-])cc6)c6nc(c(-c7ccc(S(=O)(=O)[O-])cc7)c7ccc4[nH]7)C=C6)C=C5)cc3)c3cc(C)ccc3n2)c1
REMARK SMILES IDX 16 1 15 2 14 3 13 4 11 5 12 6 10 8 8 9 9 10 87 11 86 12
REMARK SMILES IDX 80 13 85 14 81 15 84 16 82 17 83 18 7 19 1 20 2 21 3 22
REMARK SMILES IDX 88 23 4 24 5 25 6 26 17 27 18 28 19 30 20 31 21 32 79 33
REMARK SMILES IDX 22 34 78 35 23 36 24 37 25 38 72 39 26 40 77 41 71 42 73 43
REMARK SMILES IDX 27 44 76 45 70 46 69 47 28 49 58 50 39 51 57 52 40 53 43 54
REMARK SMILES IDX 56 55 74 56 41 57 42 58 55 60 75 61 44 62 29 63 30 64 38 65
REMARK SMILES IDX 31 66 37 67 32 68 33 69 34 70 35 71 36 72 59 73 60 74 68 75
REMARK SMILES IDX 61 76 67 77 62 78 63 79 64 80 65 81 66 82 45 83 46 84 54 85
REMARK SMILES IDX 47 86 53 87 48 88 49 89 50 90 51 91 52 92
REMARK H PARENT 13 7 17 29 73 48 43 59
REMARK Flexibility Score: inf
ROOT
ATOM      1  C   UNL A   1      37.991  23.664  26.588  1.00  0.00     0.118 C 
ENDROOT
BRANCH   1   2
ATOM      2  C   UNL A   1      36.735  23.922  25.804  1.00  0.00     0.042 C 
BRANCH   2   3
ATOM      3  C   UNL A   1      35.718  22.823  25.995  1.00  0.00     0.118 C 
BRANCH   3   4
ATOM      4  N   UNL A   1      34.871  22.787  27.178  1.00  0.00    -0.352 N 
ATOM      5  C   UNL A   1      33.484  22.702  27.221  1.00  0.00     0.252 C 
ATOM      6  O   UNL A   1      32.925  22.463  28.287  1.00  0.00    -0.269 OA
ATOM      7  H   UNL A   1      35.333  22.826  28.047  1.00  0.00     0.163 HD
BRANCH   5   8
ATOM      8  C   UNL A   1      32.662  23.020  26.018  1.00  0.00     0.051 A 
ATOM      9  C   UNL A   1      32.008  24.729  24.507  1.00  0.00     0.072 A 
ATOM     10  C   UNL A   1      32.461  24.376  25.764  1.00  0.00     0.043 A 
ATOM     11  N   UNL A   1      31.920  23.829  23.492  1.00  0.00    -0.248 NA
ATOM     12  C   UNL A   1      32.093  22.528  23.762  1.00  0.00     0.072 A 
ATOM     13  C   UNL A   1      32.284  22.055  25.062  1.00  0.00     0.013 A 
ATOM     14  C   UNL A   1      32.154  21.608  22.721  1.00  0.00     0.029 A 
ATOM     15  C   UNL A   1      32.218  20.662  25.304  1.00  0.00     0.014 A 
ATOM     16  C   UNL A   1      32.366  20.244  22.952  1.00  0.00     0.005 A 
ATOM     17  C   UNL A   1      32.372  19.754  24.255  1.00  0.00    -0.050 A 
ATOM     18  C   UNL A   1      32.773  18.335  24.548  1.00  0.00     0.044 C 
BRANCH   9  19
ATOM     19  C   UNL A   1      31.500  26.073  24.200  1.00  0.00     0.003 A 
ATOM     20  C   UNL A   1      28.176  27.780  23.358  1.00  0.00     0.044 C 
ATOM     21  C   UNL A   1      29.632  27.560  23.646  1.00  0.00    -0.050 A 
ATOM     22  C   UNL A   1      30.511  28.646  23.621  1.00  0.00     0.004 A 
ATOM     23  C   UNL A   1      30.132  26.282  23.938  1.00  0.00     0.014 A 
ATOM     24  C   UNL A   1      31.869  28.460  23.868  1.00  0.00     0.004 A 
ATOM     25  C   UNL A   1      32.379  27.181  24.139  1.00  0.00    -0.042 A 
ATOM     26  C   UNL A   1      33.863  27.057  24.382  1.00  0.00     0.045 C 
ENDBRANCH   9  19
ENDBRANCH   5   8
ENDBRANCH   3   4
ENDBRANCH   2   3
ENDBRANCH   1   2
BRANCH   1  27
ATOM     27  N   UNL A   1      38.672  22.390  26.448  1.00  0.00    -0.352 N 
ATOM     28  C   UNL A   1      40.014  22.109  26.711  1.00  0.00     0.251 C 
ATOM     29  H   UNL A   1      38.124  21.635  26.132  1.00  0.00     0.163 HD
ATOM     30  O   UNL A   1      40.419  20.965  26.595  1.00  0.00    -0.269 OA
BRANCH  28  31
ATOM     31  C   UNL A   1      40.955  23.192  27.136  1.00  0.00     0.039 A 
ATOM     32  C   UNL A   1      41.740  23.051  28.290  1.00  0.00     0.014 A 
ATOM     33  C   UNL A   1      40.917  24.457  26.550  1.00  0.00     0.014 A 
ATOM     34  C   UNL A   1      42.163  24.227  28.933  1.00  0.00     0.010 A 
ATOM     35  C   UNL A   1      41.877  25.355  26.889  1.00  0.00     0.010 A 
ATOM     36  C   UNL A   1      41.993  25.428  28.256  1.00  0.00    -0.014 A 
BRANCH  36  37
ATOM     37  C   UNL A   1      41.734  26.749  28.822  1.00  0.00     0.031 A 
ATOM     38  C   UNL A   1      42.704  27.784  28.386  1.00  0.00     0.074 A 
ATOM     39  C   UNL A   1      40.555  27.265  29.233  1.00  0.00     0.049 A 
ATOM     40  N   UNL A   1      43.802  28.104  28.979  1.00  0.00    -0.248 NA
ATOM     41  C   UNL A   1      42.540  28.378  27.045  1.00  0.00     0.031 C 
ATOM     42  C   UNL A   1      39.192  26.736  29.156  1.00  0.00     0.029 A 
ATOM     43  N   UNL A   1      40.364  28.520  29.735  1.00  0.00    -0.354 N 
ATOM     44  C   UNL A   1      44.382  29.073  28.177  1.00  0.00     0.074 A 
ATOM     45  C   UNL A   1      43.715  28.991  26.901  1.00  0.00     0.031 C 
ATOM     46  C   UNL A   1      38.309  27.729  29.450  1.00  0.00     0.029 A 
ATOM     47  C   UNL A   1      39.044  28.914  29.873  1.00  0.00     0.049 A 
ATOM     48  H   UNL A   1      41.116  29.106  29.983  1.00  0.00     0.167 HD
ATOM     49  C   UNL A   1      45.201  30.037  28.680  1.00  0.00     0.031 A 
ATOM     50  C   UNL A   1      38.628  30.144  30.275  1.00  0.00     0.031 A 
ATOM     51  C   UNL A   1      45.378  29.887  30.105  1.00  0.00     0.049 A 
ATOM     52  C   UNL A   1      39.790  30.828  30.913  1.00  0.00     0.074 A 
ATOM     53  C   UNL A   1      45.883  28.905  30.933  1.00  0.00     0.029 A 
ATOM     54  N   UNL A   1      44.574  30.678  30.899  1.00  0.00    -0.354 N 
ATOM     55  N   UNL A   1      40.377  30.413  32.001  1.00  0.00    -0.248 NA
ATOM     56  C   UNL A   1      40.545  31.807  30.146  1.00  0.00     0.031 C 
ATOM     57  C   UNL A   1      45.017  28.890  32.069  1.00  0.00     0.029 A 
ATOM     58  C   UNL A   1      44.051  29.886  31.894  1.00  0.00     0.049 A 
ATOM     59  H   UNL A   1      44.403  31.640  30.775  1.00  0.00     0.167 HD
ATOM     60  C   UNL A   1      41.713  30.758  31.853  1.00  0.00     0.074 A 
ATOM     61  C   UNL A   1      41.727  31.731  30.768  1.00  0.00     0.031 C 
ATOM     62  C   UNL A   1      42.705  30.015  32.432  1.00  0.00     0.031 A 
BRANCH  49  63
ATOM     63  C   UNL A   1      45.557  31.310  27.964  1.00  0.00    -0.014 A 
ATOM     64  C   UNL A   1      46.693  31.322  27.133  1.00  0.00     0.010 A 
ATOM     65  C   UNL A   1      44.928  32.547  28.209  1.00  0.00     0.010 A 
ATOM     66  C   UNL A   1      47.188  32.516  26.597  1.00  0.00     0.020 A 
ATOM     67  C   UNL A   1      45.379  33.736  27.635  1.00  0.00     0.020 A 
ATOM     68  C   UNL A   1      46.528  33.717  26.858  1.00  0.00     0.054 A 
BRANCH  68  69
ATOM     69  S   UNL A   1      47.218  35.268  26.234  1.00  0.00     0.124 S 
ATOM     70  O   UNL A   1      47.864  34.830  25.000  1.00  0.00    -0.237 OA
ATOM     71  O   UNL A   1      46.028  36.097  26.068  1.00  0.00    -0.237 OA
ATOM     72  O   UNL A   1      48.123  35.693  27.301  1.00  0.00    -0.744 OA
ENDBRANCH  68  69
ENDBRANCH  49  63
BRANCH  50  73
ATOM     73  C   UNL A   1      37.371  30.876  29.980  1.00  0.00    -0.014 A 
ATOM     74  C   UNL A   1      36.517  31.293  31.021  1.00  0.00     0.010 A 
ATOM     75  C   UNL A   1      37.147  31.408  28.696  1.00  0.00     0.010 A 
ATOM     76  C   UNL A   1      35.519  32.258  30.800  1.00  0.00     0.020 A 
ATOM     77  C   UNL A   1      36.150  32.367  28.467  1.00  0.00     0.020 A 
ATOM     78  C   UNL A   1      35.356  32.806  29.526  1.00  0.00     0.054 A 
BRANCH  78  79
ATOM     79  S   UNL A   1      34.193  34.183  29.290  1.00  0.00     0.124 S 
ATOM     80  O   UNL A   1      33.736  34.445  30.651  1.00  0.00    -0.237 OA
ATOM     81  O   UNL A   1      35.040  35.216  28.698  1.00  0.00    -0.237 OA
ATOM     82  O   UNL A   1      33.181  33.629  28.391  1.00  0.00    -0.744 OA
ENDBRANCH  78  79
ENDBRANCH  50  73
BRANCH  62  83
ATOM     83  C   UNL A   1      42.315  29.047  33.533  1.00  0.00    -0.014 A 
ATOM     84  C   UNL A   1      42.070  27.676  33.315  1.00  0.00     0.010 A 
ATOM     85  C   UNL A   1      42.325  29.515  34.860  1.00  0.00     0.010 A 
ATOM     86  C   UNL A   1      41.822  26.806  34.387  1.00  0.00     0.020 A 
ATOM     87  C   UNL A   1      42.098  28.649  35.936  1.00  0.00     0.020 A 
ATOM     88  C   UNL A   1      41.842  27.299  35.694  1.00  0.00     0.054 A 
BRANCH  88  89
ATOM     89  S   UNL A   1      41.598  26.151  37.078  1.00  0.00     0.124 S 
ATOM     90  O   UNL A   1      40.352  26.627  37.671  1.00  0.00    -0.237 OA
ATOM     91  O   UNL A   1      41.524  24.851  36.414  1.00  0.00    -0.237 OA
ATOM     92  O   UNL A   1      42.790  26.345  37.904  1.00  0.00    -0.744 OA
ENDBRANCH  88  89
ENDBRANCH  62  83
ENDBRANCH  36  37
ENDBRANCH  28  31
ENDBRANCH   1  27
TORSDOF 14
ENDMDL
