MODEL 1
REMARK VINA RESULT:     -10.4      0.000      0.000
REMARK SMILES O=C(CCNC(=O)CCc1nc2ccccc2[nH]1)NCCCNC(=O)c1ccc(-c2c3nc(c(-c4ccc(S(=O)(=O)[O-])cc4)c4ccc([nH]4)c(-c4ccc(S(=O)(=O)[O-])cc4)c4nc(c(-c5ccc(S(=O)(=O)[O-])cc5)c5ccc2[nH]5)C=C4)C=C3)cc1
REMARK SMILES IDX 20 1 19 2 1 3 2 4 3 6 4 7 5 8 6 9 7 11 8 12 9 13 10 14 11 15
REMARK SMILES IDX 18 16 12 17 17 18 13 20 16 21 14 22 15 23 21 24 22 25 23 26
REMARK SMILES IDX 24 27 25 29 26 30 27 31 85 32 28 33 84 34 29 35 30 36 31 37
REMARK SMILES IDX 78 38 32 39 83 40 77 41 79 42 33 43 82 44 76 45 75 46 34 48
REMARK SMILES IDX 64 49 45 50 63 51 46 52 49 53 62 54 80 55 47 56 48 57 61 59
REMARK SMILES IDX 81 60 50 61 35 62 36 63 44 64 37 65 43 66 38 67 39 68 40 69
REMARK SMILES IDX 41 70 42 71 65 72 66 73 74 74 67 75 73 76 68 77 69 78 70 79
REMARK SMILES IDX 71 80 72 81 51 82 52 83 60 84 53 85 59 86 54 87 55 88 56 89
REMARK SMILES IDX 57 90 58 91
REMARK H PARENT 19 5 5 10 18 19 23 28 79 47 49 58
REMARK Flexibility Score: inf
ROOT
ATOM      1  C   UNL A   1      36.301  34.655  33.236  1.00  0.00     0.117 C 
ENDROOT
BRANCH   1   2
ATOM      2  N   UNL A   1      35.268  35.329  32.483  1.00  0.00    -0.356 N 
ATOM      3  O   UNL A   1      34.036  33.455  32.021  1.00  0.00    -0.275 OA
ATOM      4  C   UNL A   1      34.230  34.659  31.899  1.00  0.00     0.221 C 
ATOM      5  H   UNL A   1      35.313  36.308  32.388  1.00  0.00     0.163 HD
BRANCH   4   6
ATOM      6  C   UNL A   1      33.359  35.530  31.036  1.00  0.00     0.121 C 
BRANCH   6   7
ATOM      7  C   UNL A   1      33.403  35.184  29.554  1.00  0.00     0.125 C 
BRANCH   7   8
ATOM      8  N   UNL A   1      34.738  34.795  29.125  1.00  0.00    -0.356 N 
ATOM      9  C   UNL A   1      35.242  33.574  28.798  1.00  0.00     0.220 C 
ATOM     10  H   UNL A   1      35.383  35.537  29.061  1.00  0.00     0.163 HD
ATOM     11  O   UNL A   1      36.459  33.485  28.625  1.00  0.00    -0.275 OA
BRANCH   9  12
ATOM     12  C   UNL A   1      34.341  32.376  28.570  1.00  0.00     0.108 C 
BRANCH  12  13
ATOM     13  C   UNL A   1      35.014  31.183  27.892  1.00  0.00     0.085 C 
BRANCH  13  14
ATOM     14  C   UNL A   1      34.101  30.362  27.039  1.00  0.00     0.107 A 
ATOM     15  N   UNL A   1      32.798  30.520  26.929  1.00  0.00    -0.233 NA
ATOM     16  N   UNL A   1      34.525  29.346  26.210  1.00  0.00    -0.342 N 
ATOM     17  C   UNL A   1      32.437  29.813  25.809  1.00  0.00     0.089 A 
ATOM     18  C   UNL A   1      33.529  29.125  25.291  1.00  0.00     0.065 A 
ATOM     19  H   UNL A   1      35.384  28.866  26.267  1.00  0.00     0.168 HD
ATOM     20  C   UNL A   1      31.233  29.837  25.092  1.00  0.00     0.030 A 
ATOM     21  C   UNL A   1      33.520  28.500  24.041  1.00  0.00     0.028 A 
ATOM     22  C   UNL A   1      31.212  29.263  23.815  1.00  0.00     0.002 A 
ATOM     23  C   UNL A   1      32.341  28.623  23.295  1.00  0.00     0.002 A 
ENDBRANCH  13  14
ENDBRANCH  12  13
ENDBRANCH   9  12
ENDBRANCH   7   8
ENDBRANCH   6   7
ENDBRANCH   4   6
ENDBRANCH   1   2
BRANCH   1  24
ATOM     24  C   UNL A   1      37.629  34.704  32.494  1.00  0.00     0.042 C 
BRANCH  24  25
ATOM     25  C   UNL A   1      37.898  33.477  31.627  1.00  0.00     0.118 C 
BRANCH  25  26
ATOM     26  N   UNL A   1      36.911  32.422  31.822  1.00  0.00    -0.352 N 
ATOM     27  C   UNL A   1      36.936  31.114  31.415  1.00  0.00     0.251 C 
ATOM     28  H   UNL A   1      36.106  32.688  32.322  1.00  0.00     0.163 HD
ATOM     29  O   UNL A   1      35.919  30.430  31.509  1.00  0.00    -0.269 OA
BRANCH  27  30
ATOM     30  C   UNL A   1      38.169  30.549  30.837  1.00  0.00     0.039 A 
ATOM     31  C   UNL A   1      38.328  30.562  29.452  1.00  0.00     0.014 A 
ATOM     32  C   UNL A   1      39.173  30.026  31.660  1.00  0.00     0.014 A 
ATOM     33  C   UNL A   1      39.522  30.106  28.895  1.00  0.00     0.010 A 
ATOM     34  C   UNL A   1      40.396  29.660  31.109  1.00  0.00     0.010 A 
ATOM     35  C   UNL A   1      40.582  29.690  29.719  1.00  0.00    -0.014 A 
BRANCH  35  36
ATOM     36  C   UNL A   1      41.890  29.306  29.131  1.00  0.00     0.031 A 
ATOM     37  C   UNL A   1      43.006  30.308  29.021  1.00  0.00     0.074 A 
ATOM     38  C   UNL A   1      42.057  28.050  28.669  1.00  0.00     0.049 A 
ATOM     39  N   UNL A   1      44.224  30.134  28.574  1.00  0.00    -0.248 NA
ATOM     40  C   UNL A   1      42.716  31.688  29.445  1.00  0.00     0.031 C 
ATOM     41  C   UNL A   1      41.028  27.005  28.665  1.00  0.00     0.029 A 
ATOM     42  N   UNL A   1      43.155  27.434  28.125  1.00  0.00    -0.354 N 
ATOM     43  C   UNL A   1      44.840  31.378  28.658  1.00  0.00     0.074 A 
ATOM     44  C   UNL A   1      43.845  32.310  29.139  1.00  0.00     0.031 C 
ATOM     45  C   UNL A   1      41.559  25.868  28.191  1.00  0.00     0.029 A 
ATOM     46  C   UNL A   1      42.949  26.109  27.819  1.00  0.00     0.049 A 
ATOM     47  H   UNL A   1      44.010  27.897  27.968  1.00  0.00     0.167 HD
ATOM     48  C   UNL A   1      46.124  31.710  28.380  1.00  0.00     0.031 A 
ATOM     49  C   UNL A   1      43.786  25.188  27.304  1.00  0.00     0.031 A 
ATOM     50  C   UNL A   1      47.109  30.778  27.898  1.00  0.00     0.049 A 
ATOM     51  C   UNL A   1      45.206  25.581  27.007  1.00  0.00     0.074 A 
ATOM     52  C   UNL A   1      48.450  31.002  27.636  1.00  0.00     0.029 A 
ATOM     53  N   UNL A   1      46.862  29.446  27.599  1.00  0.00    -0.354 N 
ATOM     54  N   UNL A   1      45.791  26.745  27.166  1.00  0.00    -0.248 NA
ATOM     55  C   UNL A   1      46.084  24.529  26.479  1.00  0.00     0.031 C 
ATOM     56  C   UNL A   1      48.997  29.822  27.121  1.00  0.00     0.029 A 
ATOM     57  C   UNL A   1      48.017  28.842  27.131  1.00  0.00     0.049 A 
ATOM     58  H   UNL A   1      45.992  28.996  27.704  1.00  0.00     0.167 HD
ATOM     59  C   UNL A   1      47.115  26.557  26.785  1.00  0.00     0.074 A 
ATOM     60  C   UNL A   1      47.246  25.163  26.413  1.00  0.00     0.031 C 
ATOM     61  C   UNL A   1      48.131  27.456  26.749  1.00  0.00     0.031 A 
BRANCH  48  62
ATOM     62  C   UNL A   1      46.533  33.147  28.587  1.00  0.00    -0.014 A 
ATOM     63  C   UNL A   1      47.318  33.531  29.690  1.00  0.00     0.010 A 
ATOM     64  C   UNL A   1      46.166  34.122  27.642  1.00  0.00     0.010 A 
ATOM     65  C   UNL A   1      47.692  34.865  29.865  1.00  0.00     0.020 A 
ATOM     66  C   UNL A   1      46.566  35.453  27.796  1.00  0.00     0.020 A 
ATOM     67  C   UNL A   1      47.313  35.819  28.916  1.00  0.00     0.054 A 
BRANCH  67  68
ATOM     68  S   UNL A   1      47.842  37.537  29.154  1.00  0.00     0.124 S 
ATOM     69  O   UNL A   1      48.545  37.464  30.433  1.00  0.00    -0.237 OA
ATOM     70  O   UNL A   1      48.685  37.778  27.986  1.00  0.00    -0.237 OA
ATOM     71  O   UNL A   1      46.588  38.288  29.178  1.00  0.00    -0.744 OA
ENDBRANCH  67  68
ENDBRANCH  48  62
BRANCH  49  72
ATOM     72  C   UNL A   1      43.306  23.799  27.063  1.00  0.00    -0.014 A 
ATOM     73  C   UNL A   1      43.282  22.856  28.106  1.00  0.00     0.010 A 
ATOM     74  C   UNL A   1      42.856  23.414  25.786  1.00  0.00     0.010 A 
ATOM     75  C   UNL A   1      42.842  21.549  27.873  1.00  0.00     0.020 A 
ATOM     76  C   UNL A   1      42.385  22.119  25.557  1.00  0.00     0.020 A 
ATOM     77  C   UNL A   1      42.393  21.191  26.599  1.00  0.00     0.054 A 
BRANCH  77  78
ATOM     78  S   UNL A   1      41.779  19.504  26.330  1.00  0.00     0.124 S 
ATOM     79  O   UNL A   1      42.200  18.829  27.554  1.00  0.00    -0.237 OA
ATOM     80  O   UNL A   1      40.341  19.712  26.182  1.00  0.00    -0.237 OA
ATOM     81  O   UNL A   1      42.468  19.081  25.113  1.00  0.00    -0.744 OA
ENDBRANCH  77  78
ENDBRANCH  49  72
BRANCH  61  82
ATOM     82  C   UNL A   1      49.484  26.945  26.324  1.00  0.00    -0.014 A 
ATOM     83  C   UNL A   1      49.947  27.095  25.004  1.00  0.00     0.010 A 
ATOM     84  C   UNL A   1      50.310  26.309  27.270  1.00  0.00     0.010 A 
ATOM     85  C   UNL A   1      51.182  26.563  24.624  1.00  0.00     0.020 A 
ATOM     86  C   UNL A   1      51.561  25.809  26.902  1.00  0.00     0.020 A 
ATOM     87  C   UNL A   1      51.978  25.916  25.575  1.00  0.00     0.054 A 
BRANCH  87  88
ATOM     88  S   UNL A   1      53.574  25.231  25.056  1.00  0.00     0.124 S 
ATOM     89  O   UNL A   1      53.432  23.824  25.420  1.00  0.00    -0.237 OA
ATOM     90  O   UNL A   1      53.593  25.511  23.621  1.00  0.00    -0.237 OA
ATOM     91  O   UNL A   1      54.547  25.984  25.845  1.00  0.00    -0.744 OA
ENDBRANCH  87  88
ENDBRANCH  61  82
ENDBRANCH  35  36
ENDBRANCH  27  30
ENDBRANCH  25  26
ENDBRANCH  24  25
ENDBRANCH   1  24
TORSDOF 18
ENDMDL
MODEL 2
REMARK VINA RESULT:     -10.2      4.163     11.719
REMARK SMILES O=C(CCNC(=O)CCc1nc2ccccc2[nH]1)NCCCNC(=O)c1ccc(-c2c3nc(c(-c4ccc(S(=O)(=O)[O-])cc4)c4ccc([nH]4)c(-c4ccc(S(=O)(=O)[O-])cc4)c4nc(c(-c5ccc(S(=O)(=O)[O-])cc5)c5ccc2[nH]5)C=C4)C=C3)cc1
REMARK SMILES IDX 20 1 19 2 1 3 2 4 3 6 4 7 5 8 6 9 7 11 8 12 9 13 10 14 11 15
REMARK SMILES IDX 18 16 12 17 17 18 13 20 16 21 14 22 15 23 21 24 22 25 23 26
REMARK SMILES IDX 24 27 25 29 26 30 27 31 85 32 28 33 84 34 29 35 30 36 31 37
REMARK SMILES IDX 78 38 32 39 83 40 77 41 79 42 33 43 82 44 76 45 75 46 34 48
REMARK SMILES IDX 64 49 45 50 63 51 46 52 49 53 62 54 80 55 47 56 48 57 61 59
REMARK SMILES IDX 81 60 50 61 35 62 36 63 44 64 37 65 43 66 38 67 39 68 40 69
REMARK SMILES IDX 41 70 42 71 65 72 66 73 74 74 67 75 73 76 68 77 69 78 70 79
REMARK SMILES IDX 71 80 72 81 51 82 52 83 60 84 53 85 59 86 54 87 55 88 56 89
REMARK SMILES IDX 57 90 58 91
REMARK H PARENT 19 5 5 10 18 19 23 28 79 47 49 58
REMARK Flexibility Score: inf
ROOT
ATOM      1  C   UNL A   1      42.887  23.026  28.312  1.00  0.00     0.117 C 
ENDROOT
BRANCH   1   2
ATOM      2  N   UNL A   1      43.359  23.955  27.311  1.00  0.00    -0.356 N 
ATOM      3  O   UNL A   1      45.555  23.922  27.957  1.00  0.00    -0.275 OA
ATOM      4  C   UNL A   1      44.662  24.360  27.241  1.00  0.00     0.221 C 
ATOM      5  H   UNL A   1      42.717  24.310  26.654  1.00  0.00     0.163 HD
BRANCH   4   6
ATOM      6  C   UNL A   1      44.904  25.444  26.227  1.00  0.00     0.121 C 
BRANCH   6   7
ATOM      7  C   UNL A   1      46.374  25.778  26.010  1.00  0.00     0.125 C 
BRANCH   7   8
ATOM      8  N   UNL A   1      46.557  26.784  24.975  1.00  0.00    -0.356 N 
ATOM      9  C   UNL A   1      46.590  28.142  25.057  1.00  0.00     0.220 C 
ATOM     10  H   UNL A   1      46.677  26.424  24.067  1.00  0.00     0.163 HD
ATOM     11  O   UNL A   1      46.593  28.779  24.002  1.00  0.00    -0.275 OA
BRANCH   9  12
ATOM     12  C   UNL A   1      46.703  28.856  26.390  1.00  0.00     0.108 C 
BRANCH  12  13
ATOM     13  C   UNL A   1      45.383  29.380  26.954  1.00  0.00     0.085 C 
BRANCH  13  14
ATOM     14  C   UNL A   1      45.218  30.863  26.866  1.00  0.00     0.107 A 
ATOM     15  N   UNL A   1      45.176  31.570  25.756  1.00  0.00    -0.233 NA
ATOM     16  N   UNL A   1      45.041  31.686  27.957  1.00  0.00    -0.342 N 
ATOM     17  C   UNL A   1      44.670  32.793  26.120  1.00  0.00     0.089 A 
ATOM     18  C   UNL A   1      44.501  32.863  27.499  1.00  0.00     0.065 A 
ATOM     19  H   UNL A   1      45.261  31.471  28.893  1.00  0.00     0.168 HD
ATOM     20  C   UNL A   1      44.187  33.832  25.312  1.00  0.00     0.030 A 
ATOM     21  C   UNL A   1      43.806  33.894  28.136  1.00  0.00     0.028 A 
ATOM     22  C   UNL A   1      43.441  34.850  25.920  1.00  0.00     0.002 A 
ATOM     23  C   UNL A   1      43.241  34.868  27.303  1.00  0.00     0.002 A 
ENDBRANCH  13  14
ENDBRANCH  12  13
ENDBRANCH   9  12
ENDBRANCH   7   8
ENDBRANCH   6   7
ENDBRANCH   4   6
ENDBRANCH   1   2
BRANCH   1  24
ATOM     24  C   UNL A   1      41.910  22.029  27.707  1.00  0.00     0.042 C 
BRANCH  24  25
ATOM     25  C   UNL A   1      41.630  22.261  26.225  1.00  0.00     0.118 C 
BRANCH  25  26
ATOM     26  N   UNL A   1      40.210  22.186  25.900  1.00  0.00    -0.352 N 
ATOM     27  C   UNL A   1      39.191  23.042  26.228  1.00  0.00     0.251 C 
ATOM     28  H   UNL A   1      39.943  21.404  25.365  1.00  0.00     0.163 HD
ATOM     29  O   UNL A   1      38.027  22.704  26.025  1.00  0.00    -0.269 OA
BRANCH  27  30
ATOM     30  C   UNL A   1      39.497  24.343  26.851  1.00  0.00     0.039 A 
ATOM     31  C   UNL A   1      39.135  24.551  28.182  1.00  0.00     0.014 A 
ATOM     32  C   UNL A   1      40.155  25.346  26.131  1.00  0.00     0.014 A 
ATOM     33  C   UNL A   1      39.489  25.744  28.810  1.00  0.00     0.010 A 
ATOM     34  C   UNL A   1      40.587  26.494  26.786  1.00  0.00     0.010 A 
ATOM     35  C   UNL A   1      40.254  26.709  28.131  1.00  0.00    -0.014 A 
BRANCH  35  36
ATOM     36  C   UNL A   1      40.721  27.931  28.832  1.00  0.00     0.031 A 
ATOM     37  C   UNL A   1      42.125  28.021  29.365  1.00  0.00     0.074 A 
ATOM     38  C   UNL A   1      39.860  28.954  29.011  1.00  0.00     0.049 A 
ATOM     39  N   UNL A   1      42.712  29.025  29.964  1.00  0.00    -0.248 NA
ATOM     40  C   UNL A   1      42.973  26.826  29.230  1.00  0.00     0.031 C 
ATOM     41  C   UNL A   1      38.455  28.961  28.592  1.00  0.00     0.029 A 
ATOM     42  N   UNL A   1      40.041  30.188  29.579  1.00  0.00    -0.354 N 
ATOM     43  C   UNL A   1      43.992  28.582  30.281  1.00  0.00     0.074 A 
ATOM     44  C   UNL A   1      44.075  27.200  29.865  1.00  0.00     0.031 C 
ATOM     45  C   UNL A   1      37.918  30.158  28.873  1.00  0.00     0.029 A 
ATOM     46  C   UNL A   1      38.924  30.989  29.527  1.00  0.00     0.049 A 
ATOM     47  H   UNL A   1      40.891  30.476  29.986  1.00  0.00     0.167 HD
ATOM     48  C   UNL A   1      45.013  29.270  30.847  1.00  0.00     0.031 A 
ATOM     49  C   UNL A   1      38.730  32.252  29.951  1.00  0.00     0.031 A 
ATOM     50  C   UNL A   1      44.922  30.645  31.263  1.00  0.00     0.049 A 
ATOM     51  C   UNL A   1      39.880  32.994  30.574  1.00  0.00     0.074 A 
ATOM     52  C   UNL A   1      45.914  31.449  31.800  1.00  0.00     0.029 A 
ATOM     53  N   UNL A   1      43.774  31.421  31.196  1.00  0.00    -0.354 N 
ATOM     54  N   UNL A   1      41.105  32.583  30.794  1.00  0.00    -0.248 NA
ATOM     55  C   UNL A   1      39.623  34.380  30.986  1.00  0.00     0.031 C 
ATOM     56  C   UNL A   1      45.348  32.690  32.113  1.00  0.00     0.029 A 
ATOM     57  C   UNL A   1      44.024  32.686  31.704  1.00  0.00     0.049 A 
ATOM     58  H   UNL A   1      42.908  31.117  30.839  1.00  0.00     0.167 HD
ATOM     59  C   UNL A   1      41.775  33.669  31.346  1.00  0.00     0.074 A 
ATOM     60  C   UNL A   1      40.823  34.760  31.400  1.00  0.00     0.031 C 
ATOM     61  C   UNL A   1      43.063  33.758  31.766  1.00  0.00     0.031 A 
BRANCH  48  62
ATOM     62  C   UNL A   1      46.315  28.540  31.056  1.00  0.00    -0.014 A 
ATOM     63  C   UNL A   1      47.338  28.582  30.090  1.00  0.00     0.010 A 
ATOM     64  C   UNL A   1      46.539  27.835  32.253  1.00  0.00     0.010 A 
ATOM     65  C   UNL A   1      48.541  27.903  30.300  1.00  0.00     0.020 A 
ATOM     66  C   UNL A   1      47.754  27.182  32.481  1.00  0.00     0.020 A 
ATOM     67  C   UNL A   1      48.742  27.206  31.495  1.00  0.00     0.054 A 
BRANCH  67  68
ATOM     68  S   UNL A   1      50.326  26.362  31.752  1.00  0.00     0.124 S 
ATOM     69  O   UNL A   1      50.136  25.126  30.995  1.00  0.00    -0.237 OA
ATOM     70  O   UNL A   1      51.287  27.304  31.184  1.00  0.00    -0.237 OA
ATOM     71  O   UNL A   1      50.402  26.197  33.202  1.00  0.00    -0.744 OA
ENDBRANCH  67  68
ENDBRANCH  48  62
BRANCH  49  72
ATOM     72  C   UNL A   1      37.401  32.901  29.774  1.00  0.00    -0.014 A 
ATOM     73  C   UNL A   1      37.096  33.605  28.595  1.00  0.00     0.010 A 
ATOM     74  C   UNL A   1      36.425  32.805  30.783  1.00  0.00     0.010 A 
ATOM     75  C   UNL A   1      35.851  34.223  28.439  1.00  0.00     0.020 A 
ATOM     76  C   UNL A   1      35.168  33.393  30.617  1.00  0.00     0.020 A 
ATOM     77  C   UNL A   1      34.894  34.109  29.450  1.00  0.00     0.054 A 
BRANCH  77  78
ATOM     78  S   UNL A   1      33.267  34.877  29.206  1.00  0.00     0.124 S 
ATOM     79  O   UNL A   1      32.650  33.977  28.237  1.00  0.00    -0.237 OA
ATOM     80  O   UNL A   1      32.700  34.845  30.552  1.00  0.00    -0.237 OA
ATOM     81  O   UNL A   1      33.590  36.210  28.706  1.00  0.00    -0.744 OA
ENDBRANCH  77  78
ENDBRANCH  49  72
BRANCH  61  82
ATOM     82  C   UNL A   1      43.523  35.095  32.289  1.00  0.00    -0.014 A 
ATOM     83  C   UNL A   1      43.430  35.424  33.654  1.00  0.00     0.010 A 
ATOM     84  C   UNL A   1      44.066  36.036  31.394  1.00  0.00     0.010 A 
ATOM     85  C   UNL A   1      43.812  36.690  34.103  1.00  0.00     0.020 A 
ATOM     86  C   UNL A   1      44.484  37.290  31.846  1.00  0.00     0.020 A 
ATOM     87  C   UNL A   1      44.330  37.618  33.194  1.00  0.00     0.054 A 
BRANCH  87  88
ATOM     88  S   UNL A   1      44.816  39.257  33.800  1.00  0.00     0.124 S 
ATOM     89  O   UNL A   1      44.583  39.129  35.236  1.00  0.00    -0.237 OA
ATOM     90  O   UNL A   1      46.217  39.346  33.396  1.00  0.00    -0.237 OA
ATOM     91  O   UNL A   1      43.911  40.167  33.100  1.00  0.00    -0.744 OA
ENDBRANCH  87  88
ENDBRANCH  61  82
ENDBRANCH  35  36
ENDBRANCH  27  30
ENDBRANCH  25  26
ENDBRANCH  24  25
ENDBRANCH   1  24
TORSDOF 18
ENDMDL
MODEL 3
REMARK VINA RESULT:     -10.2      5.532     11.423
REMARK SMILES O=C(CCNC(=O)CCc1nc2ccccc2[nH]1)NCCCNC(=O)c1ccc(-c2c3nc(c(-c4ccc(S(=O)(=O)[O-])cc4)c4ccc([nH]4)c(-c4ccc(S(=O)(=O)[O-])cc4)c4nc(c(-c5ccc(S(=O)(=O)[O-])cc5)c5ccc2[nH]5)C=C4)C=C3)cc1
REMARK SMILES IDX 20 1 19 2 1 3 2 4 3 6 4 7 5 8 6 9 7 11 8 12 9 13 10 14 11 15
REMARK SMILES IDX 18 16 12 17 17 18 13 20 16 21 14 22 15 23 21 24 22 25 23 26
REMARK SMILES IDX 24 27 25 29 26 30 27 31 85 32 28 33 84 34 29 35 30 36 31 37
REMARK SMILES IDX 78 38 32 39 83 40 77 41 79 42 33 43 82 44 76 45 75 46 34 48
REMARK SMILES IDX 64 49 45 50 63 51 46 52 49 53 62 54 80 55 47 56 48 57 61 59
REMARK SMILES IDX 81 60 50 61 35 62 36 63 44 64 37 65 43 66 38 67 39 68 40 69
REMARK SMILES IDX 41 70 42 71 65 72 66 73 74 74 67 75 73 76 68 77 69 78 70 79
REMARK SMILES IDX 71 80 72 81 51 82 52 83 60 84 53 85 59 86 54 87 55 88 56 89
REMARK SMILES IDX 57 90 58 91
REMARK H PARENT 19 5 5 10 18 19 23 28 79 47 49 58
REMARK Flexibility Score: inf
ROOT
ATOM      1  C   UNL A   1      36.120  22.953  23.668  1.00  0.00     0.117 C 
ENDROOT
BRANCH   1   2
ATOM      2  N   UNL A   1      34.807  22.469  23.309  1.00  0.00    -0.356 N 
ATOM      3  O   UNL A   1      34.116  24.381  22.257  1.00  0.00    -0.275 OA
ATOM      4  C   UNL A   1      33.889  23.246  22.660  1.00  0.00     0.221 C 
ATOM      5  H   UNL A   1      34.563  21.543  23.541  1.00  0.00     0.163 HD
BRANCH   4   6
ATOM      6  C   UNL A   1      32.539  22.599  22.523  1.00  0.00     0.121 C 
BRANCH   6   7
ATOM      7  C   UNL A   1      31.448  23.250  23.363  1.00  0.00     0.125 C 
BRANCH   7   8
ATOM      8  N   UNL A   1      31.998  24.122  24.390  1.00  0.00    -0.356 N 
ATOM      9  C   UNL A   1      32.170  23.918  25.724  1.00  0.00     0.220 C 
ATOM     10  H   UNL A   1      32.294  25.004  24.068  1.00  0.00     0.163 HD
ATOM     11  O   UNL A   1      32.508  24.883  26.412  1.00  0.00    -0.275 OA
BRANCH   9  12
ATOM     12  C   UNL A   1      32.036  22.539  26.342  1.00  0.00     0.108 C 
BRANCH  12  13
ATOM     13  C   UNL A   1      33.339  21.746  26.438  1.00  0.00     0.085 C 
BRANCH  13  14
ATOM     14  C   UNL A   1      33.334  20.457  25.680  1.00  0.00     0.107 A 
ATOM     15  N   UNL A   1      34.297  20.020  24.895  1.00  0.00    -0.233 NA
ATOM     16  N   UNL A   1      32.320  19.527  25.746  1.00  0.00    -0.342 N 
ATOM     17  C   UNL A   1      34.037  18.686  24.705  1.00  0.00     0.089 A 
ATOM     18  C   UNL A   1      32.831  18.332  25.300  1.00  0.00     0.065 A 
ATOM     19  H   UNL A   1      31.399  19.688  26.056  1.00  0.00     0.168 HD
ATOM     20  C   UNL A   1      34.860  17.687  24.166  1.00  0.00     0.030 A 
ATOM     21  C   UNL A   1      32.412  17.009  25.459  1.00  0.00     0.028 A 
ATOM     22  C   UNL A   1      34.489  16.350  24.358  1.00  0.00     0.002 A 
ATOM     23  C   UNL A   1      33.297  16.020  25.009  1.00  0.00     0.002 A 
ENDBRANCH  13  14
ENDBRANCH  12  13
ENDBRANCH   9  12
ENDBRANCH   7   8
ENDBRANCH   6   7
ENDBRANCH   4   6
ENDBRANCH   1   2
BRANCH   1  24
ATOM     24  C   UNL A   1      36.033  23.951  24.814  1.00  0.00     0.042 C 
BRANCH  24  25
ATOM     25  C   UNL A   1      36.513  23.398  26.152  1.00  0.00     0.118 C 
BRANCH  25  26
ATOM     26  N   UNL A   1      37.729  22.603  26.032  1.00  0.00    -0.352 N 
ATOM     27  C   UNL A   1      39.032  22.956  26.269  1.00  0.00     0.251 C 
ATOM     28  H   UNL A   1      37.596  21.674  25.736  1.00  0.00     0.163 HD
ATOM     29  O   UNL A   1      39.937  22.200  25.923  1.00  0.00    -0.269 OA
BRANCH  27  30
ATOM     30  C   UNL A   1      39.338  24.251  26.904  1.00  0.00     0.039 A 
ATOM     31  C   UNL A   1      38.955  24.454  28.230  1.00  0.00     0.014 A 
ATOM     32  C   UNL A   1      40.016  25.252  26.202  1.00  0.00     0.014 A 
ATOM     33  C   UNL A   1      39.308  25.640  28.871  1.00  0.00     0.010 A 
ATOM     34  C   UNL A   1      40.446  26.393  26.870  1.00  0.00     0.010 A 
ATOM     35  C   UNL A   1      40.092  26.603  28.211  1.00  0.00    -0.014 A 
BRANCH  35  36
ATOM     36  C   UNL A   1      40.557  27.817  28.927  1.00  0.00     0.031 A 
ATOM     37  C   UNL A   1      41.943  27.881  29.510  1.00  0.00     0.074 A 
ATOM     38  C   UNL A   1      39.710  28.856  29.074  1.00  0.00     0.049 A 
ATOM     39  N   UNL A   1      42.527  28.875  30.129  1.00  0.00    -0.248 NA
ATOM     40  C   UNL A   1      42.772  26.670  29.407  1.00  0.00     0.031 C 
ATOM     41  C   UNL A   1      38.321  28.889  28.606  1.00  0.00     0.029 A 
ATOM     42  N   UNL A   1      39.894  30.088  29.647  1.00  0.00    -0.354 N 
ATOM     43  C   UNL A   1      43.785  28.408  30.492  1.00  0.00     0.074 A 
ATOM     44  C   UNL A   1      43.857  27.024  30.080  1.00  0.00     0.031 C 
ATOM     45  C   UNL A   1      37.798  30.097  28.866  1.00  0.00     0.029 A 
ATOM     46  C   UNL A   1      38.795  30.910  29.555  1.00  0.00     0.049 A 
ATOM     47  H   UNL A   1      40.734  30.360  30.084  1.00  0.00     0.167 HD
ATOM     48  C   UNL A   1      44.798  29.077  31.094  1.00  0.00     0.031 A 
ATOM     49  C   UNL A   1      38.610  32.177  29.970  1.00  0.00     0.031 A 
ATOM     50  C   UNL A   1      44.719  30.455  31.505  1.00  0.00     0.049 A 
ATOM     51  C   UNL A   1      39.751  32.898  30.633  1.00  0.00     0.074 A 
ATOM     52  C   UNL A   1      45.706  31.240  32.076  1.00  0.00     0.029 A 
ATOM     53  N   UNL A   1      43.589  31.252  31.396  1.00  0.00    -0.354 N 
ATOM     54  N   UNL A   1      40.960  32.464  30.898  1.00  0.00    -0.248 NA
ATOM     55  C   UNL A   1      39.506  34.290  31.035  1.00  0.00     0.031 C 
ATOM     56  C   UNL A   1      45.154  32.492  32.367  1.00  0.00     0.029 A 
ATOM     57  C   UNL A   1      43.845  32.512  31.911  1.00  0.00     0.049 A 
ATOM     58  H   UNL A   1      42.731  30.964  31.008  1.00  0.00     0.167 HD
ATOM     59  C   UNL A   1      41.630  33.538  31.472  1.00  0.00     0.074 A 
ATOM     60  C   UNL A   1      40.698  34.647  31.491  1.00  0.00     0.031 C 
ATOM     61  C   UNL A   1      42.903  33.603  31.939  1.00  0.00     0.031 A 
BRANCH  48  62
ATOM     62  C   UNL A   1      46.079  28.322  31.349  1.00  0.00    -0.014 A 
ATOM     63  C   UNL A   1      47.127  28.325  30.411  1.00  0.00     0.010 A 
ATOM     64  C   UNL A   1      46.256  27.635  32.564  1.00  0.00     0.010 A 
ATOM     65  C   UNL A   1      48.309  27.624  30.664  1.00  0.00     0.020 A 
ATOM     66  C   UNL A   1      47.449  26.960  32.836  1.00  0.00     0.020 A 
ATOM     67  C   UNL A   1      48.463  26.945  31.876  1.00  0.00     0.054 A 
BRANCH  67  68
ATOM     68  S   UNL A   1      50.020  26.070  32.189  1.00  0.00     0.124 S 
ATOM     69  O   UNL A   1      49.861  25.657  33.581  1.00  0.00    -0.237 OA
ATOM     70  O   UNL A   1      49.985  24.991  31.206  1.00  0.00    -0.237 OA
ATOM     71  O   UNL A   1      51.043  27.087  31.957  1.00  0.00    -0.744 OA
ENDBRANCH  67  68
ENDBRANCH  48  62
BRANCH  49  72
ATOM     72  C   UNL A   1      37.301  32.851  29.745  1.00  0.00    -0.014 A 
ATOM     73  C   UNL A   1      36.944  33.319  28.468  1.00  0.00     0.010 A 
ATOM     74  C   UNL A   1      36.396  33.016  30.810  1.00  0.00     0.010 A 
ATOM     75  C   UNL A   1      35.718  33.961  28.264  1.00  0.00     0.020 A 
ATOM     76  C   UNL A   1      35.157  33.628  30.603  1.00  0.00     0.020 A 
ATOM     77  C   UNL A   1      34.831  34.109  29.334  1.00  0.00     0.054 A 
BRANCH  77  78
ATOM     78  S   UNL A   1      33.226  34.901  29.037  1.00  0.00     0.124 S 
ATOM     79  O   UNL A   1      33.623  36.227  28.575  1.00  0.00    -0.237 OA
ATOM     80  O   UNL A   1      32.627  34.031  28.028  1.00  0.00    -0.237 OA
ATOM     81  O   UNL A   1      32.578  34.862  30.345  1.00  0.00    -0.744 OA
ENDBRANCH  77  78
ENDBRANCH  49  72
BRANCH  61  82
ATOM     82  C   UNL A   1      43.370  34.932  32.476  1.00  0.00    -0.014 A 
ATOM     83  C   UNL A   1      43.948  35.902  31.638  1.00  0.00     0.010 A 
ATOM     84  C   UNL A   1      43.216  35.215  33.846  1.00  0.00     0.010 A 
ATOM     85  C   UNL A   1      44.422  37.104  32.171  1.00  0.00     0.020 A 
ATOM     86  C   UNL A   1      43.656  36.431  34.376  1.00  0.00     0.020 A 
ATOM     87  C   UNL A   1      44.279  37.357  33.539  1.00  0.00     0.054 A 
BRANCH  87  88
ATOM     88  S   UNL A   1      44.906  38.921  34.208  1.00  0.00     0.124 S 
ATOM     89  O   UNL A   1      46.039  39.194  33.329  1.00  0.00    -0.237 OA
ATOM     90  O   UNL A   1      43.761  39.817  34.056  1.00  0.00    -0.237 OA
ATOM     91  O   UNL A   1      45.254  38.593  35.590  1.00  0.00    -0.744 OA
ENDBRANCH  87  88
ENDBRANCH  61  82
ENDBRANCH  35  36
ENDBRANCH  27  30
ENDBRANCH  25  26
ENDBRANCH  24  25
ENDBRANCH   1  24
TORSDOF 18
ENDMDL
