MODEL 1
REMARK VINA RESULT:     -12.6      0.000      0.000
REMARK SMILES COc1ccc(NC(=O)[C@H]2[C@@H]3CC[C@@H](C3)[C@@H]2C(=O)NCCCNC(=O)c2ccc(-c3c4nc(c(-c5ccc(S(=O)(=O)[O-])cc5)c5ccc([nH]5)c(-c5ccc(S(=O)(=O)[O-])cc5)c5nc(c(-c6ccc(S(=O)(=O)[O-])cc6)c6ccc3[nH]6)C=C5)C=C4)cc2)c(C)c1
REMARK SMILES IDX 21 1 20 2 19 3 17 4 18 5 16 7 10 8 11 9 12 10 15 11 14 12
REMARK SMILES IDX 13 13 8 14 7 15 9 17 6 18 3 19 4 20 88 21 5 22 86 23 87 24
REMARK SMILES IDX 2 25 1 26 22 27 23 28 24 29 25 31 26 32 27 33 85 34 28 35
REMARK SMILES IDX 84 36 29 37 30 38 31 39 78 40 32 41 83 42 77 43 79 44 33 45
REMARK SMILES IDX 82 46 76 47 75 48 34 50 64 51 45 52 63 53 46 54 49 55 62 56
REMARK SMILES IDX 80 57 47 58 48 59 61 61 81 62 50 63 35 64 36 65 44 66 37 67
REMARK SMILES IDX 43 68 38 69 39 70 40 71 41 72 42 73 65 74 66 75 74 76 67 77
REMARK SMILES IDX 73 78 68 79 69 80 70 81 71 82 72 83 51 84 52 85 60 86 53 87
REMARK SMILES IDX 59 88 54 89 55 90 56 91 57 92 58 93
REMARK H PARENT 19 6 7 16 23 30 79 49 49 60
REMARK Flexibility Score: inf
ROOT
ATOM      1  C   UNL A   1      31.769  30.727  26.387  1.00  0.00     0.042 C 
ENDROOT
BRANCH   1   2
ATOM      2  C   UNL A   1      31.480  29.836  25.192  1.00  0.00     0.117 C 
BRANCH   2   3
ATOM      3  N   UNL A   1      32.671  29.214  24.656  1.00  0.00    -0.356 N 
ATOM      4  C   UNL A   1      32.933  27.925  24.323  1.00  0.00     0.224 C 
ATOM      5  O   UNL A   1      34.005  27.724  23.742  1.00  0.00    -0.275 OA
ATOM      6  H   UNL A   1      33.422  29.834  24.511  1.00  0.00     0.163 HD
BRANCH   4   7
ATOM      7  C   UNL A   1      31.919  26.787  24.523  1.00  0.00     0.094 C 
ATOM      8  C   UNL A   1      32.421  25.330  24.735  1.00  0.00     0.094 C 
ATOM      9  C   UNL A   1      31.577  24.514  23.709  1.00  0.00     0.002 C 
ATOM     10  C   UNL A   1      32.210  24.695  22.326  1.00  0.00     0.005 C 
ATOM     11  C   UNL A   1      30.294  25.334  23.559  1.00  0.00     0.009 C 
ATOM     12  C   UNL A   1      31.049  26.617  23.237  1.00  0.00     0.002 C 
ATOM     13  C   UNL A   1      31.910  26.167  22.026  1.00  0.00     0.005 C 
BRANCH   8  14
ATOM     14  C   UNL A   1      32.145  24.766  26.128  1.00  0.00     0.228 C 
ATOM     15  N   UNL A   1      32.810  23.671  26.616  1.00  0.00    -0.326 N 
ATOM     16  H   UNL A   1      32.572  23.446  27.544  1.00  0.00     0.169 HD
ATOM     17  O   UNL A   1      31.318  25.301  26.875  1.00  0.00    -0.274 OA
BRANCH  15  18
ATOM     18  C   UNL A   1      33.768  22.803  26.051  1.00  0.00     0.044 A 
ATOM     19  C   UNL A   1      35.670  20.886  25.242  1.00  0.00     0.119 A 
ATOM     20  C   UNL A   1      36.087  22.097  25.772  1.00  0.00     0.048 A 
ATOM     21  C   UNL A   1      34.313  20.683  24.999  1.00  0.00     0.052 A 
ATOM     22  C   UNL A   1      35.141  23.049  26.160  1.00  0.00     0.030 A 
ATOM     23  C   UNL A   1      33.343  21.634  25.384  1.00  0.00    -0.024 A 
ATOM     24  C   UNL A   1      31.901  21.224  25.215  1.00  0.00     0.047 C 
BRANCH  19  25
ATOM     25  O   UNL A   1      36.517  19.869  24.903  1.00  0.00    -0.497 OA
ATOM     26  C   UNL A   1      37.905  20.186  24.978  1.00  0.00     0.278 C 
ENDBRANCH  19  25
ENDBRANCH  15  18
ENDBRANCH   8  14
ENDBRANCH   4   7
ENDBRANCH   2   3
ENDBRANCH   1   2
BRANCH   1  27
ATOM     27  C   UNL A   1      32.974  30.360  27.249  1.00  0.00     0.118 C 
BRANCH  27  28
ATOM     28  N   UNL A   1      33.780  31.567  27.474  1.00  0.00    -0.352 N 
ATOM     29  C   UNL A   1      35.028  31.796  28.008  1.00  0.00     0.251 C 
ATOM     30  H   UNL A   1      33.329  32.391  27.178  1.00  0.00     0.163 HD
ATOM     31  O   UNL A   1      35.473  32.902  28.226  1.00  0.00    -0.269 OA
BRANCH  29  32
ATOM     32  C   UNL A   1      35.864  30.627  28.265  1.00  0.00     0.039 A 
ATOM     33  C   UNL A   1      35.902  30.105  29.563  1.00  0.00     0.014 A 
ATOM     34  C   UNL A   1      36.752  30.241  27.275  1.00  0.00     0.014 A 
ATOM     35  C   UNL A   1      37.002  29.349  29.934  1.00  0.00     0.010 A 
ATOM     36  C   UNL A   1      37.814  29.459  27.618  1.00  0.00     0.010 A 
ATOM     37  C   UNL A   1      37.983  29.137  28.967  1.00  0.00    -0.014 A 
BRANCH  37  38
ATOM     38  C   UNL A   1      39.369  28.877  29.279  1.00  0.00     0.031 A 
ATOM     39  C   UNL A   1      39.918  27.549  29.023  1.00  0.00     0.074 A 
ATOM     40  C   UNL A   1      40.111  29.986  29.505  1.00  0.00     0.049 A 
ATOM     41  N   UNL A   1      40.922  27.042  29.643  1.00  0.00    -0.248 NA
ATOM     42  C   UNL A   1      39.313  26.639  28.047  1.00  0.00     0.031 C 
ATOM     43  C   UNL A   1      41.558  30.135  29.476  1.00  0.00     0.029 A 
ATOM     44  N   UNL A   1      39.659  31.245  29.931  1.00  0.00    -0.354 N 
ATOM     45  C   UNL A   1      41.346  26.005  28.843  1.00  0.00     0.074 A 
ATOM     46  C   UNL A   1      40.188  25.632  28.072  1.00  0.00     0.031 C 
ATOM     47  C   UNL A   1      41.877  31.257  30.151  1.00  0.00     0.029 A 
ATOM     48  C   UNL A   1      40.653  31.748  30.775  1.00  0.00     0.049 A 
ATOM     49  H   UNL A   1      38.814  31.685  29.685  1.00  0.00     0.167 HD
ATOM     50  C   UNL A   1      42.687  25.796  28.696  1.00  0.00     0.031 A 
ATOM     51  C   UNL A   1      40.447  31.845  32.125  1.00  0.00     0.031 A 
ATOM     52  C   UNL A   1      43.459  26.661  29.605  1.00  0.00     0.049 A 
ATOM     53  C   UNL A   1      41.332  30.879  32.902  1.00  0.00     0.074 A 
ATOM     54  C   UNL A   1      44.332  27.716  29.394  1.00  0.00     0.029 A 
ATOM     55  N   UNL A   1      43.127  26.705  30.960  1.00  0.00    -0.354 N 
ATOM     56  N   UNL A   1      41.969  29.874  32.361  1.00  0.00    -0.248 NA
ATOM     57  C   UNL A   1      41.569  30.965  34.338  1.00  0.00     0.031 C 
ATOM     58  C   UNL A   1      44.431  28.455  30.612  1.00  0.00     0.029 A 
ATOM     59  C   UNL A   1      43.658  27.827  31.574  1.00  0.00     0.049 A 
ATOM     60  H   UNL A   1      42.585  26.025  31.421  1.00  0.00     0.167 HD
ATOM     61  C   UNL A   1      42.679  29.189  33.309  1.00  0.00     0.074 A 
ATOM     62  C   UNL A   1      42.408  29.930  34.532  1.00  0.00     0.031 C 
ATOM     63  C   UNL A   1      43.408  28.070  33.000  1.00  0.00     0.031 A 
BRANCH  50  64
ATOM     64  C   UNL A   1      43.308  25.035  27.529  1.00  0.00    -0.014 A 
ATOM     65  C   UNL A   1      43.301  23.625  27.532  1.00  0.00     0.010 A 
ATOM     66  C   UNL A   1      43.968  25.633  26.433  1.00  0.00     0.010 A 
ATOM     67  C   UNL A   1      43.910  22.870  26.512  1.00  0.00     0.020 A 
ATOM     68  C   UNL A   1      44.559  24.896  25.396  1.00  0.00     0.020 A 
ATOM     69  C   UNL A   1      44.530  23.513  25.441  1.00  0.00     0.054 A 
BRANCH  69  70
ATOM     70  S   UNL A   1      45.277  22.542  24.108  1.00  0.00     0.124 S 
ATOM     71  O   UNL A   1      46.295  23.451  23.591  1.00  0.00    -0.237 OA
ATOM     72  O   UNL A   1      45.778  21.367  24.816  1.00  0.00    -0.237 OA
ATOM     73  O   UNL A   1      44.162  22.284  23.198  1.00  0.00    -0.744 OA
ENDBRANCH  69  70
ENDBRANCH  50  64
BRANCH  51  74
ATOM     74  C   UNL A   1      39.064  32.266  32.517  1.00  0.00    -0.014 A 
ATOM     75  C   UNL A   1      38.726  33.631  32.378  1.00  0.00     0.010 A 
ATOM     76  C   UNL A   1      38.018  31.335  32.655  1.00  0.00     0.010 A 
ATOM     77  C   UNL A   1      37.393  34.043  32.263  1.00  0.00     0.020 A 
ATOM     78  C   UNL A   1      36.675  31.747  32.538  1.00  0.00     0.020 A 
ATOM     79  C   UNL A   1      36.374  33.093  32.305  1.00  0.00     0.054 A 
BRANCH  79  80
ATOM     80  S   UNL A   1      34.681  33.618  31.876  1.00  0.00     0.124 S 
ATOM     81  O   UNL A   1      34.916  34.544  30.773  1.00  0.00    -0.237 OA
ATOM     82  O   UNL A   1      34.038  32.357  31.499  1.00  0.00    -0.237 OA
ATOM     83  O   UNL A   1      34.204  34.219  33.117  1.00  0.00    -0.744 OA
ENDBRANCH  79  80
ENDBRANCH  51  74
BRANCH  63  84
ATOM     84  C   UNL A   1      44.009  27.088  33.992  1.00  0.00    -0.014 A 
ATOM     85  C   UNL A   1      45.358  27.047  34.371  1.00  0.00     0.010 A 
ATOM     86  C   UNL A   1      43.144  26.190  34.674  1.00  0.00     0.010 A 
ATOM     87  C   UNL A   1      45.830  26.129  35.322  1.00  0.00     0.020 A 
ATOM     88  C   UNL A   1      43.589  25.314  35.667  1.00  0.00     0.020 A 
ATOM     89  C   UNL A   1      44.942  25.268  35.964  1.00  0.00     0.054 A 
BRANCH  89  90
ATOM     90  S   UNL A   1      45.568  24.121  37.211  1.00  0.00     0.124 S 
ATOM     91  O   UNL A   1      45.248  22.826  36.614  1.00  0.00    -0.237 OA
ATOM     92  O   UNL A   1      46.991  24.451  37.263  1.00  0.00    -0.237 OA
ATOM     93  O   UNL A   1      44.809  24.463  38.410  1.00  0.00    -0.744 OA
ENDBRANCH  89  90
ENDBRANCH  63  84
ENDBRANCH  37  38
ENDBRANCH  29  32
ENDBRANCH  27  28
ENDBRANCH   1  27
TORSDOF 16
ENDMDL
MODEL 2
REMARK VINA RESULT:     -12.5      1.264      3.473
REMARK SMILES COc1ccc(NC(=O)[C@H]2[C@@H]3CC[C@@H](C3)[C@@H]2C(=O)NCCCNC(=O)c2ccc(-c3c4nc(c(-c5ccc(S(=O)(=O)[O-])cc5)c5ccc([nH]5)c(-c5ccc(S(=O)(=O)[O-])cc5)c5nc(c(-c6ccc(S(=O)(=O)[O-])cc6)c6ccc3[nH]6)C=C5)C=C4)cc2)c(C)c1
REMARK SMILES IDX 21 1 20 2 19 3 17 4 18 5 16 7 10 8 11 9 12 10 15 11 14 12
REMARK SMILES IDX 13 13 8 14 7 15 9 17 6 18 3 19 4 20 88 21 5 22 86 23 87 24
REMARK SMILES IDX 2 25 1 26 22 27 23 28 24 29 25 31 26 32 27 33 85 34 28 35
REMARK SMILES IDX 84 36 29 37 30 38 31 39 78 40 32 41 83 42 77 43 79 44 33 45
REMARK SMILES IDX 82 46 76 47 75 48 34 50 64 51 45 52 63 53 46 54 49 55 62 56
REMARK SMILES IDX 80 57 47 58 48 59 61 61 81 62 50 63 35 64 36 65 44 66 37 67
REMARK SMILES IDX 43 68 38 69 39 70 40 71 41 72 42 73 65 74 66 75 74 76 67 77
REMARK SMILES IDX 73 78 68 79 69 80 70 81 71 82 72 83 51 84 52 85 60 86 53 87
REMARK SMILES IDX 59 88 54 89 55 90 56 91 57 92 58 93
REMARK H PARENT 19 6 7 16 23 30 79 49 49 60
REMARK Flexibility Score: inf
ROOT
ATOM      1  C   UNL A   1      33.477  29.479  26.258  1.00  0.00     0.042 C 
ENDROOT
BRANCH   1   2
ATOM      2  C   UNL A   1      33.708  27.998  26.506  1.00  0.00     0.117 C 
BRANCH   2   3
ATOM      3  N   UNL A   1      32.490  27.222  26.431  1.00  0.00    -0.356 N 
ATOM      4  C   UNL A   1      32.261  25.961  25.985  1.00  0.00     0.224 C 
ATOM      5  O   UNL A   1      31.127  25.512  26.189  1.00  0.00    -0.275 OA
ATOM      6  H   UNL A   1      31.689  27.691  26.759  1.00  0.00     0.163 HD
BRANCH   4   7
ATOM      7  C   UNL A   1      33.361  25.075  25.379  1.00  0.00     0.094 C 
ATOM      8  C   UNL A   1      33.029  24.132  24.188  1.00  0.00     0.094 C 
ATOM      9  C   UNL A   1      33.615  22.762  24.649  1.00  0.00     0.002 C 
ATOM     10  C   UNL A   1      32.622  22.128  25.629  1.00  0.00     0.005 C 
ATOM     11  C   UNL A   1      34.755  23.154  25.592  1.00  0.00     0.009 C 
ATOM     12  C   UNL A   1      33.861  24.046  26.443  1.00  0.00     0.002 C 
ATOM     13  C   UNL A   1      32.735  23.054  26.844  1.00  0.00     0.005 C 
BRANCH   8  14
ATOM     14  C   UNL A   1      33.706  24.516  22.873  1.00  0.00     0.228 C 
ATOM     15  N   UNL A   1      33.375  25.656  22.189  1.00  0.00    -0.326 N 
ATOM     16  H   UNL A   1      33.924  25.807  21.385  1.00  0.00     0.169 HD
ATOM     17  O   UNL A   1      34.600  23.810  22.392  1.00  0.00    -0.274 OA
BRANCH  15  18
ATOM     18  C   UNL A   1      32.404  26.656  22.408  1.00  0.00     0.044 A 
ATOM     19  C   UNL A   1      30.516  28.591  23.206  1.00  0.00     0.119 A 
ATOM     20  C   UNL A   1      30.102  27.308  22.886  1.00  0.00     0.048 A 
ATOM     21  C   UNL A   1      31.849  28.943  23.005  1.00  0.00     0.052 A 
ATOM     22  C   UNL A   1      31.040  26.355  22.479  1.00  0.00     0.030 A 
ATOM     23  C   UNL A   1      32.810  27.995  22.595  1.00  0.00    -0.024 A 
ATOM     24  C   UNL A   1      34.245  28.462  22.574  1.00  0.00     0.047 C 
BRANCH  19  25
ATOM     25  O   UNL A   1      29.684  29.566  23.680  1.00  0.00    -0.497 OA
ATOM     26  C   UNL A   1      29.352  30.587  22.744  1.00  0.00     0.278 C 
ENDBRANCH  19  25
ENDBRANCH  15  18
ENDBRANCH   8  14
ENDBRANCH   4   7
ENDBRANCH   2   3
ENDBRANCH   1   2
BRANCH   1  27
ATOM     27  C   UNL A   1      33.025  30.318  27.450  1.00  0.00     0.118 C 
BRANCH  27  28
ATOM     28  N   UNL A   1      33.847  31.534  27.510  1.00  0.00    -0.352 N 
ATOM     29  C   UNL A   1      35.127  31.802  27.943  1.00  0.00     0.251 C 
ATOM     30  H   UNL A   1      33.382  32.330  27.166  1.00  0.00     0.163 HD
ATOM     31  O   UNL A   1      35.588  32.920  28.027  1.00  0.00    -0.269 OA
BRANCH  29  32
ATOM     32  C   UNL A   1      35.973  30.654  28.257  1.00  0.00     0.039 A 
ATOM     33  C   UNL A   1      36.007  30.192  29.578  1.00  0.00     0.014 A 
ATOM     34  C   UNL A   1      36.872  30.234  27.292  1.00  0.00     0.014 A 
ATOM     35  C   UNL A   1      37.112  29.465  29.990  1.00  0.00     0.010 A 
ATOM     36  C   UNL A   1      37.940  29.480  27.677  1.00  0.00     0.010 A 
ATOM     37  C   UNL A   1      38.103  29.221  29.041  1.00  0.00    -0.014 A 
BRANCH  37  38
ATOM     38  C   UNL A   1      39.489  28.991  29.374  1.00  0.00     0.031 A 
ATOM     39  C   UNL A   1      40.065  27.669  29.144  1.00  0.00     0.074 A 
ATOM     40  C   UNL A   1      40.209  30.116  29.591  1.00  0.00     0.049 A 
ATOM     41  N   UNL A   1      41.070  27.190  29.785  1.00  0.00    -0.248 NA
ATOM     42  C   UNL A   1      39.488  26.734  28.175  1.00  0.00     0.031 C 
ATOM     43  C   UNL A   1      41.653  30.291  29.578  1.00  0.00     0.029 A 
ATOM     44  N   UNL A   1      39.729  31.373  29.992  1.00  0.00    -0.354 N 
ATOM     45  C   UNL A   1      41.523  26.148  29.006  1.00  0.00     0.074 A 
ATOM     46  C   UNL A   1      40.381  25.743  28.226  1.00  0.00     0.031 C 
ATOM     47  C   UNL A   1      41.944  31.429  30.239  1.00  0.00     0.029 A 
ATOM     48  C   UNL A   1      40.703  31.906  30.841  1.00  0.00     0.049 A 
ATOM     49  H   UNL A   1      38.879  31.794  29.729  1.00  0.00     0.167 HD
ATOM     50  C   UNL A   1      42.869  25.961  28.878  1.00  0.00     0.031 A 
ATOM     51  C   UNL A   1      40.479  32.021  32.187  1.00  0.00     0.031 A 
ATOM     52  C   UNL A   1      43.613  26.854  29.784  1.00  0.00     0.049 A 
ATOM     53  C   UNL A   1      41.371  31.082  32.989  1.00  0.00     0.074 A 
ATOM     54  C   UNL A   1      44.470  27.921  29.567  1.00  0.00     0.029 A 
ATOM     55  N   UNL A   1      43.264  26.912  31.133  1.00  0.00    -0.354 N 
ATOM     56  N   UNL A   1      42.033  30.081  32.471  1.00  0.00    -0.248 NA
ATOM     57  C   UNL A   1      41.589  31.195  34.426  1.00  0.00     0.031 C 
ATOM     58  C   UNL A   1      44.541  28.680  30.775  1.00  0.00     0.029 A 
ATOM     59  C   UNL A   1      43.767  28.053  31.737  1.00  0.00     0.049 A 
ATOM     60  H   UNL A   1      42.729  26.229  31.599  1.00  0.00     0.167 HD
ATOM     61  C   UNL A   1      42.743  29.423  33.438  1.00  0.00     0.074 A 
ATOM     62  C   UNL A   1      42.443  30.178  34.646  1.00  0.00     0.031 C 
ATOM     63  C   UNL A   1      43.495  28.313  33.156  1.00  0.00     0.031 A 
BRANCH  50  64
ATOM     64  C   UNL A   1      43.517  25.194  27.731  1.00  0.00    -0.014 A 
ATOM     65  C   UNL A   1      44.507  24.229  28.008  1.00  0.00     0.010 A 
ATOM     66  C   UNL A   1      43.253  25.411  26.361  1.00  0.00     0.010 A 
ATOM     67  C   UNL A   1      45.181  23.532  26.987  1.00  0.00     0.020 A 
ATOM     68  C   UNL A   1      43.898  24.709  25.333  1.00  0.00     0.020 A 
ATOM     69  C   UNL A   1      44.865  23.771  25.650  1.00  0.00     0.054 A 
BRANCH  69  70
ATOM     70  S   UNL A   1      45.703  22.846  24.339  1.00  0.00     0.124 S 
ATOM     71  O   UNL A   1      44.607  22.535  23.426  1.00  0.00    -0.237 OA
ATOM     72  O   UNL A   1      46.683  23.810  23.849  1.00  0.00    -0.237 OA
ATOM     73  O   UNL A   1      46.271  21.691  25.036  1.00  0.00    -0.744 OA
ENDBRANCH  69  70
ENDBRANCH  50  64
BRANCH  51  74
ATOM     74  C   UNL A   1      39.084  32.422  32.555  1.00  0.00    -0.014 A 
ATOM     75  C   UNL A   1      38.650  33.714  32.181  1.00  0.00     0.010 A 
ATOM     76  C   UNL A   1      38.108  31.472  32.910  1.00  0.00     0.010 A 
ATOM     77  C   UNL A   1      37.288  34.015  32.051  1.00  0.00     0.020 A 
ATOM     78  C   UNL A   1      36.738  31.772  32.778  1.00  0.00     0.020 A 
ATOM     79  C   UNL A   1      36.338  33.030  32.313  1.00  0.00     0.054 A 
BRANCH  79  80
ATOM     80  S   UNL A   1      34.600  33.361  31.870  1.00  0.00     0.124 S 
ATOM     81  O   UNL A   1      33.911  33.124  33.134  1.00  0.00    -0.237 OA
ATOM     82  O   UNL A   1      34.639  34.762  31.440  1.00  0.00    -0.237 OA
ATOM     83  O   UNL A   1      34.343  32.387  30.816  1.00  0.00    -0.744 OA
ENDBRANCH  79  80
ENDBRANCH  51  74
BRANCH  63  84
ATOM     84  C   UNL A   1      44.101  27.356  34.170  1.00  0.00    -0.014 A 
ATOM     85  C   UNL A   1      45.473  27.203  34.414  1.00  0.00     0.010 A 
ATOM     86  C   UNL A   1      43.232  26.616  35.015  1.00  0.00     0.010 A 
ATOM     87  C   UNL A   1      45.952  26.321  35.395  1.00  0.00     0.020 A 
ATOM     88  C   UNL A   1      43.694  25.782  36.036  1.00  0.00     0.020 A 
ATOM     89  C   UNL A   1      45.059  25.616  36.199  1.00  0.00     0.054 A 
BRANCH  89  90
ATOM     90  S   UNL A   1      45.702  24.514  37.479  1.00  0.00     0.124 S 
ATOM     91  O   UNL A   1      44.756  24.738  38.569  1.00  0.00    -0.237 OA
ATOM     92  O   UNL A   1      45.622  23.202  36.840  1.00  0.00    -0.237 OA
ATOM     93  O   UNL A   1      47.056  25.006  37.713  1.00  0.00    -0.744 OA
ENDBRANCH  89  90
ENDBRANCH  63  84
ENDBRANCH  37  38
ENDBRANCH  29  32
ENDBRANCH  27  28
ENDBRANCH   1  27
TORSDOF 16
ENDMDL
MODEL 3
REMARK VINA RESULT:     -12.5      3.423      9.950
REMARK SMILES COc1ccc(NC(=O)[C@H]2[C@@H]3CC[C@@H](C3)[C@@H]2C(=O)NCCCNC(=O)c2ccc(-c3c4nc(c(-c5ccc(S(=O)(=O)[O-])cc5)c5ccc([nH]5)c(-c5ccc(S(=O)(=O)[O-])cc5)c5nc(c(-c6ccc(S(=O)(=O)[O-])cc6)c6ccc3[nH]6)C=C5)C=C4)cc2)c(C)c1
REMARK SMILES IDX 21 1 20 2 19 3 17 4 18 5 16 7 10 8 11 9 12 10 15 11 14 12
REMARK SMILES IDX 13 13 8 14 7 15 9 17 6 18 3 19 4 20 88 21 5 22 86 23 87 24
REMARK SMILES IDX 2 25 1 26 22 27 23 28 24 29 25 31 26 32 27 33 85 34 28 35
REMARK SMILES IDX 84 36 29 37 30 38 31 39 78 40 32 41 83 42 77 43 79 44 33 45
REMARK SMILES IDX 82 46 76 47 75 48 34 50 64 51 45 52 63 53 46 54 49 55 62 56
REMARK SMILES IDX 80 57 47 58 48 59 61 61 81 62 50 63 35 64 36 65 44 66 37 67
REMARK SMILES IDX 43 68 38 69 39 70 40 71 41 72 42 73 65 74 66 75 74 76 67 77
REMARK SMILES IDX 73 78 68 79 69 80 70 81 71 82 72 83 51 84 52 85 60 86 53 87
REMARK SMILES IDX 59 88 54 89 55 90 56 91 57 92 58 93
REMARK H PARENT 19 6 7 16 23 30 79 49 49 60
REMARK Flexibility Score: inf
ROOT
ATOM      1  C   UNL A   1      37.378  20.588  25.025  1.00  0.00     0.042 C 
ENDROOT
BRANCH   1   2
ATOM      2  C   UNL A   1      35.866  20.729  25.058  1.00  0.00     0.117 C 
BRANCH   2   3
ATOM      3  N   UNL A   1      35.416  21.705  26.024  1.00  0.00    -0.356 N 
ATOM      4  C   UNL A   1      34.499  22.702  25.927  1.00  0.00     0.224 C 
ATOM      5  O   UNL A   1      34.217  23.283  26.981  1.00  0.00    -0.275 OA
ATOM      6  H   UNL A   1      35.851  21.636  26.904  1.00  0.00     0.163 HD
BRANCH   4   7
ATOM      7  C   UNL A   1      33.745  23.021  24.626  1.00  0.00     0.094 C 
ATOM      8  C   UNL A   1      33.048  24.400  24.452  1.00  0.00     0.094 C 
ATOM      9  C   UNL A   1      31.615  24.013  23.974  1.00  0.00     0.002 C 
ATOM     10  C   UNL A   1      30.806  23.585  25.202  1.00  0.00     0.005 C 
ATOM     11  C   UNL A   1      31.818  22.670  23.268  1.00  0.00     0.009 C 
ATOM     12  C   UNL A   1      32.531  22.052  24.463  1.00  0.00     0.002 C 
ATOM     13  C   UNL A   1      31.482  22.265  25.588  1.00  0.00     0.005 C 
BRANCH   8  14
ATOM     14  C   UNL A   1      33.677  25.293  23.383  1.00  0.00     0.228 C 
ATOM     15  N   UNL A   1      33.749  26.655  23.522  1.00  0.00    -0.326 N 
ATOM     16  H   UNL A   1      34.224  27.102  22.785  1.00  0.00     0.169 HD
ATOM     17  O   UNL A   1      34.166  24.805  22.358  1.00  0.00    -0.274 OA
BRANCH  15  18
ATOM     18  C   UNL A   1      33.277  27.543  24.512  1.00  0.00     0.044 A 
ATOM     19  C   UNL A   1      32.528  29.577  26.314  1.00  0.00     0.119 A 
ATOM     20  C   UNL A   1      33.605  28.753  26.605  1.00  0.00     0.048 A 
ATOM     21  C   UNL A   1      31.750  29.305  25.191  1.00  0.00     0.052 A 
ATOM     22  C   UNL A   1      33.964  27.739  25.714  1.00  0.00     0.030 A 
ATOM     23  C   UNL A   1      32.098  28.284  24.281  1.00  0.00    -0.024 A 
ATOM     24  C   UNL A   1      31.270  28.199  23.022  1.00  0.00     0.047 C 
BRANCH  19  25
ATOM     25  O   UNL A   1      32.148  30.637  27.087  1.00  0.00    -0.497 OA
ATOM     26  C   UNL A   1      31.330  31.602  26.431  1.00  0.00     0.278 C 
ENDBRANCH  19  25
ENDBRANCH  15  18
ENDBRANCH   8  14
ENDBRANCH   4   7
ENDBRANCH   2   3
ENDBRANCH   1   2
BRANCH   1  27
ATOM     27  C   UNL A   1      38.196  21.841  25.326  1.00  0.00     0.118 C 
BRANCH  27  28
ATOM     28  N   UNL A   1      39.260  21.494  26.277  1.00  0.00    -0.352 N 
ATOM     29  C   UNL A   1      40.179  22.229  26.993  1.00  0.00     0.251 C 
ATOM     30  H   UNL A   1      39.332  20.525  26.437  1.00  0.00     0.163 HD
ATOM     31  O   UNL A   1      41.074  21.735  27.643  1.00  0.00    -0.269 OA
BRANCH  29  32
ATOM     32  C   UNL A   1      40.006  23.679  26.999  1.00  0.00     0.039 A 
ATOM     33  C   UNL A   1      40.847  24.454  26.193  1.00  0.00     0.014 A 
ATOM     34  C   UNL A   1      39.187  24.225  27.972  1.00  0.00     0.014 A 
ATOM     35  C   UNL A   1      41.035  25.785  26.530  1.00  0.00     0.010 A 
ATOM     36  C   UNL A   1      39.330  25.544  28.282  1.00  0.00     0.010 A 
ATOM     37  C   UNL A   1      40.342  26.263  27.640  1.00  0.00    -0.014 A 
BRANCH  37  38
ATOM     38  C   UNL A   1      40.790  27.377  28.443  1.00  0.00     0.031 A 
ATOM     39  C   UNL A   1      39.975  28.586  28.499  1.00  0.00     0.074 A 
ATOM     40  C   UNL A   1      41.784  27.079  29.312  1.00  0.00     0.049 A 
ATOM     41  N   UNL A   1      40.428  29.761  28.756  1.00  0.00    -0.248 NA
ATOM     42  C   UNL A   1      38.541  28.565  28.201  1.00  0.00     0.031 C 
ATOM     43  C   UNL A   1      42.214  27.812  30.492  1.00  0.00     0.029 A 
ATOM     44  N   UNL A   1      42.718  26.035  29.216  1.00  0.00    -0.354 N 
ATOM     45  C   UNL A   1      39.320  30.499  29.108  1.00  0.00     0.074 A 
ATOM     46  C   UNL A   1      38.210  29.827  28.481  1.00  0.00     0.031 C 
ATOM     47  C   UNL A   1      43.460  27.407  30.807  1.00  0.00     0.029 A 
ATOM     48  C   UNL A   1      43.917  26.539  29.728  1.00  0.00     0.049 A 
ATOM     49  H   UNL A   1      42.561  25.130  28.861  1.00  0.00     0.167 HD
ATOM     50  C   UNL A   1      39.427  31.392  30.134  1.00  0.00     0.031 A 
ATOM     51  C   UNL A   1      44.977  26.805  28.903  1.00  0.00     0.031 A 
ATOM     52  C   UNL A   1      40.826  31.522  30.578  1.00  0.00     0.049 A 
ATOM     53  C   UNL A   1      45.262  28.299  28.815  1.00  0.00     0.074 A 
ATOM     54  C   UNL A   1      41.480  31.192  31.753  1.00  0.00     0.029 A 
ATOM     55  N   UNL A   1      41.828  31.755  29.635  1.00  0.00    -0.354 N 
ATOM     56  N   UNL A   1      44.430  29.227  29.208  1.00  0.00    -0.248 NA
ATOM     57  C   UNL A   1      46.496  28.863  28.282  1.00  0.00     0.031 C 
ATOM     58  C   UNL A   1      42.879  31.124  31.473  1.00  0.00     0.029 A 
ATOM     59  C   UNL A   1      43.080  31.454  30.144  1.00  0.00     0.049 A 
ATOM     60  H   UNL A   1      41.665  32.091  28.724  1.00  0.00     0.167 HD
ATOM     61  C   UNL A   1      44.963  30.470  29.002  1.00  0.00     0.074 A 
ATOM     62  C   UNL A   1      46.274  30.182  28.436  1.00  0.00     0.031 C 
ATOM     63  C   UNL A   1      44.272  31.614  29.301  1.00  0.00     0.031 A 
BRANCH  50  64
ATOM     64  C   UNL A   1      38.239  31.919  30.931  1.00  0.00    -0.014 A 
ATOM     65  C   UNL A   1      37.724  33.202  30.654  1.00  0.00     0.010 A 
ATOM     66  C   UNL A   1      37.619  31.241  32.004  1.00  0.00     0.010 A 
ATOM     67  C   UNL A   1      36.667  33.764  31.395  1.00  0.00     0.020 A 
ATOM     68  C   UNL A   1      36.550  31.775  32.738  1.00  0.00     0.020 A 
ATOM     69  C   UNL A   1      36.079  33.040  32.432  1.00  0.00     0.054 A 
BRANCH  69  70
ATOM     70  S   UNL A   1      34.692  33.746  33.358  1.00  0.00     0.124 S 
ATOM     71  O   UNL A   1      34.698  35.138  32.919  1.00  0.00    -0.237 OA
ATOM     72  O   UNL A   1      33.564  32.940  32.900  1.00  0.00    -0.237 OA
ATOM     73  O   UNL A   1      35.068  33.540  34.757  1.00  0.00    -0.744 OA
ENDBRANCH  69  70
ENDBRANCH  50  64
BRANCH  51  74
ATOM     74  C   UNL A   1      45.172  25.815  27.797  1.00  0.00    -0.014 A 
ATOM     75  C   UNL A   1      45.579  24.507  28.147  1.00  0.00     0.010 A 
ATOM     76  C   UNL A   1      44.628  26.019  26.516  1.00  0.00     0.010 A 
ATOM     77  C   UNL A   1      45.344  23.420  27.297  1.00  0.00     0.020 A 
ATOM     78  C   UNL A   1      44.389  24.926  25.659  1.00  0.00     0.020 A 
ATOM     79  C   UNL A   1      44.714  23.629  26.071  1.00  0.00     0.054 A 
BRANCH  79  80
ATOM     80  S   UNL A   1      44.173  22.174  25.114  1.00  0.00     0.124 S 
ATOM     81  O   UNL A   1      45.376  21.839  24.359  1.00  0.00    -0.237 OA
ATOM     82  O   UNL A   1      43.813  21.215  26.162  1.00  0.00    -0.237 OA
ATOM     83  O   UNL A   1      43.059  22.697  24.332  1.00  0.00    -0.744 OA
ENDBRANCH  79  80
ENDBRANCH  51  74
BRANCH  63  84
ATOM     84  C   UNL A   1      44.644  33.026  28.877  1.00  0.00    -0.014 A 
ATOM     85  C   UNL A   1      45.154  34.015  29.728  1.00  0.00     0.010 A 
ATOM     86  C   UNL A   1      44.566  33.368  27.500  1.00  0.00     0.010 A 
ATOM     87  C   UNL A   1      45.507  35.287  29.251  1.00  0.00     0.020 A 
ATOM     88  C   UNL A   1      44.972  34.609  27.003  1.00  0.00     0.020 A 
ATOM     89  C   UNL A   1      45.413  35.576  27.891  1.00  0.00     0.054 A 
BRANCH  89  90
ATOM     90  S   UNL A   1      45.907  37.208  27.297  1.00  0.00     0.124 S 
ATOM     91  O   UNL A   1      46.576  36.880  26.040  1.00  0.00    -0.237 OA
ATOM     92  O   UNL A   1      44.627  37.901  27.163  1.00  0.00    -0.237 OA
ATOM     93  O   UNL A   1      46.775  37.715  28.355  1.00  0.00    -0.744 OA
ENDBRANCH  89  90
ENDBRANCH  63  84
ENDBRANCH  37  38
ENDBRANCH  29  32
ENDBRANCH  27  28
ENDBRANCH   1  27
TORSDOF 16
ENDMDL
