MODEL 1
REMARK VINA RESULT:     -12.8      0.000      0.000
REMARK SMILES CN1C=C/C(=C\C=C/C=N\c2ccc(C(=O)NCCCNC(=O)c3ccc(-c4c5nc(c(-c6ccc(S(=O)(=O)[O-])cc6)c6ccc([nH]6)c(-c6ccc(S(=O)(=O)[O-])cc6)c6nc(c(-c7ccc(S(=O)(=O)[O-])cc7)c7ccc4[nH]7)C=C6)C=C5)cc3)cc2)c2ccccc21
REMARK SMILES IDX 19 1 18 2 17 3 15 4 16 5 14 7 11 8 12 9 85 10 13 11 84 12
REMARK SMILES IDX 10 13 9 14 8 15 7 16 6 17 1 18 2 19 3 20 91 21 4 22 86 23
REMARK SMILES IDX 90 24 5 25 87 26 89 27 88 28 20 29 21 30 22 31 23 33 24 34
REMARK SMILES IDX 25 35 83 36 26 37 82 38 27 39 28 40 29 41 76 42 30 43 81 44
REMARK SMILES IDX 75 45 77 46 31 47 80 48 74 49 73 50 32 52 62 53 43 54 61 55
REMARK SMILES IDX 44 56 47 57 60 58 78 59 45 60 46 61 59 63 79 64 48 65 33 66
REMARK SMILES IDX 34 67 42 68 35 69 41 70 36 71 37 72 38 73 39 74 40 75 63 76
REMARK SMILES IDX 64 77 72 78 65 79 71 80 66 81 67 82 68 83 69 84 70 85 49 86
REMARK SMILES IDX 50 87 58 88 51 89 57 90 52 91 53 92 54 93 55 94 56 95
REMARK H PARENT 17 6 21 32 77 51 47 62
REMARK Flexibility Score: inf
ROOT
ATOM      1  C   UNL A   1      40.158  22.035  26.797  1.00  0.00     0.042 C 
ENDROOT
BRANCH   1   2
ATOM      2  C   UNL A   1      38.820  22.720  26.547  1.00  0.00     0.118 C 
BRANCH   2   3
ATOM      3  N   UNL A   1      38.323  22.550  25.190  1.00  0.00    -0.352 N 
ATOM      4  C   UNL A   1      37.066  22.472  24.651  1.00  0.00     0.251 C 
ATOM      5  O   UNL A   1      36.979  22.272  23.438  1.00  0.00    -0.269 OA
ATOM      6  H   UNL A   1      39.039  22.476  24.518  1.00  0.00     0.163 HD
BRANCH   4   7
ATOM      7  C   UNL A   1      35.817  22.573  25.453  1.00  0.00     0.039 A 
ATOM      8  C   UNL A   1      33.380  22.938  26.829  1.00  0.00     0.063 A 
ATOM      9  C   UNL A   1      34.142  24.039  26.434  1.00  0.00     0.029 A 
ATOM     10  C   UNL A   1      33.916  21.662  26.646  1.00  0.00     0.029 A 
ATOM     11  C   UNL A   1      35.328  23.860  25.717  1.00  0.00     0.016 A 
ATOM     12  C   UNL A   1      35.145  21.481  26.002  1.00  0.00     0.016 A 
BRANCH   8  13
ATOM     13  N   UNL A   1      32.151  23.044  27.487  1.00  0.00    -0.257 NA
ATOM     14  C   UNL A   1      31.022  23.146  26.861  1.00  0.00     0.111 C 
BRANCH  14  15
ATOM     15  C   UNL A   1      30.727  23.196  25.402  1.00  0.00     0.020 C 
ATOM     16  C   UNL A   1      30.944  24.262  24.613  1.00  0.00     0.002 C 
BRANCH  16  17
ATOM     17  C   UNL A   1      31.349  25.588  25.038  1.00  0.00     0.009 C 
ATOM     18  C   UNL A   1      29.459  30.545  23.051  1.00  0.00     0.149 C 
ATOM     19  N   UNL A   1      30.012  29.283  23.536  1.00  0.00    -0.351 N 
ATOM     20  C   UNL A   1      29.728  28.081  22.913  1.00  0.00     0.086 C 
ATOM     21  C   UNL A   1      30.849  29.300  24.688  1.00  0.00     0.048 A 
ATOM     22  C   UNL A   1      30.151  26.879  23.326  1.00  0.00     0.026 C 
ATOM     23  C   UNL A   1      31.387  28.077  25.199  1.00  0.00     0.005 A 
ATOM     24  C   UNL A   1      31.179  30.500  25.354  1.00  0.00     0.027 A 
ATOM     25  C   UNL A   1      30.976  26.783  24.528  1.00  0.00    -0.015 C 
ATOM     26  C   UNL A   1      32.248  28.126  26.315  1.00  0.00     0.011 A 
ATOM     27  C   UNL A   1      32.015  30.516  26.472  1.00  0.00     0.002 A 
ATOM     28  C   UNL A   1      32.554  29.331  26.946  1.00  0.00     0.001 A 
ENDBRANCH  16  17
ENDBRANCH  14  15
ENDBRANCH   8  13
ENDBRANCH   4   7
ENDBRANCH   2   3
ENDBRANCH   1   2
BRANCH   1  29
ATOM     29  C   UNL A   1      41.319  22.974  27.087  1.00  0.00     0.118 C 
BRANCH  29  30
ATOM     30  N   UNL A   1      41.525  23.982  26.055  1.00  0.00    -0.352 N 
ATOM     31  C   UNL A   1      41.493  25.359  26.101  1.00  0.00     0.251 C 
ATOM     32  H   UNL A   1      41.724  23.613  25.165  1.00  0.00     0.163 HD
ATOM     33  O   UNL A   1      41.557  25.992  25.054  1.00  0.00    -0.269 OA
BRANCH  31  34
ATOM     34  C   UNL A   1      41.333  26.080  27.388  1.00  0.00     0.039 A 
ATOM     35  C   UNL A   1      40.171  25.963  28.146  1.00  0.00     0.014 A 
ATOM     36  C   UNL A   1      42.379  26.882  27.857  1.00  0.00     0.014 A 
ATOM     37  C   UNL A   1      39.959  26.813  29.226  1.00  0.00     0.010 A 
ATOM     38  C   UNL A   1      42.212  27.645  29.020  1.00  0.00     0.010 A 
ATOM     39  C   UNL A   1      40.977  27.666  29.681  1.00  0.00    -0.014 A 
BRANCH  39  40
ATOM     40  C   UNL A   1      40.711  28.564  30.841  1.00  0.00     0.031 A 
ATOM     41  C   UNL A   1      41.632  28.572  32.038  1.00  0.00     0.074 A 
ATOM     42  C   UNL A   1      39.687  29.442  30.779  1.00  0.00     0.049 A 
ATOM     43  N   UNL A   1      41.571  29.316  33.113  1.00  0.00    -0.248 NA
ATOM     44  C   UNL A   1      42.764  27.630  32.034  1.00  0.00     0.031 C 
ATOM     45  C   UNL A   1      38.747  29.557  29.661  1.00  0.00     0.029 A 
ATOM     46  N   UNL A   1      39.296  30.437  31.640  1.00  0.00    -0.354 N 
ATOM     47  C   UNL A   1      42.634  28.918  33.917  1.00  0.00     0.074 A 
ATOM     48  C   UNL A   1      43.314  27.850  33.221  1.00  0.00     0.031 C 
ATOM     49  C   UNL A   1      37.956  30.621  29.857  1.00  0.00     0.029 A 
ATOM     50  C   UNL A   1      38.267  31.213  31.154  1.00  0.00     0.049 A 
ATOM     51  H   UNL A   1      39.709  30.581  32.521  1.00  0.00     0.167 HD
ATOM     52  C   UNL A   1      43.016  29.410  35.119  1.00  0.00     0.031 A 
ATOM     53  C   UNL A   1      37.635  32.278  31.686  1.00  0.00     0.031 A 
ATOM     54  C   UNL A   1      42.359  30.500  35.792  1.00  0.00     0.049 A 
ATOM     55  C   UNL A   1      38.046  32.767  33.045  1.00  0.00     0.074 A 
ATOM     56  C   UNL A   1      42.687  31.072  37.010  1.00  0.00     0.029 A 
ATOM     57  N   UNL A   1      41.261  31.192  35.307  1.00  0.00    -0.354 N 
ATOM     58  N   UNL A   1      39.038  32.355  33.797  1.00  0.00    -0.248 NA
ATOM     59  C   UNL A   1      37.247  33.849  33.635  1.00  0.00     0.031 C 
ATOM     60  C   UNL A   1      41.752  32.072  37.288  1.00  0.00     0.029 A 
ATOM     61  C   UNL A   1      40.883  32.168  36.213  1.00  0.00     0.049 A 
ATOM     62  H   UNL A   1      40.815  31.015  34.447  1.00  0.00     0.167 HD
ATOM     63  C   UNL A   1      38.987  33.134  34.947  1.00  0.00     0.074 A 
ATOM     64  C   UNL A   1      37.881  34.055  34.782  1.00  0.00     0.031 C 
ATOM     65  C   UNL A   1      39.782  33.082  36.041  1.00  0.00     0.031 A 
BRANCH  52  66
ATOM     66  C   UNL A   1      44.205  28.795  35.810  1.00  0.00    -0.014 A 
ATOM     67  C   UNL A   1      45.494  29.302  35.557  1.00  0.00     0.010 A 
ATOM     68  C   UNL A   1      44.068  27.626  36.578  1.00  0.00     0.010 A 
ATOM     69  C   UNL A   1      46.627  28.627  36.019  1.00  0.00     0.020 A 
ATOM     70  C   UNL A   1      45.199  26.960  37.064  1.00  0.00     0.020 A 
ATOM     71  C   UNL A   1      46.472  27.451  36.758  1.00  0.00     0.054 A 
BRANCH  71  72
ATOM     72  S   UNL A   1      47.954  26.556  37.301  1.00  0.00     0.124 S 
ATOM     73  O   UNL A   1      47.712  26.399  38.732  1.00  0.00    -0.237 OA
ATOM     74  O   UNL A   1      47.894  25.329  36.511  1.00  0.00    -0.237 OA
ATOM     75  O   UNL A   1      49.046  27.460  36.946  1.00  0.00    -0.744 OA
ENDBRANCH  71  72
ENDBRANCH  52  66
BRANCH  53  76
ATOM     76  C   UNL A   1      36.554  32.953  30.914  1.00  0.00    -0.014 A 
ATOM     77  C   UNL A   1      36.868  33.844  29.871  1.00  0.00     0.010 A 
ATOM     78  C   UNL A   1      35.206  32.757  31.261  1.00  0.00     0.010 A 
ATOM     79  C   UNL A   1      35.863  34.570  29.229  1.00  0.00     0.020 A 
ATOM     80  C   UNL A   1      34.192  33.457  30.598  1.00  0.00     0.020 A 
ATOM     81  C   UNL A   1      34.531  34.382  29.607  1.00  0.00     0.054 A 
BRANCH  81  82
ATOM     82  S   UNL A   1      33.243  35.358  28.783  1.00  0.00     0.124 S 
ATOM     83  O   UNL A   1      34.038  36.300  28.000  1.00  0.00    -0.237 OA
ATOM     84  O   UNL A   1      32.520  34.351  28.011  1.00  0.00    -0.237 OA
ATOM     85  O   UNL A   1      32.495  35.941  29.894  1.00  0.00    -0.744 OA
ENDBRANCH  81  82
ENDBRANCH  53  76
BRANCH  65  86
ATOM     86  C   UNL A   1      39.508  34.041  37.166  1.00  0.00    -0.014 A 
ATOM     87  C   UNL A   1      40.151  35.293  37.187  1.00  0.00     0.010 A 
ATOM     88  C   UNL A   1      38.727  33.651  38.268  1.00  0.00     0.010 A 
ATOM     89  C   UNL A   1      40.051  36.121  38.307  1.00  0.00     0.020 A 
ATOM     90  C   UNL A   1      38.602  34.489  39.378  1.00  0.00     0.020 A 
ATOM     91  C   UNL A   1      39.287  35.707  39.401  1.00  0.00     0.054 A 
BRANCH  91  92
ATOM     92  S   UNL A   1      39.200  36.778  40.862  1.00  0.00     0.124 S 
ATOM     93  O   UNL A   1      38.384  37.889  40.380  1.00  0.00    -0.237 OA
ATOM     94  O   UNL A   1      38.564  35.915  41.856  1.00  0.00    -0.237 OA
ATOM     95  O   UNL A   1      40.599  37.101  41.134  1.00  0.00    -0.744 OA
ENDBRANCH  91  92
ENDBRANCH  65  86
ENDBRANCH  39  40
ENDBRANCH  31  34
ENDBRANCH  29  30
ENDBRANCH   1  29
TORSDOF 16
ENDMDL
MODEL 2
REMARK VINA RESULT:     -12.8      0.470      7.956
REMARK SMILES CN1C=C/C(=C\C=C/C=N\c2ccc(C(=O)NCCCNC(=O)c3ccc(-c4c5nc(c(-c6ccc(S(=O)(=O)[O-])cc6)c6ccc([nH]6)c(-c6ccc(S(=O)(=O)[O-])cc6)c6nc(c(-c7ccc(S(=O)(=O)[O-])cc7)c7ccc4[nH]7)C=C6)C=C5)cc3)cc2)c2ccccc21
REMARK SMILES IDX 19 1 18 2 17 3 15 4 16 5 14 7 11 8 12 9 85 10 13 11 84 12
REMARK SMILES IDX 10 13 9 14 8 15 7 16 6 17 1 18 2 19 3 20 91 21 4 22 86 23
REMARK SMILES IDX 90 24 5 25 87 26 89 27 88 28 20 29 21 30 22 31 23 33 24 34
REMARK SMILES IDX 25 35 83 36 26 37 82 38 27 39 28 40 29 41 76 42 30 43 81 44
REMARK SMILES IDX 75 45 77 46 31 47 80 48 74 49 73 50 32 52 62 53 43 54 61 55
REMARK SMILES IDX 44 56 47 57 60 58 78 59 45 60 46 61 59 63 79 64 48 65 33 66
REMARK SMILES IDX 34 67 42 68 35 69 41 70 36 71 37 72 38 73 39 74 40 75 63 76
REMARK SMILES IDX 64 77 72 78 65 79 71 80 66 81 67 82 68 83 69 84 70 85 49 86
REMARK SMILES IDX 50 87 58 88 51 89 57 90 52 91 53 92 54 93 55 94 56 95
REMARK H PARENT 17 6 21 32 77 51 47 62
REMARK Flexibility Score: inf
ROOT
ATOM      1  C   UNL A   1      40.067  21.929  26.906  1.00  0.00     0.042 C 
ENDROOT
BRANCH   1   2
ATOM      2  C   UNL A   1      38.863  22.792  26.549  1.00  0.00     0.118 C 
BRANCH   2   3
ATOM      3  N   UNL A   1      38.363  22.567  25.201  1.00  0.00    -0.352 N 
ATOM      4  C   UNL A   1      37.105  22.444  24.673  1.00  0.00     0.251 C 
ATOM      5  O   UNL A   1      37.016  22.203  23.467  1.00  0.00    -0.269 OA
ATOM      6  H   UNL A   1      39.077  22.487  24.528  1.00  0.00     0.163 HD
BRANCH   4   7
ATOM      7  C   UNL A   1      35.859  22.543  25.477  1.00  0.00     0.039 A 
ATOM      8  C   UNL A   1      33.424  22.902  26.859  1.00  0.00     0.063 A 
ATOM      9  C   UNL A   1      34.173  24.004  26.446  1.00  0.00     0.029 A 
ATOM     10  C   UNL A   1      33.971  21.628  26.689  1.00  0.00     0.029 A 
ATOM     11  C   UNL A   1      35.358  23.828  25.728  1.00  0.00     0.016 A 
ATOM     12  C   UNL A   1      35.199  21.451  26.043  1.00  0.00     0.016 A 
BRANCH   8  13
ATOM     13  N   UNL A   1      32.196  23.004  27.520  1.00  0.00    -0.257 NA
ATOM     14  C   UNL A   1      31.064  23.099  26.897  1.00  0.00     0.111 C 
BRANCH  14  15
ATOM     15  C   UNL A   1      30.764  23.143  25.439  1.00  0.00     0.020 C 
ATOM     16  C   UNL A   1      30.976  24.207  24.646  1.00  0.00     0.002 C 
BRANCH  16  17
ATOM     17  C   UNL A   1      31.380  25.535  25.065  1.00  0.00     0.009 C 
ATOM     18  C   UNL A   1      29.486  30.481  23.051  1.00  0.00     0.149 C 
ATOM     19  N   UNL A   1      30.040  29.222  23.543  1.00  0.00    -0.351 N 
ATOM     20  C   UNL A   1      29.759  28.016  22.926  1.00  0.00     0.086 C 
ATOM     21  C   UNL A   1      30.876  29.245  24.696  1.00  0.00     0.048 A 
ATOM     22  C   UNL A   1      30.183  26.817  23.345  1.00  0.00     0.026 C 
ATOM     23  C   UNL A   1      31.414  28.025  25.213  1.00  0.00     0.005 A 
ATOM     24  C   UNL A   1      31.203  30.449  25.357  1.00  0.00     0.027 A 
ATOM     25  C   UNL A   1      31.006  26.728  24.548  1.00  0.00    -0.015 C 
ATOM     26  C   UNL A   1      32.273  28.081  26.331  1.00  0.00     0.011 A 
ATOM     27  C   UNL A   1      32.038  30.471  26.476  1.00  0.00     0.002 A 
ATOM     28  C   UNL A   1      32.578  29.289  26.957  1.00  0.00     0.001 A 
ENDBRANCH  16  17
ENDBRANCH  14  15
ENDBRANCH   8  13
ENDBRANCH   4   7
ENDBRANCH   2   3
ENDBRANCH   1   2
BRANCH   1  29
ATOM     29  C   UNL A   1      41.364  22.692  27.129  1.00  0.00     0.118 C 
BRANCH  29  30
ATOM     30  N   UNL A   1      41.691  23.616  26.051  1.00  0.00    -0.352 N 
ATOM     31  C   UNL A   1      41.810  24.989  26.027  1.00  0.00     0.251 C 
ATOM     32  H   UNL A   1      41.857  23.181  25.185  1.00  0.00     0.163 HD
ATOM     33  O   UNL A   1      41.955  25.555  24.950  1.00  0.00    -0.269 OA
BRANCH  31  34
ATOM     34  C   UNL A   1      41.716  25.789  27.272  1.00  0.00     0.039 A 
ATOM     35  C   UNL A   1      40.535  25.855  28.005  1.00  0.00     0.014 A 
ATOM     36  C   UNL A   1      42.845  26.480  27.727  1.00  0.00     0.014 A 
ATOM     37  C   UNL A   1      40.409  26.779  29.037  1.00  0.00     0.010 A 
ATOM     38  C   UNL A   1      42.752  27.317  28.847  1.00  0.00     0.010 A 
ATOM     39  C   UNL A   1      41.516  27.524  29.475  1.00  0.00    -0.014 A 
BRANCH  39  40
ATOM     40  C   UNL A   1      41.342  28.506  30.583  1.00  0.00     0.031 A 
ATOM     41  C   UNL A   1      40.203  29.496  30.565  1.00  0.00     0.074 A 
ATOM     42  C   UNL A   1      42.161  28.447  31.655  1.00  0.00     0.049 A 
ATOM     43  N   UNL A   1      39.882  30.392  31.464  1.00  0.00    -0.248 NA
ATOM     44  C   UNL A   1      39.307  29.485  29.395  1.00  0.00     0.031 C 
ATOM     45  C   UNL A   1      43.279  27.512  31.807  1.00  0.00     0.029 A 
ATOM     46  N   UNL A   1      42.153  29.144  32.838  1.00  0.00    -0.354 N 
ATOM     47  C   UNL A   1      38.771  31.061  30.961  1.00  0.00     0.074 A 
ATOM     48  C   UNL A   1      38.482  30.488  29.666  1.00  0.00     0.031 C 
ATOM     49  C   UNL A   1      43.782  27.624  33.045  1.00  0.00     0.029 A 
ATOM     50  C   UNL A   1      43.088  28.699  33.746  1.00  0.00     0.049 A 
ATOM     51  H   UNL A   1      41.539  29.891  33.020  1.00  0.00     0.167 HD
ATOM     52  C   UNL A   1      38.050  32.053  31.534  1.00  0.00     0.031 A 
ATOM     53  C   UNL A   1      43.367  29.106  35.000  1.00  0.00     0.031 A 
ATOM     54  C   UNL A   1      38.317  32.596  32.840  1.00  0.00     0.049 A 
ATOM     55  C   UNL A   1      42.584  30.244  35.589  1.00  0.00     0.074 A 
ATOM     56  C   UNL A   1      37.628  33.596  33.506  1.00  0.00     0.029 A 
ATOM     57  N   UNL A   1      39.334  32.180  33.684  1.00  0.00    -0.354 N 
ATOM     58  N   UNL A   1      41.555  30.878  35.081  1.00  0.00    -0.248 NA
ATOM     59  C   UNL A   1      43.006  30.733  36.908  1.00  0.00     0.031 C 
ATOM     60  C   UNL A   1      38.264  33.825  34.728  1.00  0.00     0.029 A 
ATOM     61  C   UNL A   1      39.307  32.921  34.853  1.00  0.00     0.049 A 
ATOM     62  H   UNL A   1      39.981  31.465  33.483  1.00  0.00     0.167 HD
ATOM     63  C   UNL A   1      41.202  31.838  36.023  1.00  0.00     0.074 A 
ATOM     64  C   UNL A   1      42.112  31.686  37.139  1.00  0.00     0.031 C 
ATOM     65  C   UNL A   1      40.216  32.764  35.960  1.00  0.00     0.031 A 
BRANCH  52  66
ATOM     66  C   UNL A   1      36.885  32.636  30.775  1.00  0.00    -0.014 A 
ATOM     67  C   UNL A   1      37.103  33.704  29.884  1.00  0.00     0.010 A 
ATOM     68  C   UNL A   1      35.567  32.238  31.058  1.00  0.00     0.010 A 
ATOM     69  C   UNL A   1      36.025  34.395  29.325  1.00  0.00     0.020 A 
ATOM     70  C   UNL A   1      34.485  32.912  30.482  1.00  0.00     0.020 A 
ATOM     71  C   UNL A   1      34.721  34.003  29.641  1.00  0.00     0.054 A 
BRANCH  71  72
ATOM     72  S   UNL A   1      33.333  34.947  28.953  1.00  0.00     0.124 S 
ATOM     73  O   UNL A   1      34.005  36.102  28.367  1.00  0.00    -0.237 OA
ATOM     74  O   UNL A   1      32.748  34.006  28.001  1.00  0.00    -0.237 OA
ATOM     75  O   UNL A   1      32.502  35.232  30.121  1.00  0.00    -0.744 OA
ENDBRANCH  71  72
ENDBRANCH  52  66
BRANCH  53  76
ATOM     76  C   UNL A   1      44.433  28.415  35.778  1.00  0.00    -0.014 A 
ATOM     77  C   UNL A   1      45.773  28.834  35.685  1.00  0.00     0.010 A 
ATOM     78  C   UNL A   1      44.122  27.292  36.565  1.00  0.00     0.010 A 
ATOM     79  C   UNL A   1      46.789  28.112  36.315  1.00  0.00     0.020 A 
ATOM     80  C   UNL A   1      45.133  26.585  37.225  1.00  0.00     0.020 A 
ATOM     81  C   UNL A   1      46.463  26.983  37.071  1.00  0.00     0.054 A 
BRANCH  81  82
ATOM     82  S   UNL A   1      47.801  26.041  37.854  1.00  0.00     0.124 S 
ATOM     83  O   UNL A   1      47.162  25.582  39.084  1.00  0.00    -0.237 OA
ATOM     84  O   UNL A   1      48.084  25.003  36.866  1.00  0.00    -0.237 OA
ATOM     85  O   UNL A   1      48.859  27.033  38.030  1.00  0.00    -0.744 OA
ENDBRANCH  81  82
ENDBRANCH  53  76
BRANCH  65  86
ATOM     86  C   UNL A   1      40.046  33.701  37.124  1.00  0.00    -0.014 A 
ATOM     87  C   UNL A   1      39.251  33.315  38.219  1.00  0.00     0.010 A 
ATOM     88  C   UNL A   1      40.554  35.011  37.070  1.00  0.00     0.010 A 
ATOM     89  C   UNL A   1      38.935  34.233  39.223  1.00  0.00     0.020 A 
ATOM     90  C   UNL A   1      40.262  35.924  38.086  1.00  0.00     0.020 A 
ATOM     91  C   UNL A   1      39.432  35.536  39.142  1.00  0.00     0.054 A 
BRANCH  91  92
ATOM     92  S   UNL A   1      38.979  36.728  40.432  1.00  0.00     0.124 S 
ATOM     93  O   UNL A   1      40.257  36.955  41.102  1.00  0.00    -0.237 OA
ATOM     94  O   UNL A   1      38.463  37.857  39.662  1.00  0.00    -0.237 OA
ATOM     95  O   UNL A   1      37.978  36.013  41.221  1.00  0.00    -0.744 OA
ENDBRANCH  91  92
ENDBRANCH  65  86
ENDBRANCH  39  40
ENDBRANCH  31  34
ENDBRANCH  29  30
ENDBRANCH   1  29
TORSDOF 16
ENDMDL
MODEL 3
REMARK VINA RESULT:     -12.5      4.422     10.860
REMARK SMILES CN1C=C/C(=C\C=C/C=N\c2ccc(C(=O)NCCCNC(=O)c3ccc(-c4c5nc(c(-c6ccc(S(=O)(=O)[O-])cc6)c6ccc([nH]6)c(-c6ccc(S(=O)(=O)[O-])cc6)c6nc(c(-c7ccc(S(=O)(=O)[O-])cc7)c7ccc4[nH]7)C=C6)C=C5)cc3)cc2)c2ccccc21
REMARK SMILES IDX 19 1 18 2 17 3 15 4 16 5 14 7 11 8 12 9 85 10 13 11 84 12
REMARK SMILES IDX 10 13 9 14 8 15 7 16 6 17 1 18 2 19 3 20 91 21 4 22 86 23
REMARK SMILES IDX 90 24 5 25 87 26 89 27 88 28 20 29 21 30 22 31 23 33 24 34
REMARK SMILES IDX 25 35 83 36 26 37 82 38 27 39 28 40 29 41 76 42 30 43 81 44
REMARK SMILES IDX 75 45 77 46 31 47 80 48 74 49 73 50 32 52 62 53 43 54 61 55
REMARK SMILES IDX 44 56 47 57 60 58 78 59 45 60 46 61 59 63 79 64 48 65 33 66
REMARK SMILES IDX 34 67 42 68 35 69 41 70 36 71 37 72 38 73 39 74 40 75 63 76
REMARK SMILES IDX 64 77 72 78 65 79 71 80 66 81 67 82 68 83 69 84 70 85 49 86
REMARK SMILES IDX 50 87 58 88 51 89 57 90 52 91 53 92 54 93 55 94 56 95
REMARK H PARENT 17 6 21 32 77 51 47 62
REMARK Flexibility Score: inf
ROOT
ATOM      1  C   UNL A   1      40.971  20.208  26.452  1.00  0.00     0.042 C 
ENDROOT
BRANCH   1   2
ATOM      2  C   UNL A   1      42.470  20.261  26.183  1.00  0.00     0.118 C 
BRANCH   2   3
ATOM      3  N   UNL A   1      42.845  21.227  25.161  1.00  0.00    -0.352 N 
ATOM      4  C   UNL A   1      43.540  22.407  25.192  1.00  0.00     0.251 C 
ATOM      5  O   UNL A   1      43.649  23.029  24.134  1.00  0.00    -0.269 OA
ATOM      6  H   UNL A   1      42.536  20.980  24.259  1.00  0.00     0.163 HD
BRANCH   4   7
ATOM      7  C   UNL A   1      44.124  22.988  26.429  1.00  0.00     0.039 A 
ATOM      8  C   UNL A   1      45.383  24.213  28.639  1.00  0.00     0.063 A 
ATOM      9  C   UNL A   1      46.141  23.709  27.582  1.00  0.00     0.029 A 
ATOM     10  C   UNL A   1      44.006  23.978  28.637  1.00  0.00     0.029 A 
ATOM     11  C   UNL A   1      45.518  23.139  26.469  1.00  0.00     0.016 A 
ATOM     12  C   UNL A   1      43.386  23.332  27.561  1.00  0.00     0.016 A 
BRANCH   8  13
ATOM     13  N   UNL A   1      45.935  24.858  29.750  1.00  0.00    -0.257 NA
ATOM     14  C   UNL A   1      47.061  25.497  29.708  1.00  0.00     0.111 C 
BRANCH  14  15
ATOM     15  C   UNL A   1      48.017  25.698  28.583  1.00  0.00     0.020 C 
ATOM     16  C   UNL A   1      48.235  26.871  27.965  1.00  0.00     0.002 C 
BRANCH  16  17
ATOM     17  C   UNL A   1      47.494  28.103  28.154  1.00  0.00     0.009 C 
ATOM     18  C   UNL A   1      42.310  29.312  26.216  1.00  0.00     0.149 C 
ATOM     19  N   UNL A   1      43.673  29.052  26.672  1.00  0.00    -0.351 N 
ATOM     20  C   UNL A   1      44.379  27.940  26.250  1.00  0.00     0.086 C 
ATOM     21  C   UNL A   1      44.275  29.965  27.585  1.00  0.00     0.048 A 
ATOM     22  C   UNL A   1      45.608  27.604  26.662  1.00  0.00     0.026 C 
ATOM     23  C   UNL A   1      45.600  29.724  28.066  1.00  0.00     0.005 A 
ATOM     24  C   UNL A   1      43.603  31.121  28.038  1.00  0.00     0.027 A 
ATOM     25  C   UNL A   1      46.294  28.449  27.637  1.00  0.00    -0.015 C 
ATOM     26  C   UNL A   1      46.189  30.665  28.937  1.00  0.00     0.011 A 
ATOM     27  C   UNL A   1      44.203  32.023  28.918  1.00  0.00     0.002 A 
ATOM     28  C   UNL A   1      45.496  31.799  29.360  1.00  0.00     0.001 A 
ENDBRANCH  16  17
ENDBRANCH  14  15
ENDBRANCH   8  13
ENDBRANCH   4   7
ENDBRANCH   2   3
ENDBRANCH   1   2
BRANCH   1  29
ATOM     29  C   UNL A   1      40.372  21.487  27.017  1.00  0.00     0.118 C 
BRANCH  29  30
ATOM     30  N   UNL A   1      39.336  22.068  26.173  1.00  0.00    -0.352 N 
ATOM     31  C   UNL A   1      38.811  23.341  26.114  1.00  0.00     0.251 C 
ATOM     32  H   UNL A   1      38.940  21.438  25.530  1.00  0.00     0.163 HD
ATOM     33  O   UNL A   1      37.832  23.550  25.407  1.00  0.00    -0.269 OA
BRANCH  31  34
ATOM     34  C   UNL A   1      39.380  24.444  26.925  1.00  0.00     0.039 A 
ATOM     35  C   UNL A   1      39.015  24.630  28.256  1.00  0.00     0.014 A 
ATOM     36  C   UNL A   1      40.316  25.307  26.345  1.00  0.00     0.014 A 
ATOM     37  C   UNL A   1      39.390  25.791  28.923  1.00  0.00     0.010 A 
ATOM     38  C   UNL A   1      40.794  26.411  27.063  1.00  0.00     0.010 A 
ATOM     39  C   UNL A   1      40.287  26.699  28.338  1.00  0.00    -0.014 A 
BRANCH  39  40
ATOM     40  C   UNL A   1      40.665  27.934  29.083  1.00  0.00     0.031 A 
ATOM     41  C   UNL A   1      39.683  29.069  29.245  1.00  0.00     0.074 A 
ATOM     42  C   UNL A   1      41.867  27.996  29.695  1.00  0.00     0.049 A 
ATOM     43  N   UNL A   1      39.833  30.195  29.895  1.00  0.00    -0.248 NA
ATOM     44  C   UNL A   1      38.365  28.929  28.600  1.00  0.00     0.031 C 
ATOM     45  C   UNL A   1      42.891  26.950  29.643  1.00  0.00     0.029 A 
ATOM     46  N   UNL A   1      42.412  28.948  30.521  1.00  0.00    -0.354 N 
ATOM     47  C   UNL A   1      38.648  30.902  29.717  1.00  0.00     0.074 A 
ATOM     48  C   UNL A   1      37.793  30.092  28.880  1.00  0.00     0.031 C 
ATOM     49  C   UNL A   1      43.890  27.269  30.477  1.00  0.00     0.029 A 
ATOM     50  C   UNL A   1      43.628  28.582  31.055  1.00  0.00     0.049 A 
ATOM     51  H   UNL A   1      41.978  29.810  30.712  1.00  0.00     0.167 HD
ATOM     52  C   UNL A   1      38.301  32.110  30.221  1.00  0.00     0.031 A 
ATOM     53  C   UNL A   1      44.448  29.226  31.910  1.00  0.00     0.031 A 
ATOM     54  C   UNL A   1      39.140  32.898  31.085  1.00  0.00     0.049 A 
ATOM     55  C   UNL A   1      44.059  30.587  32.409  1.00  0.00     0.074 A 
ATOM     56  C   UNL A   1      38.862  34.130  31.652  1.00  0.00     0.029 A 
ATOM     57  N   UNL A   1      40.402  32.531  31.522  1.00  0.00    -0.354 N 
ATOM     58  N   UNL A   1      42.945  31.246  32.204  1.00  0.00    -0.248 NA
ATOM     59  C   UNL A   1      45.041  31.300  33.237  1.00  0.00     0.031 C 
ATOM     60  C   UNL A   1      39.980  34.535  32.385  1.00  0.00     0.029 A 
ATOM     61  C   UNL A   1      40.927  33.525  32.330  1.00  0.00     0.049 A 
ATOM     62  H   UNL A   1      40.860  31.690  31.291  1.00  0.00     0.167 HD
ATOM     63  C   UNL A   1      43.088  32.449  32.886  1.00  0.00     0.074 A 
ATOM     64  C   UNL A   1      44.386  32.418  33.526  1.00  0.00     0.031 C 
ATOM     65  C   UNL A   1      42.220  33.486  32.965  1.00  0.00     0.031 A 
BRANCH  52  66
ATOM     66  C   UNL A   1      36.951  32.682  29.869  1.00  0.00    -0.014 A 
ATOM     67  C   UNL A   1      36.813  33.472  28.711  1.00  0.00     0.010 A 
ATOM     68  C   UNL A   1      35.867  32.574  30.757  1.00  0.00     0.010 A 
ATOM     69  C   UNL A   1      35.633  34.179  28.470  1.00  0.00     0.020 A 
ATOM     70  C   UNL A   1      34.675  33.261  30.507  1.00  0.00     0.020 A 
ATOM     71  C   UNL A   1      34.576  34.081  29.379  1.00  0.00     0.054 A 
BRANCH  71  72
ATOM     72  S   UNL A   1      33.072  35.051  29.080  1.00  0.00     0.124 S 
ATOM     73  O   UNL A   1      32.417  35.014  30.384  1.00  0.00    -0.237 OA
ATOM     74  O   UNL A   1      33.605  36.350  28.677  1.00  0.00    -0.237 OA
ATOM     75  O   UNL A   1      32.394  34.312  28.018  1.00  0.00    -0.744 OA
ENDBRANCH  71  72
ENDBRANCH  52  66
BRANCH  53  76
ATOM     76  C   UNL A   1      45.712  28.571  32.350  1.00  0.00    -0.014 A 
ATOM     77  C   UNL A   1      46.897  28.732  31.608  1.00  0.00     0.010 A 
ATOM     78  C   UNL A   1      45.721  27.730  33.476  1.00  0.00     0.010 A 
ATOM     79  C   UNL A   1      48.051  28.022  31.948  1.00  0.00     0.020 A 
ATOM     80  C   UNL A   1      46.884  27.042  33.840  1.00  0.00     0.020 A 
ATOM     81  C   UNL A   1      48.032  27.170  33.055  1.00  0.00     0.054 A 
BRANCH  81  82
ATOM     82  S   UNL A   1      49.531  26.232  33.460  1.00  0.00     0.124 S 
ATOM     83  O   UNL A   1      49.737  26.590  34.861  1.00  0.00    -0.237 OA
ATOM     84  O   UNL A   1      49.121  24.851  33.217  1.00  0.00    -0.237 OA
ATOM     85  O   UNL A   1      50.524  26.757  32.526  1.00  0.00    -0.744 OA
ENDBRANCH  81  82
ENDBRANCH  53  76
BRANCH  65  86
ATOM     86  C   UNL A   1      42.624  34.691  33.770  1.00  0.00    -0.014 A 
ATOM     87  C   UNL A   1      43.306  35.750  33.144  1.00  0.00     0.010 A 
ATOM     88  C   UNL A   1      42.452  34.711  35.165  1.00  0.00     0.010 A 
ATOM     89  C   UNL A   1      43.845  36.791  33.904  1.00  0.00     0.020 A 
ATOM     90  C   UNL A   1      42.966  35.764  35.925  1.00  0.00     0.020 A 
ATOM     91  C   UNL A   1      43.683  36.783  35.291  1.00  0.00     0.054 A 
BRANCH  91  92
ATOM     92  S   UNL A   1      44.423  38.121  36.267  1.00  0.00     0.124 S 
ATOM     93  O   UNL A   1      44.183  39.287  35.421  1.00  0.00    -0.237 OA
ATOM     94  O   UNL A   1      43.656  38.077  37.510  1.00  0.00    -0.237 OA
ATOM     95  O   UNL A   1      45.822  37.719  36.393  1.00  0.00    -0.744 OA
ENDBRANCH  91  92
ENDBRANCH  65  86
ENDBRANCH  39  40
ENDBRANCH  31  34
ENDBRANCH  29  30
ENDBRANCH   1  29
TORSDOF 16
ENDMDL
