MODEL 1
REMARK VINA RESULT:      -9.9      0.000      0.000
REMARK SMILES O=C(Cc1ccc(=O)n(C(F)F)c1)NCCCNC(=O)c1ccc(-c2c3nc(c(-c4ccc(S(=O)(=O)[O-])cc4)c4ccc([nH]4)c(-c4ccc(S(=O)(=O)[O-])cc4)c4nc(c(-c5ccc(S(=O)(=O)[O-])cc5)c5ccc2[nH]5)C=C4)C=C3)cc1
REMARK SMILES IDX 16 1 15 2 14 3 1 4 2 5 3 7 4 8 5 9 13 10 6 11 9 12 7 13 8 14
REMARK SMILES IDX 10 15 11 16 12 17 17 18 18 19 19 20 20 22 21 23 22 24 80 25
REMARK SMILES IDX 23 26 79 27 24 28 25 29 26 30 73 31 27 32 78 33 72 34 74 35
REMARK SMILES IDX 28 36 77 37 71 38 70 39 29 41 59 42 40 43 58 44 41 45 44 46
REMARK SMILES IDX 57 47 75 48 42 49 43 50 56 52 76 53 45 54 30 55 31 56 39 57
REMARK SMILES IDX 32 58 38 59 33 60 34 61 35 62 36 63 37 64 60 65 61 66 69 67
REMARK SMILES IDX 62 68 68 69 63 70 64 71 65 72 66 73 67 74 46 75 47 76 55 77
REMARK SMILES IDX 48 78 54 79 49 80 50 81 51 82 52 83 53 84
REMARK H PARENT 14 6 18 21 74 40 44 51
REMARK Flexibility Score: inf
ROOT
ATOM      1  C   UNL A   1      34.685  34.468  29.282  1.00  0.00     0.042 C 
ENDROOT
BRANCH   1   2
ATOM      2  C   UNL A   1      34.651  34.361  30.800  1.00  0.00     0.117 C 
BRANCH   2   3
ATOM      3  N   UNL A   1      35.981  34.305  31.374  1.00  0.00    -0.356 N 
ATOM      4  O   UNL A   1      35.491  35.407  33.336  1.00  0.00    -0.275 OA
ATOM      5  C   UNL A   1      36.292  34.825  32.612  1.00  0.00     0.224 C 
ATOM      6  H   UNL A   1      36.698  33.875  30.854  1.00  0.00     0.163 HD
BRANCH   5   7
ATOM      7  C   UNL A   1      37.737  34.580  33.037  1.00  0.00     0.137 C 
BRANCH   7   8
ATOM      8  C   UNL A   1      37.814  33.382  33.950  1.00  0.00    -0.022 A 
ATOM      9  C   UNL A   1      37.700  33.595  35.378  1.00  0.00     0.011 A 
ATOM     10  C   UNL A   1      38.039  32.136  33.497  1.00  0.00     0.099 A 
ATOM     11  C   UNL A   1      37.850  32.579  36.236  1.00  0.00     0.072 A 
ATOM     12  N   UNL A   1      38.192  31.067  34.362  1.00  0.00    -0.258 N 
ATOM     13  C   UNL A   1      38.126  31.203  35.739  1.00  0.00     0.254 A 
ATOM     14  O   UNL A   1      38.272  30.301  36.558  1.00  0.00    -0.269 OA
BRANCH  12  15
ATOM     15  C   UNL A   1      38.486  29.754  33.848  1.00  0.00     0.451 C 
ATOM     16  F   UNL A   1      37.878  29.554  32.652  1.00  0.00    -0.185 F 
ATOM     17  F   UNL A   1      39.819  29.582  33.674  1.00  0.00    -0.185 F 
ENDBRANCH  12  15
ENDBRANCH   7   8
ENDBRANCH   5   7
ENDBRANCH   2   3
ENDBRANCH   1   2
BRANCH   1  18
ATOM     18  C   UNL A   1      35.265  33.248  28.574  1.00  0.00     0.118 C 
BRANCH  18  19
ATOM     19  N   UNL A   1      34.257  32.307  28.105  1.00  0.00    -0.352 N 
ATOM     20  C   UNL A   1      34.370  30.957  27.853  1.00  0.00     0.251 C 
ATOM     21  H   UNL A   1      33.365  32.691  27.943  1.00  0.00     0.163 HD
ATOM     22  O   UNL A   1      33.428  30.347  27.355  1.00  0.00    -0.269 OA
BRANCH  20  23
ATOM     23  C   UNL A   1      35.641  30.258  28.141  1.00  0.00     0.039 A 
ATOM     24  C   UNL A   1      35.862  29.661  29.384  1.00  0.00     0.014 A 
ATOM     25  C   UNL A   1      36.642  30.243  27.166  1.00  0.00     0.014 A 
ATOM     26  C   UNL A   1      37.139  29.215  29.714  1.00  0.00     0.010 A 
ATOM     27  C   UNL A   1      37.902  29.724  27.474  1.00  0.00     0.010 A 
ATOM     28  C   UNL A   1      38.178  29.260  28.769  1.00  0.00    -0.014 A 
BRANCH  28  29
ATOM     29  C   UNL A   1      39.552  28.853  29.164  1.00  0.00     0.031 A 
ATOM     30  C   UNL A   1      40.383  29.734  30.061  1.00  0.00     0.074 A 
ATOM     31  C   UNL A   1      40.030  27.657  28.769  1.00  0.00     0.049 A 
ATOM     32  N   UNL A   1      41.593  29.532  30.517  1.00  0.00    -0.248 NA
ATOM     33  C   UNL A   1      39.782  31.003  30.508  1.00  0.00     0.031 C 
ATOM     34  C   UNL A   1      39.306  26.698  27.932  1.00  0.00     0.029 A 
ATOM     35  N   UNL A   1      41.221  27.030  29.040  1.00  0.00    -0.354 N 
ATOM     36  C   UNL A   1      41.902  30.647  31.288  1.00  0.00     0.074 A 
ATOM     37  C   UNL A   1      40.766  31.537  31.219  1.00  0.00     0.031 C 
ATOM     38  C   UNL A   1      40.042  25.585  27.806  1.00  0.00     0.029 A 
ATOM     39  C   UNL A   1      41.317  25.772  28.495  1.00  0.00     0.049 A 
ATOM     40  H   UNL A   1      41.938  27.443  29.574  1.00  0.00     0.167 HD
ATOM     41  C   UNL A   1      43.026  30.899  31.999  1.00  0.00     0.031 A 
ATOM     42  C   UNL A   1      42.316  24.868  28.532  1.00  0.00     0.031 A 
ATOM     43  C   UNL A   1      44.151  30.003  32.079  1.00  0.00     0.049 A 
ATOM     44  C   UNL A   1      43.577  25.194  29.278  1.00  0.00     0.074 A 
ATOM     45  C   UNL A   1      45.331  30.175  32.781  1.00  0.00     0.029 A 
ATOM     46  N   UNL A   1      44.234  28.772  31.448  1.00  0.00    -0.354 N 
ATOM     47  N   UNL A   1      43.855  26.263  29.984  1.00  0.00    -0.248 NA
ATOM     48  C   UNL A   1      44.660  24.203  29.229  1.00  0.00     0.031 C 
ATOM     49  C   UNL A   1      46.150  29.072  32.533  1.00  0.00     0.029 A 
ATOM     50  C   UNL A   1      45.456  28.184  31.726  1.00  0.00     0.049 A 
ATOM     51  H   UNL A   1      43.531  28.375  30.886  1.00  0.00     0.167 HD
ATOM     52  C   UNL A   1      45.143  26.070  30.470  1.00  0.00     0.074 A 
ATOM     53  C   UNL A   1      45.584  24.776  29.991  1.00  0.00     0.031 C 
ATOM     54  C   UNL A   1      45.889  26.897  31.241  1.00  0.00     0.031 A 
BRANCH  41  55
ATOM     55  C   UNL A   1      43.117  32.197  32.756  1.00  0.00    -0.014 A 
ATOM     56  C   UNL A   1      43.827  33.279  32.204  1.00  0.00     0.010 A 
ATOM     57  C   UNL A   1      42.604  32.308  34.061  1.00  0.00     0.010 A 
ATOM     58  C   UNL A   1      44.045  34.441  32.950  1.00  0.00     0.020 A 
ATOM     59  C   UNL A   1      42.800  33.478  34.802  1.00  0.00     0.020 A 
ATOM     60  C   UNL A   1      43.538  34.528  34.249  1.00  0.00     0.054 A 
BRANCH  60  61
ATOM     61  S   UNL A   1      43.840  36.037  35.210  1.00  0.00     0.124 S 
ATOM     62  O   UNL A   1      44.563  35.525  36.370  1.00  0.00    -0.237 OA
ATOM     63  O   UNL A   1      44.624  36.856  34.287  1.00  0.00    -0.237 OA
ATOM     64  O   UNL A   1      42.495  36.540  35.482  1.00  0.00    -0.744 OA
ENDBRANCH  60  61
ENDBRANCH  41  55
BRANCH  42  65
ATOM     65  C   UNL A   1      42.131  23.564  27.840  1.00  0.00    -0.014 A 
ATOM     66  C   UNL A   1      41.510  22.490  28.504  1.00  0.00     0.010 A 
ATOM     67  C   UNL A   1      42.668  23.359  26.558  1.00  0.00     0.010 A 
ATOM     68  C   UNL A   1      41.489  21.218  27.929  1.00  0.00     0.020 A 
ATOM     69  C   UNL A   1      42.626  22.091  25.967  1.00  0.00     0.020 A 
ATOM     70  C   UNL A   1      42.066  21.022  26.671  1.00  0.00     0.054 A 
BRANCH  70  71
ATOM     71  S   UNL A   1      42.093  19.350  25.972  1.00  0.00     0.124 S 
ATOM     72  O   UNL A   1      42.687  18.581  27.063  1.00  0.00    -0.237 OA
ATOM     73  O   UNL A   1      40.681  19.085  25.711  1.00  0.00    -0.237 OA
ATOM     74  O   UNL A   1      42.927  19.493  24.781  1.00  0.00    -0.744 OA
ENDBRANCH  70  71
ENDBRANCH  42  65
BRANCH  54  75
ATOM     75  C   UNL A   1      47.272  26.454  31.633  1.00  0.00    -0.014 A 
ATOM     76  C   UNL A   1      48.340  26.627  30.734  1.00  0.00     0.010 A 
ATOM     77  C   UNL A   1      47.482  25.731  32.820  1.00  0.00     0.010 A 
ATOM     78  C   UNL A   1      49.585  26.050  30.993  1.00  0.00     0.020 A 
ATOM     79  C   UNL A   1      48.733  25.170  33.094  1.00  0.00     0.020 A 
ATOM     80  C   UNL A   1      49.768  25.311  32.165  1.00  0.00     0.054 A 
BRANCH  80  81
ATOM     81  S   UNL A   1      51.375  24.523  32.462  1.00  0.00     0.124 S 
ATOM     82  O   UNL A   1      51.594  24.797  33.880  1.00  0.00    -0.237 OA
ATOM     83  O   UNL A   1      51.116  23.125  32.124  1.00  0.00    -0.237 OA
ATOM     84  O   UNL A   1      52.273  25.221  31.544  1.00  0.00    -0.744 OA
ENDBRANCH  80  81
ENDBRANCH  54  75
ENDBRANCH  28  29
ENDBRANCH  20  23
ENDBRANCH  18  19
ENDBRANCH   1  18
TORSDOF 15
ENDMDL
MODEL 2
REMARK VINA RESULT:      -9.6      3.719      6.369
REMARK SMILES O=C(Cc1ccc(=O)n(C(F)F)c1)NCCCNC(=O)c1ccc(-c2c3nc(c(-c4ccc(S(=O)(=O)[O-])cc4)c4ccc([nH]4)c(-c4ccc(S(=O)(=O)[O-])cc4)c4nc(c(-c5ccc(S(=O)(=O)[O-])cc5)c5ccc2[nH]5)C=C4)C=C3)cc1
REMARK SMILES IDX 16 1 15 2 14 3 1 4 2 5 3 7 4 8 5 9 13 10 6 11 9 12 7 13 8 14
REMARK SMILES IDX 10 15 11 16 12 17 17 18 18 19 19 20 20 22 21 23 22 24 80 25
REMARK SMILES IDX 23 26 79 27 24 28 25 29 26 30 73 31 27 32 78 33 72 34 74 35
REMARK SMILES IDX 28 36 77 37 71 38 70 39 29 41 59 42 40 43 58 44 41 45 44 46
REMARK SMILES IDX 57 47 75 48 42 49 43 50 56 52 76 53 45 54 30 55 31 56 39 57
REMARK SMILES IDX 32 58 38 59 33 60 34 61 35 62 36 63 37 64 60 65 61 66 69 67
REMARK SMILES IDX 62 68 68 69 63 70 64 71 65 72 66 73 67 74 46 75 47 76 55 77
REMARK SMILES IDX 48 78 54 79 49 80 50 81 51 82 52 83 53 84
REMARK H PARENT 14 6 18 21 74 40 44 51
REMARK Flexibility Score: inf
ROOT
ATOM      1  C   UNL A   1      33.746  28.200  26.082  1.00  0.00     0.042 C 
ENDROOT
BRANCH   1   2
ATOM      2  C   UNL A   1      33.640  26.684  25.987  1.00  0.00     0.117 C 
BRANCH   2   3
ATOM      3  N   UNL A   1      32.635  26.265  25.030  1.00  0.00    -0.356 N 
ATOM      4  O   UNL A   1      30.886  26.083  26.517  1.00  0.00    -0.275 OA
ATOM      5  C   UNL A   1      31.325  26.010  25.374  1.00  0.00     0.224 C 
ATOM      6  H   UNL A   1      32.901  26.157  24.089  1.00  0.00     0.163 HD
BRANCH   5   7
ATOM      7  C   UNL A   1      30.435  25.657  24.187  1.00  0.00     0.137 C 
BRANCH   7   8
ATOM      8  C   UNL A   1      29.536  26.820  23.847  1.00  0.00    -0.022 A 
ATOM      9  C   UNL A   1      28.102  26.637  23.956  1.00  0.00     0.011 A 
ATOM     10  C   UNL A   1      30.006  27.996  23.397  1.00  0.00     0.099 A 
ATOM     11  C   UNL A   1      27.258  27.607  23.583  1.00  0.00     0.072 A 
ATOM     12  N   UNL A   1      29.156  29.017  23.010  1.00  0.00    -0.258 N 
ATOM     13  C   UNL A   1      27.776  28.901  23.059  1.00  0.00     0.254 A 
ATOM     14  O   UNL A   1      26.970  29.759  22.713  1.00  0.00    -0.269 OA
BRANCH  12  15
ATOM     15  C   UNL A   1      29.690  30.246  22.481  1.00  0.00     0.451 C 
ATOM     16  F   UNL A   1      29.327  30.414  21.186  1.00  0.00    -0.185 F 
ATOM     17  F   UNL A   1      29.246  31.316  23.184  1.00  0.00    -0.185 F 
ENDBRANCH  12  15
ENDBRANCH   7   8
ENDBRANCH   5   7
ENDBRANCH   2   3
ENDBRANCH   1   2
BRANCH   1  18
ATOM     18  C   UNL A   1      33.236  28.790  27.393  1.00  0.00     0.118 C 
BRANCH  18  19
ATOM     19  N   UNL A   1      33.430  30.230  27.502  1.00  0.00    -0.352 N 
ATOM     20  C   UNL A   1      34.545  30.935  27.899  1.00  0.00     0.251 C 
ATOM     21  H   UNL A   1      32.650  30.779  27.258  1.00  0.00     0.163 HD
ATOM     22  O   UNL A   1      34.483  32.153  28.031  1.00  0.00    -0.269 OA
BRANCH  20  23
ATOM     23  C   UNL A   1      35.800  30.215  28.208  1.00  0.00     0.039 A 
ATOM     24  C   UNL A   1      35.997  29.628  29.460  1.00  0.00     0.014 A 
ATOM     25  C   UNL A   1      36.809  30.168  27.242  1.00  0.00     0.014 A 
ATOM     26  C   UNL A   1      37.262  29.162  29.808  1.00  0.00     0.010 A 
ATOM     27  C   UNL A   1      38.056  29.628  27.570  1.00  0.00     0.010 A 
ATOM     28  C   UNL A   1      38.311  29.175  28.873  1.00  0.00    -0.014 A 
BRANCH  28  29
ATOM     29  C   UNL A   1      39.672  28.745  29.286  1.00  0.00     0.031 A 
ATOM     30  C   UNL A   1      40.489  29.594  30.226  1.00  0.00     0.074 A 
ATOM     31  C   UNL A   1      40.150  27.558  28.867  1.00  0.00     0.049 A 
ATOM     32  N   UNL A   1      41.687  29.369  30.703  1.00  0.00    -0.248 NA
ATOM     33  C   UNL A   1      39.888  30.853  30.696  1.00  0.00     0.031 C 
ATOM     34  C   UNL A   1      39.439  26.629  27.986  1.00  0.00     0.029 A 
ATOM     35  N   UNL A   1      41.330  26.914  29.146  1.00  0.00    -0.354 N 
ATOM     36  C   UNL A   1      41.987  30.458  31.513  1.00  0.00     0.074 A 
ATOM     37  C   UNL A   1      40.859  31.359  31.445  1.00  0.00     0.031 C 
ATOM     38  C   UNL A   1      40.169  25.514  27.844  1.00  0.00     0.029 A 
ATOM     39  C   UNL A   1      41.429  25.671  28.566  1.00  0.00     0.049 A 
ATOM     40  H   UNL A   1      42.038  27.305  29.708  1.00  0.00     0.167 HD
ATOM     41  C   UNL A   1      43.097  30.680  32.256  1.00  0.00     0.031 A 
ATOM     42  C   UNL A   1      42.421  24.758  28.599  1.00  0.00     0.031 A 
ATOM     43  C   UNL A   1      44.213  29.774  32.334  1.00  0.00     0.049 A 
ATOM     44  C   UNL A   1      43.667  25.053  29.382  1.00  0.00     0.074 A 
ATOM     45  C   UNL A   1      45.378  29.916  33.067  1.00  0.00     0.029 A 
ATOM     46  N   UNL A   1      44.301  28.561  31.670  1.00  0.00    -0.354 N 
ATOM     47  N   UNL A   1      43.937  26.098  30.126  1.00  0.00    -0.248 NA
ATOM     48  C   UNL A   1      44.744  24.055  29.329  1.00  0.00     0.031 C 
ATOM     49  C   UNL A   1      46.194  28.815  32.805  1.00  0.00     0.029 A 
ATOM     50  C   UNL A   1      45.512  27.955  31.958  1.00  0.00     0.049 A 
ATOM     51  H   UNL A   1      43.608  28.186  31.081  1.00  0.00     0.167 HD
ATOM     52  C   UNL A   1      45.212  25.882  30.634  1.00  0.00     0.074 A 
ATOM     53  C   UNL A   1      45.655  24.599  30.127  1.00  0.00     0.031 C 
ATOM     54  C   UNL A   1      45.947  26.680  31.445  1.00  0.00     0.031 A 
BRANCH  41  55
ATOM     55  C   UNL A   1      43.180  31.955  33.052  1.00  0.00    -0.014 A 
ATOM     56  C   UNL A   1      43.731  33.110  32.466  1.00  0.00     0.010 A 
ATOM     57  C   UNL A   1      42.824  31.980  34.413  1.00  0.00     0.010 A 
ATOM     58  C   UNL A   1      43.950  34.259  33.231  1.00  0.00     0.020 A 
ATOM     59  C   UNL A   1      43.019  33.137  35.175  1.00  0.00     0.020 A 
ATOM     60  C   UNL A   1      43.601  34.262  34.584  1.00  0.00     0.054 A 
BRANCH  60  61
ATOM     61  S   UNL A   1      43.902  35.757  35.566  1.00  0.00     0.124 S 
ATOM     62  O   UNL A   1      43.861  36.805  34.552  1.00  0.00    -0.237 OA
ATOM     63  O   UNL A   1      42.789  35.749  36.513  1.00  0.00    -0.237 OA
ATOM     64  O   UNL A   1      45.214  35.513  36.162  1.00  0.00    -0.744 OA
ENDBRANCH  60  61
ENDBRANCH  41  55
BRANCH  42  65
ATOM     65  C   UNL A   1      42.242  23.477  27.865  1.00  0.00    -0.014 A 
ATOM     66  C   UNL A   1      41.375  22.488  28.366  1.00  0.00     0.010 A 
ATOM     67  C   UNL A   1      43.015  23.198  26.726  1.00  0.00     0.010 A 
ATOM     68  C   UNL A   1      41.334  21.220  27.782  1.00  0.00     0.020 A 
ATOM     69  C   UNL A   1      42.956  21.937  26.122  1.00  0.00     0.020 A 
ATOM     70  C   UNL A   1      42.141  20.947  26.675  1.00  0.00     0.054 A 
BRANCH  70  71
ATOM     71  S   UNL A   1      42.128  19.274  25.974  1.00  0.00     0.124 S 
ATOM     72  O   UNL A   1      42.706  18.491  27.063  1.00  0.00    -0.237 OA
ATOM     73  O   UNL A   1      40.709  19.043  25.717  1.00  0.00    -0.237 OA
ATOM     74  O   UNL A   1      42.961  19.399  24.782  1.00  0.00    -0.744 OA
ENDBRANCH  70  71
ENDBRANCH  42  65
BRANCH  54  75
ATOM     75  C   UNL A   1      47.317  26.215  31.855  1.00  0.00    -0.014 A 
ATOM     76  C   UNL A   1      48.386  26.311  30.945  1.00  0.00     0.010 A 
ATOM     77  C   UNL A   1      47.511  25.545  33.075  1.00  0.00     0.010 A 
ATOM     78  C   UNL A   1      49.614  25.710  31.229  1.00  0.00     0.020 A 
ATOM     79  C   UNL A   1      48.745  24.960  33.373  1.00  0.00     0.020 A 
ATOM     80  C   UNL A   1      49.780  25.024  32.435  1.00  0.00     0.054 A 
BRANCH  80  81
ATOM     81  S   UNL A   1      51.363  24.203  32.766  1.00  0.00     0.124 S 
ATOM     82  O   UNL A   1      51.377  24.141  34.225  1.00  0.00    -0.237 OA
ATOM     83  O   UNL A   1      51.211  22.920  32.083  1.00  0.00    -0.237 OA
ATOM     84  O   UNL A   1      52.347  25.104  32.169  1.00  0.00    -0.744 OA
ENDBRANCH  80  81
ENDBRANCH  54  75
ENDBRANCH  28  29
ENDBRANCH  20  23
ENDBRANCH  18  19
ENDBRANCH   1  18
TORSDOF 15
ENDMDL
MODEL 3
REMARK VINA RESULT:      -9.5      3.749     10.817
REMARK SMILES O=C(Cc1ccc(=O)n(C(F)F)c1)NCCCNC(=O)c1ccc(-c2c3nc(c(-c4ccc(S(=O)(=O)[O-])cc4)c4ccc([nH]4)c(-c4ccc(S(=O)(=O)[O-])cc4)c4nc(c(-c5ccc(S(=O)(=O)[O-])cc5)c5ccc2[nH]5)C=C4)C=C3)cc1
REMARK SMILES IDX 16 1 15 2 14 3 1 4 2 5 3 7 4 8 5 9 13 10 6 11 9 12 7 13 8 14
REMARK SMILES IDX 10 15 11 16 12 17 17 18 18 19 19 20 20 22 21 23 22 24 80 25
REMARK SMILES IDX 23 26 79 27 24 28 25 29 26 30 73 31 27 32 78 33 72 34 74 35
REMARK SMILES IDX 28 36 77 37 71 38 70 39 29 41 59 42 40 43 58 44 41 45 44 46
REMARK SMILES IDX 57 47 75 48 42 49 43 50 56 52 76 53 45 54 30 55 31 56 39 57
REMARK SMILES IDX 32 58 38 59 33 60 34 61 35 62 36 63 37 64 60 65 61 66 69 67
REMARK SMILES IDX 62 68 68 69 63 70 64 71 65 72 66 73 67 74 46 75 47 76 55 77
REMARK SMILES IDX 48 78 54 79 49 80 50 81 51 82 52 83 53 84
REMARK H PARENT 14 6 18 21 74 40 44 51
REMARK Flexibility Score: inf
ROOT
ATOM      1  C   UNL A   1      36.264  22.676  23.724  1.00  0.00     0.042 C 
ENDROOT
BRANCH   1   2
ATOM      2  C   UNL A   1      34.800  23.094  23.738  1.00  0.00     0.117 C 
BRANCH   2   3
ATOM      3  N   UNL A   1      34.600  24.404  23.150  1.00  0.00    -0.356 N 
ATOM      4  O   UNL A   1      32.312  24.268  22.928  1.00  0.00    -0.275 OA
ATOM      5  C   UNL A   1      33.360  24.894  22.803  1.00  0.00     0.224 C 
ATOM      6  H   UNL A   1      35.388  24.971  22.991  1.00  0.00     0.163 HD
BRANCH   5   7
ATOM      7  C   UNL A   1      33.390  26.324  22.273  1.00  0.00     0.137 C 
BRANCH   7   8
ATOM      8  C   UNL A   1      33.016  27.292  23.368  1.00  0.00    -0.022 A 
ATOM      9  C   UNL A   1      31.870  28.156  23.163  1.00  0.00     0.011 A 
ATOM     10  C   UNL A   1      33.732  27.424  24.498  1.00  0.00     0.099 A 
ATOM     11  C   UNL A   1      31.549  29.092  24.064  1.00  0.00     0.072 A 
ATOM     12  N   UNL A   1      33.418  28.380  25.448  1.00  0.00    -0.258 N 
ATOM     13  C   UNL A   1      32.357  29.259  25.304  1.00  0.00     0.254 A 
ATOM     14  O   UNL A   1      32.039  30.139  26.097  1.00  0.00    -0.269 OA
BRANCH  12  15
ATOM     15  C   UNL A   1      34.237  28.532  26.623  1.00  0.00     0.451 C 
ATOM     16  F   UNL A   1      34.776  29.776  26.680  1.00  0.00    -0.185 F 
ATOM     17  F   UNL A   1      33.515  28.336  27.753  1.00  0.00    -0.185 F 
ENDBRANCH  12  15
ENDBRANCH   7   8
ENDBRANCH   5   7
ENDBRANCH   2   3
ENDBRANCH   1   2
BRANCH   1  18
ATOM     18  C   UNL A   1      37.105  23.277  24.847  1.00  0.00     0.118 C 
BRANCH  18  19
ATOM     19  N   UNL A   1      38.122  22.373  25.366  1.00  0.00    -0.352 N 
ATOM     20  C   UNL A   1      39.194  22.642  26.188  1.00  0.00     0.251 C 
ATOM     21  H   UNL A   1      38.031  21.433  25.088  1.00  0.00     0.163 HD
ATOM     22  O   UNL A   1      40.012  21.761  26.434  1.00  0.00    -0.269 OA
BRANCH  20  23
ATOM     23  C   UNL A   1      39.380  24.004  26.734  1.00  0.00     0.039 A 
ATOM     24  C   UNL A   1      40.031  24.990  25.989  1.00  0.00     0.014 A 
ATOM     25  C   UNL A   1      38.933  24.282  28.029  1.00  0.00     0.014 A 
ATOM     26  C   UNL A   1      40.398  26.184  26.603  1.00  0.00     0.010 A 
ATOM     27  C   UNL A   1      39.236  25.513  28.617  1.00  0.00     0.010 A 
ATOM     28  C   UNL A   1      40.022  26.450  27.930  1.00  0.00    -0.014 A 
BRANCH  28  29
ATOM     29  C   UNL A   1      40.489  27.696  28.593  1.00  0.00     0.031 A 
ATOM     30  C   UNL A   1      41.935  27.857  28.985  1.00  0.00     0.074 A 
ATOM     31  C   UNL A   1      39.624  28.711  28.784  1.00  0.00     0.049 A 
ATOM     32  N   UNL A   1      42.520  28.878  29.558  1.00  0.00    -0.248 NA
ATOM     33  C   UNL A   1      42.844  26.735  28.697  1.00  0.00     0.031 C 
ATOM     34  C   UNL A   1      38.208  28.690  28.412  1.00  0.00     0.029 A 
ATOM     35  N   UNL A   1      39.812  29.965  29.310  1.00  0.00    -0.354 N 
ATOM     36  C   UNL A   1      43.854  28.518  29.710  1.00  0.00     0.074 A 
ATOM     37  C   UNL A   1      43.991  27.174  29.196  1.00  0.00     0.031 C 
ATOM     38  C   UNL A   1      37.671  29.892  28.668  1.00  0.00     0.029 A 
ATOM     39  C   UNL A   1      38.682  30.748  29.283  1.00  0.00     0.049 A 
ATOM     40  H   UNL A   1      40.674  30.274  29.672  1.00  0.00     0.167 HD
ATOM     41  C   UNL A   1      44.875  29.246  30.222  1.00  0.00     0.031 A 
ATOM     42  C   UNL A   1      38.471  32.010  29.709  1.00  0.00     0.031 A 
ATOM     43  C   UNL A   1      44.739  30.590  30.720  1.00  0.00     0.049 A 
ATOM     44  C   UNL A   1      39.604  32.777  30.327  1.00  0.00     0.074 A 
ATOM     45  C   UNL A   1      45.722  31.407  31.252  1.00  0.00     0.029 A 
ATOM     46  N   UNL A   1      43.559  31.316  30.742  1.00  0.00    -0.354 N 
ATOM     47  N   UNL A   1      40.854  32.409  30.478  1.00  0.00    -0.248 NA
ATOM     48  C   UNL A   1      39.304  34.121  30.837  1.00  0.00     0.031 C 
ATOM     49  C   UNL A   1      45.126  32.607  31.643  1.00  0.00     0.029 A 
ATOM     50  C   UNL A   1      43.785  32.563  31.299  1.00  0.00     0.049 A 
ATOM     51  H   UNL A   1      42.690  30.994  30.410  1.00  0.00     0.167 HD
ATOM     52  C   UNL A   1      41.491  33.479  31.095  1.00  0.00     0.074 A 
ATOM     53  C   UNL A   1      40.494  34.515  31.275  1.00  0.00     0.031 C 
ATOM     54  C   UNL A   1      42.785  33.587  31.478  1.00  0.00     0.031 A 
BRANCH  41  55
ATOM     55  C   UNL A   1      46.242  28.618  30.279  1.00  0.00    -0.014 A 
ATOM     56  C   UNL A   1      47.012  28.514  29.106  1.00  0.00     0.010 A 
ATOM     57  C   UNL A   1      46.714  28.026  31.464  1.00  0.00     0.010 A 
ATOM     58  C   UNL A   1      48.218  27.807  29.108  1.00  0.00     0.020 A 
ATOM     59  C   UNL A   1      47.932  27.338  31.476  1.00  0.00     0.020 A 
ATOM     60  C   UNL A   1      48.665  27.215  30.292  1.00  0.00     0.054 A 
BRANCH  60  61
ATOM     61  S   UNL A   1      50.227  26.291  30.277  1.00  0.00     0.124 S 
ATOM     62  O   UNL A   1      51.217  27.359  30.361  1.00  0.00    -0.237 OA
ATOM     63  O   UNL A   1      50.110  25.442  31.461  1.00  0.00    -0.237 OA
ATOM     64  O   UNL A   1      50.184  25.575  29.004  1.00  0.00    -0.744 OA
ENDBRANCH  60  61
ENDBRANCH  41  55
BRANCH  42  65
ATOM     65  C   UNL A   1      37.120  32.608  29.542  1.00  0.00    -0.014 A 
ATOM     66  C   UNL A   1      36.743  33.175  28.310  1.00  0.00     0.010 A 
ATOM     67  C   UNL A   1      36.249  32.710  30.639  1.00  0.00     0.010 A 
ATOM     68  C   UNL A   1      35.550  33.891  28.195  1.00  0.00     0.020 A 
ATOM     69  C   UNL A   1      35.040  33.405  30.520  1.00  0.00     0.020 A 
ATOM     70  C   UNL A   1      34.715  34.018  29.308  1.00  0.00     0.054 A 
BRANCH  70  71
ATOM     71  S   UNL A   1      33.205  35.012  29.160  1.00  0.00     0.124 S 
ATOM     72  O   UNL A   1      32.696  34.986  30.529  1.00  0.00    -0.237 OA
ATOM     73  O   UNL A   1      33.712  36.303  28.701  1.00  0.00    -0.237 OA
ATOM     74  O   UNL A   1      32.409  34.276  28.182  1.00  0.00    -0.744 OA
ENDBRANCH  70  71
ENDBRANCH  42  65
BRANCH  54  75
ATOM     75  C   UNL A   1      43.231  34.863  32.138  1.00  0.00    -0.014 A 
ATOM     76  C   UNL A   1      43.031  35.039  33.520  1.00  0.00     0.010 A 
ATOM     77  C   UNL A   1      43.704  35.939  31.368  1.00  0.00     0.010 A 
ATOM     78  C   UNL A   1      43.255  36.283  34.114  1.00  0.00     0.020 A 
ATOM     79  C   UNL A   1      43.950  37.180  31.964  1.00  0.00     0.020 A 
ATOM     80  C   UNL A   1      43.698  37.350  33.328  1.00  0.00     0.054 A 
BRANCH  80  81
ATOM     81  S   UNL A   1      43.934  38.972  34.104  1.00  0.00     0.124 S 
ATOM     82  O   UNL A   1      45.229  39.384  33.569  1.00  0.00    -0.237 OA
ATOM     83  O   UNL A   1      42.783  39.732  33.621  1.00  0.00    -0.237 OA
ATOM     84  O   UNL A   1      43.915  38.673  35.535  1.00  0.00    -0.744 OA
ENDBRANCH  80  81
ENDBRANCH  54  75
ENDBRANCH  28  29
ENDBRANCH  20  23
ENDBRANCH  18  19
ENDBRANCH   1  18
TORSDOF 15
ENDMDL
