MODEL 1
REMARK VINA RESULT:     -10.8      0.000      0.000
REMARK SMILES O=C(CCCNC(=O)N1CSC[C@@H]1C(=O)NCCCNC(=O)c1ccc(-c2c3nc(c(-c4ccc(S(=O)(=O)[O-])cc4)c4ccc([nH]4)c(-c4ccc(S(=O)(=O)[O-])cc4)c4nc(c(-c5ccc(S(=O)(=O)[O-])cc5)c5ccc2[nH]5)C=C4)C=C3)cc1)NC1CC1
REMARK SMILES IDX 14 1 15 2 16 3 13 5 9 6 10 7 11 8 12 9 7 10 6 11 8 13 5 14
REMARK SMILES IDX 4 15 3 16 2 17 1 18 83 19 84 21 85 22 86 23 17 24 18 25
REMARK SMILES IDX 19 26 20 27 21 28 22 30 23 31 24 32 82 33 25 34 81 35 26 36
REMARK SMILES IDX 27 37 28 38 75 39 29 40 80 41 74 42 76 43 30 44 79 45 73 46
REMARK SMILES IDX 72 47 31 49 61 50 42 51 60 52 43 53 46 54 59 55 77 56 44 57
REMARK SMILES IDX 45 58 58 60 78 61 47 62 32 63 33 64 41 65 34 66 40 67 35 68
REMARK SMILES IDX 36 69 37 70 38 71 39 72 62 73 63 74 71 75 64 76 70 77 65 78
REMARK SMILES IDX 66 79 67 80 68 81 69 82 48 83 49 84 57 85 50 86 56 87 51 88
REMARK SMILES IDX 52 89 53 90 54 91 55 92
REMARK H PARENT 16 4 6 12 83 20 20 29 76 48 46 59
REMARK Flexibility Score: inf
ROOT
ATOM      1  C   UNL A   1      32.678  27.218  24.567  1.00  0.00     0.243 C 
ATOM      2  O   UNL A   1      33.061  26.122  24.147  1.00  0.00    -0.273 OA
ATOM      3  N   UNL A   1      33.627  28.041  25.104  1.00  0.00    -0.354 N 
ATOM      4  H   UNL A   1      34.556  27.761  24.942  1.00  0.00     0.163 HD
ENDROOT
BRANCH   1   5
ATOM      5  C   UNL A   1      31.175  27.545  24.649  1.00  0.00     0.187 C 
ATOM      6  N   UNL A   1      30.303  26.382  24.448  1.00  0.00    -0.303 N 
ATOM      7  C   UNL A   1      28.995  26.757  23.967  1.00  0.00     0.192 C 
ATOM      8  S   UNL A   1      29.223  28.189  22.906  1.00  0.00    -0.138 SA
ATOM      9  C   UNL A   1      30.848  28.609  23.599  1.00  0.00     0.106 C 
BRANCH   6  10
ATOM     10  C   UNL A   1      30.427  25.320  25.297  1.00  0.00     0.318 C 
ATOM     11  N   UNL A   1      30.562  24.079  24.760  1.00  0.00    -0.338 N 
ATOM     12  H   UNL A   1      30.396  23.332  25.380  1.00  0.00     0.165 HD
ATOM     13  O   UNL A   1      30.485  25.436  26.518  1.00  0.00    -0.249 OA
BRANCH  11  14
ATOM     14  C   UNL A   1      30.918  23.698  23.401  1.00  0.00     0.118 C 
BRANCH  14  15
ATOM     15  C   UNL A   1      31.906  22.528  23.358  1.00  0.00     0.031 C 
BRANCH  15  16
ATOM     16  C   UNL A   1      33.041  22.579  24.377  1.00  0.00     0.102 C 
BRANCH  16  17
ATOM     17  C   UNL A   1      33.711  21.234  24.552  1.00  0.00     0.220 C 
ATOM     18  O   UNL A   1      34.854  21.124  24.982  1.00  0.00    -0.275 OA
ATOM     19  N   UNL A   1      32.923  20.173  24.156  1.00  0.00    -0.353 N 
ATOM     20  H   UNL A   1      32.007  20.360  23.848  1.00  0.00     0.163 HD
BRANCH  19  21
ATOM     21  C   UNL A   1      33.370  18.819  24.171  1.00  0.00     0.082 C 
ATOM     22  C   UNL A   1      32.441  17.736  24.639  1.00  0.00     0.027 C 
ATOM     23  C   UNL A   1      32.816  17.825  23.189  1.00  0.00     0.027 C 
ENDBRANCH  19  21
ENDBRANCH  16  17
ENDBRANCH  15  16
ENDBRANCH  14  15
ENDBRANCH  11  14
ENDBRANCH   6  10
ENDBRANCH   1   5
BRANCH   3  24
ATOM     24  C   UNL A   1      33.481  29.262  25.873  1.00  0.00     0.117 C 
BRANCH  24  25
ATOM     25  C   UNL A   1      33.796  29.067  27.347  1.00  0.00     0.042 C 
BRANCH  25  26
ATOM     26  C   UNL A   1      35.236  29.394  27.712  1.00  0.00     0.118 C 
BRANCH  26  27
ATOM     27  N   UNL A   1      35.347  30.139  28.959  1.00  0.00    -0.352 N 
ATOM     28  C   UNL A   1      36.408  30.256  29.823  1.00  0.00     0.251 C 
ATOM     29  H   UNL A   1      34.538  30.635  29.222  1.00  0.00     0.163 HD
ATOM     30  O   UNL A   1      36.238  30.788  30.918  1.00  0.00    -0.269 OA
BRANCH  28  31
ATOM     31  C   UNL A   1      37.737  29.726  29.451  1.00  0.00     0.039 A 
ATOM     32  C   UNL A   1      38.129  29.752  28.109  1.00  0.00     0.014 A 
ATOM     33  C   UNL A   1      38.599  29.204  30.419  1.00  0.00     0.014 A 
ATOM     34  C   UNL A   1      39.410  29.326  27.754  1.00  0.00     0.010 A 
ATOM     35  C   UNL A   1      39.905  28.870  30.078  1.00  0.00     0.010 A 
ATOM     36  C   UNL A   1      40.325  28.921  28.741  1.00  0.00    -0.014 A 
BRANCH  36  37
ATOM     37  C   UNL A   1      41.723  28.553  28.399  1.00  0.00     0.031 A 
ATOM     38  C   UNL A   1      42.795  29.610  28.349  1.00  0.00     0.074 A 
ATOM     39  C   UNL A   1      42.014  27.279  28.066  1.00  0.00     0.049 A 
ATOM     40  N   UNL A   1      44.052  29.492  28.009  1.00  0.00    -0.248 NA
ATOM     41  C   UNL A   1      42.395  30.983  28.699  1.00  0.00     0.031 C 
ATOM     42  C   UNL A   1      41.056  26.171  28.033  1.00  0.00     0.029 A 
ATOM     43  N   UNL A   1      43.199  26.701  27.682  1.00  0.00    -0.354 N 
ATOM     44  C   UNL A   1      44.589  30.773  28.088  1.00  0.00     0.074 A 
ATOM     45  C   UNL A   1      43.507  31.660  28.454  1.00  0.00     0.031 C 
ATOM     46  C   UNL A   1      41.697  25.045  27.682  1.00  0.00     0.029 A 
ATOM     47  C   UNL A   1      43.097  25.356  27.415  1.00  0.00     0.049 A 
ATOM     48  H   UNL A   1      44.043  27.203  27.605  1.00  0.00     0.167 HD
ATOM     49  C   UNL A   1      45.868  31.171  27.894  1.00  0.00     0.031 A 
ATOM     50  C   UNL A   1      44.023  24.471  26.994  1.00  0.00     0.031 A 
ATOM     51  C   UNL A   1      46.942  30.282  27.536  1.00  0.00     0.049 A 
ATOM     52  C   UNL A   1      45.434  24.941  26.768  1.00  0.00     0.074 A 
ATOM     53  C   UNL A   1      48.283  30.578  27.371  1.00  0.00     0.029 A 
ATOM     54  N   UNL A   1      46.797  28.925  27.283  1.00  0.00    -0.354 N 
ATOM     55  N   UNL A   1      45.935  26.144  26.916  1.00  0.00    -0.248 NA
ATOM     56  C   UNL A   1      46.407  23.931  26.331  1.00  0.00     0.031 C 
ATOM     57  C   UNL A   1      48.940  29.415  26.958  1.00  0.00     0.029 A 
ATOM     58  C   UNL A   1      48.021  28.378  26.935  1.00  0.00     0.049 A 
ATOM     59  H   UNL A   1      45.951  28.427  27.342  1.00  0.00     0.167 HD
ATOM     60  C   UNL A   1      47.289  26.029  26.620  1.00  0.00     0.074 A 
ATOM     61  C   UNL A   1      47.529  24.637  26.300  1.00  0.00     0.031 C 
ATOM     62  C   UNL A   1      48.247  26.989  26.619  1.00  0.00     0.031 A 
BRANCH  49  63
ATOM     63  C   UNL A   1      46.176  32.638  28.055  1.00  0.00    -0.014 A 
ATOM     64  C   UNL A   1      46.519  33.178  29.309  1.00  0.00     0.010 A 
ATOM     65  C   UNL A   1      46.165  33.482  26.930  1.00  0.00     0.010 A 
ATOM     66  C   UNL A   1      46.802  34.540  29.441  1.00  0.00     0.020 A 
ATOM     67  C   UNL A   1      46.479  34.838  27.051  1.00  0.00     0.020 A 
ATOM     68  C   UNL A   1      46.780  35.362  28.310  1.00  0.00     0.054 A 
BRANCH  68  69
ATOM     69  S   UNL A   1      47.176  37.121  28.508  1.00  0.00     0.124 S 
ATOM     70  O   UNL A   1      46.888  37.336  29.924  1.00  0.00    -0.237 OA
ATOM     71  O   UNL A   1      48.588  37.174  28.139  1.00  0.00    -0.237 OA
ATOM     72  O   UNL A   1      46.266  37.789  27.581  1.00  0.00    -0.744 OA
ENDBRANCH  68  69
ENDBRANCH  49  63
BRANCH  50  73
ATOM     73  C   UNL A   1      43.643  23.049  26.769  1.00  0.00    -0.014 A 
ATOM     74  C   UNL A   1      43.925  22.418  25.544  1.00  0.00     0.010 A 
ATOM     75  C   UNL A   1      43.009  22.312  27.785  1.00  0.00     0.010 A 
ATOM     76  C   UNL A   1      43.562  21.084  25.334  1.00  0.00     0.020 A 
ATOM     77  C   UNL A   1      42.674  20.969  27.591  1.00  0.00     0.020 A 
ATOM     78  C   UNL A   1      42.942  20.366  26.360  1.00  0.00     0.054 A 
BRANCH  78  79
ATOM     79  S   UNL A   1      42.527  18.622  26.082  1.00  0.00     0.124 S 
ATOM     80  O   UNL A   1      43.432  18.265  24.994  1.00  0.00    -0.237 OA
ATOM     81  O   UNL A   1      42.824  18.018  27.379  1.00  0.00    -0.237 OA
ATOM     82  O   UNL A   1      41.109  18.659  25.731  1.00  0.00    -0.744 OA
ENDBRANCH  78  79
ENDBRANCH  50  73
BRANCH  62  83
ATOM     83  C   UNL A   1      49.657  26.565  26.301  1.00  0.00    -0.014 A 
ATOM     84  C   UNL A   1      50.229  26.801  25.039  1.00  0.00     0.010 A 
ATOM     85  C   UNL A   1      50.442  25.972  27.309  1.00  0.00     0.010 A 
ATOM     86  C   UNL A   1      51.550  26.424  24.781  1.00  0.00     0.020 A 
ATOM     87  C   UNL A   1      51.773  25.623  27.064  1.00  0.00     0.020 A 
ATOM     88  C   UNL A   1      52.314  25.839  25.796  1.00  0.00     0.054 A 
BRANCH  88  89
ATOM     89  S   UNL A   1      54.039  25.403  25.448  1.00  0.00     0.124 S 
ATOM     90  O   UNL A   1      54.076  23.990  25.813  1.00  0.00    -0.237 OA
ATOM     91  O   UNL A   1      54.159  25.686  24.020  1.00  0.00    -0.237 OA
ATOM     92  O   UNL A   1      54.805  26.292  26.319  1.00  0.00    -0.744 OA
ENDBRANCH  88  89
ENDBRANCH  62  83
ENDBRANCH  36  37
ENDBRANCH  28  31
ENDBRANCH  26  27
ENDBRANCH  25  26
ENDBRANCH  24  25
ENDBRANCH   3  24
TORSDOF 19
ENDMDL
MODEL 2
REMARK VINA RESULT:     -10.6      1.008      8.292
REMARK SMILES O=C(CCCNC(=O)N1CSC[C@@H]1C(=O)NCCCNC(=O)c1ccc(-c2c3nc(c(-c4ccc(S(=O)(=O)[O-])cc4)c4ccc([nH]4)c(-c4ccc(S(=O)(=O)[O-])cc4)c4nc(c(-c5ccc(S(=O)(=O)[O-])cc5)c5ccc2[nH]5)C=C4)C=C3)cc1)NC1CC1
REMARK SMILES IDX 14 1 15 2 16 3 13 5 9 6 10 7 11 8 12 9 7 10 6 11 8 13 5 14
REMARK SMILES IDX 4 15 3 16 2 17 1 18 83 19 84 21 85 22 86 23 17 24 18 25
REMARK SMILES IDX 19 26 20 27 21 28 22 30 23 31 24 32 82 33 25 34 81 35 26 36
REMARK SMILES IDX 27 37 28 38 75 39 29 40 80 41 74 42 76 43 30 44 79 45 73 46
REMARK SMILES IDX 72 47 31 49 61 50 42 51 60 52 43 53 46 54 59 55 77 56 44 57
REMARK SMILES IDX 45 58 58 60 78 61 47 62 32 63 33 64 41 65 34 66 40 67 35 68
REMARK SMILES IDX 36 69 37 70 38 71 39 72 62 73 63 74 71 75 64 76 70 77 65 78
REMARK SMILES IDX 66 79 67 80 68 81 69 82 48 83 49 84 57 85 50 86 56 87 51 88
REMARK SMILES IDX 52 89 53 90 54 91 55 92
REMARK H PARENT 16 4 6 12 83 20 20 29 76 48 46 59
REMARK Flexibility Score: inf
ROOT
ATOM      1  C   UNL A   1      33.373  27.934  25.071  1.00  0.00     0.243 C 
ATOM      2  O   UNL A   1      33.996  27.097  24.411  1.00  0.00    -0.273 OA
ATOM      3  N   UNL A   1      34.030  28.506  26.123  1.00  0.00    -0.354 N 
ATOM      4  H   UNL A   1      34.998  28.334  26.150  1.00  0.00     0.163 HD
ENDROOT
BRANCH   1   5
ATOM      5  C   UNL A   1      31.870  28.167  24.824  1.00  0.00     0.187 C 
ATOM      6  N   UNL A   1      31.094  26.932  24.679  1.00  0.00    -0.303 N 
ATOM      7  C   UNL A   1      29.887  27.131  23.914  1.00  0.00     0.192 C 
ATOM      8  S   UNL A   1      30.258  28.379  22.675  1.00  0.00    -0.138 SA
ATOM      9  C   UNL A   1      31.708  29.017  23.562  1.00  0.00     0.106 C 
BRANCH   6  10
ATOM     10  C   UNL A   1      31.094  26.037  25.711  1.00  0.00     0.318 C 
ATOM     11  N   UNL A   1      31.443  24.750  25.447  1.00  0.00    -0.338 N 
ATOM     12  H   UNL A   1      31.192  24.095  26.138  1.00  0.00     0.165 HD
ATOM     13  O   UNL A   1      30.856  26.349  26.874  1.00  0.00    -0.249 OA
BRANCH  11  14
ATOM     14  C   UNL A   1      32.133  24.203  24.288  1.00  0.00     0.118 C 
BRANCH  14  15
ATOM     15  C   UNL A   1      31.238  23.287  23.448  1.00  0.00     0.031 C 
BRANCH  15  16
ATOM     16  C   UNL A   1      31.867  21.970  23.001  1.00  0.00     0.102 C 
BRANCH  16  17
ATOM     17  C   UNL A   1      32.478  21.208  24.156  1.00  0.00     0.220 C 
ATOM     18  O   UNL A   1      31.793  20.650  25.006  1.00  0.00    -0.275 OA
ATOM     19  N   UNL A   1      33.857  21.237  24.164  1.00  0.00    -0.353 N 
ATOM     20  H   UNL A   1      34.320  21.691  23.423  1.00  0.00     0.163 HD
BRANCH  19  21
ATOM     21  C   UNL A   1      34.645  20.642  25.193  1.00  0.00     0.082 C 
ATOM     22  C   UNL A   1      36.128  20.498  25.002  1.00  0.00     0.027 C 
ATOM     23  C   UNL A   1      35.595  21.480  26.003  1.00  0.00     0.027 C 
ENDBRANCH  19  21
ENDBRANCH  16  17
ENDBRANCH  15  16
ENDBRANCH  14  15
ENDBRANCH  11  14
ENDBRANCH   6  10
ENDBRANCH   1   5
BRANCH   3  24
ATOM     24  C   UNL A   1      33.526  29.328  27.207  1.00  0.00     0.117 C 
BRANCH  24  25
ATOM     25  C   UNL A   1      34.235  30.668  27.306  1.00  0.00     0.042 C 
BRANCH  25  26
ATOM     26  C   UNL A   1      35.629  30.578  27.907  1.00  0.00     0.118 C 
BRANCH  26  27
ATOM     27  N   UNL A   1      35.610  30.409  29.354  1.00  0.00    -0.352 N 
ATOM     28  C   UNL A   1      36.530  29.814  30.183  1.00  0.00     0.251 C 
ATOM     29  H   UNL A   1      34.817  30.777  29.807  1.00  0.00     0.163 HD
ATOM     30  O   UNL A   1      36.239  29.613  31.360  1.00  0.00    -0.269 OA
BRANCH  28  31
ATOM     31  C   UNL A   1      37.848  29.397  29.660  1.00  0.00     0.039 A 
ATOM     32  C   UNL A   1      38.128  29.575  28.302  1.00  0.00     0.014 A 
ATOM     33  C   UNL A   1      38.809  28.832  30.502  1.00  0.00     0.014 A 
ATOM     34  C   UNL A   1      39.396  29.256  27.809  1.00  0.00     0.010 A 
ATOM     35  C   UNL A   1      40.098  28.606  30.031  1.00  0.00     0.010 A 
ATOM     36  C   UNL A   1      40.406  28.810  28.678  1.00  0.00    -0.014 A 
BRANCH  36  37
ATOM     37  C   UNL A   1      41.788  28.555  28.197  1.00  0.00     0.031 A 
ATOM     38  C   UNL A   1      42.202  27.168  27.780  1.00  0.00     0.074 A 
ATOM     39  C   UNL A   1      42.690  29.557  28.200  1.00  0.00     0.049 A 
ATOM     40  N   UNL A   1      43.377  26.741  27.395  1.00  0.00    -0.248 NA
ATOM     41  C   UNL A   1      41.169  26.121  27.828  1.00  0.00     0.031 C 
ATOM     42  C   UNL A   1      42.425  30.935  28.622  1.00  0.00     0.029 A 
ATOM     43  N   UNL A   1      44.016  29.571  27.845  1.00  0.00    -0.354 N 
ATOM     44  C   UNL A   1      43.229  25.376  27.172  1.00  0.00     0.074 A 
ATOM     45  C   UNL A   1      41.866  25.038  27.518  1.00  0.00     0.031 C 
ATOM     46  C   UNL A   1      43.542  31.665  28.472  1.00  0.00     0.029 A 
ATOM     47  C   UNL A   1      44.615  30.801  27.993  1.00  0.00     0.049 A 
ATOM     48  H   UNL A   1      44.494  28.775  27.517  1.00  0.00     0.167 HD
ATOM     49  C   UNL A   1      44.139  24.489  26.704  1.00  0.00     0.031 A 
ATOM     50  C   UNL A   1      45.887  31.189  27.776  1.00  0.00     0.031 A 
ATOM     51  C   UNL A   1      45.492  24.833  26.354  1.00  0.00     0.049 A 
ATOM     52  C   UNL A   1      46.884  30.182  27.272  1.00  0.00     0.074 A 
ATOM     53  C   UNL A   1      46.474  24.019  25.819  1.00  0.00     0.029 A 
ATOM     54  N   UNL A   1      46.056  26.091  26.511  1.00  0.00    -0.354 N 
ATOM     55  N   UNL A   1      46.706  28.911  27.002  1.00  0.00    -0.248 NA
ATOM     56  C   UNL A   1      48.251  30.664  27.030  1.00  0.00     0.031 C 
ATOM     57  C   UNL A   1      47.650  24.767  25.709  1.00  0.00     0.029 A 
ATOM     58  C   UNL A   1      47.381  26.067  26.109  1.00  0.00     0.049 A 
ATOM     59  H   UNL A   1      45.584  26.883  26.857  1.00  0.00     0.167 HD
ATOM     60  C   UNL A   1      47.929  28.449  26.529  1.00  0.00     0.074 A 
ATOM     61  C   UNL A   1      48.834  29.580  26.537  1.00  0.00     0.031 C 
ATOM     62  C   UNL A   1      48.271  27.201  26.121  1.00  0.00     0.031 A 
BRANCH  49  63
ATOM     63  C   UNL A   1      43.701  23.055  26.550  1.00  0.00    -0.014 A 
ATOM     64  C   UNL A   1      43.980  22.329  25.377  1.00  0.00     0.010 A 
ATOM     65  C   UNL A   1      43.040  22.408  27.609  1.00  0.00     0.010 A 
ATOM     66  C   UNL A   1      43.569  21.000  25.250  1.00  0.00     0.020 A 
ATOM     67  C   UNL A   1      42.655  21.069  27.501  1.00  0.00     0.020 A 
ATOM     68  C   UNL A   1      42.907  20.378  26.314  1.00  0.00     0.054 A 
BRANCH  68  69
ATOM     69  S   UNL A   1      42.406  18.644  26.131  1.00  0.00     0.124 S 
ATOM     70  O   UNL A   1      42.685  18.109  27.461  1.00  0.00    -0.237 OA
ATOM     71  O   UNL A   1      40.992  18.756  25.783  1.00  0.00    -0.237 OA
ATOM     72  O   UNL A   1      43.270  18.143  25.066  1.00  0.00    -0.744 OA
ENDBRANCH  68  69
ENDBRANCH  49  63
BRANCH  50  73
ATOM     73  C   UNL A   1      46.285  32.603  28.026  1.00  0.00    -0.014 A 
ATOM     74  C   UNL A   1      46.758  33.001  29.290  1.00  0.00     0.010 A 
ATOM     75  C   UNL A   1      46.207  33.557  26.996  1.00  0.00     0.010 A 
ATOM     76  C   UNL A   1      47.125  34.329  29.523  1.00  0.00     0.020 A 
ATOM     77  C   UNL A   1      46.604  34.879  27.216  1.00  0.00     0.020 A 
ATOM     78  C   UNL A   1      47.049  35.260  28.483  1.00  0.00     0.054 A 
BRANCH  78  79
ATOM     79  S   UNL A   1      47.581  36.967  28.795  1.00  0.00     0.124 S 
ATOM     80  O   UNL A   1      46.546  37.736  28.113  1.00  0.00    -0.237 OA
ATOM     81  O   UNL A   1      47.566  37.037  30.254  1.00  0.00    -0.237 OA
ATOM     82  O   UNL A   1      48.909  37.027  28.189  1.00  0.00    -0.744 OA
ENDBRANCH  78  79
ENDBRANCH  50  73
BRANCH  62  83
ATOM     83  C   UNL A   1      49.673  26.996  25.607  1.00  0.00    -0.014 A 
ATOM     84  C   UNL A   1      50.010  27.262  24.269  1.00  0.00     0.010 A 
ATOM     85  C   UNL A   1      50.681  26.588  26.501  1.00  0.00     0.010 A 
ATOM     86  C   UNL A   1      51.326  27.092  23.826  1.00  0.00     0.020 A 
ATOM     87  C   UNL A   1      52.003  26.448  26.069  1.00  0.00     0.020 A 
ATOM     88  C   UNL A   1      52.313  26.688  24.730  1.00  0.00     0.054 A 
BRANCH  88  89
ATOM     89  S   UNL A   1      54.020  26.521  24.140  1.00  0.00     0.124 S 
ATOM     90  O   UNL A   1      54.649  27.721  24.684  1.00  0.00    -0.237 OA
ATOM     91  O   UNL A   1      54.445  25.260  24.742  1.00  0.00    -0.237 OA
ATOM     92  O   UNL A   1      53.883  26.494  22.685  1.00  0.00    -0.744 OA
ENDBRANCH  88  89
ENDBRANCH  62  83
ENDBRANCH  36  37
ENDBRANCH  28  31
ENDBRANCH  26  27
ENDBRANCH  25  26
ENDBRANCH  24  25
ENDBRANCH   3  24
TORSDOF 19
ENDMDL
MODEL 3
REMARK VINA RESULT:      -9.7      5.896     14.223
REMARK SMILES O=C(CCCNC(=O)N1CSC[C@@H]1C(=O)NCCCNC(=O)c1ccc(-c2c3nc(c(-c4ccc(S(=O)(=O)[O-])cc4)c4ccc([nH]4)c(-c4ccc(S(=O)(=O)[O-])cc4)c4nc(c(-c5ccc(S(=O)(=O)[O-])cc5)c5ccc2[nH]5)C=C4)C=C3)cc1)NC1CC1
REMARK SMILES IDX 14 1 15 2 16 3 13 5 9 6 10 7 11 8 12 9 7 10 6 11 8 13 5 14
REMARK SMILES IDX 4 15 3 16 2 17 1 18 83 19 84 21 85 22 86 23 17 24 18 25
REMARK SMILES IDX 19 26 20 27 21 28 22 30 23 31 24 32 82 33 25 34 81 35 26 36
REMARK SMILES IDX 27 37 28 38 75 39 29 40 80 41 74 42 76 43 30 44 79 45 73 46
REMARK SMILES IDX 72 47 31 49 61 50 42 51 60 52 43 53 46 54 59 55 77 56 44 57
REMARK SMILES IDX 45 58 58 60 78 61 47 62 32 63 33 64 41 65 34 66 40 67 35 68
REMARK SMILES IDX 36 69 37 70 38 71 39 72 62 73 63 74 71 75 64 76 70 77 65 78
REMARK SMILES IDX 66 79 67 80 68 81 69 82 48 83 49 84 57 85 50 86 56 87 51 88
REMARK SMILES IDX 52 89 53 90 54 91 55 92
REMARK H PARENT 16 4 6 12 83 20 20 29 76 48 46 59
REMARK Flexibility Score: inf
ROOT
ATOM      1  C   UNL A   1      45.183  41.036  25.651  1.00  0.00     0.243 C 
ATOM      2  O   UNL A   1      45.839  40.708  24.657  1.00  0.00    -0.273 OA
ATOM      3  N   UNL A   1      44.814  40.038  26.506  1.00  0.00    -0.354 N 
ATOM      4  H   UNL A   1      45.259  39.174  26.351  1.00  0.00     0.163 HD
ENDROOT
BRANCH   1   5
ATOM      5  C   UNL A   1      44.652  42.475  25.799  1.00  0.00     0.187 C 
ATOM      6  N   UNL A   1      44.568  43.210  24.533  1.00  0.00    -0.303 N 
ATOM      7  C   UNL A   1      44.632  44.639  24.724  1.00  0.00     0.192 C 
ATOM      8  S   UNL A   1      45.726  44.925  26.122  1.00  0.00    -0.138 SA
ATOM      9  C   UNL A   1      45.563  43.235  26.765  1.00  0.00     0.106 C 
BRANCH   6  10
ATOM     10  C   UNL A   1      43.786  42.702  23.535  1.00  0.00     0.318 C 
ATOM     11  N   UNL A   1      44.283  42.690  22.270  1.00  0.00    -0.338 N 
ATOM     12  H   UNL A   1      43.618  42.558  21.556  1.00  0.00     0.165 HD
ATOM     13  O   UNL A   1      42.683  42.200  23.732  1.00  0.00    -0.249 OA
BRANCH  11  14
ATOM     14  C   UNL A   1      45.660  42.842  21.821  1.00  0.00     0.118 C 
BRANCH  14  15
ATOM     15  C   UNL A   1      45.756  43.239  20.345  1.00  0.00     0.031 C 
BRANCH  15  16
ATOM     16  C   UNL A   1      45.080  44.554  19.964  1.00  0.00     0.102 C 
BRANCH  16  17
ATOM     17  C   UNL A   1      43.725  44.336  19.330  1.00  0.00     0.220 C 
ATOM     18  O   UNL A   1      42.779  43.868  19.954  1.00  0.00    -0.275 OA
ATOM     19  N   UNL A   1      43.680  44.685  17.996  1.00  0.00    -0.353 N 
ATOM     20  H   UNL A   1      44.486  45.078  17.588  1.00  0.00     0.163 HD
BRANCH  19  21
ATOM     21  C   UNL A   1      42.525  44.505  17.180  1.00  0.00     0.082 C 
ATOM     22  C   UNL A   1      41.292  45.319  17.449  1.00  0.00     0.027 C 
ATOM     23  C   UNL A   1      42.103  45.577  16.213  1.00  0.00     0.027 C 
ENDBRANCH  19  21
ENDBRANCH  16  17
ENDBRANCH  15  16
ENDBRANCH  14  15
ENDBRANCH  11  14
ENDBRANCH   6  10
ENDBRANCH   1   5
BRANCH   3  24
ATOM     24  C   UNL A   1      43.872  40.050  27.609  1.00  0.00     0.117 C 
BRANCH  24  25
ATOM     25  C   UNL A   1      44.326  39.193  28.778  1.00  0.00     0.042 C 
BRANCH  25  26
ATOM     26  C   UNL A   1      45.164  37.992  28.366  1.00  0.00     0.118 C 
BRANCH  26  27
ATOM     27  N   UNL A   1      46.572  38.140  28.713  1.00  0.00    -0.352 N 
ATOM     28  C   UNL A   1      47.517  37.181  28.982  1.00  0.00     0.251 C 
ATOM     29  H   UNL A   1      46.894  39.069  28.763  1.00  0.00     0.163 HD
ATOM     30  O   UNL A   1      48.609  37.520  29.434  1.00  0.00    -0.269 OA
BRANCH  28  31
ATOM     31  C   UNL A   1      47.219  35.751  28.753  1.00  0.00     0.039 A 
ATOM     32  C   UNL A   1      47.219  34.873  29.841  1.00  0.00     0.014 A 
ATOM     33  C   UNL A   1      46.939  35.272  27.471  1.00  0.00     0.014 A 
ATOM     34  C   UNL A   1      46.865  33.536  29.651  1.00  0.00     0.010 A 
ATOM     35  C   UNL A   1      46.494  33.966  27.299  1.00  0.00     0.010 A 
ATOM     36  C   UNL A   1      46.457  33.080  28.386  1.00  0.00    -0.014 A 
BRANCH  36  37
ATOM     37  C   UNL A   1      45.985  31.687  28.178  1.00  0.00     0.031 A 
ATOM     38  C   UNL A   1      44.581  31.297  28.558  1.00  0.00     0.074 A 
ATOM     39  C   UNL A   1      46.842  30.756  27.712  1.00  0.00     0.049 A 
ATOM     40  N   UNL A   1      44.012  30.120  28.510  1.00  0.00    -0.248 NA
ATOM     41  C   UNL A   1      43.713  32.362  29.085  1.00  0.00     0.031 C 
ATOM     42  C   UNL A   1      48.241  30.997  27.348  1.00  0.00     0.029 A 
ATOM     43  N   UNL A   1      46.666  29.416  27.470  1.00  0.00    -0.354 N 
ATOM     44  C   UNL A   1      42.729  30.299  29.016  1.00  0.00     0.074 A 
ATOM     45  C   UNL A   1      42.622  31.685  29.414  1.00  0.00     0.031 C 
ATOM     46  C   UNL A   1      48.784  29.853  26.902  1.00  0.00     0.029 A 
ATOM     47  C   UNL A   1      47.793  28.787  26.994  1.00  0.00     0.049 A 
ATOM     48  H   UNL A   1      45.813  28.948  27.625  1.00  0.00     0.167 HD
ATOM     49  C   UNL A   1      41.724  29.398  29.120  1.00  0.00     0.031 A 
ATOM     50  C   UNL A   1      48.009  27.495  26.675  1.00  0.00     0.031 A 
ATOM     51  C   UNL A   1      41.833  28.020  28.715  1.00  0.00     0.049 A 
ATOM     52  C   UNL A   1      46.882  26.509  26.815  1.00  0.00     0.074 A 
ATOM     53  C   UNL A   1      40.856  27.042  28.728  1.00  0.00     0.029 A 
ATOM     54  N   UNL A   1      42.989  27.426  28.231  1.00  0.00    -0.354 N 
ATOM     55  N   UNL A   1      45.655  26.714  27.230  1.00  0.00    -0.248 NA
ATOM     56  C   UNL A   1      47.166  25.119  26.432  1.00  0.00     0.031 C 
ATOM     57  C   UNL A   1      41.436  25.840  28.310  1.00  0.00     0.029 A 
ATOM     58  C   UNL A   1      42.756  26.087  27.968  1.00  0.00     0.049 A 
ATOM     59  H   UNL A   1      43.847  27.888  28.093  1.00  0.00     0.167 HD
ATOM     60  C   UNL A   1      45.011  25.486  27.128  1.00  0.00     0.074 A 
ATOM     61  C   UNL A   1      45.981  24.549  26.600  1.00  0.00     0.031 C 
ATOM     62  C   UNL A   1      43.731  25.164  27.440  1.00  0.00     0.031 A 
BRANCH  49  63
ATOM     63  C   UNL A   1      40.418  29.871  29.705  1.00  0.00    -0.014 A 
ATOM     64  C   UNL A   1      40.200  29.876  31.095  1.00  0.00     0.010 A 
ATOM     65  C   UNL A   1      39.408  30.360  28.856  1.00  0.00     0.010 A 
ATOM     66  C   UNL A   1      38.983  30.318  31.621  1.00  0.00     0.020 A 
ATOM     67  C   UNL A   1      38.202  30.834  29.378  1.00  0.00     0.020 A 
ATOM     68  C   UNL A   1      37.991  30.794  30.758  1.00  0.00     0.054 A 
BRANCH  68  69
ATOM     69  S   UNL A   1      36.431  31.385  31.471  1.00  0.00     0.124 S 
ATOM     70  O   UNL A   1      35.671  31.741  30.275  1.00  0.00    -0.237 OA
ATOM     71  O   UNL A   1      35.948  30.213  32.196  1.00  0.00    -0.237 OA
ATOM     72  O   UNL A   1      36.835  32.511  32.309  1.00  0.00    -0.744 OA
ENDBRANCH  68  69
ENDBRANCH  49  63
BRANCH  50  73
ATOM     73  C   UNL A   1      49.347  27.066  26.181  1.00  0.00    -0.014 A 
ATOM     74  C   UNL A   1      50.293  26.516  27.064  1.00  0.00     0.010 A 
ATOM     75  C   UNL A   1      49.678  27.193  24.820  1.00  0.00     0.010 A 
ATOM     76  C   UNL A   1      51.550  26.119  26.598  1.00  0.00     0.020 A 
ATOM     77  C   UNL A   1      50.922  26.768  24.345  1.00  0.00     0.020 A 
ATOM     78  C   UNL A   1      51.856  26.244  25.240  1.00  0.00     0.054 A 
BRANCH  78  79
ATOM     79  S   UNL A   1      53.475  25.674  24.651  1.00  0.00     0.124 S 
ATOM     80  O   UNL A   1      54.390  26.491  25.441  1.00  0.00    -0.237 OA
ATOM     81  O   UNL A   1      53.446  24.252  24.982  1.00  0.00    -0.237 OA
ATOM     82  O   UNL A   1      53.442  25.974  23.221  1.00  0.00    -0.744 OA
ENDBRANCH  78  79
ENDBRANCH  50  73
BRANCH  62  83
ATOM     83  C   UNL A   1      43.285  23.748  27.180  1.00  0.00    -0.014 A 
ATOM     84  C   UNL A   1      43.198  22.803  28.216  1.00  0.00     0.010 A 
ATOM     85  C   UNL A   1      42.888  23.379  25.880  1.00  0.00     0.010 A 
ATOM     86  C   UNL A   1      42.753  21.504  27.952  1.00  0.00     0.020 A 
ATOM     87  C   UNL A   1      42.411  22.092  25.619  1.00  0.00     0.020 A 
ATOM     88  C   UNL A   1      42.360  21.159  26.655  1.00  0.00     0.054 A 
BRANCH  88  89
ATOM     89  S   UNL A   1      41.741  19.481  26.349  1.00  0.00     0.124 S 
ATOM     90  O   UNL A   1      42.101  18.795  27.587  1.00  0.00    -0.237 OA
ATOM     91  O   UNL A   1      40.312  19.701  26.144  1.00  0.00    -0.237 OA
ATOM     92  O   UNL A   1      42.476  19.051  25.162  1.00  0.00    -0.744 OA
ENDBRANCH  88  89
ENDBRANCH  62  83
ENDBRANCH  36  37
ENDBRANCH  28  31
ENDBRANCH  26  27
ENDBRANCH  25  26
ENDBRANCH  24  25
ENDBRANCH   3  24
TORSDOF 19
ENDMDL
