MODEL 1
REMARK VINA RESULT:     -11.4      0.000      0.000
REMARK SMILES C[C@@H](NC(=O)[C@@H]([NH3+])CC(=O)NCCCNC(=O)c1ccc(-c2c3nc(c(-c4ccc(S(=O)(=O)[O-])cc4)c4ccc([nH]4)c(-c4ccc(S(=O)(=O)[O-])cc4)c4nc(c(-c5ccc(S(=O)(=O)[O-])cc5)c5ccc2[nH]5)C=C4)C=C3)cc1)C(=O)NC1C(C)(C)SC1(C)C
REMARK SMILES IDX 12 1 11 2 9 3 10 4 8 6 6 7 4 8 3 9 5 11 2 12 1 13 78 14
REMARK SMILES IDX 79 15 80 16 81 18 82 19 86 20 83 21 84 22 85 23 87 24 88 25
REMARK SMILES IDX 7 26 13 30 14 31 15 32 16 33 17 35 18 36 19 37 77 38 20 39
REMARK SMILES IDX 76 40 21 41 22 42 23 43 70 44 24 45 75 46 69 47 71 48 25 49
REMARK SMILES IDX 74 50 68 51 67 52 26 54 56 55 37 56 55 57 38 58 41 59 54 60
REMARK SMILES IDX 72 61 39 62 40 63 53 65 73 66 42 67 27 68 28 69 36 70 29 71
REMARK SMILES IDX 35 72 30 73 31 74 32 75 33 76 34 77 57 78 58 79 66 80 59 81
REMARK SMILES IDX 65 82 60 83 61 84 62 85 63 86 64 87 43 88 44 89 52 90 45 91
REMARK SMILES IDX 51 92 46 93 47 94 48 95 49 96 50 97
REMARK H PARENT 11 5 3 10 80 17 7 27 7 28 7 29 15 34 71 53 41 64
REMARK Flexibility Score: inf
ROOT
ATOM      1  C   UNL A   1      39.542  22.433  26.232  1.00  0.00     0.117 C 
ENDROOT
BRANCH   1   2
ATOM      2  N   UNL A   1      38.496  23.432  26.125  1.00  0.00    -0.356 N 
ATOM      3  C   UNL A   1      37.175  23.263  25.852  1.00  0.00     0.226 C 
ATOM      4  O   UNL A   1      36.464  24.259  25.712  1.00  0.00    -0.275 OA
ATOM      5  H   UNL A   1      38.783  24.362  26.272  1.00  0.00     0.163 HD
BRANCH   3   6
ATOM      6  C   UNL A   1      36.607  21.872  25.712  1.00  0.00     0.175 C 
BRANCH   6   7
ATOM      7  C   UNL A   1      35.096  21.903  25.877  1.00  0.00     0.280 C 
BRANCH   7   8
ATOM      8  C   UNL A   1      34.258  21.178  24.791  1.00  0.00     0.279 C 
ATOM      9  N   UNL A   1      33.257  21.732  24.061  1.00  0.00    -0.339 N 
ATOM     10  H   UNL A   1      32.849  21.125  23.401  1.00  0.00     0.164 HD
ATOM     11  O   UNL A   1      34.553  20.019  24.482  1.00  0.00    -0.268 OA
BRANCH   9  12
ATOM     12  C   UNL A   1      32.683  23.071  24.085  1.00  0.00     0.168 C 
ATOM     13  C   UNL A   1      31.300  23.095  23.434  1.00  0.00     0.041 C 
BRANCH  12  14
ATOM     14  C   UNL A   1      33.605  24.102  23.428  1.00  0.00     0.242 C 
ATOM     15  O   UNL A   1      34.710  23.768  22.989  1.00  0.00    -0.273 OA
ATOM     16  N   UNL A   1      33.270  25.434  23.393  1.00  0.00    -0.349 N 
ATOM     17  H   UNL A   1      33.596  25.932  22.608  1.00  0.00     0.163 HD
BRANCH  16  18
ATOM     18  C   UNL A   1      32.484  26.233  24.376  1.00  0.00     0.113 C 
ATOM     19  C   UNL A   1      33.205  27.616  24.638  1.00  0.00     0.032 C 
ATOM     20  C   UNL A   1      31.105  26.899  23.931  1.00  0.00     0.032 C 
ATOM     21  C   UNL A   1      33.973  27.613  25.956  1.00  0.00     0.025 C 
ATOM     22  C   UNL A   1      34.052  28.220  23.514  1.00  0.00     0.025 C 
ATOM     23  S   UNL A   1      31.612  28.476  24.772  1.00  0.00    -0.145 SA
ATOM     24  C   UNL A   1      30.792  27.156  22.458  1.00  0.00     0.025 C 
ATOM     25  C   UNL A   1      29.852  26.374  24.647  1.00  0.00     0.025 C 
ENDBRANCH  16  18
ENDBRANCH  12  14
ENDBRANCH   9  12
ENDBRANCH   7   8
BRANCH   7  26
ATOM     26  N   UNL A   1      34.744  21.386  27.214  1.00  0.00    -0.347 N 
ATOM     27  H   UNL A   1      33.761  21.115  27.226  1.00  0.00     0.345 HD
ATOM     28  H   UNL A   1      34.905  22.112  27.912  1.00  0.00     0.345 HD
ATOM     29  H   UNL A   1      35.323  20.574  27.428  1.00  0.00     0.345 HD
ENDBRANCH   7  26
ENDBRANCH   6   7
ENDBRANCH   3   6
ENDBRANCH   1   2
BRANCH   1  30
ATOM     30  C   UNL A   1      40.318  22.588  27.529  1.00  0.00     0.042 C 
BRANCH  30  31
ATOM     31  C   UNL A   1      41.629  23.335  27.405  1.00  0.00     0.118 C 
BRANCH  31  32
ATOM     32  N   UNL A   1      41.662  24.208  26.251  1.00  0.00    -0.352 N 
ATOM     33  C   UNL A   1      41.420  25.551  26.151  1.00  0.00     0.251 C 
ATOM     34  H   UNL A   1      41.893  23.765  25.403  1.00  0.00     0.163 HD
ATOM     35  O   UNL A   1      41.327  26.043  25.022  1.00  0.00    -0.269 OA
BRANCH  33  36
ATOM     36  C   UNL A   1      41.257  26.408  27.349  1.00  0.00     0.039 A 
ATOM     37  C   UNL A   1      40.169  26.161  28.188  1.00  0.00     0.014 A 
ATOM     38  C   UNL A   1      42.112  27.479  27.630  1.00  0.00     0.014 A 
ATOM     39  C   UNL A   1      39.949  26.970  29.303  1.00  0.00     0.010 A 
ATOM     40  C   UNL A   1      41.957  28.215  28.803  1.00  0.00     0.010 A 
ATOM     41  C   UNL A   1      40.851  27.996  29.631  1.00  0.00    -0.014 A 
BRANCH  41  42
ATOM     42  C   UNL A   1      40.606  28.866  30.807  1.00  0.00     0.031 A 
ATOM     43  C   UNL A   1      41.465  28.739  32.040  1.00  0.00     0.074 A 
ATOM     44  C   UNL A   1      39.610  29.773  30.761  1.00  0.00     0.049 A 
ATOM     45  N   UNL A   1      41.451  29.463  33.130  1.00  0.00    -0.248 NA
ATOM     46  C   UNL A   1      42.449  27.643  32.069  1.00  0.00     0.031 C 
ATOM     47  C   UNL A   1      38.673  29.947  29.648  1.00  0.00     0.029 A 
ATOM     48  N   UNL A   1      39.231  30.734  31.664  1.00  0.00    -0.354 N 
ATOM     49  C   UNL A   1      42.402  28.900  33.974  1.00  0.00     0.074 A 
ATOM     50  C   UNL A   1      42.940  27.744  33.295  1.00  0.00     0.031 C 
ATOM     51  C   UNL A   1      37.868  30.990  29.908  1.00  0.00     0.029 A 
ATOM     52  C   UNL A   1      38.210  31.538  31.217  1.00  0.00     0.049 A 
ATOM     53  H   UNL A   1      39.652  30.838  32.549  1.00  0.00     0.167 HD
ATOM     54  C   UNL A   1      42.812  29.322  35.194  1.00  0.00     0.031 A 
ATOM     55  C   UNL A   1      37.628  32.609  31.788  1.00  0.00     0.031 A 
ATOM     56  C   UNL A   1      42.299  30.495  35.849  1.00  0.00     0.049 A 
ATOM     57  C   UNL A   1      38.130  33.080  33.125  1.00  0.00     0.074 A 
ATOM     58  C   UNL A   1      42.702  31.057  37.048  1.00  0.00     0.029 A 
ATOM     59  N   UNL A   1      41.270  31.285  35.360  1.00  0.00    -0.354 N 
ATOM     60  N   UNL A   1      39.097  32.589  33.864  1.00  0.00    -0.248 NA
ATOM     61  C   UNL A   1      37.475  34.265  33.695  1.00  0.00     0.031 C 
ATOM     62  C   UNL A   1      41.882  32.162  37.307  1.00  0.00     0.029 A 
ATOM     63  C   UNL A   1      41.007  32.317  36.244  1.00  0.00     0.049 A 
ATOM     64  H   UNL A   1      40.797  31.134  34.510  1.00  0.00     0.167 HD
ATOM     65  C   UNL A   1      39.182  33.420  34.976  1.00  0.00     0.074 A 
ATOM     66  C   UNL A   1      38.186  34.457  34.797  1.00  0.00     0.031 C 
ATOM     67  C   UNL A   1      40.007  33.334  36.048  1.00  0.00     0.031 A 
BRANCH  54  68
ATOM     68  C   UNL A   1      43.869  28.512  35.901  1.00  0.00    -0.014 A 
ATOM     69  C   UNL A   1      45.235  28.831  35.780  1.00  0.00     0.010 A 
ATOM     70  C   UNL A   1      43.487  27.448  36.738  1.00  0.00     0.010 A 
ATOM     71  C   UNL A   1      46.199  28.080  36.458  1.00  0.00     0.020 A 
ATOM     72  C   UNL A   1      44.447  26.712  37.438  1.00  0.00     0.020 A 
ATOM     73  C   UNL A   1      45.799  27.024  37.283  1.00  0.00     0.054 A 
BRANCH  73  74
ATOM     74  S   UNL A   1      47.069  26.093  38.182  1.00  0.00     0.124 S 
ATOM     75  O   UNL A   1      47.988  27.153  38.590  1.00  0.00    -0.237 OA
ATOM     76  O   UNL A   1      46.308  25.474  39.264  1.00  0.00    -0.237 OA
ATOM     77  O   UNL A   1      47.594  25.166  37.184  1.00  0.00    -0.744 OA
ENDBRANCH  73  74
ENDBRANCH  54  68
BRANCH  55  78
ATOM     78  C   UNL A   1      36.535  33.335  31.085  1.00  0.00    -0.014 A 
ATOM     79  C   UNL A   1      35.276  33.490  31.691  1.00  0.00     0.010 A 
ATOM     80  C   UNL A   1      36.747  33.870  29.802  1.00  0.00     0.010 A 
ATOM     81  C   UNL A   1      34.237  34.135  31.014  1.00  0.00     0.020 A 
ATOM     82  C   UNL A   1      35.719  34.542  29.132  1.00  0.00     0.020 A 
ATOM     83  C   UNL A   1      34.464  34.654  29.736  1.00  0.00     0.054 A 
BRANCH  83  84
ATOM     84  S   UNL A   1      33.112  35.512  28.884  1.00  0.00     0.124 S 
ATOM     85  O   UNL A   1      32.554  34.448  28.054  1.00  0.00    -0.237 OA
ATOM     86  O   UNL A   1      32.270  35.958  29.992  1.00  0.00    -0.237 OA
ATOM     87  O   UNL A   1      33.791  36.583  28.159  1.00  0.00    -0.744 OA
ENDBRANCH  83  84
ENDBRANCH  55  78
BRANCH  67  88
ATOM     88  C   UNL A   1      39.879  34.410  37.093  1.00  0.00    -0.014 A 
ATOM     89  C   UNL A   1      39.032  34.250  38.204  1.00  0.00     0.010 A 
ATOM     90  C   UNL A   1      40.630  35.593  36.965  1.00  0.00     0.010 A 
ATOM     91  C   UNL A   1      38.894  35.277  39.139  1.00  0.00     0.020 A 
ATOM     92  C   UNL A   1      40.517  36.610  37.915  1.00  0.00     0.020 A 
ATOM     93  C   UNL A   1      39.631  36.455  38.983  1.00  0.00     0.054 A 
BRANCH  93  94
ATOM     94  S   UNL A   1      39.438  37.777  40.209  1.00  0.00     0.124 S 
ATOM     95  O   UNL A   1      39.170  37.020  41.428  1.00  0.00    -0.237 OA
ATOM     96  O   UNL A   1      40.732  38.453  40.161  1.00  0.00    -0.237 OA
ATOM     97  O   UNL A   1      38.315  38.559  39.700  1.00  0.00    -0.744 OA
ENDBRANCH  93  94
ENDBRANCH  67  88
ENDBRANCH  41  42
ENDBRANCH  33  36
ENDBRANCH  31  32
ENDBRANCH  30  31
ENDBRANCH   1  30
TORSDOF 19
ENDMDL
MODEL 2
REMARK VINA RESULT:     -11.2      6.448     12.222
REMARK SMILES C[C@@H](NC(=O)[C@@H]([NH3+])CC(=O)NCCCNC(=O)c1ccc(-c2c3nc(c(-c4ccc(S(=O)(=O)[O-])cc4)c4ccc([nH]4)c(-c4ccc(S(=O)(=O)[O-])cc4)c4nc(c(-c5ccc(S(=O)(=O)[O-])cc5)c5ccc2[nH]5)C=C4)C=C3)cc1)C(=O)NC1C(C)(C)SC1(C)C
REMARK SMILES IDX 12 1 11 2 9 3 10 4 8 6 6 7 4 8 3 9 5 11 2 12 1 13 78 14
REMARK SMILES IDX 79 15 80 16 81 18 82 19 86 20 83 21 84 22 85 23 87 24 88 25
REMARK SMILES IDX 7 26 13 30 14 31 15 32 16 33 17 35 18 36 19 37 77 38 20 39
REMARK SMILES IDX 76 40 21 41 22 42 23 43 70 44 24 45 75 46 69 47 71 48 25 49
REMARK SMILES IDX 74 50 68 51 67 52 26 54 56 55 37 56 55 57 38 58 41 59 54 60
REMARK SMILES IDX 72 61 39 62 40 63 53 65 73 66 42 67 27 68 28 69 36 70 29 71
REMARK SMILES IDX 35 72 30 73 31 74 32 75 33 76 34 77 57 78 58 79 66 80 59 81
REMARK SMILES IDX 65 82 60 83 61 84 62 85 63 86 64 87 43 88 44 89 52 90 45 91
REMARK SMILES IDX 51 92 46 93 47 94 48 95 49 96 50 97
REMARK H PARENT 11 5 3 10 80 17 7 27 7 28 7 29 15 34 71 53 41 64
REMARK Flexibility Score: inf
ROOT
ATOM      1  C   UNL A   1      33.521  31.234  27.279  1.00  0.00     0.117 C 
ENDROOT
BRANCH   1   2
ATOM      2  N   UNL A   1      34.127  29.980  26.875  1.00  0.00    -0.356 N 
ATOM      3  C   UNL A   1      33.532  28.856  26.394  1.00  0.00     0.226 C 
ATOM      4  O   UNL A   1      34.222  27.855  26.196  1.00  0.00    -0.275 OA
ATOM      5  H   UNL A   1      35.107  29.937  26.960  1.00  0.00     0.163 HD
BRANCH   3   6
ATOM      6  C   UNL A   1      32.047  28.847  26.126  1.00  0.00     0.175 C 
BRANCH   6   7
ATOM      7  C   UNL A   1      31.755  29.472  24.771  1.00  0.00     0.280 C 
BRANCH   7   8
ATOM      8  C   UNL A   1      31.106  28.554  23.702  1.00  0.00     0.279 C 
ATOM      9  N   UNL A   1      31.757  27.632  22.948  1.00  0.00    -0.339 N 
ATOM     10  H   UNL A   1      31.179  27.126  22.333  1.00  0.00     0.164 HD
ATOM     11  O   UNL A   1      29.880  28.582  23.553  1.00  0.00    -0.268 OA
BRANCH   9  12
ATOM     12  C   UNL A   1      33.166  27.263  22.894  1.00  0.00     0.168 C 
ATOM     13  C   UNL A   1      34.026  28.423  22.393  1.00  0.00     0.041 C 
BRANCH  12  14
ATOM     14  C   UNL A   1      33.398  26.013  22.038  1.00  0.00     0.242 C 
ATOM     15  O   UNL A   1      33.002  25.969  20.869  1.00  0.00    -0.273 OA
ATOM     16  N   UNL A   1      33.966  24.882  22.573  1.00  0.00    -0.349 N 
ATOM     17  H   UNL A   1      34.508  24.346  21.949  1.00  0.00     0.163 HD
BRANCH  16  18
ATOM     18  C   UNL A   1      33.878  24.352  23.963  1.00  0.00     0.113 C 
ATOM     19  C   UNL A   1      32.823  23.175  24.019  1.00  0.00     0.032 C 
ATOM     20  C   UNL A   1      35.071  23.472  24.552  1.00  0.00     0.032 C 
ATOM     21  C   UNL A   1      31.492  23.635  24.606  1.00  0.00     0.025 C 
ATOM     22  C   UNL A   1      32.602  22.334  22.759  1.00  0.00     0.025 C 
ATOM     23  S   UNL A   1      33.830  22.266  25.226  1.00  0.00    -0.145 SA
ATOM     24  C   UNL A   1      36.058  22.762  23.627  1.00  0.00     0.025 C 
ATOM     25  C   UNL A   1      35.820  24.083  25.745  1.00  0.00     0.025 C 
ENDBRANCH  16  18
ENDBRANCH  12  14
ENDBRANCH   9  12
ENDBRANCH   7   8
BRANCH   7  26
ATOM     26  N   UNL A   1      30.932  30.682  24.963  1.00  0.00    -0.347 N 
ATOM     27  H   UNL A   1      30.498  30.944  24.078  1.00  0.00     0.345 HD
ATOM     28  H   UNL A   1      31.522  31.447  25.291  1.00  0.00     0.345 HD
ATOM     29  H   UNL A   1      30.206  30.494  25.654  1.00  0.00     0.345 HD
ENDBRANCH   7  26
ENDBRANCH   6   7
ENDBRANCH   3   6
ENDBRANCH   1   2
BRANCH   1  30
ATOM     30  C   UNL A   1      34.359  31.932  28.337  1.00  0.00     0.042 C 
BRANCH  30  31
ATOM     31  C   UNL A   1      35.656  31.235  28.690  1.00  0.00     0.118 C 
BRANCH  31  32
ATOM     32  N   UNL A   1      35.707  30.831  30.079  1.00  0.00    -0.352 N 
ATOM     33  C   UNL A   1      36.635  30.080  30.748  1.00  0.00     0.251 C 
ATOM     34  H   UNL A   1      34.954  31.147  30.630  1.00  0.00     0.163 HD
ATOM     35  O   UNL A   1      36.366  29.712  31.895  1.00  0.00    -0.269 OA
BRANCH  33  36
ATOM     36  C   UNL A   1      37.925  29.696  30.128  1.00  0.00     0.039 A 
ATOM     37  C   UNL A   1      38.951  29.258  30.969  1.00  0.00     0.014 A 
ATOM     38  C   UNL A   1      38.164  29.811  28.755  1.00  0.00     0.014 A 
ATOM     39  C   UNL A   1      40.197  28.928  30.436  1.00  0.00     0.010 A 
ATOM     40  C   UNL A   1      39.370  29.375  28.211  1.00  0.00     0.010 A 
ATOM     41  C   UNL A   1      40.414  28.968  29.048  1.00  0.00    -0.014 A 
BRANCH  41  42
ATOM     42  C   UNL A   1      41.746  28.633  28.485  1.00  0.00     0.031 A 
ATOM     43  C   UNL A   1      42.824  29.686  28.406  1.00  0.00     0.074 A 
ATOM     44  C   UNL A   1      41.983  27.381  28.049  1.00  0.00     0.049 A 
ATOM     45  N   UNL A   1      44.067  29.560  28.020  1.00  0.00    -0.248 NA
ATOM     46  C   UNL A   1      42.455  31.062  28.782  1.00  0.00     0.031 C 
ATOM     47  C   UNL A   1      40.999  26.294  28.017  1.00  0.00     0.029 A 
ATOM     48  N   UNL A   1      43.129  26.802  27.567  1.00  0.00    -0.354 N 
ATOM     49  C   UNL A   1      44.618  30.835  28.087  1.00  0.00     0.074 A 
ATOM     50  C   UNL A   1      43.563  31.731  28.500  1.00  0.00     0.031 C 
ATOM     51  C   UNL A   1      41.600  25.168  27.598  1.00  0.00     0.029 A 
ATOM     52  C   UNL A   1      42.999  25.460  27.304  1.00  0.00     0.049 A 
ATOM     53  H   UNL A   1      43.967  27.302  27.425  1.00  0.00     0.167 HD
ATOM     54  C   UNL A   1      45.894  31.223  27.852  1.00  0.00     0.031 A 
ATOM     55  C   UNL A   1      43.911  24.559  26.889  1.00  0.00     0.031 A 
ATOM     56  C   UNL A   1      46.949  30.321  27.477  1.00  0.00     0.049 A 
ATOM     57  C   UNL A   1      45.329  25.009  26.675  1.00  0.00     0.074 A 
ATOM     58  C   UNL A   1      48.293  30.596  27.295  1.00  0.00     0.029 A 
ATOM     59  N   UNL A   1      46.778  28.969  27.226  1.00  0.00    -0.354 N 
ATOM     60  N   UNL A   1      45.851  26.203  26.836  1.00  0.00    -0.248 NA
ATOM     61  C   UNL A   1      46.288  23.984  26.242  1.00  0.00     0.031 C 
ATOM     62  C   UNL A   1      48.926  29.417  26.886  1.00  0.00     0.029 A 
ATOM     63  C   UNL A   1      47.986  28.398  26.866  1.00  0.00     0.049 A 
ATOM     64  H   UNL A   1      45.923  28.485  27.293  1.00  0.00     0.167 HD
ATOM     65  C   UNL A   1      47.204  26.066  26.548  1.00  0.00     0.074 A 
ATOM     66  C   UNL A   1      47.422  24.670  26.229  1.00  0.00     0.031 C 
ATOM     67  C   UNL A   1      48.179  27.008  26.546  1.00  0.00     0.031 A 
BRANCH  54  68
ATOM     68  C   UNL A   1      46.222  32.688  27.996  1.00  0.00    -0.014 A 
ATOM     69  C   UNL A   1      46.765  33.200  29.190  1.00  0.00     0.010 A 
ATOM     70  C   UNL A   1      46.033  33.555  26.905  1.00  0.00     0.010 A 
ATOM     71  C   UNL A   1      47.080  34.558  29.299  1.00  0.00     0.020 A 
ATOM     72  C   UNL A   1      46.372  34.907  27.001  1.00  0.00     0.020 A 
ATOM     73  C   UNL A   1      46.881  35.403  28.203  1.00  0.00     0.054 A 
BRANCH  73  74
ATOM     74  S   UNL A   1      47.338  37.151  28.359  1.00  0.00     0.124 S 
ATOM     75  O   UNL A   1      46.605  37.755  27.248  1.00  0.00    -0.237 OA
ATOM     76  O   UNL A   1      46.847  37.493  29.692  1.00  0.00    -0.237 OA
ATOM     77  O   UNL A   1      48.790  37.146  28.216  1.00  0.00    -0.744 OA
ENDBRANCH  73  74
ENDBRANCH  54  68
BRANCH  55  78
ATOM     78  C   UNL A   1      43.524  23.136  26.689  1.00  0.00    -0.014 A 
ATOM     79  C   UNL A   1      42.767  22.458  27.661  1.00  0.00     0.010 A 
ATOM     80  C   UNL A   1      43.916  22.448  25.526  1.00  0.00     0.010 A 
ATOM     81  C   UNL A   1      42.439  21.110  27.492  1.00  0.00     0.020 A 
ATOM     82  C   UNL A   1      43.565  21.108  25.340  1.00  0.00     0.020 A 
ATOM     83  C   UNL A   1      42.844  20.442  26.333  1.00  0.00     0.054 A 
BRANCH  83  84
ATOM     84  S   UNL A   1      42.385  18.699  26.119  1.00  0.00     0.124 S 
ATOM     85  O   UNL A   1      40.974  18.801  25.760  1.00  0.00    -0.237 OA
ATOM     86  O   UNL A   1      43.281  18.263  25.051  1.00  0.00    -0.237 OA
ATOM     87  O   UNL A   1      42.659  18.112  27.429  1.00  0.00    -0.744 OA
ENDBRANCH  83  84
ENDBRANCH  55  78
BRANCH  67  88
ATOM     88  C   UNL A   1      49.572  26.546  26.214  1.00  0.00    -0.014 A 
ATOM     89  C   UNL A   1      50.378  25.912  27.176  1.00  0.00     0.010 A 
ATOM     90  C   UNL A   1      50.074  26.737  24.914  1.00  0.00     0.010 A 
ATOM     91  C   UNL A   1      51.683  25.530  26.862  1.00  0.00     0.020 A 
ATOM     92  C   UNL A   1      51.369  26.329  24.587  1.00  0.00     0.020 A 
ATOM     93  C   UNL A   1      52.173  25.750  25.570  1.00  0.00     0.054 A 
BRANCH  93  94
ATOM     94  S   UNL A   1      53.871  25.245  25.181  1.00  0.00     0.124 S 
ATOM     95  O   UNL A   1      53.760  23.789  25.181  1.00  0.00    -0.237 OA
ATOM     96  O   UNL A   1      54.100  25.858  23.876  1.00  0.00    -0.237 OA
ATOM     97  O   UNL A   1      54.658  25.810  26.274  1.00  0.00    -0.744 OA
ENDBRANCH  93  94
ENDBRANCH  67  88
ENDBRANCH  41  42
ENDBRANCH  33  36
ENDBRANCH  31  32
ENDBRANCH  30  31
ENDBRANCH   1  30
TORSDOF 19
ENDMDL
MODEL 3
REMARK VINA RESULT:     -11.2      2.579      8.999
REMARK SMILES C[C@@H](NC(=O)[C@@H]([NH3+])CC(=O)NCCCNC(=O)c1ccc(-c2c3nc(c(-c4ccc(S(=O)(=O)[O-])cc4)c4ccc([nH]4)c(-c4ccc(S(=O)(=O)[O-])cc4)c4nc(c(-c5ccc(S(=O)(=O)[O-])cc5)c5ccc2[nH]5)C=C4)C=C3)cc1)C(=O)NC1C(C)(C)SC1(C)C
REMARK SMILES IDX 12 1 11 2 9 3 10 4 8 6 6 7 4 8 3 9 5 11 2 12 1 13 78 14
REMARK SMILES IDX 79 15 80 16 81 18 82 19 86 20 83 21 84 22 85 23 87 24 88 25
REMARK SMILES IDX 7 26 13 30 14 31 15 32 16 33 17 35 18 36 19 37 77 38 20 39
REMARK SMILES IDX 76 40 21 41 22 42 23 43 70 44 24 45 75 46 69 47 71 48 25 49
REMARK SMILES IDX 74 50 68 51 67 52 26 54 56 55 37 56 55 57 38 58 41 59 54 60
REMARK SMILES IDX 72 61 39 62 40 63 53 65 73 66 42 67 27 68 28 69 36 70 29 71
REMARK SMILES IDX 35 72 30 73 31 74 32 75 33 76 34 77 57 78 58 79 66 80 59 81
REMARK SMILES IDX 65 82 60 83 61 84 62 85 63 86 64 87 43 88 44 89 52 90 45 91
REMARK SMILES IDX 51 92 46 93 47 94 48 95 49 96 50 97
REMARK H PARENT 11 5 3 10 80 17 7 27 7 28 7 29 15 34 71 53 41 64
REMARK Flexibility Score: inf
ROOT
ATOM      1  C   UNL A   1      31.664  30.403  26.434  1.00  0.00     0.117 C 
ENDROOT
BRANCH   1   2
ATOM      2  N   UNL A   1      32.209  30.021  25.144  1.00  0.00    -0.356 N 
ATOM      3  C   UNL A   1      33.191  29.125  24.861  1.00  0.00     0.226 C 
ATOM      4  O   UNL A   1      33.577  29.013  23.697  1.00  0.00    -0.275 OA
ATOM      5  H   UNL A   1      31.811  30.473  24.366  1.00  0.00     0.163 HD
BRANCH   3   6
ATOM      6  C   UNL A   1      33.798  28.298  25.969  1.00  0.00     0.175 C 
BRANCH   6   7
ATOM      7  C   UNL A   1      33.262  26.876  25.916  1.00  0.00     0.280 C 
BRANCH   7   8
ATOM      8  C   UNL A   1      31.854  26.637  26.522  1.00  0.00     0.279 C 
ATOM      9  N   UNL A   1      31.098  25.521  26.356  1.00  0.00    -0.339 N 
ATOM     10  H   UNL A   1      30.237  25.537  26.833  1.00  0.00     0.164 HD
ATOM     11  O   UNL A   1      31.382  27.480  27.293  1.00  0.00    -0.268 OA
BRANCH   9  12
ATOM     12  C   UNL A   1      31.344  24.305  25.594  1.00  0.00     0.168 C 
ATOM     13  C   UNL A   1      30.442  24.227  24.362  1.00  0.00     0.041 C 
BRANCH  12  14
ATOM     14  C   UNL A   1      31.187  23.047  26.455  1.00  0.00     0.242 C 
ATOM     15  O   UNL A   1      30.771  23.127  27.615  1.00  0.00    -0.273 OA
ATOM     16  N   UNL A   1      31.590  21.816  25.995  1.00  0.00    -0.349 N 
ATOM     17  H   UNL A   1      31.066  21.050  26.324  1.00  0.00     0.163 HD
BRANCH  16  18
ATOM     18  C   UNL A   1      32.707  21.478  25.069  1.00  0.00     0.113 C 
ATOM     19  C   UNL A   1      34.092  21.752  25.782  1.00  0.00     0.032 C 
ATOM     20  C   UNL A   1      33.037  19.950  24.751  1.00  0.00     0.032 C 
ATOM     21  C   UNL A   1      34.720  23.062  25.316  1.00  0.00     0.025 C 
ATOM     22  C   UNL A   1      34.164  21.624  27.306  1.00  0.00     0.025 C 
ATOM     23  S   UNL A   1      34.845  20.307  24.982  1.00  0.00    -0.145 SA
ATOM     24  C   UNL A   1      32.587  18.834  25.692  1.00  0.00     0.025 C 
ATOM     25  C   UNL A   1      32.832  19.517  23.292  1.00  0.00     0.025 C 
ENDBRANCH  16  18
ENDBRANCH  12  14
ENDBRANCH   9  12
ENDBRANCH   7   8
BRANCH   7  26
ATOM     26  N   UNL A   1      33.299  26.396  24.521  1.00  0.00    -0.347 N 
ATOM     27  H   UNL A   1      34.212  25.987  24.326  1.00  0.00     0.345 HD
ATOM     28  H   UNL A   1      33.135  27.179  23.888  1.00  0.00     0.345 HD
ATOM     29  H   UNL A   1      32.574  25.691  24.385  1.00  0.00     0.345 HD
ENDBRANCH   7  26
ENDBRANCH   6   7
ENDBRANCH   3   6
ENDBRANCH   1   2
BRANCH   1  30
ATOM     30  C   UNL A   1      31.669  31.913  26.605  1.00  0.00     0.042 C 
BRANCH  30  31
ATOM     31  C   UNL A   1      32.877  32.471  27.328  1.00  0.00     0.118 C 
BRANCH  31  32
ATOM     32  N   UNL A   1      32.687  33.845  27.743  1.00  0.00    -0.352 N 
ATOM     33  C   UNL A   1      33.285  34.555  28.748  1.00  0.00     0.251 C 
ATOM     34  H   UNL A   1      32.021  34.347  27.220  1.00  0.00     0.163 HD
ATOM     35  O   UNL A   1      32.822  35.664  29.031  1.00  0.00    -0.269 OA
BRANCH  33  36
ATOM     36  C   UNL A   1      34.445  34.022  29.500  1.00  0.00     0.039 A 
ATOM     37  C   UNL A   1      35.723  34.412  29.095  1.00  0.00     0.014 A 
ATOM     38  C   UNL A   1      34.307  33.108  30.550  1.00  0.00     0.014 A 
ATOM     39  C   UNL A   1      36.848  33.901  29.743  1.00  0.00     0.010 A 
ATOM     40  C   UNL A   1      35.423  32.687  31.269  1.00  0.00     0.010 A 
ATOM     41  C   UNL A   1      36.708  33.046  30.849  1.00  0.00    -0.014 A 
BRANCH  41  42
ATOM     42  C   UNL A   1      37.905  32.490  31.526  1.00  0.00     0.031 A 
ATOM     43  C   UNL A   1      38.309  32.992  32.890  1.00  0.00     0.074 A 
ATOM     44  C   UNL A   1      38.625  31.530  30.913  1.00  0.00     0.049 A 
ATOM     45  N   UNL A   1      39.274  32.573  33.667  1.00  0.00    -0.248 NA
ATOM     46  C   UNL A   1      37.553  34.129  33.444  1.00  0.00     0.031 C 
ATOM     47  C   UNL A   1      38.369  31.008  29.568  1.00  0.00     0.029 A 
ATOM     48  N   UNL A   1      39.708  30.808  31.346  1.00  0.00    -0.354 N 
ATOM     49  C   UNL A   1      39.252  33.402  34.784  1.00  0.00     0.074 A 
ATOM     50  C   UNL A   1      38.215  34.382  34.563  1.00  0.00     0.031 C 
ATOM     51  C   UNL A   1      39.230  30.010  29.311  1.00  0.00     0.029 A 
ATOM     52  C   UNL A   1      40.117  29.842  30.457  1.00  0.00     0.049 A 
ATOM     53  H   UNL A   1      40.149  30.966  32.213  1.00  0.00     0.167 HD
ATOM     54  C   UNL A   1      40.010  33.338  35.904  1.00  0.00     0.031 A 
ATOM     55  C   UNL A   1      41.085  28.914  30.562  1.00  0.00     0.031 A 
ATOM     56  C   UNL A   1      41.017  32.337  36.135  1.00  0.00     0.049 A 
ATOM     57  C   UNL A   1      41.884  28.839  31.834  1.00  0.00     0.074 A 
ATOM     58  C   UNL A   1      41.784  32.132  37.268  1.00  0.00     0.029 A 
ATOM     59  N   UNL A   1      41.397  31.374  35.213  1.00  0.00    -0.354 N 
ATOM     60  N   UNL A   1      41.783  29.574  32.917  1.00  0.00    -0.248 NA
ATOM     61  C   UNL A   1      42.915  27.795  31.905  1.00  0.00     0.031 C 
ATOM     62  C   UNL A   1      42.663  31.074  37.012  1.00  0.00     0.029 A 
ATOM     63  C   UNL A   1      42.404  30.586  35.740  1.00  0.00     0.049 A 
ATOM     64  H   UNL A   1      41.007  31.267  34.315  1.00  0.00     0.167 HD
ATOM     65  C   UNL A   1      42.721  29.063  33.808  1.00  0.00     0.074 A 
ATOM     66  C   UNL A   1      43.359  27.944  33.145  1.00  0.00     0.031 C 
ATOM     67  C   UNL A   1      43.029  29.482  35.060  1.00  0.00     0.031 A 
BRANCH  54  68
ATOM     68  C   UNL A   1      39.778  34.378  36.971  1.00  0.00    -0.014 A 
ATOM     69  C   UNL A   1      38.991  34.099  38.104  1.00  0.00     0.010 A 
ATOM     70  C   UNL A   1      40.398  35.636  36.864  1.00  0.00     0.010 A 
ATOM     71  C   UNL A   1      38.802  35.069  39.092  1.00  0.00     0.020 A 
ATOM     72  C   UNL A   1      40.233  36.600  37.863  1.00  0.00     0.020 A 
ATOM     73  C   UNL A   1      39.424  36.315  38.965  1.00  0.00     0.054 A 
BRANCH  73  74
ATOM     74  S   UNL A   1      39.195  37.541  40.281  1.00  0.00     0.124 S 
ATOM     75  O   UNL A   1      40.561  38.013  40.494  1.00  0.00    -0.237 OA
ATOM     76  O   UNL A   1      38.288  38.506  39.667  1.00  0.00    -0.237 OA
ATOM     77  O   UNL A   1      38.626  36.768  41.381  1.00  0.00    -0.744 OA
ENDBRANCH  73  74
ENDBRANCH  54  68
BRANCH  55  78
ATOM     78  C   UNL A   1      41.329  27.953  29.452  1.00  0.00    -0.014 A 
ATOM     79  C   UNL A   1      40.522  26.810  29.307  1.00  0.00     0.010 A 
ATOM     80  C   UNL A   1      42.373  28.172  28.536  1.00  0.00     0.010 A 
ATOM     81  C   UNL A   1      40.777  25.886  28.289  1.00  0.00     0.020 A 
ATOM     82  C   UNL A   1      42.614  27.266  27.499  1.00  0.00     0.020 A 
ATOM     83  C   UNL A   1      41.824  26.118  27.393  1.00  0.00     0.054 A 
BRANCH  83  84
ATOM     84  S   UNL A   1      42.122  24.922  26.062  1.00  0.00     0.124 S 
ATOM     85  O   UNL A   1      43.447  24.414  26.403  1.00  0.00    -0.237 OA
ATOM     86  O   UNL A   1      41.019  23.978  26.231  1.00  0.00    -0.237 OA
ATOM     87  O   UNL A   1      42.053  25.736  24.851  1.00  0.00    -0.744 OA
ENDBRANCH  83  84
ENDBRANCH  55  78
BRANCH  67  88
ATOM     88  C   UNL A   1      44.085  28.704  35.798  1.00  0.00    -0.014 A 
ATOM     89  C   UNL A   1      45.452  28.975  35.614  1.00  0.00     0.010 A 
ATOM     90  C   UNL A   1      43.699  27.694  36.699  1.00  0.00     0.010 A 
ATOM     91  C   UNL A   1      46.417  28.212  36.273  1.00  0.00     0.020 A 
ATOM     92  C   UNL A   1      44.661  26.950  37.384  1.00  0.00     0.020 A 
ATOM     93  C   UNL A   1      46.015  27.198  37.148  1.00  0.00     0.054 A 
BRANCH  93  94
ATOM     94  S   UNL A   1      47.284  26.220  37.997  1.00  0.00     0.124 S 
ATOM     95  O   UNL A   1      47.523  27.014  39.198  1.00  0.00    -0.237 OA
ATOM     96  O   UNL A   1      46.615  24.939  38.212  1.00  0.00    -0.237 OA
ATOM     97  O   UNL A   1      48.389  26.185  37.042  1.00  0.00    -0.744 OA
ENDBRANCH  93  94
ENDBRANCH  67  88
ENDBRANCH  41  42
ENDBRANCH  33  36
ENDBRANCH  31  32
ENDBRANCH  30  31
ENDBRANCH   1  30
TORSDOF 19
ENDMDL
