MODEL 1
REMARK VINA RESULT:     -12.5      0.000      0.000
REMARK SMILES CC(C)c1ccc(-c2cnc([C@@H]3[NH2+][C@H](C(=O)NCCCNC(=O)c4ccc(-c5c6nc(c(-c7ccc(S(=O)(=O)[O-])cc7)c7ccc([nH]7)c(-c7ccc(S(=O)(=O)[O-])cc7)c7nc(c(-c8ccc(S(=O)(=O)[O-])cc8)c8ccc5[nH]8)C=C7)C=C6)cc4)C(C)(C)S3)s2)cc1
REMARK SMILES IDX 19 1 18 2 17 3 15 4 16 5 14 7 12 8 13 9 87 10 84 13 85 14
REMARK SMILES IDX 86 15 11 16 8 17 9 18 88 19 10 20 7 21 4 22 5 23 90 24 6 25
REMARK SMILES IDX 89 26 2 27 1 28 3 29 20 30 21 31 22 32 23 34 24 35 25 36
REMARK SMILES IDX 83 37 26 38 82 39 27 40 28 41 29 42 76 43 30 44 81 45 75 46
REMARK SMILES IDX 77 47 31 48 80 49 74 50 73 51 32 53 62 54 43 55 61 56 44 57
REMARK SMILES IDX 47 58 60 59 78 60 45 61 46 62 59 64 79 65 48 66 33 67 34 68
REMARK SMILES IDX 42 69 35 70 41 71 36 72 37 73 38 74 39 75 40 76 63 77 64 78
REMARK SMILES IDX 72 79 65 80 71 81 66 82 67 83 68 84 69 85 70 86 49 87 50 88
REMARK SMILES IDX 58 89 51 90 57 91 52 92 53 93 54 94 55 95 56 96
REMARK H PARENT 17 6 13 11 13 12 21 33 77 52 47 63
REMARK Flexibility Score: inf
ROOT
ATOM      1  C   UNL A   1      34.661  29.014  27.520  1.00  0.00     0.042 C 
ENDROOT
BRANCH   1   2
ATOM      2  C   UNL A   1      33.177  29.041  27.136  1.00  0.00     0.118 C 
BRANCH   2   3
ATOM      3  N   UNL A   1      32.732  27.753  26.640  1.00  0.00    -0.351 N 
ATOM      4  C   UNL A   1      31.791  27.580  25.656  1.00  0.00     0.279 C 
ATOM      5  O   UNL A   1      30.838  26.859  25.934  1.00  0.00    -0.268 OA
ATOM      6  H   UNL A   1      33.132  26.946  27.038  1.00  0.00     0.163 HD
BRANCH   4   7
ATOM      7  C   UNL A   1      32.012  28.285  24.296  1.00  0.00     0.289 C 
ATOM      8  C   UNL A   1      33.218  26.737  22.868  1.00  0.00     0.304 C 
ATOM      9  N   UNL A   1      33.358  27.933  23.731  1.00  0.00    -0.318 N 
ATOM     10  S   UNL A   1      31.528  26.693  22.198  1.00  0.00    -0.079 SA
ATOM     11  H   UNL A   1      33.712  28.714  23.179  1.00  0.00     0.348 HD
ATOM     12  H   UNL A   1      34.010  27.737  24.489  1.00  0.00     0.348 HD
ATOM     13  C   UNL A   1      30.929  28.082  23.214  1.00  0.00     0.078 C 
ATOM     14  C   UNL A   1      30.866  29.315  22.291  1.00  0.00     0.030 C 
ATOM     15  C   UNL A   1      29.524  27.801  23.747  1.00  0.00     0.030 C 
BRANCH   8  16
ATOM     16  C   UNL A   1      33.611  25.431  23.530  1.00  0.00     0.162 A 
ATOM     17  C   UNL A   1      33.854  23.083  24.181  1.00  0.00     0.055 A 
ATOM     18  C   UNL A   1      34.513  24.010  24.965  1.00  0.00     0.132 A 
ATOM     19  S   UNL A   1      33.052  23.916  22.906  1.00  0.00    -0.112 S 
ATOM     20  N   UNL A   1      34.345  25.323  24.615  1.00  0.00    -0.242 NA
BRANCH  17  21
ATOM     21  C   UNL A   1      33.786  21.631  24.368  1.00  0.00    -0.007 A 
ATOM     22  C   UNL A   1      33.795  18.804  24.606  1.00  0.00    -0.045 A 
ATOM     23  C   UNL A   1      32.616  19.497  24.297  1.00  0.00     0.004 A 
ATOM     24  C   UNL A   1      34.964  19.542  24.818  1.00  0.00     0.004 A 
ATOM     25  C   UNL A   1      32.612  20.895  24.177  1.00  0.00     0.010 A 
ATOM     26  C   UNL A   1      34.959  20.933  24.701  1.00  0.00     0.010 A 
BRANCH  22  27
ATOM     27  C   UNL A   1      33.842  17.292  24.717  1.00  0.00     0.013 C 
ATOM     28  C   UNL A   1      32.531  16.737  25.274  1.00  0.00     0.012 C 
ATOM     29  C   UNL A   1      34.200  16.628  23.385  1.00  0.00     0.012 C 
ENDBRANCH  22  27
ENDBRANCH  17  21
ENDBRANCH   8  16
ENDBRANCH   4   7
ENDBRANCH   2   3
ENDBRANCH   1   2
BRANCH   1  30
ATOM     30  C   UNL A   1      35.259  30.377  27.874  1.00  0.00     0.118 C 
BRANCH  30  31
ATOM     31  N   UNL A   1      35.259  30.634  29.306  1.00  0.00    -0.352 N 
ATOM     32  C   UNL A   1      36.257  30.483  30.234  1.00  0.00     0.251 C 
ATOM     33  H   UNL A   1      34.407  30.968  29.667  1.00  0.00     0.163 HD
ATOM     34  O   UNL A   1      35.983  30.600  31.429  1.00  0.00    -0.269 OA
BRANCH  32  35
ATOM     35  C   UNL A   1      37.643  30.160  29.827  1.00  0.00     0.039 A 
ATOM     36  C   UNL A   1      38.576  29.857  30.824  1.00  0.00     0.014 A 
ATOM     37  C   UNL A   1      38.045  30.196  28.488  1.00  0.00     0.014 A 
ATOM     38  C   UNL A   1      39.892  29.535  30.477  1.00  0.00     0.010 A 
ATOM     39  C   UNL A   1      39.343  29.820  28.139  1.00  0.00     0.010 A 
ATOM     40  C   UNL A   1      40.280  29.485  29.128  1.00  0.00    -0.014 A 
BRANCH  40  41
ATOM     41  C   UNL A   1      41.654  29.067  28.745  1.00  0.00     0.031 A 
ATOM     42  C   UNL A   1      42.778  30.067  28.714  1.00  0.00     0.074 A 
ATOM     43  C   UNL A   1      41.881  27.792  28.371  1.00  0.00     0.049 A 
ATOM     44  N   UNL A   1      44.027  29.892  28.360  1.00  0.00    -0.248 NA
ATOM     45  C   UNL A   1      42.455  31.444  29.116  1.00  0.00     0.031 C 
ATOM     46  C   UNL A   1      40.873  26.731  28.322  1.00  0.00     0.029 A 
ATOM     47  N   UNL A   1      43.034  27.173  27.956  1.00  0.00    -0.354 N 
ATOM     48  C   UNL A   1      44.633  31.138  28.477  1.00  0.00     0.074 A 
ATOM     49  C   UNL A   1      43.608  32.066  28.904  1.00  0.00     0.031 C 
ATOM     50  C   UNL A   1      41.455  25.591  27.919  1.00  0.00     0.029 A 
ATOM     51  C   UNL A   1      42.866  25.844  27.649  1.00  0.00     0.049 A 
ATOM     52  H   UNL A   1      43.900  27.638  27.884  1.00  0.00     0.167 HD
ATOM     53  C   UNL A   1      45.927  31.476  28.263  1.00  0.00     0.031 A 
ATOM     54  C   UNL A   1      43.746  24.930  27.195  1.00  0.00     0.031 A 
ATOM     55  C   UNL A   1      46.953  30.554  27.851  1.00  0.00     0.049 A 
ATOM     56  C   UNL A   1      45.178  25.328  26.970  1.00  0.00     0.074 A 
ATOM     57  C   UNL A   1      48.303  30.795  27.660  1.00  0.00     0.029 A 
ATOM     58  N   UNL A   1      46.744  29.214  27.567  1.00  0.00    -0.354 N 
ATOM     59  N   UNL A   1      45.742  26.499  27.140  1.00  0.00    -0.248 NA
ATOM     60  C   UNL A   1      46.093  24.277  26.502  1.00  0.00     0.031 C 
ATOM     61  C   UNL A   1      48.903  29.609  27.224  1.00  0.00     0.029 A 
ATOM     62  C   UNL A   1      47.935  28.618  27.187  1.00  0.00     0.049 A 
ATOM     63  H   UNL A   1      45.877  28.751  27.627  1.00  0.00     0.167 HD
ATOM     64  C   UNL A   1      47.082  26.322  26.820  1.00  0.00     0.074 A 
ATOM     65  C   UNL A   1      47.247  24.928  26.460  1.00  0.00     0.031 C 
ATOM     66  C   UNL A   1      48.087  27.232  26.827  1.00  0.00     0.031 A 
BRANCH  53  67
ATOM     67  C   UNL A   1      46.307  32.918  28.466  1.00  0.00    -0.014 A 
ATOM     68  C   UNL A   1      46.196  33.850  27.420  1.00  0.00     0.010 A 
ATOM     69  C   UNL A   1      46.749  33.354  29.729  1.00  0.00     0.010 A 
ATOM     70  C   UNL A   1      46.562  35.185  27.618  1.00  0.00     0.020 A 
ATOM     71  C   UNL A   1      47.093  34.694  29.938  1.00  0.00     0.020 A 
ATOM     72  C   UNL A   1      47.015  35.596  28.875  1.00  0.00     0.054 A 
BRANCH  72  73
ATOM     73  S   UNL A   1      47.471  37.336  29.112  1.00  0.00     0.124 S 
ATOM     74  O   UNL A   1      46.178  37.948  29.404  1.00  0.00    -0.237 OA
ATOM     75  O   UNL A   1      48.403  37.276  30.236  1.00  0.00    -0.237 OA
ATOM     76  O   UNL A   1      48.067  37.715  27.834  1.00  0.00    -0.744 OA
ENDBRANCH  72  73
ENDBRANCH  53  67
BRANCH  54  77
ATOM     77  C   UNL A   1      43.295  23.536  26.938  1.00  0.00    -0.014 A 
ATOM     78  C   UNL A   1      43.113  23.079  25.623  1.00  0.00     0.010 A 
ATOM     79  C   UNL A   1      43.069  22.654  28.010  1.00  0.00     0.010 A 
ATOM     80  C   UNL A   1      42.700  21.765  25.381  1.00  0.00     0.020 A 
ATOM     81  C   UNL A   1      42.677  21.334  27.772  1.00  0.00     0.020 A 
ATOM     82  C   UNL A   1      42.486  20.901  26.459  1.00  0.00     0.054 A 
BRANCH  82  83
ATOM     83  S   UNL A   1      42.013  19.181  26.124  1.00  0.00     0.124 S 
ATOM     84  O   UNL A   1      42.822  18.865  24.952  1.00  0.00    -0.237 OA
ATOM     85  O   UNL A   1      42.393  18.500  27.359  1.00  0.00    -0.237 OA
ATOM     86  O   UNL A   1      40.572  19.266  25.890  1.00  0.00    -0.744 OA
ENDBRANCH  82  83
ENDBRANCH  54  77
BRANCH  66  87
ATOM     87  C   UNL A   1      49.462  26.745  26.461  1.00  0.00    -0.014 A 
ATOM     88  C   UNL A   1      50.284  26.110  27.409  1.00  0.00     0.010 A 
ATOM     89  C   UNL A   1      49.920  26.887  25.138  1.00  0.00     0.010 A 
ATOM     90  C   UNL A   1      51.553  25.650  27.046  1.00  0.00     0.020 A 
ATOM     91  C   UNL A   1      51.180  26.409  24.767  1.00  0.00     0.020 A 
ATOM     92  C   UNL A   1      51.995  25.805  25.728  1.00  0.00     0.054 A 
BRANCH  92  93
ATOM     93  S   UNL A   1      53.628  25.165  25.268  1.00  0.00     0.124 S 
ATOM     94  O   UNL A   1      53.408  23.722  25.298  1.00  0.00    -0.237 OA
ATOM     95  O   UNL A   1      53.840  25.740  23.943  1.00  0.00    -0.237 OA
ATOM     96  O   UNL A   1      54.508  25.684  26.313  1.00  0.00    -0.744 OA
ENDBRANCH  92  93
ENDBRANCH  66  87
ENDBRANCH  40  41
ENDBRANCH  32  35
ENDBRANCH  30  31
ENDBRANCH   1  30
TORSDOF 16
ENDMDL
MODEL 2
REMARK VINA RESULT:     -12.5      6.114     12.136
REMARK SMILES CC(C)c1ccc(-c2cnc([C@@H]3[NH2+][C@H](C(=O)NCCCNC(=O)c4ccc(-c5c6nc(c(-c7ccc(S(=O)(=O)[O-])cc7)c7ccc([nH]7)c(-c7ccc(S(=O)(=O)[O-])cc7)c7nc(c(-c8ccc(S(=O)(=O)[O-])cc8)c8ccc5[nH]8)C=C7)C=C6)cc4)C(C)(C)S3)s2)cc1
REMARK SMILES IDX 19 1 18 2 17 3 15 4 16 5 14 7 12 8 13 9 87 10 84 13 85 14
REMARK SMILES IDX 86 15 11 16 8 17 9 18 88 19 10 20 7 21 4 22 5 23 90 24 6 25
REMARK SMILES IDX 89 26 2 27 1 28 3 29 20 30 21 31 22 32 23 34 24 35 25 36
REMARK SMILES IDX 83 37 26 38 82 39 27 40 28 41 29 42 76 43 30 44 81 45 75 46
REMARK SMILES IDX 77 47 31 48 80 49 74 50 73 51 32 53 62 54 43 55 61 56 44 57
REMARK SMILES IDX 47 58 60 59 78 60 45 61 46 62 59 64 79 65 48 66 33 67 34 68
REMARK SMILES IDX 42 69 35 70 41 71 36 72 37 73 38 74 39 75 40 76 63 77 64 78
REMARK SMILES IDX 72 79 65 80 71 81 66 82 67 83 68 84 69 85 70 86 49 87 50 88
REMARK SMILES IDX 58 89 51 90 57 91 52 92 53 93 54 94 55 95 56 96
REMARK H PARENT 17 6 13 11 13 12 21 33 77 52 47 63
REMARK Flexibility Score: inf
ROOT
ATOM      1  C   UNL A   1      37.720  22.932  26.102  1.00  0.00     0.042 C 
ENDROOT
BRANCH   1   2
ATOM      2  C   UNL A   1      37.281  22.670  24.658  1.00  0.00     0.118 C 
BRANCH   2   3
ATOM      3  N   UNL A   1      36.052  23.373  24.340  1.00  0.00    -0.351 N 
ATOM      4  C   UNL A   1      34.832  22.769  24.161  1.00  0.00     0.279 C 
ATOM      5  O   UNL A   1      34.254  23.011  23.106  1.00  0.00    -0.268 OA
ATOM      6  H   UNL A   1      36.096  24.353  24.245  1.00  0.00     0.163 HD
BRANCH   4   7
ATOM      7  C   UNL A   1      34.290  21.860  25.290  1.00  0.00     0.289 C 
ATOM      8  C   UNL A   1      32.614  23.131  26.498  1.00  0.00     0.304 C 
ATOM      9  N   UNL A   1      34.018  22.661  26.530  1.00  0.00    -0.318 N 
ATOM     10  S   UNL A   1      31.625  21.955  25.524  1.00  0.00    -0.079 SA
ATOM     11  H   UNL A   1      34.166  22.079  27.354  1.00  0.00     0.348 HD
ATOM     12  H   UNL A   1      34.649  23.462  26.568  1.00  0.00     0.348 HD
ATOM     13  C   UNL A   1      33.060  20.986  24.960  1.00  0.00     0.078 C 
ATOM     14  C   UNL A   1      33.087  19.696  25.803  1.00  0.00     0.030 C 
ATOM     15  C   UNL A   1      32.913  20.603  23.487  1.00  0.00     0.030 C 
BRANCH   8  16
ATOM     16  C   UNL A   1      32.436  24.562  26.030  1.00  0.00     0.162 A 
ATOM     17  C   UNL A   1      31.620  26.647  25.038  1.00  0.00     0.055 A 
ATOM     18  C   UNL A   1      32.881  26.685  25.601  1.00  0.00     0.132 A 
ATOM     19  S   UNL A   1      30.974  25.067  25.252  1.00  0.00    -0.112 S 
ATOM     20  N   UNL A   1      33.344  25.508  26.123  1.00  0.00    -0.242 NA
BRANCH  17  21
ATOM     21  C   UNL A   1      30.912  27.724  24.340  1.00  0.00    -0.007 A 
ATOM     22  C   UNL A   1      29.484  29.870  23.155  1.00  0.00    -0.045 A 
ATOM     23  C   UNL A   1      29.274  28.547  22.739  1.00  0.00     0.004 A 
ATOM     24  C   UNL A   1      30.433  30.110  24.154  1.00  0.00     0.004 A 
ATOM     25  C   UNL A   1      29.978  27.486  23.326  1.00  0.00     0.010 A 
ATOM     26  C   UNL A   1      31.136  29.053  24.736  1.00  0.00     0.010 A 
BRANCH  22  27
ATOM     27  C   UNL A   1      28.720  31.038  22.561  1.00  0.00     0.013 C 
ATOM     28  C   UNL A   1      28.061  30.652  21.238  1.00  0.00     0.012 C 
ATOM     29  C   UNL A   1      27.694  31.613  23.541  1.00  0.00     0.012 C 
ENDBRANCH  22  27
ENDBRANCH  17  21
ENDBRANCH   8  16
ENDBRANCH   4   7
ENDBRANCH   2   3
ENDBRANCH   1   2
BRANCH   1  30
ATOM     30  C   UNL A   1      38.553  24.200  26.302  1.00  0.00     0.118 C 
BRANCH  30  31
ATOM     31  N   UNL A   1      39.973  23.979  26.078  1.00  0.00    -0.352 N 
ATOM     32  C   UNL A   1      41.062  24.666  26.549  1.00  0.00     0.251 C 
ATOM     33  H   UNL A   1      40.186  23.215  25.496  1.00  0.00     0.163 HD
ATOM     34  O   UNL A   1      42.176  24.404  26.091  1.00  0.00    -0.269 OA
BRANCH  32  35
ATOM     35  C   UNL A   1      40.920  25.726  27.572  1.00  0.00     0.039 A 
ATOM     36  C   UNL A   1      39.860  25.637  28.481  1.00  0.00     0.014 A 
ATOM     37  C   UNL A   1      41.784  26.825  27.619  1.00  0.00     0.014 A 
ATOM     38  C   UNL A   1      39.701  26.614  29.468  1.00  0.00     0.010 A 
ATOM     39  C   UNL A   1      41.657  27.769  28.640  1.00  0.00     0.010 A 
ATOM     40  C   UNL A   1      40.616  27.673  29.575  1.00  0.00    -0.014 A 
BRANCH  40  41
ATOM     41  C   UNL A   1      40.502  28.673  30.669  1.00  0.00     0.031 A 
ATOM     42  C   UNL A   1      41.375  28.575  31.891  1.00  0.00     0.074 A 
ATOM     43  C   UNL A   1      39.570  29.643  30.588  1.00  0.00     0.049 A 
ATOM     44  N   UNL A   1      41.380  29.329  32.962  1.00  0.00    -0.248 NA
ATOM     45  C   UNL A   1      42.357  27.481  31.922  1.00  0.00     0.031 C 
ATOM     46  C   UNL A   1      38.636  29.830  29.475  1.00  0.00     0.029 A 
ATOM     47  N   UNL A   1      39.251  30.654  31.461  1.00  0.00    -0.354 N 
ATOM     48  C   UNL A   1      42.349  28.790  33.801  1.00  0.00     0.074 A 
ATOM     49  C   UNL A   1      42.887  27.628  33.129  1.00  0.00     0.031 C 
ATOM     50  C   UNL A   1      37.864  30.899  29.724  1.00  0.00     0.029 A 
ATOM     51  C   UNL A   1      38.222  31.454  31.025  1.00  0.00     0.049 A 
ATOM     52  H   UNL A   1      39.716  30.792  32.318  1.00  0.00     0.167 HD
ATOM     53  C   UNL A   1      42.763  29.231  35.014  1.00  0.00     0.031 A 
ATOM     54  C   UNL A   1      37.626  32.513  31.608  1.00  0.00     0.031 A 
ATOM     55  C   UNL A   1      42.239  30.394  35.680  1.00  0.00     0.049 A 
ATOM     56  C   UNL A   1      38.106  32.986  32.952  1.00  0.00     0.074 A 
ATOM     57  C   UNL A   1      42.633  30.947  36.886  1.00  0.00     0.029 A 
ATOM     58  N   UNL A   1      41.209  31.186  35.197  1.00  0.00    -0.354 N 
ATOM     59  N   UNL A   1      39.061  32.494  33.703  1.00  0.00    -0.248 NA
ATOM     60  C   UNL A   1      37.435  34.163  33.519  1.00  0.00     0.031 C 
ATOM     61  C   UNL A   1      41.815  32.051  37.151  1.00  0.00     0.029 A 
ATOM     62  C   UNL A   1      40.942  32.212  36.088  1.00  0.00     0.049 A 
ATOM     63  H   UNL A   1      40.735  31.041  34.346  1.00  0.00     0.167 HD
ATOM     64  C   UNL A   1      39.120  33.315  34.823  1.00  0.00     0.074 A 
ATOM     65  C   UNL A   1      38.113  34.342  34.644  1.00  0.00     0.031 C 
ATOM     66  C   UNL A   1      39.936  33.226  35.901  1.00  0.00     0.031 A 
BRANCH  53  67
ATOM     67  C   UNL A   1      43.839  28.438  35.706  1.00  0.00    -0.014 A 
ATOM     68  C   UNL A   1      45.198  28.752  35.526  1.00  0.00     0.010 A 
ATOM     69  C   UNL A   1      43.487  27.389  36.574  1.00  0.00     0.010 A 
ATOM     70  C   UNL A   1      46.188  28.002  36.166  1.00  0.00     0.020 A 
ATOM     71  C   UNL A   1      44.474  26.651  37.235  1.00  0.00     0.020 A 
ATOM     72  C   UNL A   1      45.819  26.951  37.012  1.00  0.00     0.054 A 
BRANCH  72  73
ATOM     73  S   UNL A   1      47.122  26.000  37.842  1.00  0.00     0.124 S 
ATOM     74  O   UNL A   1      48.223  26.103  36.888  1.00  0.00    -0.237 OA
ATOM     75  O   UNL A   1      47.308  26.731  39.094  1.00  0.00    -0.237 OA
ATOM     76  O   UNL A   1      46.541  24.668  37.984  1.00  0.00    -0.744 OA
ENDBRANCH  72  73
ENDBRANCH  53  67
BRANCH  54  77
ATOM     77  C   UNL A   1      36.514  33.211  30.910  1.00  0.00    -0.014 A 
ATOM     78  C   UNL A   1      35.229  33.244  31.475  1.00  0.00     0.010 A 
ATOM     79  C   UNL A   1      36.744  33.865  29.686  1.00  0.00     0.010 A 
ATOM     80  C   UNL A   1      34.186  33.909  30.824  1.00  0.00     0.020 A 
ATOM     81  C   UNL A   1      35.709  34.550  29.042  1.00  0.00     0.020 A 
ATOM     82  C   UNL A   1      34.434  34.560  29.612  1.00  0.00     0.054 A 
BRANCH  82  83
ATOM     83  S   UNL A   1      33.084  35.472  28.813  1.00  0.00     0.124 S 
ATOM     84  O   UNL A   1      32.348  35.992  29.960  1.00  0.00    -0.237 OA
ATOM     85  O   UNL A   1      33.800  36.466  28.016  1.00  0.00    -0.237 OA
ATOM     86  O   UNL A   1      32.395  34.445  28.035  1.00  0.00    -0.744 OA
ENDBRANCH  82  83
ENDBRANCH  54  77
BRANCH  66  87
ATOM     87  C   UNL A   1      39.796  34.283  36.962  1.00  0.00    -0.014 A 
ATOM     88  C   UNL A   1      39.000  34.067  38.101  1.00  0.00     0.010 A 
ATOM     89  C   UNL A   1      40.504  35.492  36.837  1.00  0.00     0.010 A 
ATOM     90  C   UNL A   1      38.894  35.055  39.085  1.00  0.00     0.020 A 
ATOM     91  C   UNL A   1      40.417  36.473  37.828  1.00  0.00     0.020 A 
ATOM     92  C   UNL A   1      39.600  36.254  38.940  1.00  0.00     0.054 A 
BRANCH  92  93
ATOM     93  S   UNL A   1      39.481  37.506  40.247  1.00  0.00     0.124 S 
ATOM     94  O   UNL A   1      38.564  38.476  39.654  1.00  0.00    -0.237 OA
ATOM     95  O   UNL A   1      38.948  36.747  41.375  1.00  0.00    -0.237 OA
ATOM     96  O   UNL A   1      40.858  37.968  40.409  1.00  0.00    -0.744 OA
ENDBRANCH  92  93
ENDBRANCH  66  87
ENDBRANCH  40  41
ENDBRANCH  32  35
ENDBRANCH  30  31
ENDBRANCH   1  30
TORSDOF 16
ENDMDL
MODEL 3
REMARK VINA RESULT:     -12.4      0.614      8.039
REMARK SMILES CC(C)c1ccc(-c2cnc([C@@H]3[NH2+][C@H](C(=O)NCCCNC(=O)c4ccc(-c5c6nc(c(-c7ccc(S(=O)(=O)[O-])cc7)c7ccc([nH]7)c(-c7ccc(S(=O)(=O)[O-])cc7)c7nc(c(-c8ccc(S(=O)(=O)[O-])cc8)c8ccc5[nH]8)C=C7)C=C6)cc4)C(C)(C)S3)s2)cc1
REMARK SMILES IDX 19 1 18 2 17 3 15 4 16 5 14 7 12 8 13 9 87 10 84 13 85 14
REMARK SMILES IDX 86 15 11 16 8 17 9 18 88 19 10 20 7 21 4 22 5 23 90 24 6 25
REMARK SMILES IDX 89 26 2 27 1 28 3 29 20 30 21 31 22 32 23 34 24 35 25 36
REMARK SMILES IDX 83 37 26 38 82 39 27 40 28 41 29 42 76 43 30 44 81 45 75 46
REMARK SMILES IDX 77 47 31 48 80 49 74 50 73 51 32 53 62 54 43 55 61 56 44 57
REMARK SMILES IDX 47 58 60 59 78 60 45 61 46 62 59 64 79 65 48 66 33 67 34 68
REMARK SMILES IDX 42 69 35 70 41 71 36 72 37 73 38 74 39 75 40 76 63 77 64 78
REMARK SMILES IDX 72 79 65 80 71 81 66 82 67 83 68 84 69 85 70 86 49 87 50 88
REMARK SMILES IDX 58 89 51 90 57 91 52 92 53 93 54 94 55 95 56 96
REMARK H PARENT 17 6 13 11 13 12 21 33 77 52 47 63
REMARK Flexibility Score: inf
ROOT
ATOM      1  C   UNL A   1      34.768  28.842  27.044  1.00  0.00     0.042 C 
ENDROOT
BRANCH   1   2
ATOM      2  C   UNL A   1      33.243  28.798  27.180  1.00  0.00     0.118 C 
BRANCH   2   3
ATOM      3  N   UNL A   1      32.696  27.568  26.641  1.00  0.00    -0.351 N 
ATOM      4  C   UNL A   1      31.697  27.504  25.701  1.00  0.00     0.279 C 
ATOM      5  O   UNL A   1      30.718  26.824  25.993  1.00  0.00    -0.268 OA
ATOM      6  H   UNL A   1      33.067  26.717  26.973  1.00  0.00     0.163 HD
BRANCH   4   7
ATOM      7  C   UNL A   1      31.890  28.270  24.371  1.00  0.00     0.289 C 
ATOM      8  C   UNL A   1      33.203  26.851  22.905  1.00  0.00     0.304 C 
ATOM      9  N   UNL A   1      33.261  28.021  23.812  1.00  0.00    -0.318 N 
ATOM     10  S   UNL A   1      31.527  26.730  22.211  1.00  0.00    -0.079 SA
ATOM     11  H   UNL A   1      33.573  28.842  23.293  1.00  0.00     0.348 HD
ATOM     12  H   UNL A   1      33.915  27.837  24.572  1.00  0.00     0.348 HD
ATOM     13  C   UNL A   1      30.834  28.042  23.268  1.00  0.00     0.078 C 
ATOM     14  C   UNL A   1      30.706  29.302  22.389  1.00  0.00     0.030 C 
ATOM     15  C   UNL A   1      29.442  27.658  23.772  1.00  0.00     0.030 C 
BRANCH   8  16
ATOM     16  C   UNL A   1      33.668  25.548  23.525  1.00  0.00     0.162 A 
ATOM     17  C   UNL A   1      34.054  23.195  24.087  1.00  0.00     0.055 A 
ATOM     18  C   UNL A   1      34.626  24.131  24.927  1.00  0.00     0.132 A 
ATOM     19  S   UNL A   1      33.231  24.026  22.824  1.00  0.00    -0.112 S 
ATOM     20  N   UNL A   1      34.378  25.443  24.626  1.00  0.00    -0.242 NA
BRANCH  17  21
ATOM     21  C   UNL A   1      34.081  21.736  24.213  1.00  0.00    -0.007 A 
ATOM     22  C   UNL A   1      33.977  18.921  24.557  1.00  0.00    -0.045 A 
ATOM     23  C   UNL A   1      35.126  19.648  24.903  1.00  0.00     0.004 A 
ATOM     24  C   UNL A   1      32.891  19.615  24.015  1.00  0.00     0.004 A 
ATOM     25  C   UNL A   1      35.177  21.040  24.735  1.00  0.00     0.010 A 
ATOM     26  C   UNL A   1      32.943  21.000  23.846  1.00  0.00     0.010 A 
BRANCH  22  27
ATOM     27  C   UNL A   1      33.878  17.420  24.750  1.00  0.00     0.013 C 
ATOM     28  C   UNL A   1      32.588  17.040  25.477  1.00  0.00     0.012 C 
ATOM     29  C   UNL A   1      34.011  16.660  23.429  1.00  0.00     0.012 C 
ENDBRANCH  22  27
ENDBRANCH  17  21
ENDBRANCH   8  16
ENDBRANCH   4   7
ENDBRANCH   2   3
ENDBRANCH   1   2
BRANCH   1  30
ATOM     30  C   UNL A   1      35.437  30.061  27.683  1.00  0.00     0.118 C 
BRANCH  30  31
ATOM     31  N   UNL A   1      35.422  30.010  29.137  1.00  0.00    -0.352 N 
ATOM     32  C   UNL A   1      36.418  29.687  30.022  1.00  0.00     0.251 C 
ATOM     33  H   UNL A   1      34.561  30.244  29.551  1.00  0.00     0.163 HD
ATOM     34  O   UNL A   1      36.134  29.544  31.213  1.00  0.00    -0.269 OA
BRANCH  32  35
ATOM     35  C   UNL A   1      37.813  29.484  29.571  1.00  0.00     0.039 A 
ATOM     36  C   UNL A   1      38.788  29.194  30.531  1.00  0.00     0.014 A 
ATOM     37  C   UNL A   1      38.180  29.621  28.228  1.00  0.00     0.014 A 
ATOM     38  C   UNL A   1      40.114  28.984  30.140  1.00  0.00     0.010 A 
ATOM     39  C   UNL A   1      39.492  29.357  27.833  1.00  0.00     0.010 A 
ATOM     40  C   UNL A   1      40.473  29.034  28.783  1.00  0.00    -0.014 A 
BRANCH  40  41
ATOM     41  C   UNL A   1      41.863  28.736  28.350  1.00  0.00     0.031 A 
ATOM     42  C   UNL A   1      42.255  27.342  27.941  1.00  0.00     0.074 A 
ATOM     43  C   UNL A   1      42.791  29.713  28.374  1.00  0.00     0.049 A 
ATOM     44  N   UNL A   1      43.430  26.890  27.581  1.00  0.00    -0.248 NA
ATOM     45  C   UNL A   1      41.197  26.321  27.955  1.00  0.00     0.031 C 
ATOM     46  C   UNL A   1      42.551  31.099  28.783  1.00  0.00     0.029 A 
ATOM     47  N   UNL A   1      44.126  29.689  28.053  1.00  0.00    -0.354 N 
ATOM     48  C   UNL A   1      43.258  25.530  27.345  1.00  0.00     0.074 A 
ATOM     49  C   UNL A   1      41.874  25.226  27.634  1.00  0.00     0.031 C 
ATOM     50  C   UNL A   1      43.694  31.794  28.670  1.00  0.00     0.029 A 
ATOM     51  C   UNL A   1      44.754  30.901  28.215  1.00  0.00     0.049 A 
ATOM     52  H   UNL A   1      44.589  28.879  27.737  1.00  0.00     0.167 HD
ATOM     53  C   UNL A   1      44.166  24.621  26.913  1.00  0.00     0.031 A 
ATOM     54  C   UNL A   1      46.040  31.255  28.025  1.00  0.00     0.031 A 
ATOM     55  C   UNL A   1      45.541  24.923  26.612  1.00  0.00     0.049 A 
ATOM     56  C   UNL A   1      47.027  30.230  27.541  1.00  0.00     0.074 A 
ATOM     57  C   UNL A   1      46.520  24.077  26.120  1.00  0.00     0.029 A 
ATOM     58  N   UNL A   1      46.132  26.166  26.774  1.00  0.00    -0.354 N 
ATOM     59  N   UNL A   1      46.830  28.962  27.271  1.00  0.00    -0.248 NA
ATOM     60  C   UNL A   1      48.406  30.687  27.326  1.00  0.00     0.031 C 
ATOM     61  C   UNL A   1      47.714  24.800  26.019  1.00  0.00     0.029 A 
ATOM     62  C   UNL A   1      47.466  26.107  26.407  1.00  0.00     0.049 A 
ATOM     63  H   UNL A   1      45.673  26.972  27.101  1.00  0.00     0.167 HD
ATOM     64  C   UNL A   1      48.055  28.475  26.834  1.00  0.00     0.074 A 
ATOM     65  C   UNL A   1      48.984  29.587  26.863  1.00  0.00     0.031 C 
ATOM     66  C   UNL A   1      48.381  27.219  26.442  1.00  0.00     0.031 A 
BRANCH  53  67
ATOM     67  C   UNL A   1      43.695  23.201  26.747  1.00  0.00    -0.014 A 
ATOM     68  C   UNL A   1      43.184  22.476  27.838  1.00  0.00     0.010 A 
ATOM     69  C   UNL A   1      43.734  22.595  25.478  1.00  0.00     0.010 A 
ATOM     70  C   UNL A   1      42.761  21.154  27.673  1.00  0.00     0.020 A 
ATOM     71  C   UNL A   1      43.288  21.281  25.304  1.00  0.00     0.020 A 
ATOM     72  C   UNL A   1      42.822  20.563  26.407  1.00  0.00     0.054 A 
BRANCH  72  73
ATOM     73  S   UNL A   1      42.254  18.851  26.215  1.00  0.00     0.124 S 
ATOM     74  O   UNL A   1      42.392  18.335  27.574  1.00  0.00    -0.237 OA
ATOM     75  O   UNL A   1      40.881  19.016  25.744  1.00  0.00    -0.237 OA
ATOM     76  O   UNL A   1      43.180  18.286  25.236  1.00  0.00    -0.744 OA
ENDBRANCH  72  73
ENDBRANCH  53  67
BRANCH  54  77
ATOM     77  C   UNL A   1      46.464  32.657  28.279  1.00  0.00    -0.014 A 
ATOM     78  C   UNL A   1      46.951  33.035  29.542  1.00  0.00     0.010 A 
ATOM     79  C   UNL A   1      46.403  33.615  27.251  1.00  0.00     0.010 A 
ATOM     80  C   UNL A   1      47.359  34.351  29.778  1.00  0.00     0.020 A 
ATOM     81  C   UNL A   1      46.832  34.927  27.477  1.00  0.00     0.020 A 
ATOM     82  C   UNL A   1      47.299  35.288  28.742  1.00  0.00     0.054 A 
BRANCH  82  83
ATOM     83  S   UNL A   1      47.893  36.975  29.048  1.00  0.00     0.124 S 
ATOM     84  O   UNL A   1      49.309  36.753  29.322  1.00  0.00    -0.237 OA
ATOM     85  O   UNL A   1      47.590  37.653  27.790  1.00  0.00    -0.237 OA
ATOM     86  O   UNL A   1      47.093  37.414  30.190  1.00  0.00    -0.744 OA
ENDBRANCH  82  83
ENDBRANCH  54  77
BRANCH  66  87
ATOM     87  C   UNL A   1      49.795  26.984  25.985  1.00  0.00    -0.014 A 
ATOM     88  C   UNL A   1      50.781  26.531  26.879  1.00  0.00     0.010 A 
ATOM     89  C   UNL A   1      50.129  27.177  24.632  1.00  0.00     0.010 A 
ATOM     90  C   UNL A   1      52.086  26.302  26.433  1.00  0.00     0.020 A 
ATOM     91  C   UNL A   1      51.427  26.929  24.179  1.00  0.00     0.020 A 
ATOM     92  C   UNL A   1      52.402  26.507  25.085  1.00  0.00     0.054 A 
BRANCH  92  93
ATOM     93  S   UNL A   1      54.091  26.166  24.519  1.00  0.00     0.124 S 
ATOM     94  O   UNL A   1      53.986  26.422  23.084  1.00  0.00    -0.237 OA
ATOM     95  O   UNL A   1      54.886  27.131  25.272  1.00  0.00    -0.237 OA
ATOM     96  O   UNL A   1      54.303  24.768  24.889  1.00  0.00    -0.744 OA
ENDBRANCH  92  93
ENDBRANCH  66  87
ENDBRANCH  40  41
ENDBRANCH  32  35
ENDBRANCH  30  31
ENDBRANCH   1  30
TORSDOF 16
ENDMDL
