MODEL 1
REMARK VINA RESULT:      -9.8      0.000      0.000
REMARK SMILES C[C@H](CC[NH+](C)C)[NH2+][C@H](C)[C@@H](C)C(=O)NCCCNC(=O)c1ccc(-c2c3nc(c(-c4ccc(S(=O)(=O)[O-])cc4)c4ccc([nH]4)c(-c4ccc(S(=O)(=O)[O-])cc4)c4nc(c(-c5ccc(S(=O)(=O)[O-])cc5)c5ccc2[nH]5)C=C4)C=C3)cc1
REMARK SMILES IDX 13 1 14 2 15 3 11 5 12 6 9 7 10 8 8 9 2 12 1 13 3 14 4 15
REMARK SMILES IDX 5 16 6 17 7 18 16 20 17 21 18 22 19 23 20 24 21 26 22 27
REMARK SMILES IDX 23 28 81 29 24 30 80 31 25 32 26 33 27 34 74 35 28 36 79 37
REMARK SMILES IDX 73 38 75 39 29 40 78 41 72 42 71 43 30 45 60 46 41 47 59 48
REMARK SMILES IDX 42 49 45 50 58 51 76 52 43 53 44 54 57 56 77 57 46 58 31 59
REMARK SMILES IDX 32 60 40 61 33 62 39 63 34 64 35 65 36 66 37 67 38 68 61 69
REMARK SMILES IDX 62 70 70 71 63 72 69 73 64 74 65 75 66 76 67 77 68 78 47 79
REMARK SMILES IDX 48 80 56 81 49 82 55 83 50 84 51 85 52 86 53 87 54 88
REMARK H PARENT 15 4 8 10 8 11 5 19 19 25 75 44 45 55
REMARK Flexibility Score: inf
ROOT
ATOM      1  C   UNL A   1      34.962  21.420  25.330  1.00  0.00     0.228 C 
ATOM      2  O   UNL A   1      34.204  20.778  24.595  1.00  0.00    -0.275 OA
ATOM      3  N   UNL A   1      36.293  21.300  25.100  1.00  0.00    -0.356 N 
ATOM      4  H   UNL A   1      36.526  20.626  24.420  1.00  0.00     0.163 HD
ENDROOT
BRANCH   1   5
ATOM      5  C   UNL A   1      34.387  22.354  26.395  1.00  0.00     0.133 C 
ATOM      6  C   UNL A   1      33.953  21.505  27.596  1.00  0.00     0.024 C 
BRANCH   5   7
ATOM      7  C   UNL A   1      33.344  23.373  25.848  1.00  0.00     0.191 C 
ATOM      8  C   UNL A   1      32.176  23.674  26.810  1.00  0.00     0.076 C 
BRANCH   7   9
ATOM      9  N   UNL A   1      33.862  24.638  25.278  1.00  0.00    -0.341 N 
ATOM     10  H   UNL A   1      33.795  25.343  26.011  1.00  0.00     0.346 HD
ATOM     11  H   UNL A   1      34.800  24.392  24.960  1.00  0.00     0.346 HD
BRANCH   9  12
ATOM     12  C   UNL A   1      33.224  25.204  24.075  1.00  0.00     0.185 C 
ATOM     13  C   UNL A   1      33.906  24.818  22.757  1.00  0.00     0.075 C 
BRANCH  12  14
ATOM     14  C   UNL A   1      33.037  26.729  24.278  1.00  0.00     0.126 C 
BRANCH  14  15
ATOM     15  C   UNL A   1      31.733  27.227  24.941  1.00  0.00     0.268 C 
BRANCH  15  16
ATOM     16  N   UNL A   1      30.719  28.013  24.225  1.00  0.00    -0.340 N 
ATOM     17  C   UNL A   1      31.349  28.959  23.304  1.00  0.00     0.332 C 
ATOM     18  C   UNL A   1      29.638  27.298  23.568  1.00  0.00     0.332 C 
ATOM     19  H   UNL A   1      30.236  28.497  24.982  1.00  0.00     0.347 HD
ENDBRANCH  15  16
ENDBRANCH  14  15
ENDBRANCH  12  14
ENDBRANCH   9  12
ENDBRANCH   7   9
ENDBRANCH   5   7
ENDBRANCH   1   5
BRANCH   3  20
ATOM     20  C   UNL A   1      37.436  21.985  25.676  1.00  0.00     0.117 C 
BRANCH  20  21
ATOM     21  C   UNL A   1      37.391  23.493  25.468  1.00  0.00     0.042 C 
BRANCH  21  22
ATOM     22  C   UNL A   1      38.258  24.274  26.445  1.00  0.00     0.118 C 
BRANCH  22  23
ATOM     23  N   UNL A   1      39.681  24.138  26.155  1.00  0.00    -0.352 N 
ATOM     24  C   UNL A   1      40.738  24.938  26.499  1.00  0.00     0.251 C 
ATOM     25  H   UNL A   1      39.920  23.342  25.626  1.00  0.00     0.163 HD
ATOM     26  O   UNL A   1      41.817  24.799  25.917  1.00  0.00    -0.269 OA
BRANCH  24  27
ATOM     27  C   UNL A   1      40.590  25.966  27.547  1.00  0.00     0.039 A 
ATOM     28  C   UNL A   1      39.670  25.767  28.578  1.00  0.00     0.014 A 
ATOM     29  C   UNL A   1      41.339  27.143  27.495  1.00  0.00     0.014 A 
ATOM     30  C   UNL A   1      39.552  26.720  29.592  1.00  0.00     0.010 A 
ATOM     31  C   UNL A   1      41.294  28.041  28.555  1.00  0.00     0.010 A 
ATOM     32  C   UNL A   1      40.390  27.847  29.609  1.00  0.00    -0.014 A 
BRANCH  32  33
ATOM     33  C   UNL A   1      40.332  28.844  30.705  1.00  0.00     0.031 A 
ATOM     34  C   UNL A   1      41.247  28.709  31.893  1.00  0.00     0.074 A 
ATOM     35  C   UNL A   1      39.410  29.827  30.665  1.00  0.00     0.049 A 
ATOM     36  N   UNL A   1      41.299  29.436  32.981  1.00  0.00    -0.248 NA
ATOM     37  C   UNL A   1      42.211  27.597  31.870  1.00  0.00     0.031 C 
ATOM     38  C   UNL A   1      38.441  30.038  29.586  1.00  0.00     0.029 A 
ATOM     39  N   UNL A   1      39.134  30.830  31.557  1.00  0.00    -0.354 N 
ATOM     40  C   UNL A   1      42.284  28.857  33.774  1.00  0.00     0.074 A 
ATOM     41  C   UNL A   1      42.761  27.687  33.072  1.00  0.00     0.031 C 
ATOM     42  C   UNL A   1      37.704  31.125  29.863  1.00  0.00     0.029 A 
ATOM     43  C   UNL A   1      38.112  31.659  31.158  1.00  0.00     0.049 A 
ATOM     44  H   UNL A   1      39.622  30.948  32.405  1.00  0.00     0.167 HD
ATOM     45  C   UNL A   1      42.768  29.276  34.968  1.00  0.00     0.031 A 
ATOM     46  C   UNL A   1      37.561  32.726  31.768  1.00  0.00     0.031 A 
ATOM     47  C   UNL A   1      42.293  30.446  35.659  1.00  0.00     0.049 A 
ATOM     48  C   UNL A   1      38.098  33.159  33.104  1.00  0.00     0.074 A 
ATOM     49  C   UNL A   1      42.746  30.986  36.849  1.00  0.00     0.029 A 
ATOM     50  N   UNL A   1      41.257  31.257  35.219  1.00  0.00    -0.354 N 
ATOM     51  N   UNL A   1      39.072  32.635  33.811  1.00  0.00    -0.248 NA
ATOM     52  C   UNL A   1      37.468  34.334  33.722  1.00  0.00     0.031 C 
ATOM     53  C   UNL A   1      41.947  32.091  37.158  1.00  0.00     0.029 A 
ATOM     54  C   UNL A   1      41.039  32.279  36.128  1.00  0.00     0.049 A 
ATOM     55  H   UNL A   1      40.751  31.125  34.385  1.00  0.00     0.167 HD
ATOM     56  C   UNL A   1      39.192  33.437  34.941  1.00  0.00     0.074 A 
ATOM     57  C   UNL A   1      38.201  34.486  34.816  1.00  0.00     0.031 C 
ATOM     58  C   UNL A   1      40.047  33.316  35.987  1.00  0.00     0.031 A 
BRANCH  45  59
ATOM     59  C   UNL A   1      43.864  28.457  35.600  1.00  0.00    -0.014 A 
ATOM     60  C   UNL A   1      43.565  27.407  36.489  1.00  0.00     0.010 A 
ATOM     61  C   UNL A   1      45.209  28.723  35.289  1.00  0.00     0.010 A 
ATOM     62  C   UNL A   1      44.590  26.675  37.092  1.00  0.00     0.020 A 
ATOM     63  C   UNL A   1      46.237  27.971  35.865  1.00  0.00     0.020 A 
ATOM     64  C   UNL A   1      45.921  26.965  36.779  1.00  0.00     0.054 A 
BRANCH  64  65
ATOM     65  S   UNL A   1      47.231  25.991  37.570  1.00  0.00     0.124 S 
ATOM     66  O   UNL A   1      47.517  24.986  36.549  1.00  0.00    -0.237 OA
ATOM     67  O   UNL A   1      48.282  26.982  37.787  1.00  0.00    -0.237 OA
ATOM     68  O   UNL A   1      46.599  25.481  38.785  1.00  0.00    -0.744 OA
ENDBRANCH  64  65
ENDBRANCH  45  59
BRANCH  46  69
ATOM     69  C   UNL A   1      36.455  33.473  31.106  1.00  0.00    -0.014 A 
ATOM     70  C   UNL A   1      36.565  33.860  29.759  1.00  0.00     0.010 A 
ATOM     71  C   UNL A   1      35.281  33.790  31.814  1.00  0.00     0.010 A 
ATOM     72  C   UNL A   1      35.530  34.565  29.136  1.00  0.00     0.020 A 
ATOM     73  C   UNL A   1      34.233  34.468  31.186  1.00  0.00     0.020 A 
ATOM     74  C   UNL A   1      34.369  34.862  29.854  1.00  0.00     0.054 A 
BRANCH  74  75
ATOM     75  S   UNL A   1      33.021  35.734  29.010  1.00  0.00     0.124 S 
ATOM     76  O   UNL A   1      33.741  36.766  28.272  1.00  0.00    -0.237 OA
ATOM     77  O   UNL A   1      32.419  34.677  28.202  1.00  0.00    -0.237 OA
ATOM     78  O   UNL A   1      32.186  36.217  30.110  1.00  0.00    -0.744 OA
ENDBRANCH  74  75
ENDBRANCH  46  69
BRANCH  58  79
ATOM     79  C   UNL A   1      39.977  34.367  37.063  1.00  0.00    -0.014 A 
ATOM     80  C   UNL A   1      40.697  35.569  36.959  1.00  0.00     0.010 A 
ATOM     81  C   UNL A   1      39.131  34.166  38.169  1.00  0.00     0.010 A 
ATOM     82  C   UNL A   1      40.597  36.540  37.960  1.00  0.00     0.020 A 
ATOM     83  C   UNL A   1      39.004  35.147  39.157  1.00  0.00     0.020 A 
ATOM     84  C   UNL A   1      39.750  36.322  39.051  1.00  0.00     0.054 A 
BRANCH  84  85
ATOM     85  S   UNL A   1      39.603  37.616  40.313  1.00  0.00     0.124 S 
ATOM     86  O   UNL A   1      40.706  38.507  39.965  1.00  0.00    -0.237 OA
ATOM     87  O   UNL A   1      38.264  38.149  40.071  1.00  0.00    -0.237 OA
ATOM     88  O   UNL A   1      39.760  36.894  41.573  1.00  0.00    -0.744 OA
ENDBRANCH  84  85
ENDBRANCH  58  79
ENDBRANCH  32  33
ENDBRANCH  24  27
ENDBRANCH  22  23
ENDBRANCH  21  22
ENDBRANCH  20  21
ENDBRANCH   3  20
TORSDOF 19
ENDMDL
MODEL 2
REMARK VINA RESULT:      -9.7      1.160      8.567
REMARK SMILES C[C@H](CC[NH+](C)C)[NH2+][C@H](C)[C@@H](C)C(=O)NCCCNC(=O)c1ccc(-c2c3nc(c(-c4ccc(S(=O)(=O)[O-])cc4)c4ccc([nH]4)c(-c4ccc(S(=O)(=O)[O-])cc4)c4nc(c(-c5ccc(S(=O)(=O)[O-])cc5)c5ccc2[nH]5)C=C4)C=C3)cc1
REMARK SMILES IDX 13 1 14 2 15 3 11 5 12 6 9 7 10 8 8 9 2 12 1 13 3 14 4 15
REMARK SMILES IDX 5 16 6 17 7 18 16 20 17 21 18 22 19 23 20 24 21 26 22 27
REMARK SMILES IDX 23 28 81 29 24 30 80 31 25 32 26 33 27 34 74 35 28 36 79 37
REMARK SMILES IDX 73 38 75 39 29 40 78 41 72 42 71 43 30 45 60 46 41 47 59 48
REMARK SMILES IDX 42 49 45 50 58 51 76 52 43 53 44 54 57 56 77 57 46 58 31 59
REMARK SMILES IDX 32 60 40 61 33 62 39 63 34 64 35 65 36 66 37 67 38 68 61 69
REMARK SMILES IDX 62 70 70 71 63 72 69 73 64 74 65 75 66 76 67 77 68 78 47 79
REMARK SMILES IDX 48 80 56 81 49 82 55 83 50 84 51 85 52 86 53 87 54 88
REMARK H PARENT 15 4 8 10 8 11 5 19 19 25 75 44 45 55
REMARK Flexibility Score: inf
ROOT
ATOM      1  C   UNL A   1      36.268  22.686  23.889  1.00  0.00     0.228 C 
ATOM      2  O   UNL A   1      36.294  22.976  22.688  1.00  0.00    -0.275 OA
ATOM      3  N   UNL A   1      37.409  22.885  24.596  1.00  0.00    -0.356 N 
ATOM      4  H   UNL A   1      38.181  23.155  24.049  1.00  0.00     0.163 HD
ENDROOT
BRANCH   1   5
ATOM      5  C   UNL A   1      34.971  22.195  24.532  1.00  0.00     0.133 C 
ATOM      6  C   UNL A   1      35.096  20.685  24.775  1.00  0.00     0.024 C 
BRANCH   5   7
ATOM      7  C   UNL A   1      33.681  22.679  23.806  1.00  0.00     0.191 C 
ATOM      8  C   UNL A   1      32.539  21.642  23.767  1.00  0.00     0.076 C 
BRANCH   7   9
ATOM      9  N   UNL A   1      33.142  24.004  24.188  1.00  0.00    -0.341 N 
ATOM     10  H   UNL A   1      33.569  24.689  23.567  1.00  0.00     0.346 HD
ATOM     11  H   UNL A   1      32.132  23.883  24.117  1.00  0.00     0.346 HD
BRANCH   9  12
ATOM     12  C   UNL A   1      33.338  24.493  25.567  1.00  0.00     0.185 C 
ATOM     13  C   UNL A   1      32.121  24.307  26.481  1.00  0.00     0.075 C 
BRANCH  12  14
ATOM     14  C   UNL A   1      33.882  25.944  25.510  1.00  0.00     0.126 C 
BRANCH  14  15
ATOM     15  C   UNL A   1      33.699  26.747  24.203  1.00  0.00     0.268 C 
BRANCH  15  16
ATOM     16  N   UNL A   1      33.660  28.215  24.164  1.00  0.00    -0.340 N 
ATOM     17  C   UNL A   1      32.647  28.683  23.217  1.00  0.00     0.332 C 
ATOM     18  C   UNL A   1      33.556  28.931  25.424  1.00  0.00     0.332 C 
ATOM     19  H   UNL A   1      34.601  28.454  23.849  1.00  0.00     0.347 HD
ENDBRANCH  15  16
ENDBRANCH  14  15
ENDBRANCH  12  14
ENDBRANCH   9  12
ENDBRANCH   7   9
ENDBRANCH   5   7
ENDBRANCH   1   5
BRANCH   3  20
ATOM     20  C   UNL A   1      37.694  22.772  26.015  1.00  0.00     0.117 C 
BRANCH  20  21
ATOM     21  C   UNL A   1      38.467  23.964  26.562  1.00  0.00     0.042 C 
BRANCH  21  22
ATOM     22  C   UNL A   1      39.934  23.669  26.842  1.00  0.00     0.118 C 
BRANCH  22  23
ATOM     23  N   UNL A   1      40.826  24.373  25.926  1.00  0.00    -0.352 N 
ATOM     24  C   UNL A   1      41.312  25.652  25.968  1.00  0.00     0.251 C 
ATOM     25  H   UNL A   1      41.126  23.841  25.153  1.00  0.00     0.163 HD
ATOM     26  O   UNL A   1      41.819  26.140  24.955  1.00  0.00    -0.269 OA
BRANCH  24  27
ATOM     27  C   UNL A   1      41.224  26.447  27.208  1.00  0.00     0.039 A 
ATOM     28  C   UNL A   1      41.949  27.636  27.315  1.00  0.00     0.014 A 
ATOM     29  C   UNL A   1      40.447  26.002  28.281  1.00  0.00     0.014 A 
ATOM     30  C   UNL A   1      41.840  28.409  28.473  1.00  0.00     0.010 A 
ATOM     31  C   UNL A   1      40.262  26.820  29.389  1.00  0.00     0.010 A 
ATOM     32  C   UNL A   1      40.967  28.027  29.503  1.00  0.00    -0.014 A 
BRANCH  32  33
ATOM     33  C   UNL A   1      40.782  28.859  30.717  1.00  0.00     0.031 A 
ATOM     34  C   UNL A   1      39.718  29.924  30.744  1.00  0.00     0.074 A 
ATOM     35  C   UNL A   1      41.616  28.705  31.765  1.00  0.00     0.049 A 
ATOM     36  N   UNL A   1      39.448  30.798  31.680  1.00  0.00    -0.248 NA
ATOM     37  C   UNL A   1      38.862  30.042  29.551  1.00  0.00     0.031 C 
ATOM     38  C   UNL A   1      42.711  27.734  31.842  1.00  0.00     0.029 A 
ATOM     39  N   UNL A   1      41.676  29.366  32.964  1.00  0.00    -0.354 N 
ATOM     40  C   UNL A   1      38.409  31.577  31.183  1.00  0.00     0.074 A 
ATOM     41  C   UNL A   1      38.138  31.113  29.840  1.00  0.00     0.031 C 
ATOM     42  C   UNL A   1      43.308  27.839  33.040  1.00  0.00     0.029 A 
ATOM     43  C   UNL A   1      42.674  28.913  33.796  1.00  0.00     0.049 A 
ATOM     44  H   UNL A   1      41.062  30.096  33.209  1.00  0.00     0.167 HD
ATOM     45  C   UNL A   1      37.724  32.571  31.796  1.00  0.00     0.031 A 
ATOM     46  C   UNL A   1      43.041  29.321  35.026  1.00  0.00     0.031 A 
ATOM     47  C   UNL A   1      37.996  33.023  33.134  1.00  0.00     0.049 A 
ATOM     48  C   UNL A   1      42.281  30.443  35.678  1.00  0.00     0.074 A 
ATOM     49  C   UNL A   1      37.332  33.991  33.868  1.00  0.00     0.029 A 
ATOM     50  N   UNL A   1      39.014  32.538  33.941  1.00  0.00    -0.354 N 
ATOM     51  N   UNL A   1      41.261  31.128  35.215  1.00  0.00    -0.248 NA
ATOM     52  C   UNL A   1      42.715  30.843  37.023  1.00  0.00     0.031 C 
ATOM     53  C   UNL A   1      37.984  34.130  35.097  1.00  0.00     0.029 A 
ATOM     54  C   UNL A   1      39.013  33.203  35.156  1.00  0.00     0.049 A 
ATOM     55  H   UNL A   1      39.646  31.826  33.687  1.00  0.00     0.167 HD
ATOM     56  C   UNL A   1      40.912  32.016  36.226  1.00  0.00     0.074 A 
ATOM     57  C   UNL A   1      41.821  31.773  37.328  1.00  0.00     0.031 C 
ATOM     58  C   UNL A   1      39.926  32.948  36.242  1.00  0.00     0.031 A 
BRANCH  45  59
ATOM     59  C   UNL A   1      36.619  33.237  31.016  1.00  0.00    -0.014 A 
ATOM     60  C   UNL A   1      36.887  33.918  29.814  1.00  0.00     0.010 A 
ATOM     61  C   UNL A   1      35.293  33.165  31.477  1.00  0.00     0.010 A 
ATOM     62  C   UNL A   1      35.859  34.558  29.117  1.00  0.00     0.020 A 
ATOM     63  C   UNL A   1      34.256  33.776  30.765  1.00  0.00     0.020 A 
ATOM     64  C   UNL A   1      34.550  34.486  29.600  1.00  0.00     0.054 A 
BRANCH  64  65
ATOM     65  S   UNL A   1      33.234  35.317  28.668  1.00  0.00     0.124 S 
ATOM     66  O   UNL A   1      34.000  36.158  27.751  1.00  0.00    -0.237 OA
ATOM     67  O   UNL A   1      32.524  34.200  28.051  1.00  0.00    -0.237 OA
ATOM     68  O   UNL A   1      32.484  36.038  29.694  1.00  0.00    -0.744 OA
ENDBRANCH  64  65
ENDBRANCH  45  59
BRANCH  46  69
ATOM     69  C   UNL A   1      44.165  28.645  35.729  1.00  0.00    -0.014 A 
ATOM     70  C   UNL A   1      45.497  28.998  35.445  1.00  0.00     0.010 A 
ATOM     71  C   UNL A   1      43.913  27.656  36.697  1.00  0.00     0.010 A 
ATOM     72  C   UNL A   1      46.555  28.362  36.101  1.00  0.00     0.020 A 
ATOM     73  C   UNL A   1      44.967  27.039  37.376  1.00  0.00     0.020 A 
ATOM     74  C   UNL A   1      46.282  27.388  37.065  1.00  0.00     0.054 A 
BRANCH  74  75
ATOM     75  S   UNL A   1      47.671  26.612  37.939  1.00  0.00     0.124 S 
ATOM     76  O   UNL A   1      47.792  25.335  37.244  1.00  0.00    -0.237 OA
ATOM     77  O   UNL A   1      48.756  27.563  37.713  1.00  0.00    -0.237 OA
ATOM     78  O   UNL A   1      47.202  26.532  39.322  1.00  0.00    -0.744 OA
ENDBRANCH  74  75
ENDBRANCH  46  69
BRANCH  58  79
ATOM     79  C   UNL A   1      39.753  33.750  37.504  1.00  0.00    -0.014 A 
ATOM     80  C   UNL A   1      40.494  34.921  37.736  1.00  0.00     0.010 A 
ATOM     81  C   UNL A   1      38.788  33.350  38.449  1.00  0.00     0.010 A 
ATOM     82  C   UNL A   1      40.297  35.661  38.904  1.00  0.00     0.020 A 
ATOM     83  C   UNL A   1      38.567  34.103  39.604  1.00  0.00     0.020 A 
ATOM     84  C   UNL A   1      39.334  35.247  39.830  1.00  0.00     0.054 A 
BRANCH  84  85
ATOM     85  S   UNL A   1      39.067  36.250  41.318  1.00  0.00     0.124 S 
ATOM     86  O   UNL A   1      38.744  37.556  40.750  1.00  0.00    -0.237 OA
ATOM     87  O   UNL A   1      37.959  35.560  41.974  1.00  0.00    -0.237 OA
ATOM     88  O   UNL A   1      40.345  36.176  42.022  1.00  0.00    -0.744 OA
ENDBRANCH  84  85
ENDBRANCH  58  79
ENDBRANCH  32  33
ENDBRANCH  24  27
ENDBRANCH  22  23
ENDBRANCH  21  22
ENDBRANCH  20  21
ENDBRANCH   3  20
TORSDOF 19
ENDMDL
MODEL 3
REMARK VINA RESULT:      -9.7      4.651     12.305
REMARK SMILES C[C@H](CC[NH+](C)C)[NH2+][C@H](C)[C@@H](C)C(=O)NCCCNC(=O)c1ccc(-c2c3nc(c(-c4ccc(S(=O)(=O)[O-])cc4)c4ccc([nH]4)c(-c4ccc(S(=O)(=O)[O-])cc4)c4nc(c(-c5ccc(S(=O)(=O)[O-])cc5)c5ccc2[nH]5)C=C4)C=C3)cc1
REMARK SMILES IDX 13 1 14 2 15 3 11 5 12 6 9 7 10 8 8 9 2 12 1 13 3 14 4 15
REMARK SMILES IDX 5 16 6 17 7 18 16 20 17 21 18 22 19 23 20 24 21 26 22 27
REMARK SMILES IDX 23 28 81 29 24 30 80 31 25 32 26 33 27 34 74 35 28 36 79 37
REMARK SMILES IDX 73 38 75 39 29 40 78 41 72 42 71 43 30 45 60 46 41 47 59 48
REMARK SMILES IDX 42 49 45 50 58 51 76 52 43 53 44 54 57 56 77 57 46 58 31 59
REMARK SMILES IDX 32 60 40 61 33 62 39 63 34 64 35 65 36 66 37 67 38 68 61 69
REMARK SMILES IDX 62 70 70 71 63 72 69 73 64 74 65 75 66 76 67 77 68 78 47 79
REMARK SMILES IDX 48 80 56 81 49 82 55 83 50 84 51 85 52 86 53 87 54 88
REMARK H PARENT 15 4 8 10 8 11 5 19 19 25 75 44 45 55
REMARK Flexibility Score: inf
ROOT
ATOM      1  C   UNL A   1      36.538  32.930  33.695  1.00  0.00     0.228 C 
ATOM      2  O   UNL A   1      36.178  32.982  34.877  1.00  0.00    -0.275 OA
ATOM      3  N   UNL A   1      35.598  33.194  32.753  1.00  0.00    -0.356 N 
ATOM      4  H   UNL A   1      34.688  33.309  33.111  1.00  0.00     0.163 HD
ENDROOT
BRANCH   1   5
ATOM      5  C   UNL A   1      37.999  32.647  33.350  1.00  0.00     0.133 C 
ATOM      6  C   UNL A   1      38.267  31.153  33.577  1.00  0.00     0.024 C 
BRANCH   5   7
ATOM      7  C   UNL A   1      39.007  33.641  33.998  1.00  0.00     0.191 C 
ATOM      8  C   UNL A   1      39.911  34.384  32.992  1.00  0.00     0.076 C 
BRANCH   7   9
ATOM      9  N   UNL A   1      38.473  34.599  34.993  1.00  0.00    -0.341 N 
ATOM     10  H   UNL A   1      38.622  35.534  34.616  1.00  0.00     0.346 HD
ATOM     11  H   UNL A   1      37.506  34.301  35.119  1.00  0.00     0.346 HD
BRANCH   9  12
ATOM     12  C   UNL A   1      39.019  34.597  36.364  1.00  0.00     0.185 C 
ATOM     13  C   UNL A   1      40.137  35.620  36.600  1.00  0.00     0.075 C 
BRANCH  12  14
ATOM     14  C   UNL A   1      39.388  33.142  36.754  1.00  0.00     0.126 C 
BRANCH  14  15
ATOM     15  C   UNL A   1      40.235  32.915  38.025  1.00  0.00     0.268 C 
BRANCH  15  16
ATOM     16  N   UNL A   1      41.395  32.013  38.065  1.00  0.00    -0.340 N 
ATOM     17  C   UNL A   1      41.957  31.830  36.727  1.00  0.00     0.332 C 
ATOM     18  C   UNL A   1      42.445  32.289  39.031  1.00  0.00     0.332 C 
ATOM     19  H   UNL A   1      40.990  31.146  38.419  1.00  0.00     0.347 HD
ENDBRANCH  15  16
ENDBRANCH  14  15
ENDBRANCH  12  14
ENDBRANCH   9  12
ENDBRANCH   7   9
ENDBRANCH   5   7
ENDBRANCH   1   5
BRANCH   3  20
ATOM     20  C   UNL A   1      35.694  33.339  31.312  1.00  0.00     0.117 C 
BRANCH  20  21
ATOM     21  C   UNL A   1      34.502  32.746  30.575  1.00  0.00     0.042 C 
BRANCH  21  22
ATOM     22  C   UNL A   1      34.642  32.771  29.059  1.00  0.00     0.118 C 
BRANCH  22  23
ATOM     23  N   UNL A   1      33.947  31.658  28.420  1.00  0.00    -0.352 N 
ATOM     24  C   UNL A   1      34.433  30.487  27.901  1.00  0.00     0.251 C 
ATOM     25  H   UNL A   1      32.971  31.767  28.351  1.00  0.00     0.163 HD
ATOM     26  O   UNL A   1      33.718  29.813  27.155  1.00  0.00    -0.269 OA
BRANCH  24  27
ATOM     27  C   UNL A   1      35.802  30.038  28.219  1.00  0.00     0.039 A 
ATOM     28  C   UNL A   1      36.811  30.180  27.263  1.00  0.00     0.014 A 
ATOM     29  C   UNL A   1      36.084  29.446  29.452  1.00  0.00     0.014 A 
ATOM     30  C   UNL A   1      38.115  29.789  27.573  1.00  0.00     0.010 A 
ATOM     31  C   UNL A   1      37.399  29.151  29.794  1.00  0.00     0.010 A 
ATOM     32  C   UNL A   1      38.427  29.306  28.854  1.00  0.00    -0.014 A 
BRANCH  32  33
ATOM     33  C   UNL A   1      39.814  28.942  29.233  1.00  0.00     0.031 A 
ATOM     34  C   UNL A   1      40.688  29.944  29.939  1.00  0.00     0.074 A 
ATOM     35  C   UNL A   1      40.308  27.739  28.880  1.00  0.00     0.049 A 
ATOM     36  N   UNL A   1      41.945  29.841  30.289  1.00  0.00    -0.248 NA
ATOM     37  C   UNL A   1      40.079  31.243  30.272  1.00  0.00     0.031 C 
ATOM     38  C   UNL A   1      39.571  26.698  28.158  1.00  0.00     0.029 A 
ATOM     39  N   UNL A   1      41.549  27.189  29.075  1.00  0.00    -0.354 N 
ATOM     40  C   UNL A   1      42.279  31.063  30.863  1.00  0.00     0.074 A 
ATOM     41  C   UNL A   1      41.114  31.912  30.760  1.00  0.00     0.031 C 
ATOM     42  C   UNL A   1      40.362  25.624  28.006  1.00  0.00     0.029 A 
ATOM     43  C   UNL A   1      41.674  25.915  28.573  1.00  0.00     0.049 A 
ATOM     44  H   UNL A   1      42.282  27.662  29.533  1.00  0.00     0.167 HD
ATOM     45  C   UNL A   1      43.443  31.437  31.446  1.00  0.00     0.031 A 
ATOM     46  C   UNL A   1      42.729  25.077  28.565  1.00  0.00     0.031 A 
ATOM     47  C   UNL A   1      44.597  30.585  31.551  1.00  0.00     0.049 A 
ATOM     48  C   UNL A   1      44.018  25.523  29.198  1.00  0.00     0.074 A 
ATOM     49  C   UNL A   1      45.809  30.848  32.164  1.00  0.00     0.029 A 
ATOM     50  N   UNL A   1      44.682  29.302  31.030  1.00  0.00    -0.354 N 
ATOM     51  N   UNL A   1      44.297  26.661  29.790  1.00  0.00    -0.248 NA
ATOM     52  C   UNL A   1      45.134  24.568  29.170  1.00  0.00     0.031 C 
ATOM     53  C   UNL A   1      46.646  29.746  31.964  1.00  0.00     0.029 A 
ATOM     54  C   UNL A   1      45.935  28.770  31.285  1.00  0.00     0.049 A 
ATOM     55  H   UNL A   1      43.958  28.838  30.548  1.00  0.00     0.167 HD
ATOM     56  C   UNL A   1      45.609  26.545  30.233  1.00  0.00     0.074 A 
ATOM     57  C   UNL A   1      46.064  25.224  29.852  1.00  0.00     0.031 C 
ATOM     58  C   UNL A   1      46.370  27.451  30.897  1.00  0.00     0.031 A 
BRANCH  45  59
ATOM     59  C   UNL A   1      43.519  32.833  32.010  1.00  0.00    -0.014 A 
ATOM     60  C   UNL A   1      43.636  33.952  31.165  1.00  0.00     0.010 A 
ATOM     61  C   UNL A   1      43.455  33.033  33.401  1.00  0.00     0.010 A 
ATOM     62  C   UNL A   1      43.738  35.238  31.701  1.00  0.00     0.020 A 
ATOM     63  C   UNL A   1      43.523  34.321  33.940  1.00  0.00     0.020 A 
ATOM     64  C   UNL A   1      43.685  35.414  33.087  1.00  0.00     0.054 A 
BRANCH  64  65
ATOM     65  S   UNL A   1      43.808  37.096  33.753  1.00  0.00     0.124 S 
ATOM     66  O   UNL A   1      42.698  37.127  34.701  1.00  0.00    -0.237 OA
ATOM     67  O   UNL A   1      45.142  37.108  34.349  1.00  0.00    -0.237 OA
ATOM     68  O   UNL A   1      43.647  37.949  32.577  1.00  0.00    -0.744 OA
ENDBRANCH  64  65
ENDBRANCH  45  59
BRANCH  46  69
ATOM     69  C   UNL A   1      42.599  23.723  27.959  1.00  0.00    -0.014 A 
ATOM     70  C   UNL A   1      43.011  23.495  26.634  1.00  0.00     0.010 A 
ATOM     71  C   UNL A   1      42.077  22.652  28.707  1.00  0.00     0.010 A 
ATOM     72  C   UNL A   1      42.887  22.225  26.062  1.00  0.00     0.020 A 
ATOM     73  C   UNL A   1      41.979  21.375  28.147  1.00  0.00     0.020 A 
ATOM     74  C   UNL A   1      42.374  21.172  26.824  1.00  0.00     0.054 A 
BRANCH  74  75
ATOM     75  S   UNL A   1      42.268  19.523  26.075  1.00  0.00     0.124 S 
ATOM     76  O   UNL A   1      40.839  19.401  25.808  1.00  0.00    -0.237 OA
ATOM     77  O   UNL A   1      43.124  19.656  24.899  1.00  0.00    -0.237 OA
ATOM     78  O   UNL A   1      42.789  18.640  27.118  1.00  0.00    -0.744 OA
ENDBRANCH  74  75
ENDBRANCH  46  69
BRANCH  58  79
ATOM     79  C   UNL A   1      47.761  27.030  31.291  1.00  0.00    -0.014 A 
ATOM     80  C   UNL A   1      48.877  27.370  30.509  1.00  0.00     0.010 A 
ATOM     81  C   UNL A   1      47.955  26.329  32.496  1.00  0.00     0.010 A 
ATOM     82  C   UNL A   1      50.161  26.989  30.908  1.00  0.00     0.020 A 
ATOM     83  C   UNL A   1      49.239  25.973  32.914  1.00  0.00     0.020 A 
ATOM     84  C   UNL A   1      50.333  26.293  32.109  1.00  0.00     0.054 A 
BRANCH  84  85
ATOM     85  S   UNL A   1      52.014  25.849  32.627  1.00  0.00     0.124 S 
ATOM     86  O   UNL A   1      51.811  25.466  34.021  1.00  0.00    -0.237 OA
ATOM     87  O   UNL A   1      52.350  24.756  31.717  1.00  0.00    -0.237 OA
ATOM     88  O   UNL A   1      52.777  27.079  32.423  1.00  0.00    -0.744 OA
ENDBRANCH  84  85
ENDBRANCH  58  79
ENDBRANCH  32  33
ENDBRANCH  24  27
ENDBRANCH  22  23
ENDBRANCH  21  22
ENDBRANCH  20  21
ENDBRANCH   3  20
TORSDOF 19
ENDMDL
