MODEL 1
REMARK VINA RESULT:     -11.0      0.000      0.000
REMARK SMILES CC1(C)CC[NH+](CC[C@H]2CCC[C@]2([NH3+])C(=O)NCCCNC(=O)c2ccc(-c3c4nc(c(-c5ccc(S(=O)(=O)[O-])cc5)c5ccc([nH]5)c(-c5ccc(S(=O)(=O)[O-])cc5)c5nc(c(-c6ccc(S(=O)(=O)[O-])cc6)c6ccc3[nH]6)C=C5)C=C4)cc2)CC1
REMARK SMILES IDX 19 1 18 2 17 3 15 4 16 5 13 7 9 8 10 9 11 10 12 11 8 12 7 13
REMARK SMILES IDX 6 14 1 15 2 16 3 17 4 18 85 19 5 20 84 21 14 23 20 27 21 28
REMARK SMILES IDX 22 29 23 31 24 32 25 33 83 34 26 35 82 36 27 37 28 38 29 39
REMARK SMILES IDX 76 40 30 41 81 42 75 43 77 44 31 45 80 46 74 47 73 48 32 50
REMARK SMILES IDX 62 51 43 52 61 53 44 54 47 55 60 56 78 57 45 58 46 59 59 61
REMARK SMILES IDX 79 62 48 63 33 64 34 65 42 66 35 67 41 68 36 69 37 70 38 71
REMARK SMILES IDX 39 72 40 73 63 74 64 75 72 76 65 77 71 78 66 79 67 80 68 81
REMARK SMILES IDX 69 82 70 83 49 84 50 85 58 86 51 87 57 88 52 89 53 90 54 91
REMARK SMILES IDX 55 92 56 93
REMARK H PARENT 17 6 6 22 14 24 14 25 14 26 21 30 77 49 47 60
REMARK Flexibility Score: inf
ROOT
ATOM      1  C   UNL A   1      34.152  30.320  27.068  1.00  0.00     0.042 C 
ENDROOT
BRANCH   1   2
ATOM      2  C   UNL A   1      33.086  29.702  26.145  1.00  0.00     0.118 C 
BRANCH   2   3
ATOM      3  N   UNL A   1      33.520  29.366  24.795  1.00  0.00    -0.351 N 
ATOM      4  C   UNL A   1      32.905  28.585  23.842  1.00  0.00     0.281 C 
ATOM      5  O   UNL A   1      33.025  28.987  22.676  1.00  0.00    -0.268 OA
ATOM      6  H   UNL A   1      34.384  29.756  24.523  1.00  0.00     0.163 HD
BRANCH   4   7
ATOM      7  C   UNL A   1      32.205  27.186  24.145  1.00  0.00     0.177 C 
ATOM      8  C   UNL A   1      33.177  26.302  24.987  1.00  0.00     0.066 C 
ATOM      9  C   UNL A   1      34.115  25.647  23.961  1.00  0.00     0.011 C 
ATOM     10  C   UNL A   1      33.415  25.705  22.613  1.00  0.00     0.008 C 
ATOM     11  C   UNL A   1      32.053  26.342  22.863  1.00  0.00     0.079 C 
BRANCH   8  12
ATOM     12  C   UNL A   1      32.520  25.275  25.964  1.00  0.00     0.072 C 
BRANCH  12  13
ATOM     13  C   UNL A   1      32.442  23.765  25.562  1.00  0.00     0.262 C 
BRANCH  13  14
ATOM     14  N   UNL A   1      33.290  22.713  26.129  1.00  0.00    -0.335 N 
ATOM     15  C   UNL A   1      36.629  23.019  23.635  1.00  0.00     0.011 C 
ATOM     16  C   UNL A   1      35.916  22.219  24.768  1.00  0.00    -0.025 C 
ATOM     17  C   UNL A   1      36.719  20.938  25.052  1.00  0.00     0.011 C 
ATOM     18  C   UNL A   1      34.541  21.757  24.275  1.00  0.00     0.068 C 
ATOM     19  C   UNL A   1      35.795  23.159  25.999  1.00  0.00     0.068 C 
ATOM     20  C   UNL A   1      33.502  21.509  25.362  1.00  0.00     0.262 C 
ATOM     21  C   UNL A   1      34.512  23.080  26.841  1.00  0.00     0.262 C 
ATOM     22  H   UNL A   1      32.611  22.488  26.856  1.00  0.00     0.348 HD
ENDBRANCH  13  14
ENDBRANCH  12  13
ENDBRANCH   8  12
BRANCH   7  23
ATOM     23  N   UNL A   1      30.863  27.415  24.709  1.00  0.00    -0.345 N 
ATOM     24  H   UNL A   1      30.697  28.417  24.794  1.00  0.00     0.345 HD
ATOM     25  H   UNL A   1      30.802  26.980  25.629  1.00  0.00     0.345 HD
ATOM     26  H   UNL A   1      30.161  27.004  24.092  1.00  0.00     0.345 HD
ENDBRANCH   7  23
ENDBRANCH   4   7
ENDBRANCH   2   3
ENDBRANCH   1   2
BRANCH   1  27
ATOM     27  C   UNL A   1      35.356  29.467  27.475  1.00  0.00     0.118 C 
BRANCH  27  28
ATOM     28  N   UNL A   1      35.675  29.664  28.890  1.00  0.00    -0.352 N 
ATOM     29  C   UNL A   1      36.724  29.281  29.692  1.00  0.00     0.251 C 
ATOM     30  H   UNL A   1      34.990  30.181  29.370  1.00  0.00     0.163 HD
ATOM     31  O   UNL A   1      36.509  29.256  30.906  1.00  0.00    -0.269 OA
BRANCH  29  32
ATOM     32  C   UNL A   1      38.094  28.943  29.209  1.00  0.00     0.039 A 
ATOM     33  C   UNL A   1      38.957  28.271  30.097  1.00  0.00     0.014 A 
ATOM     34  C   UNL A   1      38.626  29.417  28.010  1.00  0.00     0.014 A 
ATOM     35  C   UNL A   1      40.317  28.089  29.797  1.00  0.00     0.010 A 
ATOM     36  C   UNL A   1      39.975  29.188  27.685  1.00  0.00     0.010 A 
ATOM     37  C   UNL A   1      40.847  28.547  28.583  1.00  0.00    -0.014 A 
BRANCH  37  38
ATOM     38  C   UNL A   1      42.302  28.419  28.261  1.00  0.00     0.031 A 
ATOM     39  C   UNL A   1      43.238  29.590  28.468  1.00  0.00     0.074 A 
ATOM     40  C   UNL A   1      42.796  27.275  27.743  1.00  0.00     0.049 A 
ATOM     41  N   UNL A   1      44.499  29.715  28.133  1.00  0.00    -0.248 NA
ATOM     42  C   UNL A   1      42.674  30.780  29.123  1.00  0.00     0.031 C 
ATOM     43  C   UNL A   1      42.027  26.055  27.498  1.00  0.00     0.029 A 
ATOM     44  N   UNL A   1      44.064  26.958  27.312  1.00  0.00    -0.354 N 
ATOM     45  C   UNL A   1      44.869  31.005  28.506  1.00  0.00     0.074 A 
ATOM     46  C   UNL A   1      43.689  31.631  29.067  1.00  0.00     0.031 C 
ATOM     47  C   UNL A   1      42.837  25.124  26.966  1.00  0.00     0.029 A 
ATOM     48  C   UNL A   1      44.171  25.691  26.786  1.00  0.00     0.049 A 
ATOM     49  H   UNL A   1      44.826  27.581  27.376  1.00  0.00     0.167 HD
ATOM     50  C   UNL A   1      46.076  31.615  28.400  1.00  0.00     0.031 A 
ATOM     51  C   UNL A   1      45.211  25.059  26.202  1.00  0.00     0.031 A 
ATOM     52  C   UNL A   1      47.259  30.993  27.860  1.00  0.00     0.049 A 
ATOM     53  C   UNL A   1      46.534  25.764  26.066  1.00  0.00     0.074 A 
ATOM     54  C   UNL A   1      48.534  31.522  27.752  1.00  0.00     0.029 A 
ATOM     55  N   UNL A   1      47.318  29.708  27.346  1.00  0.00    -0.354 N 
ATOM     56  N   UNL A   1      46.866  26.975  26.445  1.00  0.00    -0.248 NA
ATOM     57  C   UNL A   1      47.628  25.013  25.431  1.00  0.00     0.031 C 
ATOM     58  C   UNL A   1      49.352  30.576  27.125  1.00  0.00     0.029 A 
ATOM     59  C   UNL A   1      48.600  29.435  26.900  1.00  0.00     0.049 A 
ATOM     60  H   UNL A   1      46.559  29.082  27.302  1.00  0.00     0.167 HD
ATOM     61  C   UNL A   1      48.213  27.117  26.125  1.00  0.00     0.074 A 
ATOM     62  C   UNL A   1      48.638  25.869  25.528  1.00  0.00     0.031 C 
ATOM     63  C   UNL A   1      49.023  28.186  26.317  1.00  0.00     0.031 A 
BRANCH  50  64
ATOM     64  C   UNL A   1      46.182  33.049  28.859  1.00  0.00    -0.014 A 
ATOM     65  C   UNL A   1      45.904  34.118  27.990  1.00  0.00     0.010 A 
ATOM     66  C   UNL A   1      46.516  33.329  30.198  1.00  0.00     0.010 A 
ATOM     67  C   UNL A   1      46.003  35.439  28.436  1.00  0.00     0.020 A 
ATOM     68  C   UNL A   1      46.587  34.649  30.657  1.00  0.00     0.020 A 
ATOM     69  C   UNL A   1      46.350  35.697  29.766  1.00  0.00     0.054 A 
BRANCH  69  70
ATOM     70  S   UNL A   1      46.461  37.421  30.321  1.00  0.00     0.124 S 
ATOM     71  O   UNL A   1      45.174  37.959  29.889  1.00  0.00    -0.237 OA
ATOM     72  O   UNL A   1      46.628  37.282  31.767  1.00  0.00    -0.237 OA
ATOM     73  O   UNL A   1      47.624  37.942  29.610  1.00  0.00    -0.744 OA
ENDBRANCH  69  70
ENDBRANCH  50  64
BRANCH  51  74
ATOM     74  C   UNL A   1      45.040  23.668  25.694  1.00  0.00    -0.014 A 
ATOM     75  C   UNL A   1      44.597  23.437  24.380  1.00  0.00     0.010 A 
ATOM     76  C   UNL A   1      45.331  22.566  26.519  1.00  0.00     0.010 A 
ATOM     77  C   UNL A   1      44.433  22.132  23.905  1.00  0.00     0.020 A 
ATOM     78  C   UNL A   1      45.197  21.260  26.039  1.00  0.00     0.020 A 
ATOM     79  C   UNL A   1      44.739  21.051  24.737  1.00  0.00     0.054 A 
BRANCH  79  80
ATOM     80  S   UNL A   1      44.579  19.368  24.078  1.00  0.00     0.124 S 
ATOM     81  O   UNL A   1      44.524  19.607  22.640  1.00  0.00    -0.237 OA
ATOM     82  O   UNL A   1      45.796  18.721  24.567  1.00  0.00    -0.237 OA
ATOM     83  O   UNL A   1      43.340  18.882  24.681  1.00  0.00    -0.744 OA
ENDBRANCH  79  80
ENDBRANCH  51  74
BRANCH  63  84
ATOM     84  C   UNL A   1      50.474  28.050  25.932  1.00  0.00    -0.014 A 
ATOM     85  C   UNL A   1      51.448  27.650  26.864  1.00  0.00     0.010 A 
ATOM     86  C   UNL A   1      50.853  28.253  24.592  1.00  0.00     0.010 A 
ATOM     87  C   UNL A   1      52.778  27.477  26.466  1.00  0.00     0.020 A 
ATOM     88  C   UNL A   1      52.176  28.056  24.185  1.00  0.00     0.020 A 
ATOM     89  C   UNL A   1      53.132  27.677  25.129  1.00  0.00     0.054 A 
BRANCH  89  90
ATOM     90  S   UNL A   1      54.852  27.383  24.625  1.00  0.00     0.124 S 
ATOM     91  O   UNL A   1      54.686  26.482  23.488  1.00  0.00    -0.237 OA
ATOM     92  O   UNL A   1      55.323  28.726  24.298  1.00  0.00    -0.237 OA
ATOM     93  O   UNL A   1      55.463  26.785  25.809  1.00  0.00    -0.744 OA
ENDBRANCH  89  90
ENDBRANCH  63  84
ENDBRANCH  37  38
ENDBRANCH  29  32
ENDBRANCH  27  28
ENDBRANCH   1  27
TORSDOF 17
ENDMDL
MODEL 2
REMARK VINA RESULT:     -11.0      6.684     12.345
REMARK SMILES CC1(C)CC[NH+](CC[C@H]2CCC[C@]2([NH3+])C(=O)NCCCNC(=O)c2ccc(-c3c4nc(c(-c5ccc(S(=O)(=O)[O-])cc5)c5ccc([nH]5)c(-c5ccc(S(=O)(=O)[O-])cc5)c5nc(c(-c6ccc(S(=O)(=O)[O-])cc6)c6ccc3[nH]6)C=C5)C=C4)cc2)CC1
REMARK SMILES IDX 19 1 18 2 17 3 15 4 16 5 13 7 9 8 10 9 11 10 12 11 8 12 7 13
REMARK SMILES IDX 6 14 1 15 2 16 3 17 4 18 85 19 5 20 84 21 14 23 20 27 21 28
REMARK SMILES IDX 22 29 23 31 24 32 25 33 83 34 26 35 82 36 27 37 28 38 29 39
REMARK SMILES IDX 76 40 30 41 81 42 75 43 77 44 31 45 80 46 74 47 73 48 32 50
REMARK SMILES IDX 62 51 43 52 61 53 44 54 47 55 60 56 78 57 45 58 46 59 59 61
REMARK SMILES IDX 79 62 48 63 33 64 34 65 42 66 35 67 41 68 36 69 37 70 38 71
REMARK SMILES IDX 39 72 40 73 63 74 64 75 72 76 65 77 71 78 66 79 67 80 68 81
REMARK SMILES IDX 69 82 70 83 49 84 50 85 58 86 51 87 57 88 52 89 53 90 54 91
REMARK SMILES IDX 55 92 56 93
REMARK H PARENT 17 6 6 22 14 24 14 25 14 26 21 30 77 49 47 60
REMARK Flexibility Score: inf
ROOT
ATOM      1  C   UNL A   1      38.466  22.037  25.743  1.00  0.00     0.042 C 
ENDROOT
BRANCH   1   2
ATOM      2  C   UNL A   1      36.983  21.864  25.371  1.00  0.00     0.118 C 
BRANCH   2   3
ATOM      3  N   UNL A   1      36.025  22.018  26.459  1.00  0.00    -0.351 N 
ATOM      4  C   UNL A   1      34.651  21.920  26.441  1.00  0.00     0.281 C 
ATOM      5  O   UNL A   1      34.149  21.395  27.445  1.00  0.00    -0.268 OA
ATOM      6  H   UNL A   1      36.419  22.224  27.338  1.00  0.00     0.163 HD
BRANCH   4   7
ATOM      7  C   UNL A   1      33.722  22.549  25.310  1.00  0.00     0.177 C 
ATOM      8  C   UNL A   1      34.083  24.057  25.134  1.00  0.00     0.066 C 
ATOM      9  C   UNL A   1      33.296  24.789  26.233  1.00  0.00     0.011 C 
ATOM     10  C   UNL A   1      32.160  23.872  26.656  1.00  0.00     0.008 C 
ATOM     11  C   UNL A   1      32.253  22.636  25.771  1.00  0.00     0.079 C 
BRANCH   8  12
ATOM     12  C   UNL A   1      33.867  24.667  23.712  1.00  0.00     0.072 C 
BRANCH  12  13
ATOM     13  C   UNL A   1      32.670  25.642  23.462  1.00  0.00     0.262 C 
BRANCH  13  14
ATOM     14  N   UNL A   1      32.791  27.102  23.405  1.00  0.00    -0.335 N 
ATOM     15  C   UNL A   1      31.677  28.095  27.308  1.00  0.00     0.011 C 
ATOM     16  C   UNL A   1      32.028  28.613  25.880  1.00  0.00    -0.025 C 
ATOM     17  C   UNL A   1      31.786  30.132  25.830  1.00  0.00     0.011 C 
ATOM     18  C   UNL A   1      31.061  27.996  24.864  1.00  0.00     0.068 C 
ATOM     19  C   UNL A   1      33.499  28.211  25.586  1.00  0.00     0.068 C 
ATOM     20  C   UNL A   1      31.584  27.895  23.436  1.00  0.00     0.262 C 
ATOM     21  C   UNL A   1      33.851  27.766  24.158  1.00  0.00     0.262 C 
ATOM     22  H   UNL A   1      33.112  27.088  22.438  1.00  0.00     0.348 HD
ENDBRANCH  13  14
ENDBRANCH  12  13
ENDBRANCH   8  12
BRANCH   7  23
ATOM     23  N   UNL A   1      33.777  21.711  24.100  1.00  0.00    -0.345 N 
ATOM     24  H   UNL A   1      32.898  21.206  23.995  1.00  0.00     0.345 HD
ATOM     25  H   UNL A   1      34.545  21.044  24.182  1.00  0.00     0.345 HD
ATOM     26  H   UNL A   1      33.928  22.303  23.282  1.00  0.00     0.345 HD
ENDBRANCH   7  23
ENDBRANCH   4   7
ENDBRANCH   2   3
ENDBRANCH   1   2
BRANCH   1  27
ATOM     27  C   UNL A   1      38.905  23.327  26.439  1.00  0.00     0.118 C 
BRANCH  27  28
ATOM     28  N   UNL A   1      40.357  23.490  26.360  1.00  0.00    -0.352 N 
ATOM     29  C   UNL A   1      41.215  24.532  26.626  1.00  0.00     0.251 C 
ATOM     30  H   UNL A   1      40.819  22.680  26.048  1.00  0.00     0.163 HD
ATOM     31  O   UNL A   1      42.323  24.485  26.086  1.00  0.00    -0.269 OA
BRANCH  29  32
ATOM     32  C   UNL A   1      40.922  25.672  27.542  1.00  0.00     0.039 A 
ATOM     33  C   UNL A   1      41.870  26.709  27.625  1.00  0.00     0.014 A 
ATOM     34  C   UNL A   1      39.863  25.676  28.451  1.00  0.00     0.014 A 
ATOM     35  C   UNL A   1      41.769  27.716  28.599  1.00  0.00     0.010 A 
ATOM     36  C   UNL A   1      39.732  26.713  29.391  1.00  0.00     0.010 A 
ATOM     37  C   UNL A   1      40.695  27.731  29.499  1.00  0.00    -0.014 A 
BRANCH  37  38
ATOM     38  C   UNL A   1      40.591  28.757  30.584  1.00  0.00     0.031 A 
ATOM     39  C   UNL A   1      41.475  28.669  31.808  1.00  0.00     0.074 A 
ATOM     40  C   UNL A   1      39.682  29.752  30.508  1.00  0.00     0.049 A 
ATOM     41  N   UNL A   1      41.448  29.385  32.906  1.00  0.00    -0.248 NA
ATOM     42  C   UNL A   1      42.513  27.627  31.801  1.00  0.00     0.031 C 
ATOM     43  C   UNL A   1      38.769  29.980  29.388  1.00  0.00     0.029 A 
ATOM     44  N   UNL A   1      39.364  30.748  31.402  1.00  0.00    -0.354 N 
ATOM     45  C   UNL A   1      42.441  28.860  33.731  1.00  0.00     0.074 A 
ATOM     46  C   UNL A   1      43.031  27.748  33.016  1.00  0.00     0.031 C 
ATOM     47  C   UNL A   1      38.000  31.048  29.659  1.00  0.00     0.029 A 
ATOM     48  C   UNL A   1      38.327  31.554  30.990  1.00  0.00     0.049 A 
ATOM     49  H   UNL A   1      39.837  30.874  32.258  1.00  0.00     0.167 HD
ATOM     50  C   UNL A   1      42.832  29.266  34.965  1.00  0.00     0.031 A 
ATOM     51  C   UNL A   1      37.691  32.567  31.613  1.00  0.00     0.031 A 
ATOM     52  C   UNL A   1      42.262  30.383  35.675  1.00  0.00     0.049 A 
ATOM     53  C   UNL A   1      38.120  32.982  32.996  1.00  0.00     0.074 A 
ATOM     54  C   UNL A   1      42.625  30.890  36.912  1.00  0.00     0.029 A 
ATOM     55  N   UNL A   1      41.219  31.170  35.214  1.00  0.00    -0.354 N 
ATOM     56  N   UNL A   1      39.074  32.486  33.747  1.00  0.00    -0.248 NA
ATOM     57  C   UNL A   1      37.392  34.102  33.613  1.00  0.00     0.031 C 
ATOM     58  C   UNL A   1      41.767  31.951  37.221  1.00  0.00     0.029 A 
ATOM     59  C   UNL A   1      40.911  32.143  36.150  1.00  0.00     0.049 A 
ATOM     60  H   UNL A   1      40.762  31.052  34.349  1.00  0.00     0.167 HD
ATOM     61  C   UNL A   1      39.083  33.255  34.907  1.00  0.00     0.074 A 
ATOM     62  C   UNL A   1      38.044  34.252  34.759  1.00  0.00     0.031 C 
ATOM     63  C   UNL A   1      39.885  33.144  35.993  1.00  0.00     0.031 A 
BRANCH  50  64
ATOM     64  C   UNL A   1      43.925  28.480  35.649  1.00  0.00    -0.014 A 
ATOM     65  C   UNL A   1      45.280  28.821  35.489  1.00  0.00     0.010 A 
ATOM     66  C   UNL A   1      43.587  27.416  36.507  1.00  0.00     0.010 A 
ATOM     67  C   UNL A   1      46.277  28.084  36.136  1.00  0.00     0.020 A 
ATOM     68  C   UNL A   1      44.579  26.695  37.179  1.00  0.00     0.020 A 
ATOM     69  C   UNL A   1      45.921  27.022  36.972  1.00  0.00     0.054 A 
BRANCH  69  70
ATOM     70  S   UNL A   1      47.234  26.089  37.806  1.00  0.00     0.124 S 
ATOM     71  O   UNL A   1      46.966  24.725  37.356  1.00  0.00    -0.237 OA
ATOM     72  O   UNL A   1      48.451  26.698  37.269  1.00  0.00    -0.237 OA
ATOM     73  O   UNL A   1      46.991  26.336  39.224  1.00  0.00    -0.744 OA
ENDBRANCH  69  70
ENDBRANCH  50  64
BRANCH  51  74
ATOM     74  C   UNL A   1      36.566  33.267  30.931  1.00  0.00    -0.014 A 
ATOM     75  C   UNL A   1      35.259  33.187  31.442  1.00  0.00     0.010 A 
ATOM     76  C   UNL A   1      36.798  34.026  29.768  1.00  0.00     0.010 A 
ATOM     77  C   UNL A   1      34.204  33.840  30.799  1.00  0.00     0.020 A 
ATOM     78  C   UNL A   1      35.751  34.705  29.139  1.00  0.00     0.020 A 
ATOM     79  C   UNL A   1      34.457  34.599  29.652  1.00  0.00     0.054 A 
BRANCH  79  80
ATOM     80  S   UNL A   1      33.083  35.489  28.870  1.00  0.00     0.124 S 
ATOM     81  O   UNL A   1      32.407  34.422  28.139  1.00  0.00    -0.237 OA
ATOM     82  O   UNL A   1      32.359  36.026  30.021  1.00  0.00    -0.237 OA
ATOM     83  O   UNL A   1      33.751  36.490  28.043  1.00  0.00    -0.744 OA
ENDBRANCH  79  80
ENDBRANCH  51  74
BRANCH  63  84
ATOM     84  C   UNL A   1      39.722  34.157  37.097  1.00  0.00    -0.014 A 
ATOM     85  C   UNL A   1      38.947  33.883  38.238  1.00  0.00     0.010 A 
ATOM     86  C   UNL A   1      40.422  35.376  37.022  1.00  0.00     0.010 A 
ATOM     87  C   UNL A   1      38.859  34.819  39.274  1.00  0.00     0.020 A 
ATOM     88  C   UNL A   1      40.356  36.302  38.068  1.00  0.00     0.020 A 
ATOM     89  C   UNL A   1      39.567  36.021  39.183  1.00  0.00     0.054 A 
BRANCH  89  90
ATOM     90  S   UNL A   1      39.488  37.191  40.570  1.00  0.00     0.124 S 
ATOM     91  O   UNL A   1      38.673  36.461  41.537  1.00  0.00    -0.237 OA
ATOM     92  O   UNL A   1      40.894  37.356  40.930  1.00  0.00    -0.237 OA
ATOM     93  O   UNL A   1      38.856  38.374  39.989  1.00  0.00    -0.744 OA
ENDBRANCH  89  90
ENDBRANCH  63  84
ENDBRANCH  37  38
ENDBRANCH  29  32
ENDBRANCH  27  28
ENDBRANCH   1  27
TORSDOF 17
ENDMDL
MODEL 3
REMARK VINA RESULT:     -11.0      1.550      2.212
REMARK SMILES CC1(C)CC[NH+](CC[C@H]2CCC[C@]2([NH3+])C(=O)NCCCNC(=O)c2ccc(-c3c4nc(c(-c5ccc(S(=O)(=O)[O-])cc5)c5ccc([nH]5)c(-c5ccc(S(=O)(=O)[O-])cc5)c5nc(c(-c6ccc(S(=O)(=O)[O-])cc6)c6ccc3[nH]6)C=C5)C=C4)cc2)CC1
REMARK SMILES IDX 19 1 18 2 17 3 15 4 16 5 13 7 9 8 10 9 11 10 12 11 8 12 7 13
REMARK SMILES IDX 6 14 1 15 2 16 3 17 4 18 85 19 5 20 84 21 14 23 20 27 21 28
REMARK SMILES IDX 22 29 23 31 24 32 25 33 83 34 26 35 82 36 27 37 28 38 29 39
REMARK SMILES IDX 76 40 30 41 81 42 75 43 77 44 31 45 80 46 74 47 73 48 32 50
REMARK SMILES IDX 62 51 43 52 61 53 44 54 47 55 60 56 78 57 45 58 46 59 59 61
REMARK SMILES IDX 79 62 48 63 33 64 34 65 42 66 35 67 41 68 36 69 37 70 38 71
REMARK SMILES IDX 39 72 40 73 63 74 64 75 72 76 65 77 71 78 66 79 67 80 68 81
REMARK SMILES IDX 69 82 70 83 49 84 50 85 58 86 51 87 57 88 52 89 53 90 54 91
REMARK SMILES IDX 55 92 56 93
REMARK H PARENT 17 6 6 22 14 24 14 25 14 26 21 30 77 49 47 60
REMARK Flexibility Score: inf
ROOT
ATOM      1  C   UNL A   1      33.553  31.034  27.179  1.00  0.00     0.042 C 
ENDROOT
BRANCH   1   2
ATOM      2  C   UNL A   1      32.261  30.242  26.910  1.00  0.00     0.118 C 
BRANCH   2   3
ATOM      3  N   UNL A   1      31.817  30.187  25.522  1.00  0.00    -0.351 N 
ATOM      4  C   UNL A   1      31.779  29.118  24.654  1.00  0.00     0.281 C 
ATOM      5  O   UNL A   1      30.802  29.096  23.892  1.00  0.00    -0.268 OA
ATOM      6  H   UNL A   1      31.499  31.041  25.150  1.00  0.00     0.163 HD
BRANCH   4   7
ATOM      7  C   UNL A   1      32.947  28.045  24.499  1.00  0.00     0.177 C 
ATOM      8  C   UNL A   1      32.421  26.835  23.666  1.00  0.00     0.066 C 
ATOM      9  C   UNL A   1      31.688  25.940  24.677  1.00  0.00     0.011 C 
ATOM     10  C   UNL A   1      32.207  26.306  26.058  1.00  0.00     0.008 C 
ATOM     11  C   UNL A   1      33.276  27.371  25.847  1.00  0.00     0.079 C 
BRANCH   8  12
ATOM     12  C   UNL A   1      33.475  26.064  22.810  1.00  0.00     0.072 C 
BRANCH  12  13
ATOM     13  C   UNL A   1      34.348  24.950  23.478  1.00  0.00     0.262 C 
BRANCH  13  14
ATOM     14  N   UNL A   1      34.263  23.524  23.148  1.00  0.00    -0.335 N 
ATOM     15  C   UNL A   1      31.111  22.369  25.635  1.00  0.00     0.011 C 
ATOM     16  C   UNL A   1      32.235  21.911  24.656  1.00  0.00    -0.025 C 
ATOM     17  C   UNL A   1      32.290  20.374  24.647  1.00  0.00     0.011 C 
ATOM     18  C   UNL A   1      33.593  22.381  25.188  1.00  0.00     0.068 C 
ATOM     19  C   UNL A   1      31.922  22.527  23.265  1.00  0.00     0.068 C 
ATOM     20  C   UNL A   1      34.683  22.561  24.138  1.00  0.00     0.262 C 
ATOM     21  C   UNL A   1      33.102  23.023  22.416  1.00  0.00     0.262 C 
ATOM     22  H   UNL A   1      35.012  23.588  22.458  1.00  0.00     0.348 HD
ENDBRANCH  13  14
ENDBRANCH  12  13
ENDBRANCH   8  12
BRANCH   7  23
ATOM     23  N   UNL A   1      34.166  28.708  24.005  1.00  0.00    -0.345 N 
ATOM     24  H   UNL A   1      34.933  28.036  23.982  1.00  0.00     0.345 HD
ATOM     25  H   UNL A   1      34.409  29.482  24.624  1.00  0.00     0.345 HD
ATOM     26  H   UNL A   1      34.001  29.066  23.063  1.00  0.00     0.345 HD
ENDBRANCH   7  23
ENDBRANCH   4   7
ENDBRANCH   2   3
ENDBRANCH   1   2
BRANCH   1  27
ATOM     27  C   UNL A   1      34.786  30.281  27.685  1.00  0.00     0.118 C 
BRANCH  27  28
ATOM     28  N   UNL A   1      35.172  30.754  29.014  1.00  0.00    -0.352 N 
ATOM     29  C   UNL A   1      36.188  30.430  29.883  1.00  0.00     0.251 C 
ATOM     30  H   UNL A   1      34.577  31.456  29.362  1.00  0.00     0.163 HD
ATOM     31  O   UNL A   1      36.010  30.715  31.070  1.00  0.00    -0.269 OA
BRANCH  29  32
ATOM     32  C   UNL A   1      37.486  29.809  29.492  1.00  0.00     0.039 A 
ATOM     33  C   UNL A   1      38.298  29.283  30.515  1.00  0.00     0.014 A 
ATOM     34  C   UNL A   1      38.021  29.889  28.206  1.00  0.00     0.014 A 
ATOM     35  C   UNL A   1      39.613  28.860  30.260  1.00  0.00     0.010 A 
ATOM     36  C   UNL A   1      39.318  29.416  27.940  1.00  0.00     0.010 A 
ATOM     37  C   UNL A   1      40.143  28.921  28.964  1.00  0.00    -0.014 A 
BRANCH  37  38
ATOM     38  C   UNL A   1      41.558  28.532  28.673  1.00  0.00     0.031 A 
ATOM     39  C   UNL A   1      42.658  29.571  28.694  1.00  0.00     0.074 A 
ATOM     40  C   UNL A   1      41.871  27.261  28.347  1.00  0.00     0.049 A 
ATOM     41  N   UNL A   1      43.917  29.456  28.349  1.00  0.00    -0.248 NA
ATOM     42  C   UNL A   1      42.285  30.920  29.148  1.00  0.00     0.031 C 
ATOM     43  C   UNL A   1      40.928  26.143  28.297  1.00  0.00     0.029 A 
ATOM     44  N   UNL A   1      43.071  26.697  27.978  1.00  0.00    -0.354 N 
ATOM     45  C   UNL A   1      44.477  30.720  28.512  1.00  0.00     0.074 A 
ATOM     46  C   UNL A   1      43.412  31.593  28.961  1.00  0.00     0.031 C 
ATOM     47  C   UNL A   1      41.584  25.031  27.925  1.00  0.00     0.029 A 
ATOM     48  C   UNL A   1      42.982  25.361  27.662  1.00  0.00     0.049 A 
ATOM     49  H   UNL A   1      43.915  27.203  27.944  1.00  0.00     0.167 HD
ATOM     50  C   UNL A   1      45.758  31.122  28.315  1.00  0.00     0.031 A 
ATOM     51  C   UNL A   1      43.908  24.498  27.191  1.00  0.00     0.031 A 
ATOM     52  C   UNL A   1      46.827  30.256  27.887  1.00  0.00     0.049 A 
ATOM     53  C   UNL A   1      45.317  24.971  26.949  1.00  0.00     0.074 A 
ATOM     54  C   UNL A   1      48.164  30.569  27.701  1.00  0.00     0.029 A 
ATOM     55  N   UNL A   1      46.689  28.911  27.585  1.00  0.00    -0.354 N 
ATOM     56  N   UNL A   1      45.828  26.165  27.131  1.00  0.00    -0.248 NA
ATOM     57  C   UNL A   1      46.278  23.977  26.447  1.00  0.00     0.031 C 
ATOM     58  C   UNL A   1      48.823  29.426  27.237  1.00  0.00     0.029 A 
ATOM     59  C   UNL A   1      47.910  28.385  27.194  1.00  0.00     0.049 A 
ATOM     60  H   UNL A   1      45.846  28.404  27.639  1.00  0.00     0.167 HD
ATOM     61  C   UNL A   1      47.175  26.056  26.799  1.00  0.00     0.074 A 
ATOM     62  C   UNL A   1      47.403  24.680  26.410  1.00  0.00     0.031 C 
ATOM     63  C   UNL A   1      48.135  27.011  26.821  1.00  0.00     0.031 A 
BRANCH  50  64
ATOM     64  C   UNL A   1      46.080  32.580  28.540  1.00  0.00    -0.014 A 
ATOM     65  C   UNL A   1      45.961  33.523  27.504  1.00  0.00     0.010 A 
ATOM     66  C   UNL A   1      46.458  33.021  29.822  1.00  0.00     0.010 A 
ATOM     67  C   UNL A   1      46.259  34.869  27.733  1.00  0.00     0.020 A 
ATOM     68  C   UNL A   1      46.728  34.372  30.064  1.00  0.00     0.020 A 
ATOM     69  C   UNL A   1      46.647  35.285  29.011  1.00  0.00     0.054 A 
BRANCH  69  70
ATOM     70  S   UNL A   1      47.018  37.040  29.283  1.00  0.00     0.124 S 
ATOM     71  O   UNL A   1      45.855  37.689  28.682  1.00  0.00    -0.237 OA
ATOM     72  O   UNL A   1      47.101  37.128  30.741  1.00  0.00    -0.237 OA
ATOM     73  O   UNL A   1      48.279  37.244  28.577  1.00  0.00    -0.744 OA
ENDBRANCH  69  70
ENDBRANCH  50  64
BRANCH  51  74
ATOM     74  C   UNL A   1      43.527  23.085  26.911  1.00  0.00    -0.014 A 
ATOM     75  C   UNL A   1      43.893  22.473  25.699  1.00  0.00     0.010 A 
ATOM     76  C   UNL A   1      42.805  22.338  27.861  1.00  0.00     0.010 A 
ATOM     77  C   UNL A   1      43.532  21.148  25.435  1.00  0.00     0.020 A 
ATOM     78  C   UNL A   1      42.468  21.004  27.613  1.00  0.00     0.020 A 
ATOM     79  C   UNL A   1      42.825  20.420  26.397  1.00  0.00     0.054 A 
BRANCH  79  80
ATOM     80  S   UNL A   1      42.422  18.684  26.058  1.00  0.00     0.124 S 
ATOM     81  O   UNL A   1      41.008  18.762  25.708  1.00  0.00    -0.237 OA
ATOM     82  O   UNL A   1      43.330  18.358  24.960  1.00  0.00    -0.237 OA
ATOM     83  O   UNL A   1      42.719  18.012  27.321  1.00  0.00    -0.744 OA
ENDBRANCH  79  80
ENDBRANCH  51  74
BRANCH  63  84
ATOM     84  C   UNL A   1      49.543  26.605  26.469  1.00  0.00    -0.014 A 
ATOM     85  C   UNL A   1      50.412  26.056  27.427  1.00  0.00     0.010 A 
ATOM     86  C   UNL A   1      49.976  26.707  25.132  1.00  0.00     0.010 A 
ATOM     87  C   UNL A   1      51.694  25.634  27.061  1.00  0.00     0.020 A 
ATOM     88  C   UNL A   1      51.247  26.263  24.758  1.00  0.00     0.020 A 
ATOM     89  C   UNL A   1      52.102  25.737  25.727  1.00  0.00     0.054 A 
BRANCH  89  90
ATOM     90  S   UNL A   1      53.747  25.124  25.265  1.00  0.00     0.124 S 
ATOM     91  O   UNL A   1      53.540  23.679  25.249  1.00  0.00    -0.237 OA
ATOM     92  O   UNL A   1      53.964  25.743  23.960  1.00  0.00    -0.237 OA
ATOM     93  O   UNL A   1      54.614  25.617  26.333  1.00  0.00    -0.744 OA
ENDBRANCH  89  90
ENDBRANCH  63  84
ENDBRANCH  37  38
ENDBRANCH  29  32
ENDBRANCH  27  28
ENDBRANCH   1  27
TORSDOF 17
ENDMDL
