MODEL 1
REMARK VINA RESULT:      -9.5      0.000      0.000
REMARK SMILES CCCCCO[C@H](C(=O)NCCCNC(=O)c1ccc(-c2c3nc(c(-c4ccc(S(=O)(=O)[O-])cc4)c4ccc([nH]4)c(-c4ccc(S(=O)(=O)[O-])cc4)c4nc(c(-c5ccc(S(=O)(=O)[O-])cc5)c5ccc2[nH]5)C=C4)C=C3)cc1)c1ccccc1
REMARK SMILES IDX 11 1 10 2 8 3 9 4 7 6 6 7 5 8 4 9 3 10 2 11 1 12 77 13 78 14
REMARK SMILES IDX 82 15 79 16 81 17 80 18 12 19 13 20 14 21 15 22 16 24 17 25
REMARK SMILES IDX 18 26 76 27 19 28 75 29 20 30 21 31 22 32 69 33 23 34 74 35
REMARK SMILES IDX 68 36 70 37 24 38 73 39 67 40 66 41 25 43 55 44 36 45 54 46
REMARK SMILES IDX 37 47 40 48 53 49 71 50 38 51 39 52 52 54 72 55 41 56 26 57
REMARK SMILES IDX 27 58 35 59 28 60 34 61 29 62 30 63 31 64 32 65 33 66 56 67
REMARK SMILES IDX 57 68 65 69 58 70 64 71 59 72 60 73 61 74 62 75 63 76 42 77
REMARK SMILES IDX 43 78 51 79 44 80 50 81 45 82 46 83 47 84 48 85 49 86
REMARK H PARENT 10 5 14 23 70 42 40 53
REMARK Flexibility Score: inf
ROOT
ATOM      1  C   UNL A   1      34.429  25.375  25.378  1.00  0.00     0.117 C 
ENDROOT
BRANCH   1   2
ATOM      2  N   UNL A   1      33.026  25.229  25.740  1.00  0.00    -0.353 N 
ATOM      3  C   UNL A   1      32.028  26.148  25.926  1.00  0.00     0.253 C 
ATOM      4  O   UNL A   1      31.101  25.745  26.638  1.00  0.00    -0.272 OA
ATOM      5  H   UNL A   1      32.742  24.296  25.876  1.00  0.00     0.163 HD
BRANCH   3   6
ATOM      6  C   UNL A   1      32.016  27.545  25.203  1.00  0.00     0.237 C 
BRANCH   6   7
ATOM      7  O   UNL A   1      30.790  27.914  24.532  1.00  0.00    -0.364 OA
BRANCH   7   8
ATOM      8  C   UNL A   1      30.770  28.020  23.105  1.00  0.00     0.162 C 
BRANCH   8   9
ATOM      9  C   UNL A   1      30.114  29.279  22.521  1.00  0.00     0.028 C 
BRANCH   9  10
ATOM     10  C   UNL A   1      28.882  29.748  23.311  1.00  0.00     0.002 C 
BRANCH  10  11
ATOM     11  C   UNL A   1      28.931  31.206  23.775  1.00  0.00    -0.003 C 
ATOM     12  C   UNL A   1      28.367  32.179  22.751  1.00  0.00     0.004 C 
ENDBRANCH  10  11
ENDBRANCH   9  10
ENDBRANCH   8   9
ENDBRANCH   7   8
ENDBRANCH   6   7
BRANCH   6  13
ATOM     13  C   UNL A   1      32.539  28.744  26.005  1.00  0.00    -0.010 A 
ATOM     14  C   UNL A   1      31.761  29.910  26.123  1.00  0.00     0.007 A 
ATOM     15  C   UNL A   1      33.791  28.760  26.619  1.00  0.00     0.007 A 
ATOM     16  C   UNL A   1      32.170  30.985  26.919  1.00  0.00     0.000 A 
ATOM     17  C   UNL A   1      34.245  29.863  27.349  1.00  0.00     0.000 A 
ATOM     18  C   UNL A   1      33.417  30.963  27.529  1.00  0.00     0.000 A 
ENDBRANCH   6  13
ENDBRANCH   3   6
ENDBRANCH   1   2
BRANCH   1  19
ATOM     19  C   UNL A   1      35.204  24.076  25.660  1.00  0.00     0.042 C 
BRANCH  19  20
ATOM     20  C   UNL A   1      36.549  23.971  24.943  1.00  0.00     0.118 C 
BRANCH  20  21
ATOM     21  N   UNL A   1      37.352  22.868  25.432  1.00  0.00    -0.352 N 
ATOM     22  C   UNL A   1      38.512  22.845  26.167  1.00  0.00     0.251 C 
ATOM     23  H   UNL A   1      37.004  21.978  25.197  1.00  0.00     0.163 HD
ATOM     24  O   UNL A   1      39.109  21.772  26.265  1.00  0.00    -0.269 OA
BRANCH  22  25
ATOM     25  C   UNL A   1      39.085  24.055  26.817  1.00  0.00     0.039 A 
ATOM     26  C   UNL A   1      38.677  24.352  28.125  1.00  0.00     0.014 A 
ATOM     27  C   UNL A   1      39.912  24.962  26.152  1.00  0.00     0.014 A 
ATOM     28  C   UNL A   1      39.113  25.522  28.762  1.00  0.00     0.010 A 
ATOM     29  C   UNL A   1      40.418  26.085  26.817  1.00  0.00     0.010 A 
ATOM     30  C   UNL A   1      40.005  26.395  28.121  1.00  0.00    -0.014 A 
BRANCH  30  31
ATOM     31  C   UNL A   1      40.461  27.656  28.774  1.00  0.00     0.031 A 
ATOM     32  C   UNL A   1      41.863  27.767  29.326  1.00  0.00     0.074 A 
ATOM     33  C   UNL A   1      39.616  28.699  28.901  1.00  0.00     0.049 A 
ATOM     34  N   UNL A   1      42.418  28.755  29.983  1.00  0.00    -0.248 NA
ATOM     35  C   UNL A   1      42.747  26.606  29.136  1.00  0.00     0.031 C 
ATOM     36  C   UNL A   1      38.228  28.730  28.435  1.00  0.00     0.029 A 
ATOM     37  N   UNL A   1      39.802  29.940  29.463  1.00  0.00    -0.354 N 
ATOM     38  C   UNL A   1      43.701  28.326  30.305  1.00  0.00     0.074 A 
ATOM     39  C   UNL A   1      43.827  26.972  29.812  1.00  0.00     0.031 C 
ATOM     40  C   UNL A   1      37.701  29.937  28.698  1.00  0.00     0.029 A 
ATOM     41  C   UNL A   1      38.695  30.753  29.387  1.00  0.00     0.049 A 
ATOM     42  H   UNL A   1      40.648  30.220  29.880  1.00  0.00     0.167 HD
ATOM     43  C   UNL A   1      44.696  28.999  30.934  1.00  0.00     0.031 A 
ATOM     44  C   UNL A   1      38.497  32.014  29.822  1.00  0.00     0.031 A 
ATOM     45  C   UNL A   1      44.590  30.356  31.400  1.00  0.00     0.049 A 
ATOM     46  C   UNL A   1      39.616  32.745  30.512  1.00  0.00     0.074 A 
ATOM     47  C   UNL A   1      45.558  31.135  32.011  1.00  0.00     0.029 A 
ATOM     48  N   UNL A   1      43.453  31.141  31.295  1.00  0.00    -0.354 N 
ATOM     49  N   UNL A   1      40.828  32.325  30.784  1.00  0.00    -0.248 NA
ATOM     50  C   UNL A   1      39.342  34.123  30.944  1.00  0.00     0.031 C 
ATOM     51  C   UNL A   1      44.995  32.381  32.306  1.00  0.00     0.029 A 
ATOM     52  C   UNL A   1      43.692  32.393  31.837  1.00  0.00     0.049 A 
ATOM     53  H   UNL A   1      42.602  30.852  30.893  1.00  0.00     0.167 HD
ATOM     54  C   UNL A   1      41.468  33.396  31.400  1.00  0.00     0.074 A 
ATOM     55  C   UNL A   1      40.515  34.484  31.449  1.00  0.00     0.031 C 
ATOM     56  C   UNL A   1      42.735  33.468  31.879  1.00  0.00     0.031 A 
BRANCH  43  57
ATOM     57  C   UNL A   1      45.996  28.269  31.153  1.00  0.00    -0.014 A 
ATOM     58  C   UNL A   1      46.182  27.440  32.273  1.00  0.00     0.010 A 
ATOM     59  C   UNL A   1      47.035  28.389  30.211  1.00  0.00     0.010 A 
ATOM     60  C   UNL A   1      47.398  26.782  32.475  1.00  0.00     0.020 A 
ATOM     61  C   UNL A   1      48.244  27.711  30.396  1.00  0.00     0.020 A 
ATOM     62  C   UNL A   1      48.425  26.927  31.537  1.00  0.00     0.054 A 
BRANCH  62  63
ATOM     63  S   UNL A   1      49.992  26.056  31.814  1.00  0.00     0.124 S 
ATOM     64  O   UNL A   1      50.758  27.051  32.566  1.00  0.00    -0.237 OA
ATOM     65  O   UNL A   1      49.576  24.881  32.580  1.00  0.00    -0.237 OA
ATOM     66  O   UNL A   1      50.479  25.779  30.471  1.00  0.00    -0.744 OA
ENDBRANCH  62  63
ENDBRANCH  43  57
BRANCH  44  67
ATOM     67  C   UNL A   1      37.186  32.677  29.592  1.00  0.00    -0.014 A 
ATOM     68  C   UNL A   1      36.220  32.714  30.613  1.00  0.00     0.010 A 
ATOM     69  C   UNL A   1      36.906  33.298  28.360  1.00  0.00     0.010 A 
ATOM     70  C   UNL A   1      34.994  33.353  30.407  1.00  0.00     0.020 A 
ATOM     71  C   UNL A   1      35.690  33.958  28.158  1.00  0.00     0.020 A 
ATOM     72  C   UNL A   1      34.739  33.974  29.181  1.00  0.00     0.054 A 
BRANCH  72  73
ATOM     73  S   UNL A   1      33.170  34.860  28.957  1.00  0.00     0.124 S 
ATOM     74  O   UNL A   1      32.600  34.810  30.300  1.00  0.00    -0.237 OA
ATOM     75  O   UNL A   1      33.612  36.177  28.504  1.00  0.00    -0.237 OA
ATOM     76  O   UNL A   1      32.472  34.067  27.949  1.00  0.00    -0.744 OA
ENDBRANCH  72  73
ENDBRANCH  44  67
BRANCH  56  77
ATOM     77  C   UNL A   1      43.176  34.778  32.474  1.00  0.00    -0.014 A 
ATOM     78  C   UNL A   1      43.747  35.783  31.674  1.00  0.00     0.010 A 
ATOM     79  C   UNL A   1      42.962  35.026  33.842  1.00  0.00     0.010 A 
ATOM     80  C   UNL A   1      44.121  37.006  32.238  1.00  0.00     0.020 A 
ATOM     81  C   UNL A   1      43.315  36.256  34.404  1.00  0.00     0.020 A 
ATOM     82  C   UNL A   1      43.905  37.234  33.600  1.00  0.00     0.054 A 
BRANCH  82  83
ATOM     83  S   UNL A   1      44.356  38.845  34.301  1.00  0.00     0.124 S 
ATOM     84  O   UNL A   1      45.705  39.038  33.774  1.00  0.00    -0.237 OA
ATOM     85  O   UNL A   1      43.334  39.733  33.752  1.00  0.00    -0.237 OA
ATOM     86  O   UNL A   1      44.275  38.629  35.743  1.00  0.00    -0.744 OA
ENDBRANCH  82  83
ENDBRANCH  56  77
ENDBRANCH  30  31
ENDBRANCH  22  25
ENDBRANCH  20  21
ENDBRANCH  19  20
ENDBRANCH   1  19
TORSDOF 19
ENDMDL
MODEL 2
REMARK VINA RESULT:      -9.3      2.777      9.455
REMARK SMILES CCCCCO[C@H](C(=O)NCCCNC(=O)c1ccc(-c2c3nc(c(-c4ccc(S(=O)(=O)[O-])cc4)c4ccc([nH]4)c(-c4ccc(S(=O)(=O)[O-])cc4)c4nc(c(-c5ccc(S(=O)(=O)[O-])cc5)c5ccc2[nH]5)C=C4)C=C3)cc1)c1ccccc1
REMARK SMILES IDX 11 1 10 2 8 3 9 4 7 6 6 7 5 8 4 9 3 10 2 11 1 12 77 13 78 14
REMARK SMILES IDX 82 15 79 16 81 17 80 18 12 19 13 20 14 21 15 22 16 24 17 25
REMARK SMILES IDX 18 26 76 27 19 28 75 29 20 30 21 31 22 32 69 33 23 34 74 35
REMARK SMILES IDX 68 36 70 37 24 38 73 39 67 40 66 41 25 43 55 44 36 45 54 46
REMARK SMILES IDX 37 47 40 48 53 49 71 50 38 51 39 52 52 54 72 55 41 56 26 57
REMARK SMILES IDX 27 58 35 59 28 60 34 61 29 62 30 63 31 64 32 65 33 66 56 67
REMARK SMILES IDX 57 68 65 69 58 70 64 71 59 72 60 73 61 74 62 75 63 76 42 77
REMARK SMILES IDX 43 78 51 79 44 80 50 81 45 82 46 83 47 84 48 85 49 86
REMARK H PARENT 10 5 14 23 70 42 40 53
REMARK Flexibility Score: inf
ROOT
ATOM      1  C   UNL A   1      32.410  27.929  24.073  1.00  0.00     0.117 C 
ENDROOT
BRANCH   1   2
ATOM      2  N   UNL A   1      32.710  27.152  22.878  1.00  0.00    -0.353 N 
ATOM      3  C   UNL A   1      33.107  25.854  22.706  1.00  0.00     0.253 C 
ATOM      4  O   UNL A   1      33.687  25.644  21.634  1.00  0.00    -0.272 OA
ATOM      5  H   UNL A   1      32.608  27.655  22.037  1.00  0.00     0.163 HD
BRANCH   3   6
ATOM      6  C   UNL A   1      32.753  24.716  23.732  1.00  0.00     0.237 C 
BRANCH   6   7
ATOM      7  O   UNL A   1      31.996  23.596  23.218  1.00  0.00    -0.364 OA
BRANCH   7   8
ATOM      8  C   UNL A   1      32.677  22.532  22.544  1.00  0.00     0.162 C 
BRANCH   8   9
ATOM      9  C   UNL A   1      32.277  21.104  22.940  1.00  0.00     0.028 C 
BRANCH   9  10
ATOM     10  C   UNL A   1      32.329  20.854  24.456  1.00  0.00     0.002 C 
BRANCH  10  11
ATOM     11  C   UNL A   1      33.618  20.196  24.956  1.00  0.00    -0.003 C 
ATOM     12  C   UNL A   1      33.801  18.776  24.445  1.00  0.00     0.004 C 
ENDBRANCH  10  11
ENDBRANCH   9  10
ENDBRANCH   8   9
ENDBRANCH   7   8
ENDBRANCH   6   7
BRANCH   6  13
ATOM     13  C   UNL A   1      33.897  24.196  24.612  1.00  0.00    -0.010 A 
ATOM     14  C   UNL A   1      33.659  23.854  25.956  1.00  0.00     0.007 A 
ATOM     15  C   UNL A   1      35.209  24.065  24.155  1.00  0.00     0.007 A 
ATOM     16  C   UNL A   1      34.659  23.295  26.758  1.00  0.00     0.000 A 
ATOM     17  C   UNL A   1      36.235  23.584  24.973  1.00  0.00     0.000 A 
ATOM     18  C   UNL A   1      35.952  23.165  26.266  1.00  0.00     0.000 A 
ENDBRANCH   6  13
ENDBRANCH   3   6
ENDBRANCH   1   2
BRANCH   1  19
ATOM     19  C   UNL A   1      33.701  28.298  24.824  1.00  0.00     0.042 C 
BRANCH  19  20
ATOM     20  C   UNL A   1      33.564  28.328  26.346  1.00  0.00     0.118 C 
BRANCH  20  21
ATOM     21  N   UNL A   1      33.448  29.677  26.864  1.00  0.00    -0.352 N 
ATOM     22  C   UNL A   1      34.287  30.421  27.657  1.00  0.00     0.251 C 
ATOM     23  H   UNL A   1      32.621  30.142  26.600  1.00  0.00     0.163 HD
ATOM     24  O   UNL A   1      33.849  31.468  28.133  1.00  0.00    -0.269 OA
BRANCH  22  25
ATOM     25  C   UNL A   1      35.678  30.003  27.981  1.00  0.00     0.039 A 
ATOM     26  C   UNL A   1      35.940  29.544  29.279  1.00  0.00     0.014 A 
ATOM     27  C   UNL A   1      36.748  30.153  27.096  1.00  0.00     0.014 A 
ATOM     28  C   UNL A   1      37.244  29.217  29.673  1.00  0.00     0.010 A 
ATOM     29  C   UNL A   1      38.036  29.743  27.459  1.00  0.00     0.010 A 
ATOM     30  C   UNL A   1      38.307  29.295  28.761  1.00  0.00    -0.014 A 
BRANCH  30  31
ATOM     31  C   UNL A   1      39.705  28.973  29.168  1.00  0.00     0.031 A 
ATOM     32  C   UNL A   1      40.523  29.973  29.952  1.00  0.00     0.074 A 
ATOM     33  C   UNL A   1      40.262  27.797  28.815  1.00  0.00     0.049 A 
ATOM     34  N   UNL A   1      41.772  29.900  30.339  1.00  0.00    -0.248 NA
ATOM     35  C   UNL A   1      39.855  31.229  30.330  1.00  0.00     0.031 C 
ATOM     36  C   UNL A   1      39.603  26.743  28.041  1.00  0.00     0.029 A 
ATOM     37  N   UNL A   1      41.515  27.287  29.063  1.00  0.00    -0.354 N 
ATOM     38  C   UNL A   1      42.044  31.104  30.979  1.00  0.00     0.074 A 
ATOM     39  C   UNL A   1      40.845  31.908  30.889  1.00  0.00     0.031 C 
ATOM     40  C   UNL A   1      40.441  25.702  27.908  1.00  0.00     0.029 A 
ATOM     41  C   UNL A   1      41.712  26.027  28.549  1.00  0.00     0.049 A 
ATOM     42  H   UNL A   1      42.206  27.779  29.563  1.00  0.00     0.167 HD
ATOM     43  C   UNL A   1      43.179  31.504  31.606  1.00  0.00     0.031 A 
ATOM     44  C   UNL A   1      42.791  25.220  28.586  1.00  0.00     0.031 A 
ATOM     45  C   UNL A   1      44.365  30.698  31.727  1.00  0.00     0.049 A 
ATOM     46  C   UNL A   1      44.038  25.679  29.291  1.00  0.00     0.074 A 
ATOM     47  C   UNL A   1      45.548  31.001  32.379  1.00  0.00     0.029 A 
ATOM     48  N   UNL A   1      44.515  29.427  31.197  1.00  0.00    -0.354 N 
ATOM     49  N   UNL A   1      44.263  26.814  29.909  1.00  0.00    -0.248 NA
ATOM     50  C   UNL A   1      45.171  24.744  29.312  1.00  0.00     0.031 C 
ATOM     51  C   UNL A   1      46.427  29.925  32.215  1.00  0.00     0.029 A 
ATOM     52  C   UNL A   1      45.774  28.935  31.500  1.00  0.00     0.049 A 
ATOM     53  H   UNL A   1      43.828  28.944  30.682  1.00  0.00     0.167 HD
ATOM     54  C   UNL A   1      45.556  26.719  30.411  1.00  0.00     0.074 A 
ATOM     55  C   UNL A   1      46.059  25.414  30.036  1.00  0.00     0.031 C 
ATOM     56  C   UNL A   1      46.262  27.634  31.121  1.00  0.00     0.031 A 
BRANCH  43  57
ATOM     57  C   UNL A   1      43.187  32.882  32.214  1.00  0.00    -0.014 A 
ATOM     58  C   UNL A   1      43.228  34.031  31.404  1.00  0.00     0.010 A 
ATOM     59  C   UNL A   1      43.122  33.033  33.611  1.00  0.00     0.010 A 
ATOM     60  C   UNL A   1      43.253  35.304  31.980  1.00  0.00     0.020 A 
ATOM     61  C   UNL A   1      43.119  34.306  34.191  1.00  0.00     0.020 A 
ATOM     62  C   UNL A   1      43.205  35.433  33.371  1.00  0.00     0.054 A 
BRANCH  62  63
ATOM     63  S   UNL A   1      43.228  37.096  34.097  1.00  0.00     0.124 S 
ATOM     64  O   UNL A   1      41.880  37.194  34.660  1.00  0.00    -0.237 OA
ATOM     65  O   UNL A   1      44.308  37.003  35.080  1.00  0.00    -0.237 OA
ATOM     66  O   UNL A   1      43.495  37.968  32.964  1.00  0.00    -0.744 OA
ENDBRANCH  62  63
ENDBRANCH  43  57
BRANCH  44  67
ATOM     67  C   UNL A   1      42.729  23.875  27.953  1.00  0.00    -0.014 A 
ATOM     68  C   UNL A   1      42.314  22.758  28.700  1.00  0.00     0.010 A 
ATOM     69  C   UNL A   1      43.057  23.709  26.595  1.00  0.00     0.010 A 
ATOM     70  C   UNL A   1      42.236  21.496  28.103  1.00  0.00     0.020 A 
ATOM     71  C   UNL A   1      42.958  22.454  25.989  1.00  0.00     0.020 A 
ATOM     72  C   UNL A   1      42.555  21.353  26.749  1.00  0.00     0.054 A 
BRANCH  72  73
ATOM     73  S   UNL A   1      42.379  19.720  25.976  1.00  0.00     0.124 S 
ATOM     74  O   UNL A   1      40.985  19.738  25.544  1.00  0.00    -0.237 OA
ATOM     75  O   UNL A   1      43.374  19.766  24.907  1.00  0.00    -0.237 OA
ATOM     76  O   UNL A   1      42.687  18.794  27.062  1.00  0.00    -0.744 OA
ENDBRANCH  72  73
ENDBRANCH  44  67
BRANCH  56  77
ATOM     77  C   UNL A   1      47.646  27.246  31.567  1.00  0.00    -0.014 A 
ATOM     78  C   UNL A   1      47.854  26.555  32.773  1.00  0.00     0.010 A 
ATOM     79  C   UNL A   1      48.746  27.527  30.737  1.00  0.00     0.010 A 
ATOM     80  C   UNL A   1      49.143  26.175  33.155  1.00  0.00     0.020 A 
ATOM     81  C   UNL A   1      50.034  27.129  31.105  1.00  0.00     0.020 A 
ATOM     82  C   UNL A   1      50.226  26.467  32.320  1.00  0.00     0.054 A 
BRANCH  82  83
ATOM     83  S   UNL A   1      51.884  25.923  32.814  1.00  0.00     0.124 S 
ATOM     84  O   UNL A   1      52.203  24.942  31.779  1.00  0.00    -0.237 OA
ATOM     85  O   UNL A   1      52.658  27.160  32.764  1.00  0.00    -0.237 OA
ATOM     86  O   UNL A   1      51.684  25.374  34.152  1.00  0.00    -0.744 OA
ENDBRANCH  82  83
ENDBRANCH  56  77
ENDBRANCH  30  31
ENDBRANCH  22  25
ENDBRANCH  20  21
ENDBRANCH  19  20
ENDBRANCH   1  19
TORSDOF 19
ENDMDL
MODEL 3
REMARK VINA RESULT:      -9.3      2.607      9.309
REMARK SMILES CCCCCO[C@H](C(=O)NCCCNC(=O)c1ccc(-c2c3nc(c(-c4ccc(S(=O)(=O)[O-])cc4)c4ccc([nH]4)c(-c4ccc(S(=O)(=O)[O-])cc4)c4nc(c(-c5ccc(S(=O)(=O)[O-])cc5)c5ccc2[nH]5)C=C4)C=C3)cc1)c1ccccc1
REMARK SMILES IDX 11 1 10 2 8 3 9 4 7 6 6 7 5 8 4 9 3 10 2 11 1 12 77 13 78 14
REMARK SMILES IDX 82 15 79 16 81 17 80 18 12 19 13 20 14 21 15 22 16 24 17 25
REMARK SMILES IDX 18 26 76 27 19 28 75 29 20 30 21 31 22 32 69 33 23 34 74 35
REMARK SMILES IDX 68 36 70 37 24 38 73 39 67 40 66 41 25 43 55 44 36 45 54 46
REMARK SMILES IDX 37 47 40 48 53 49 71 50 38 51 39 52 52 54 72 55 41 56 26 57
REMARK SMILES IDX 27 58 35 59 28 60 34 61 29 62 30 63 31 64 32 65 33 66 56 67
REMARK SMILES IDX 57 68 65 69 58 70 64 71 59 72 60 73 61 74 62 75 63 76 42 77
REMARK SMILES IDX 43 78 51 79 44 80 50 81 45 82 46 83 47 84 48 85 49 86
REMARK H PARENT 10 5 14 23 70 42 40 53
REMARK Flexibility Score: inf
ROOT
ATOM      1  C   UNL A   1      31.898  27.974  26.834  1.00  0.00     0.117 C 
ENDROOT
BRANCH   1   2
ATOM      2  N   UNL A   1      31.144  26.728  26.832  1.00  0.00    -0.353 N 
ATOM      3  C   UNL A   1      30.374  26.126  25.874  1.00  0.00     0.253 C 
ATOM      4  O   UNL A   1      29.541  25.331  26.325  1.00  0.00    -0.272 OA
ATOM      5  H   UNL A   1      31.198  26.226  27.677  1.00  0.00     0.163 HD
BRANCH   3   6
ATOM      6  C   UNL A   1      30.610  26.346  24.334  1.00  0.00     0.237 C 
BRANCH   6   7
ATOM      7  O   UNL A   1      30.639  25.158  23.510  1.00  0.00    -0.364 OA
BRANCH   7   8
ATOM      8  C   UNL A   1      30.874  23.883  24.115  1.00  0.00     0.162 C 
BRANCH   8   9
ATOM      9  C   UNL A   1      32.314  23.355  24.061  1.00  0.00     0.028 C 
BRANCH   9  10
ATOM     10  C   UNL A   1      33.375  24.453  24.239  1.00  0.00     0.002 C 
BRANCH  10  11
ATOM     11  C   UNL A   1      34.139  24.401  25.564  1.00  0.00    -0.003 C 
ATOM     12  C   UNL A   1      35.642  24.253  25.383  1.00  0.00     0.004 C 
ENDBRANCH  10  11
ENDBRANCH   9  10
ENDBRANCH   8   9
ENDBRANCH   7   8
ENDBRANCH   6   7
BRANCH   6  13
ATOM     13  C   UNL A   1      29.757  27.421  23.649  1.00  0.00    -0.010 A 
ATOM     14  C   UNL A   1      28.354  27.312  23.637  1.00  0.00     0.007 A 
ATOM     15  C   UNL A   1      30.306  28.521  22.989  1.00  0.00     0.007 A 
ATOM     16  C   UNL A   1      27.546  28.318  23.099  1.00  0.00     0.000 A 
ATOM     17  C   UNL A   1      29.508  29.491  22.375  1.00  0.00     0.000 A 
ATOM     18  C   UNL A   1      28.125  29.408  22.462  1.00  0.00     0.000 A 
ENDBRANCH   6  13
ENDBRANCH   3   6
ENDBRANCH   1   2
BRANCH   1  19
ATOM     19  C   UNL A   1      33.304  27.764  26.246  1.00  0.00     0.042 C 
BRANCH  19  20
ATOM     20  C   UNL A   1      33.982  29.039  25.747  1.00  0.00     0.118 C 
BRANCH  20  21
ATOM     21  N   UNL A   1      33.805  30.152  26.658  1.00  0.00    -0.352 N 
ATOM     22  C   UNL A   1      34.574  30.602  27.703  1.00  0.00     0.251 C 
ATOM     23  H   UNL A   1      32.988  30.679  26.499  1.00  0.00     0.163 HD
ATOM     24  O   UNL A   1      34.084  31.444  28.456  1.00  0.00    -0.269 OA
BRANCH  22  25
ATOM     25  C   UNL A   1      35.948  30.099  27.973  1.00  0.00     0.039 A 
ATOM     26  C   UNL A   1      36.224  29.598  29.253  1.00  0.00     0.014 A 
ATOM     27  C   UNL A   1      36.997  30.207  27.057  1.00  0.00     0.014 A 
ATOM     28  C   UNL A   1      37.519  29.189  29.597  1.00  0.00     0.010 A 
ATOM     29  C   UNL A   1      38.270  29.717  27.370  1.00  0.00     0.010 A 
ATOM     30  C   UNL A   1      38.555  29.226  28.652  1.00  0.00    -0.014 A 
BRANCH  30  31
ATOM     31  C   UNL A   1      39.945  28.817  29.007  1.00  0.00     0.031 A 
ATOM     32  C   UNL A   1      40.863  29.774  29.733  1.00  0.00     0.074 A 
ATOM     33  C   UNL A   1      40.405  27.598  28.659  1.00  0.00     0.049 A 
ATOM     34  N   UNL A   1      42.120  29.622  30.068  1.00  0.00    -0.248 NA
ATOM     35  C   UNL A   1      40.299  31.080  30.109  1.00  0.00     0.031 C 
ATOM     36  C   UNL A   1      39.641  26.577  27.938  1.00  0.00     0.029 A 
ATOM     37  N   UNL A   1      41.629  27.008  28.865  1.00  0.00    -0.354 N 
ATOM     38  C   UNL A   1      42.501  30.818  30.667  1.00  0.00     0.074 A 
ATOM     39  C   UNL A   1      41.357  31.700  30.610  1.00  0.00     0.031 C 
ATOM     40  C   UNL A   1      40.400  25.478  27.794  1.00  0.00     0.029 A 
ATOM     41  C   UNL A   1      41.716  25.727  28.373  1.00  0.00     0.049 A 
ATOM     42  H   UNL A   1      42.373  27.461  29.323  1.00  0.00     0.167 HD
ATOM     43  C   UNL A   1      43.687  31.150  31.236  1.00  0.00     0.031 A 
ATOM     44  C   UNL A   1      42.739  24.848  28.382  1.00  0.00     0.031 A 
ATOM     45  C   UNL A   1      44.820  30.267  31.325  1.00  0.00     0.049 A 
ATOM     46  C   UNL A   1      44.044  25.234  29.023  1.00  0.00     0.074 A 
ATOM     47  C   UNL A   1      46.049  30.501  31.919  1.00  0.00     0.029 A 
ATOM     48  N   UNL A   1      44.859  28.978  30.819  1.00  0.00    -0.354 N 
ATOM     49  N   UNL A   1      44.373  26.363  29.604  1.00  0.00    -0.248 NA
ATOM     50  C   UNL A   1      45.111  24.223  29.018  1.00  0.00     0.031 C 
ATOM     51  C   UNL A   1      46.843  29.363  31.743  1.00  0.00     0.029 A 
ATOM     52  C   UNL A   1      46.094  28.406  31.080  1.00  0.00     0.049 A 
ATOM     53  H   UNL A   1      44.119  28.534  30.346  1.00  0.00     0.167 HD
ATOM     54  C   UNL A   1      45.678  26.189  30.053  1.00  0.00     0.074 A 
ATOM     55  C   UNL A   1      46.073  24.845  29.687  1.00  0.00     0.031 C 
ATOM     56  C   UNL A   1      46.475  27.067  30.711  1.00  0.00     0.031 A 
BRANCH  43  57
ATOM     57  C   UNL A   1      43.816  32.537  31.811  1.00  0.00    -0.014 A 
ATOM     58  C   UNL A   1      43.451  32.805  33.142  1.00  0.00     0.010 A 
ATOM     59  C   UNL A   1      44.335  33.579  31.021  1.00  0.00     0.010 A 
ATOM     60  C   UNL A   1      43.557  34.099  33.659  1.00  0.00     0.020 A 
ATOM     61  C   UNL A   1      44.469  34.869  31.543  1.00  0.00     0.020 A 
ATOM     62  C   UNL A   1      44.060  35.125  32.853  1.00  0.00     0.054 A 
BRANCH  62  63
ATOM     63  S   UNL A   1      44.199  36.795  33.549  1.00  0.00     0.124 S 
ATOM     64  O   UNL A   1      45.623  36.860  33.885  1.00  0.00    -0.237 OA
ATOM     65  O   UNL A   1      43.784  37.644  32.432  1.00  0.00    -0.237 OA
ATOM     66  O   UNL A   1      43.292  36.777  34.685  1.00  0.00    -0.744 OA
ENDBRANCH  62  63
ENDBRANCH  43  57
BRANCH  44  67
ATOM     67  C   UNL A   1      42.557  23.498  27.784  1.00  0.00    -0.014 A 
ATOM     68  C   UNL A   1      43.002  23.236  26.476  1.00  0.00     0.010 A 
ATOM     69  C   UNL A   1      41.963  22.461  28.527  1.00  0.00     0.010 A 
ATOM     70  C   UNL A   1      42.850  21.963  25.918  1.00  0.00     0.020 A 
ATOM     71  C   UNL A   1      41.831  21.182  27.981  1.00  0.00     0.020 A 
ATOM     72  C   UNL A   1      42.268  20.943  26.676  1.00  0.00     0.054 A 
BRANCH  72  73
ATOM     73  S   UNL A   1      42.146  19.280  25.959  1.00  0.00     0.124 S 
ATOM     74  O   UNL A   1      40.711  19.158  25.719  1.00  0.00    -0.237 OA
ATOM     75  O   UNL A   1      42.982  19.386  24.766  1.00  0.00    -0.237 OA
ATOM     76  O   UNL A   1      42.682  18.417  27.009  1.00  0.00    -0.744 OA
ENDBRANCH  72  73
ENDBRANCH  44  67
BRANCH  56  77
ATOM     77  C   UNL A   1      47.847  26.593  31.107  1.00  0.00    -0.014 A 
ATOM     78  C   UNL A   1      48.955  26.795  30.266  1.00  0.00     0.010 A 
ATOM     79  C   UNL A   1      48.037  25.992  32.364  1.00  0.00     0.010 A 
ATOM     80  C   UNL A   1      50.228  26.377  30.665  1.00  0.00     0.020 A 
ATOM     81  C   UNL A   1      49.312  25.593  32.774  1.00  0.00     0.020 A 
ATOM     82  C   UNL A   1      50.398  25.776  31.916  1.00  0.00     0.054 A 
BRANCH  82  83
ATOM     83  S   UNL A   1      52.066  25.285  32.432  1.00  0.00     0.124 S 
ATOM     84  O   UNL A   1      51.931  23.835  32.556  1.00  0.00    -0.237 OA
ATOM     85  O   UNL A   1      52.896  25.745  31.322  1.00  0.00    -0.237 OA
ATOM     86  O   UNL A   1      52.264  26.002  33.689  1.00  0.00    -0.744 OA
ENDBRANCH  82  83
ENDBRANCH  56  77
ENDBRANCH  30  31
ENDBRANCH  22  25
ENDBRANCH  20  21
ENDBRANCH  19  20
ENDBRANCH   1  19
TORSDOF 19
ENDMDL
