MODEL 1
REMARK VINA RESULT:     -12.4      0.000      0.000
REMARK SMILES O=C(NCCCNC(=O)c1ccc(S(=O)(=O)NC[C@H]2CCS(=O)(=O)C2)cc1)c1ccc(-c2c3nc(c(-c4ccc(S(=O)(=O)[O-])cc4)c4ccc([nH]4)c(-c4ccc(S(=O)(=O)[O-])cc4)c4nc(c(-c5ccc(S(=O)(=O)[O-])cc5)c5ccc2[nH]5)C=C4)C=C3)cc1
REMARK SMILES IDX 5 1 4 2 3 3 1 4 2 5 28 7 29 8 87 9 30 10 86 11 31 12 32 13
REMARK SMILES IDX 33 14 80 15 34 16 85 17 79 18 81 19 35 20 84 21 78 22 77 23
REMARK SMILES IDX 36 25 66 26 47 27 65 28 48 29 51 30 64 31 82 32 49 33 50 34
REMARK SMILES IDX 63 36 83 37 52 38 37 39 38 40 46 41 39 42 45 43 40 44 41 45
REMARK SMILES IDX 42 46 43 47 44 48 67 49 68 50 76 51 69 52 75 53 70 54 71 55
REMARK SMILES IDX 72 56 73 57 74 58 53 59 54 60 62 61 55 62 61 63 56 64 57 65
REMARK SMILES IDX 58 66 59 67 60 68 6 69 7 70 8 71 9 73 10 74 11 75 27 76
REMARK SMILES IDX 12 77 26 78 13 79 14 80 15 81 16 82 17 83 18 85 19 86 20 87
REMARK SMILES IDX 25 88 21 89 22 90 23 91 24 92
REMARK H PARENT 3 6 81 24 51 35 7 72 17 84
REMARK Flexibility Score: inf
ROOT
ATOM      1  C   UNL A   1      37.577  24.103  25.948  1.00  0.00     0.042 C 
ENDROOT
BRANCH   1   2
ATOM      2  C   UNL A   1      38.872  23.950  26.718  1.00  0.00     0.118 C 
BRANCH   2   3
ATOM      3  N   UNL A   1      40.036  24.386  25.952  1.00  0.00    -0.352 N 
ATOM      4  O   UNL A   1      41.635  25.787  25.213  1.00  0.00    -0.269 OA
ATOM      5  C   UNL A   1      40.819  25.509  26.087  1.00  0.00     0.251 C 
ATOM      6  H   UNL A   1      40.302  23.780  25.223  1.00  0.00     0.163 HD
BRANCH   5   7
ATOM      7  C   UNL A   1      40.657  26.384  27.267  1.00  0.00     0.039 A 
ATOM      8  C   UNL A   1      41.348  27.591  27.347  1.00  0.00     0.014 A 
ATOM      9  C   UNL A   1      39.803  25.999  28.305  1.00  0.00     0.014 A 
ATOM     10  C   UNL A   1      41.350  28.308  28.532  1.00  0.00     0.010 A 
ATOM     11  C   UNL A   1      39.697  26.800  29.448  1.00  0.00     0.010 A 
ATOM     12  C   UNL A   1      40.496  27.946  29.584  1.00  0.00    -0.014 A 
BRANCH  12  13
ATOM     13  C   UNL A   1      40.394  28.851  30.757  1.00  0.00     0.031 A 
ATOM     14  C   UNL A   1      41.325  28.729  31.930  1.00  0.00     0.074 A 
ATOM     15  C   UNL A   1      39.469  29.831  30.719  1.00  0.00     0.049 A 
ATOM     16  N   UNL A   1      41.385  29.473  33.005  1.00  0.00    -0.248 NA
ATOM     17  C   UNL A   1      42.309  27.634  31.906  1.00  0.00     0.031 C 
ATOM     18  C   UNL A   1      38.507  30.042  29.629  1.00  0.00     0.029 A 
ATOM     19  N   UNL A   1      39.198  30.849  31.594  1.00  0.00    -0.354 N 
ATOM     20  C   UNL A   1      42.395  28.931  33.792  1.00  0.00     0.074 A 
ATOM     21  C   UNL A   1      42.906  27.778  33.082  1.00  0.00     0.031 C 
ATOM     22  C   UNL A   1      37.804  31.155  29.869  1.00  0.00     0.029 A 
ATOM     23  C   UNL A   1      38.196  31.689  31.166  1.00  0.00     0.049 A 
ATOM     24  H   UNL A   1      39.674  30.970  32.447  1.00  0.00     0.167 HD
ATOM     25  C   UNL A   1      42.854  29.362  34.992  1.00  0.00     0.031 A 
ATOM     26  C   UNL A   1      37.631  32.757  31.757  1.00  0.00     0.031 A 
ATOM     27  C   UNL A   1      42.333  30.510  35.690  1.00  0.00     0.049 A 
ATOM     28  C   UNL A   1      38.132  33.180  33.106  1.00  0.00     0.074 A 
ATOM     29  C   UNL A   1      42.746  31.041  36.902  1.00  0.00     0.029 A 
ATOM     30  N   UNL A   1      41.284  31.304  35.248  1.00  0.00    -0.354 N 
ATOM     31  N   UNL A   1      39.109  32.671  33.817  1.00  0.00    -0.248 NA
ATOM     32  C   UNL A   1      37.454  34.320  33.732  1.00  0.00     0.031 C 
ATOM     33  C   UNL A   1      41.909  32.114  37.220  1.00  0.00     0.029 A 
ATOM     34  C   UNL A   1      41.018  32.299  36.175  1.00  0.00     0.049 A 
ATOM     35  H   UNL A   1      40.801  31.178  34.400  1.00  0.00     0.167 HD
ATOM     36  C   UNL A   1      39.175  33.442  34.970  1.00  0.00     0.074 A 
ATOM     37  C   UNL A   1      38.159  34.468  34.845  1.00  0.00     0.031 C 
ATOM     38  C   UNL A   1      39.998  33.308  36.040  1.00  0.00     0.031 A 
BRANCH  25  39
ATOM     39  C   UNL A   1      43.962  28.576  35.649  1.00  0.00    -0.014 A 
ATOM     40  C   UNL A   1      43.682  27.494  36.500  1.00  0.00     0.010 A 
ATOM     41  C   UNL A   1      45.304  28.878  35.346  1.00  0.00     0.010 A 
ATOM     42  C   UNL A   1      44.723  26.744  37.059  1.00  0.00     0.020 A 
ATOM     43  C   UNL A   1      46.346  28.114  35.880  1.00  0.00     0.020 A 
ATOM     44  C   UNL A   1      46.049  27.058  36.743  1.00  0.00     0.054 A 
BRANCH  44  45
ATOM     45  S   UNL A   1      47.376  26.043  37.451  1.00  0.00     0.124 S 
ATOM     46  O   UNL A   1      47.743  25.197  36.317  1.00  0.00    -0.237 OA
ATOM     47  O   UNL A   1      48.371  27.042  37.835  1.00  0.00    -0.237 OA
ATOM     48  O   UNL A   1      46.731  25.350  38.561  1.00  0.00    -0.744 OA
ENDBRANCH  44  45
ENDBRANCH  25  39
BRANCH  26  49
ATOM     49  C   UNL A   1      36.507  33.467  31.090  1.00  0.00    -0.014 A 
ATOM     50  C   UNL A   1      36.650  33.986  29.792  1.00  0.00     0.010 A 
ATOM     51  C   UNL A   1      35.276  33.621  31.757  1.00  0.00     0.010 A 
ATOM     52  C   UNL A   1      35.593  34.672  29.187  1.00  0.00     0.020 A 
ATOM     53  C   UNL A   1      34.207  34.273  31.141  1.00  0.00     0.020 A 
ATOM     54  C   UNL A   1      34.378  34.810  29.865  1.00  0.00     0.054 A 
BRANCH  54  55
ATOM     55  S   UNL A   1      33.012  35.680  29.050  1.00  0.00     0.124 S 
ATOM     56  O   UNL A   1      33.718  36.714  28.299  1.00  0.00    -0.237 OA
ATOM     57  O   UNL A   1      32.399  34.622  28.250  1.00  0.00    -0.237 OA
ATOM     58  O   UNL A   1      32.198  36.159  30.164  1.00  0.00    -0.744 OA
ENDBRANCH  54  55
ENDBRANCH  26  49
BRANCH  38  59
ATOM     59  C   UNL A   1      39.848  34.319  37.146  1.00  0.00    -0.014 A 
ATOM     60  C   UNL A   1      40.514  35.556  37.097  1.00  0.00     0.010 A 
ATOM     61  C   UNL A   1      39.009  34.033  38.237  1.00  0.00     0.010 A 
ATOM     62  C   UNL A   1      40.378  36.472  38.144  1.00  0.00     0.020 A 
ATOM     63  C   UNL A   1      38.843  34.961  39.268  1.00  0.00     0.020 A 
ATOM     64  C   UNL A   1      39.543  36.167  39.223  1.00  0.00     0.054 A 
BRANCH  64  65
ATOM     65  S   UNL A   1      39.360  37.385  40.553  1.00  0.00     0.124 S 
ATOM     66  O   UNL A   1      38.256  38.207  40.064  1.00  0.00    -0.237 OA
ATOM     67  O   UNL A   1      39.057  36.550  41.712  1.00  0.00    -0.237 OA
ATOM     68  O   UNL A   1      40.661  38.051  40.595  1.00  0.00    -0.744 OA
ENDBRANCH  64  65
ENDBRANCH  38  59
ENDBRANCH  12  13
ENDBRANCH   5   7
ENDBRANCH   2   3
ENDBRANCH   1   2
BRANCH   1  69
ATOM     69  C   UNL A   1      36.935  22.778  25.596  1.00  0.00     0.118 C 
BRANCH  69  70
ATOM     70  N   UNL A   1      35.879  22.381  26.524  1.00  0.00    -0.352 N 
ATOM     71  C   UNL A   1      34.554  22.747  26.562  1.00  0.00     0.251 C 
ATOM     72  H   UNL A   1      36.159  21.755  27.232  1.00  0.00     0.163 HD
ATOM     73  O   UNL A   1      33.836  22.408  27.496  1.00  0.00    -0.269 OA
BRANCH  71  74
ATOM     74  C   UNL A   1      34.006  23.587  25.477  1.00  0.00     0.039 A 
ATOM     75  C   UNL A   1      34.015  24.977  25.616  1.00  0.00     0.015 A 
ATOM     76  C   UNL A   1      33.579  22.999  24.284  1.00  0.00     0.015 A 
ATOM     77  C   UNL A   1      33.689  25.777  24.518  1.00  0.00     0.022 A 
ATOM     78  C   UNL A   1      33.389  23.790  23.157  1.00  0.00     0.022 A 
ATOM     79  C   UNL A   1      33.413  25.177  23.281  1.00  0.00     0.082 A 
BRANCH  79  80
ATOM     80  S   UNL A   1      33.161  26.207  21.860  1.00  0.00     0.240 S 
ATOM     81  O   UNL A   1      34.007  27.370  22.006  1.00  0.00    -0.207 OA
ATOM     82  O   UNL A   1      33.268  25.345  20.706  1.00  0.00    -0.207 OA
BRANCH  80  83
ATOM     83  N   UNL A   1      31.557  26.743  21.844  1.00  0.00    -0.211 NA
ATOM     84  H   UNL A   1      31.002  25.911  21.647  1.00  0.00     0.141 HD
BRANCH  83  85
ATOM     85  C   UNL A   1      30.851  27.422  22.934  1.00  0.00     0.103 C 
BRANCH  85  86
ATOM     86  C   UNL A   1      29.603  28.207  22.573  1.00  0.00     0.020 C 
ATOM     87  C   UNL A   1      28.363  27.969  23.433  1.00  0.00     0.022 C 
ATOM     88  C   UNL A   1      29.825  29.717  22.574  1.00  0.00     0.142 C 
ATOM     89  C   UNL A   1      27.295  28.930  22.930  1.00  0.00     0.137 C 
ATOM     90  S   UNL A   1      28.181  30.403  22.435  1.00  0.00     0.150 S 
ATOM     91  O   UNL A   1      27.908  30.646  21.032  1.00  0.00    -0.229 OA
ATOM     92  O   UNL A   1      28.015  31.428  23.442  1.00  0.00    -0.229 OA
ENDBRANCH  85  86
ENDBRANCH  83  85
ENDBRANCH  80  83
ENDBRANCH  79  80
ENDBRANCH  71  74
ENDBRANCH  69  70
ENDBRANCH   1  69
TORSDOF 17
ENDMDL
MODEL 2
REMARK VINA RESULT:     -12.1      4.721      9.828
REMARK SMILES O=C(NCCCNC(=O)c1ccc(S(=O)(=O)NC[C@H]2CCS(=O)(=O)C2)cc1)c1ccc(-c2c3nc(c(-c4ccc(S(=O)(=O)[O-])cc4)c4ccc([nH]4)c(-c4ccc(S(=O)(=O)[O-])cc4)c4nc(c(-c5ccc(S(=O)(=O)[O-])cc5)c5ccc2[nH]5)C=C4)C=C3)cc1
REMARK SMILES IDX 5 1 4 2 3 3 1 4 2 5 28 7 29 8 87 9 30 10 86 11 31 12 32 13
REMARK SMILES IDX 33 14 80 15 34 16 85 17 79 18 81 19 35 20 84 21 78 22 77 23
REMARK SMILES IDX 36 25 66 26 47 27 65 28 48 29 51 30 64 31 82 32 49 33 50 34
REMARK SMILES IDX 63 36 83 37 52 38 37 39 38 40 46 41 39 42 45 43 40 44 41 45
REMARK SMILES IDX 42 46 43 47 44 48 67 49 68 50 76 51 69 52 75 53 70 54 71 55
REMARK SMILES IDX 72 56 73 57 74 58 53 59 54 60 62 61 55 62 61 63 56 64 57 65
REMARK SMILES IDX 58 66 59 67 60 68 6 69 7 70 8 71 9 73 10 74 11 75 27 76
REMARK SMILES IDX 12 77 26 78 13 79 14 80 15 81 16 82 17 83 18 85 19 86 20 87
REMARK SMILES IDX 25 88 21 89 22 90 23 91 24 92
REMARK H PARENT 3 6 81 24 51 35 7 72 17 84
REMARK Flexibility Score: inf
ROOT
ATOM      1  C   UNL A   1      33.604  28.009  24.947  1.00  0.00     0.042 C 
ENDROOT
BRANCH   1   2
ATOM      2  C   UNL A   1      34.241  28.245  26.300  1.00  0.00     0.118 C 
BRANCH   2   3
ATOM      3  N   UNL A   1      33.837  29.514  26.897  1.00  0.00    -0.352 N 
ATOM      4  O   UNL A   1      33.879  31.243  28.339  1.00  0.00    -0.269 OA
ATOM      5  C   UNL A   1      34.481  30.308  27.817  1.00  0.00     0.251 C 
ATOM      6  H   UNL A   1      32.965  29.856  26.593  1.00  0.00     0.163 HD
BRANCH   5   7
ATOM      7  C   UNL A   1      35.882  30.018  28.190  1.00  0.00     0.039 A 
ATOM      8  C   UNL A   1      36.913  30.256  27.284  1.00  0.00     0.014 A 
ATOM      9  C   UNL A   1      36.173  29.507  29.458  1.00  0.00     0.014 A 
ATOM     10  C   UNL A   1      38.192  29.801  27.558  1.00  0.00     0.010 A 
ATOM     11  C   UNL A   1      37.492  29.177  29.787  1.00  0.00     0.010 A 
ATOM     12  C   UNL A   1      38.509  29.291  28.826  1.00  0.00    -0.014 A 
BRANCH  12  13
ATOM     13  C   UNL A   1      39.930  28.993  29.134  1.00  0.00     0.031 A 
ATOM     14  C   UNL A   1      40.556  27.675  28.775  1.00  0.00     0.074 A 
ATOM     15  C   UNL A   1      40.670  29.966  29.705  1.00  0.00     0.049 A 
ATOM     16  N   UNL A   1      41.794  27.287  28.941  1.00  0.00    -0.248 NA
ATOM     17  C   UNL A   1      39.689  26.658  28.158  1.00  0.00     0.031 C 
ATOM     18  C   UNL A   1      40.164  31.287  30.102  1.00  0.00     0.029 A 
ATOM     19  N   UNL A   1      42.001  30.017  30.025  1.00  0.00    -0.354 N 
ATOM     20  C   UNL A   1      41.855  25.981  28.469  1.00  0.00     0.074 A 
ATOM     21  C   UNL A   1      40.520  25.632  28.031  1.00  0.00     0.031 C 
ATOM     22  C   UNL A   1      41.182  32.035  30.545  1.00  0.00     0.029 A 
ATOM     23  C   UNL A   1      42.393  31.226  30.551  1.00  0.00     0.049 A 
ATOM     24  H   UNL A   1      42.618  29.262  29.890  1.00  0.00     0.167 HD
ATOM     25  C   UNL A   1      42.927  25.155  28.404  1.00  0.00     0.031 A 
ATOM     26  C   UNL A   1      43.587  31.637  31.014  1.00  0.00     0.031 A 
ATOM     27  C   UNL A   1      44.250  25.514  28.849  1.00  0.00     0.049 A 
ATOM     28  C   UNL A   1      44.743  30.682  30.969  1.00  0.00     0.074 A 
ATOM     29  C   UNL A   1      45.408  24.754  28.804  1.00  0.00     0.029 A 
ATOM     30  N   UNL A   1      44.596  26.729  29.423  1.00  0.00    -0.354 N 
ATOM     31  N   UNL A   1      44.784  29.463  30.489  1.00  0.00    -0.248 NA
ATOM     32  C   UNL A   1      46.013  31.159  31.529  1.00  0.00     0.031 C 
ATOM     33  C   UNL A   1      46.436  25.485  29.406  1.00  0.00     0.029 A 
ATOM     34  C   UNL A   1      45.940  26.728  29.763  1.00  0.00     0.049 A 
ATOM     35  H   UNL A   1      43.978  27.480  29.567  1.00  0.00     0.167 HD
ATOM     36  C   UNL A   1      46.090  29.030  30.674  1.00  0.00     0.074 A 
ATOM     37  C   UNL A   1      46.812  30.131  31.281  1.00  0.00     0.031 C 
ATOM     38  C   UNL A   1      46.641  27.828  30.375  1.00  0.00     0.031 A 
BRANCH  25  39
ATOM     39  C   UNL A   1      42.717  23.765  27.856  1.00  0.00    -0.014 A 
ATOM     40  C   UNL A   1      42.369  22.694  28.697  1.00  0.00     0.010 A 
ATOM     41  C   UNL A   1      42.792  23.546  26.467  1.00  0.00     0.010 A 
ATOM     42  C   UNL A   1      42.127  21.424  28.163  1.00  0.00     0.020 A 
ATOM     43  C   UNL A   1      42.524  22.284  25.927  1.00  0.00     0.020 A 
ATOM     44  C   UNL A   1      42.204  21.228  26.781  1.00  0.00     0.054 A 
BRANCH  44  45
ATOM     45  S   UNL A   1      41.845  19.578  26.114  1.00  0.00     0.124 S 
ATOM     46  O   UNL A   1      42.738  19.521  24.959  1.00  0.00    -0.237 OA
ATOM     47  O   UNL A   1      42.202  18.700  27.226  1.00  0.00    -0.237 OA
ATOM     48  O   UNL A   1      40.421  19.632  25.798  1.00  0.00    -0.744 OA
ENDBRANCH  44  45
ENDBRANCH  25  39
BRANCH  26  49
ATOM     49  C   UNL A   1      43.730  33.001  31.592  1.00  0.00    -0.014 A 
ATOM     50  C   UNL A   1      44.112  34.088  30.789  1.00  0.00     0.010 A 
ATOM     51  C   UNL A   1      43.476  33.216  32.960  1.00  0.00     0.010 A 
ATOM     52  C   UNL A   1      44.265  35.359  31.350  1.00  0.00     0.020 A 
ATOM     53  C   UNL A   1      43.592  34.491  33.516  1.00  0.00     0.020 A 
ATOM     54  C   UNL A   1      44.003  35.552  32.710  1.00  0.00     0.054 A 
BRANCH  54  55
ATOM     55  S   UNL A   1      44.183  37.215  33.410  1.00  0.00     0.124 S 
ATOM     56  O   UNL A   1      45.488  37.131  34.056  1.00  0.00    -0.237 OA
ATOM     57  O   UNL A   1      44.115  38.065  32.224  1.00  0.00    -0.237 OA
ATOM     58  O   UNL A   1      43.041  37.330  34.315  1.00  0.00    -0.744 OA
ENDBRANCH  54  55
ENDBRANCH  26  49
BRANCH  38  59
ATOM     59  C   UNL A   1      48.107  27.656  30.674  1.00  0.00    -0.014 A 
ATOM     60  C   UNL A   1      48.544  27.149  31.910  1.00  0.00     0.010 A 
ATOM     61  C   UNL A   1      49.058  27.988  29.693  1.00  0.00     0.010 A 
ATOM     62  C   UNL A   1      49.910  27.016  32.176  1.00  0.00     0.020 A 
ATOM     63  C   UNL A   1      50.423  27.824  29.942  1.00  0.00     0.020 A 
ATOM     64  C   UNL A   1      50.840  27.356  31.189  1.00  0.00     0.054 A 
BRANCH  64  65
ATOM     65  S   UNL A   1      52.605  27.148  31.549  1.00  0.00     0.124 S 
ATOM     66  O   UNL A   1      52.578  26.613  32.907  1.00  0.00    -0.237 OA
ATOM     67  O   UNL A   1      53.034  26.211  30.512  1.00  0.00    -0.237 OA
ATOM     68  O   UNL A   1      53.147  28.499  31.422  1.00  0.00    -0.744 OA
ENDBRANCH  64  65
ENDBRANCH  38  59
ENDBRANCH  12  13
ENDBRANCH   5   7
ENDBRANCH   2   3
ENDBRANCH   1   2
BRANCH   1  69
ATOM     69  C   UNL A   1      32.284  28.730  24.777  1.00  0.00     0.118 C 
BRANCH  69  70
ATOM     70  N   UNL A   1      31.707  28.577  23.444  1.00  0.00    -0.352 N 
ATOM     71  C   UNL A   1      31.040  27.510  22.888  1.00  0.00     0.251 C 
ATOM     72  H   UNL A   1      31.812  29.357  22.852  1.00  0.00     0.163 HD
ATOM     73  O   UNL A   1      30.731  27.511  21.702  1.00  0.00    -0.269 OA
BRANCH  71  74
ATOM     74  C   UNL A   1      30.726  26.337  23.731  1.00  0.00     0.039 A 
ATOM     75  C   UNL A   1      31.221  25.082  23.370  1.00  0.00     0.015 A 
ATOM     76  C   UNL A   1      30.027  26.503  24.930  1.00  0.00     0.015 A 
ATOM     77  C   UNL A   1      31.100  24.015  24.263  1.00  0.00     0.022 A 
ATOM     78  C   UNL A   1      30.029  25.483  25.872  1.00  0.00     0.022 A 
ATOM     79  C   UNL A   1      30.535  24.231  25.528  1.00  0.00     0.082 A 
BRANCH  79  80
ATOM     80  S   UNL A   1      30.536  22.910  26.710  1.00  0.00     0.240 S 
ATOM     81  O   UNL A   1      29.436  23.133  27.620  1.00  0.00    -0.207 OA
ATOM     82  O   UNL A   1      30.643  21.684  25.953  1.00  0.00    -0.207 OA
BRANCH  80  83
ATOM     83  N   UNL A   1      31.966  22.979  27.613  1.00  0.00    -0.211 NA
ATOM     84  H   UNL A   1      31.703  22.668  28.548  1.00  0.00     0.141 HD
BRANCH  83  85
ATOM     85  C   UNL A   1      33.220  22.282  27.319  1.00  0.00     0.103 C 
BRANCH  85  86
ATOM     86  C   UNL A   1      34.038  22.787  26.145  1.00  0.00     0.020 C 
ATOM     87  C   UNL A   1      34.183  24.301  26.002  1.00  0.00     0.022 C 
ATOM     88  C   UNL A   1      35.460  22.231  26.122  1.00  0.00     0.142 C 
ATOM     89  C   UNL A   1      35.112  24.540  24.820  1.00  0.00     0.137 C 
ATOM     90  S   UNL A   1      36.288  23.193  24.866  1.00  0.00     0.150 S 
ATOM     91  O   UNL A   1      36.202  22.473  23.612  1.00  0.00    -0.229 OA
ATOM     92  O   UNL A   1      37.548  23.669  25.396  1.00  0.00    -0.229 OA
ENDBRANCH  85  86
ENDBRANCH  83  85
ENDBRANCH  80  83
ENDBRANCH  79  80
ENDBRANCH  71  74
ENDBRANCH  69  70
ENDBRANCH   1  69
TORSDOF 17
ENDMDL
MODEL 3
REMARK VINA RESULT:     -12.1      6.591     12.250
REMARK SMILES O=C(NCCCNC(=O)c1ccc(S(=O)(=O)NC[C@H]2CCS(=O)(=O)C2)cc1)c1ccc(-c2c3nc(c(-c4ccc(S(=O)(=O)[O-])cc4)c4ccc([nH]4)c(-c4ccc(S(=O)(=O)[O-])cc4)c4nc(c(-c5ccc(S(=O)(=O)[O-])cc5)c5ccc2[nH]5)C=C4)C=C3)cc1
REMARK SMILES IDX 5 1 4 2 3 3 1 4 2 5 28 7 29 8 87 9 30 10 86 11 31 12 32 13
REMARK SMILES IDX 33 14 80 15 34 16 85 17 79 18 81 19 35 20 84 21 78 22 77 23
REMARK SMILES IDX 36 25 66 26 47 27 65 28 48 29 51 30 64 31 82 32 49 33 50 34
REMARK SMILES IDX 63 36 83 37 52 38 37 39 38 40 46 41 39 42 45 43 40 44 41 45
REMARK SMILES IDX 42 46 43 47 44 48 67 49 68 50 76 51 69 52 75 53 70 54 71 55
REMARK SMILES IDX 72 56 73 57 74 58 53 59 54 60 62 61 55 62 61 63 56 64 57 65
REMARK SMILES IDX 58 66 59 67 60 68 6 69 7 70 8 71 9 73 10 74 11 75 27 76
REMARK SMILES IDX 12 77 26 78 13 79 14 80 15 81 16 82 17 83 18 85 19 86 20 87
REMARK SMILES IDX 25 88 21 89 22 90 23 91 24 92
REMARK H PARENT 3 6 81 24 51 35 7 72 17 84
REMARK Flexibility Score: inf
ROOT
ATOM      1  C   UNL A   1      34.771  31.035  27.659  1.00  0.00     0.042 C 
ENDROOT
BRANCH   1   2
ATOM      2  C   UNL A   1      35.515  29.890  28.314  1.00  0.00     0.118 C 
BRANCH   2   3
ATOM      3  N   UNL A   1      35.585  30.023  29.766  1.00  0.00    -0.352 N 
ATOM      4  O   UNL A   1      36.403  29.741  31.844  1.00  0.00    -0.269 OA
ATOM      5  C   UNL A   1      36.614  29.744  30.634  1.00  0.00     0.251 C 
ATOM      6  H   UNL A   1      34.766  30.367  30.190  1.00  0.00     0.163 HD
BRANCH   5   7
ATOM      7  C   UNL A   1      37.959  29.428  30.108  1.00  0.00     0.039 A 
ATOM      8  C   UNL A   1      38.913  28.832  30.930  1.00  0.00     0.014 A 
ATOM      9  C   UNL A   1      38.273  29.726  28.779  1.00  0.00     0.014 A 
ATOM     10  C   UNL A   1      40.224  28.720  30.498  1.00  0.00     0.010 A 
ATOM     11  C   UNL A   1      39.565  29.481  28.299  1.00  0.00     0.010 A 
ATOM     12  C   UNL A   1      40.560  29.006  29.166  1.00  0.00    -0.014 A 
BRANCH  12  13
ATOM     13  C   UNL A   1      41.935  28.691  28.701  1.00  0.00     0.031 A 
ATOM     14  C   UNL A   1      43.027  29.724  28.711  1.00  0.00     0.074 A 
ATOM     15  C   UNL A   1      42.196  27.426  28.313  1.00  0.00     0.049 A 
ATOM     16  N   UNL A   1      44.284  29.585  28.376  1.00  0.00    -0.248 NA
ATOM     17  C   UNL A   1      42.670  31.085  29.143  1.00  0.00     0.031 C 
ATOM     18  C   UNL A   1      41.209  26.340  28.259  1.00  0.00     0.029 A 
ATOM     19  N   UNL A   1      43.364  26.826  27.921  1.00  0.00    -0.354 N 
ATOM     20  C   UNL A   1      44.865  30.838  28.537  1.00  0.00     0.074 A 
ATOM     21  C   UNL A   1      43.816  31.733  28.978  1.00  0.00     0.031 C 
ATOM     22  C   UNL A   1      41.825  25.199  27.926  1.00  0.00     0.029 A 
ATOM     23  C   UNL A   1      43.227  25.484  27.654  1.00  0.00     0.049 A 
ATOM     24  H   UNL A   1      44.218  27.308  27.840  1.00  0.00     0.167 HD
ATOM     25  C   UNL A   1      46.156  31.203  28.340  1.00  0.00     0.031 A 
ATOM     26  C   UNL A   1      44.121  24.580  27.213  1.00  0.00     0.031 A 
ATOM     27  C   UNL A   1      47.190  30.302  27.897  1.00  0.00     0.049 A 
ATOM     28  C   UNL A   1      45.531  25.027  26.962  1.00  0.00     0.074 A 
ATOM     29  C   UNL A   1      48.533  30.571  27.689  1.00  0.00     0.029 A 
ATOM     30  N   UNL A   1      47.001  28.963  27.587  1.00  0.00    -0.354 N 
ATOM     31  N   UNL A   1      46.064  26.210  27.152  1.00  0.00    -0.248 NA
ATOM     32  C   UNL A   1      46.458  24.018  26.437  1.00  0.00     0.031 C 
ATOM     33  C   UNL A   1      49.141  29.413  27.196  1.00  0.00     0.029 A 
ATOM     34  C   UNL A   1      48.195  28.401  27.163  1.00  0.00     0.049 A 
ATOM     35  H   UNL A   1      46.146  28.482  27.659  1.00  0.00     0.167 HD
ATOM     36  C   UNL A   1      47.397  26.083  26.784  1.00  0.00     0.074 A 
ATOM     37  C   UNL A   1      47.592  24.701  26.391  1.00  0.00     0.031 C 
ATOM     38  C   UNL A   1      48.371  27.027  26.767  1.00  0.00     0.031 A 
BRANCH  25  39
ATOM     39  C   UNL A   1      46.526  32.646  28.576  1.00  0.00    -0.014 A 
ATOM     40  C   UNL A   1      46.215  33.642  27.634  1.00  0.00     0.010 A 
ATOM     41  C   UNL A   1      47.125  33.021  29.793  1.00  0.00     0.010 A 
ATOM     42  C   UNL A   1      46.520  34.982  27.893  1.00  0.00     0.020 A 
ATOM     43  C   UNL A   1      47.407  34.363  30.068  1.00  0.00     0.020 A 
ATOM     44  C   UNL A   1      47.112  35.334  29.110  1.00  0.00     0.054 A 
BRANCH  44  45
ATOM     45  S   UNL A   1      47.459  37.086  29.435  1.00  0.00     0.124 S 
ATOM     46  O   UNL A   1      48.498  37.001  30.459  1.00  0.00    -0.237 OA
ATOM     47  O   UNL A   1      47.904  37.570  28.130  1.00  0.00    -0.237 OA
ATOM     48  O   UNL A   1      46.178  37.616  29.891  1.00  0.00    -0.744 OA
ENDBRANCH  44  45
ENDBRANCH  25  39
BRANCH  26  49
ATOM     49  C   UNL A   1      43.693  23.180  26.948  1.00  0.00    -0.014 A 
ATOM     50  C   UNL A   1      43.107  22.401  27.960  1.00  0.00     0.010 A 
ATOM     51  C   UNL A   1      43.867  22.621  25.668  1.00  0.00     0.010 A 
ATOM     52  C   UNL A   1      42.731  21.079  27.703  1.00  0.00     0.020 A 
ATOM     53  C   UNL A   1      43.459  21.314  25.397  1.00  0.00     0.020 A 
ATOM     54  C   UNL A   1      42.909  20.545  26.423  1.00  0.00     0.054 A 
BRANCH  54  55
ATOM     55  S   UNL A   1      42.389  18.837  26.105  1.00  0.00     0.124 S 
ATOM     56  O   UNL A   1      41.008  19.018  25.672  1.00  0.00    -0.237 OA
ATOM     57  O   UNL A   1      43.329  18.410  25.071  1.00  0.00    -0.237 OA
ATOM     58  O   UNL A   1      42.559  18.181  27.400  1.00  0.00    -0.744 OA
ENDBRANCH  54  55
ENDBRANCH  26  49
BRANCH  38  59
ATOM     59  C   UNL A   1      49.744  26.582  26.335  1.00  0.00    -0.014 A 
ATOM     60  C   UNL A   1      50.578  25.849  27.197  1.00  0.00     0.010 A 
ATOM     61  C   UNL A   1      50.193  26.884  25.037  1.00  0.00     0.010 A 
ATOM     62  C   UNL A   1      51.856  25.464  26.784  1.00  0.00     0.020 A 
ATOM     63  C   UNL A   1      51.457  26.471  24.609  1.00  0.00     0.020 A 
ATOM     64  C   UNL A   1      52.286  25.779  25.492  1.00  0.00     0.054 A 
BRANCH  64  65
ATOM     65  S   UNL A   1      53.938  25.242  24.970  1.00  0.00     0.124 S 
ATOM     66  O   UNL A   1      53.776  23.792  24.893  1.00  0.00    -0.237 OA
ATOM     67  O   UNL A   1      54.107  25.925  23.690  1.00  0.00    -0.237 OA
ATOM     68  O   UNL A   1      54.811  25.715  26.042  1.00  0.00    -0.744 OA
ENDBRANCH  64  65
ENDBRANCH  38  59
ENDBRANCH  12  13
ENDBRANCH   5   7
ENDBRANCH   2   3
ENDBRANCH   1   2
BRANCH   1  69
ATOM     69  C   UNL A   1      33.511  30.595  26.946  1.00  0.00     0.118 C 
BRANCH  69  70
ATOM     70  N   UNL A   1      32.718  29.635  27.709  1.00  0.00    -0.352 N 
ATOM     71  C   UNL A   1      32.183  28.428  27.323  1.00  0.00     0.251 C 
ATOM     72  H   UNL A   1      32.539  29.890  28.643  1.00  0.00     0.163 HD
ATOM     73  O   UNL A   1      31.434  27.806  28.068  1.00  0.00    -0.269 OA
BRANCH  71  74
ATOM     74  C   UNL A   1      32.494  27.897  25.979  1.00  0.00     0.039 A 
ATOM     75  C   UNL A   1      33.585  27.040  25.818  1.00  0.00     0.015 A 
ATOM     76  C   UNL A   1      31.643  28.169  24.905  1.00  0.00     0.015 A 
ATOM     77  C   UNL A   1      33.761  26.378  24.600  1.00  0.00     0.022 A 
ATOM     78  C   UNL A   1      31.738  27.411  23.745  1.00  0.00     0.022 A 
ATOM     79  C   UNL A   1      32.813  26.540  23.580  1.00  0.00     0.082 A 
BRANCH  79  80
ATOM     80  S   UNL A   1      32.961  25.571  22.103  1.00  0.00     0.240 S 
ATOM     81  O   UNL A   1      31.710  24.872  21.909  1.00  0.00    -0.207 OA
ATOM     82  O   UNL A   1      33.491  26.451  21.087  1.00  0.00    -0.207 OA
BRANCH  80  83
ATOM     83  N   UNL A   1      34.166  24.405  22.327  1.00  0.00    -0.211 NA
ATOM     84  H   UNL A   1      34.895  24.877  22.859  1.00  0.00     0.141 HD
BRANCH  83  85
ATOM     85  C   UNL A   1      34.010  23.099  22.972  1.00  0.00     0.103 C 
BRANCH  85  86
ATOM     86  C   UNL A   1      34.848  22.827  24.207  1.00  0.00     0.020 C 
ATOM     87  C   UNL A   1      34.780  21.419  24.795  1.00  0.00     0.022 C 
ATOM     88  C   UNL A   1      36.332  23.118  24.000  1.00  0.00     0.142 C 
ATOM     89  C   UNL A   1      35.767  21.382  25.953  1.00  0.00     0.137 C 
ATOM     90  S   UNL A   1      37.121  22.438  25.451  1.00  0.00     0.150 S 
ATOM     91  O   UNL A   1      37.257  23.497  26.431  1.00  0.00    -0.229 OA
ATOM     92  O   UNL A   1      38.242  21.623  25.037  1.00  0.00    -0.229 OA
ENDBRANCH  85  86
ENDBRANCH  83  85
ENDBRANCH  80  83
ENDBRANCH  79  80
ENDBRANCH  71  74
ENDBRANCH  69  70
ENDBRANCH   1  69
TORSDOF 17
ENDMDL
