MODEL 1
REMARK VINA RESULT:     -14.2      0.000      0.000
REMARK SMILES O=C(NCCCNC(=O)c1ccn(-c2cc(-c3ccncc3)nc(-c3ccccc3F)n2)n1)c1ccc(-c2c3nc(c(-c4ccc(S(=O)(=O)[O-])cc4)c4ccc([nH]4)c(-c4ccc(S(=O)(=O)[O-])cc4)c4nc(c(-c5ccc(S(=O)(=O)[O-])cc5)c5ccc2[nH]5)C=C4)C=C3)cc1
REMARK SMILES IDX 4 1 3 2 1 3 2 4 34 6 35 7 93 8 36 9 92 10 37 11 38 12 39 13
REMARK SMILES IDX 86 14 40 15 91 16 85 17 87 18 41 19 90 20 84 21 83 22 42 24
REMARK SMILES IDX 72 25 53 26 71 27 54 28 57 29 70 30 88 31 55 32 56 33 69 35
REMARK SMILES IDX 89 36 58 37 43 38 44 39 52 40 45 41 51 42 46 43 47 44 48 45
REMARK SMILES IDX 49 46 50 47 73 48 74 49 82 50 75 51 81 52 76 53 77 54 78 55
REMARK SMILES IDX 79 56 80 57 59 58 60 59 68 60 61 61 67 62 62 63 63 64 64 65
REMARK SMILES IDX 65 66 66 67 5 68 6 69 7 70 8 71 9 73 10 74 11 75 33 76 12 77
REMARK SMILES IDX 13 78 14 79 15 80 32 81 16 82 24 83 23 84 17 85 18 86 22 87
REMARK SMILES IDX 19 88 21 89 20 90 25 91 26 92 30 93 27 94 29 95 31 96 28 97
REMARK H PARENT 3 5 87 23 57 34 7 72
REMARK Flexibility Score: inf
ROOT
ATOM      1  C   UNL A   1      37.053  22.542  24.885  1.00  0.00     0.118 C 
ENDROOT
BRANCH   1   2
ATOM      2  N   UNL A   1      38.316  21.883  25.146  1.00  0.00    -0.352 N 
ATOM      3  O   UNL A   1      40.159  21.164  26.116  1.00  0.00    -0.269 OA
ATOM      4  C   UNL A   1      39.324  22.070  26.050  1.00  0.00     0.251 C 
ATOM      5  H   UNL A   1      38.487  21.131  24.534  1.00  0.00     0.163 HD
BRANCH   4   6
ATOM      6  C   UNL A   1      39.525  23.299  26.863  1.00  0.00     0.039 A 
ATOM      7  C   UNL A   1      38.703  24.426  26.864  1.00  0.00     0.014 A 
ATOM      8  C   UNL A   1      40.709  23.326  27.624  1.00  0.00     0.014 A 
ATOM      9  C   UNL A   1      39.114  25.598  27.492  1.00  0.00     0.010 A 
ATOM     10  C   UNL A   1      41.117  24.485  28.267  1.00  0.00     0.010 A 
ATOM     11  C   UNL A   1      40.344  25.635  28.148  1.00  0.00    -0.014 A 
BRANCH  11  12
ATOM     12  C   UNL A   1      40.754  26.872  28.801  1.00  0.00     0.031 A 
ATOM     13  C   UNL A   1      41.941  27.537  28.192  1.00  0.00     0.074 A 
ATOM     14  C   UNL A   1      40.013  27.458  29.764  1.00  0.00     0.049 A 
ATOM     15  N   UNL A   1      43.079  27.813  28.740  1.00  0.00    -0.248 NA
ATOM     16  C   UNL A   1      41.886  27.831  26.750  1.00  0.00     0.031 C 
ATOM     17  C   UNL A   1      38.684  27.061  30.241  1.00  0.00     0.029 A 
ATOM     18  N   UNL A   1      40.238  28.623  30.432  1.00  0.00    -0.354 N 
ATOM     19  C   UNL A   1      43.817  28.494  27.771  1.00  0.00     0.074 A 
ATOM     20  C   UNL A   1      43.100  28.335  26.531  1.00  0.00     0.031 C 
ATOM     21  C   UNL A   1      38.126  28.093  30.914  1.00  0.00     0.029 A 
ATOM     22  C   UNL A   1      39.105  29.161  31.033  1.00  0.00     0.049 A 
ATOM     23  H   UNL A   1      41.125  29.047  30.485  1.00  0.00     0.167 HD
ATOM     24  C   UNL A   1      44.843  29.331  28.089  1.00  0.00     0.031 A 
ATOM     25  C   UNL A   1      38.958  30.424  31.515  1.00  0.00     0.031 A 
ATOM     26  C   UNL A   1      45.310  29.130  29.434  1.00  0.00     0.049 A 
ATOM     27  C   UNL A   1      40.320  30.970  31.734  1.00  0.00     0.074 A 
ATOM     28  C   UNL A   1      45.874  28.075  30.123  1.00  0.00     0.029 A 
ATOM     29  N   UNL A   1      44.878  30.016  30.391  1.00  0.00    -0.354 N 
ATOM     30  N   UNL A   1      41.149  30.491  32.619  1.00  0.00    -0.248 NA
ATOM     31  C   UNL A   1      40.931  31.736  30.658  1.00  0.00     0.031 C 
ATOM     32  C   UNL A   1      45.305  28.148  31.428  1.00  0.00     0.029 A 
ATOM     33  C   UNL A   1      44.483  29.276  31.475  1.00  0.00     0.049 A 
ATOM     34  H   UNL A   1      44.856  30.997  30.313  1.00  0.00     0.167 HD
ATOM     35  C   UNL A   1      42.389  30.517  31.997  1.00  0.00     0.074 A 
ATOM     36  C   UNL A   1      42.207  31.376  30.827  1.00  0.00     0.031 C 
ATOM     37  C   UNL A   1      43.368  29.623  32.330  1.00  0.00     0.031 A 
BRANCH  24  38
ATOM     38  C   UNL A   1      45.150  30.596  27.321  1.00  0.00    -0.014 A 
ATOM     39  C   UNL A   1      46.484  30.867  26.953  1.00  0.00     0.010 A 
ATOM     40  C   UNL A   1      44.229  31.659  27.211  1.00  0.00     0.010 A 
ATOM     41  C   UNL A   1      46.888  32.156  26.579  1.00  0.00     0.020 A 
ATOM     42  C   UNL A   1      44.612  32.936  26.796  1.00  0.00     0.020 A 
ATOM     43  C   UNL A   1      45.949  33.186  26.522  1.00  0.00     0.054 A 
BRANCH  43  44
ATOM     44  S   UNL A   1      46.500  34.873  26.171  1.00  0.00     0.124 S 
ATOM     45  O   UNL A   1      47.435  34.659  25.070  1.00  0.00    -0.237 OA
ATOM     46  O   UNL A   1      45.249  35.541  25.821  1.00  0.00    -0.237 OA
ATOM     47  O   UNL A   1      47.102  35.305  27.429  1.00  0.00    -0.744 OA
ENDBRANCH  43  44
ENDBRANCH  24  38
BRANCH  25  48
ATOM     48  C   UNL A   1      37.749  31.286  31.434  1.00  0.00    -0.014 A 
ATOM     49  C   UNL A   1      36.654  31.108  32.301  1.00  0.00     0.010 A 
ATOM     50  C   UNL A   1      37.790  32.475  30.675  1.00  0.00     0.010 A 
ATOM     51  C   UNL A   1      35.667  32.103  32.437  1.00  0.00     0.020 A 
ATOM     52  C   UNL A   1      36.811  33.466  30.800  1.00  0.00     0.020 A 
ATOM     53  C   UNL A   1      35.763  33.285  31.699  1.00  0.00     0.054 A 
BRANCH  53  54
ATOM     54  S   UNL A   1      34.582  34.637  31.998  1.00  0.00     0.124 S 
ATOM     55  O   UNL A   1      35.388  35.593  32.752  1.00  0.00    -0.237 OA
ATOM     56  O   UNL A   1      34.216  35.046  30.646  1.00  0.00    -0.237 OA
ATOM     57  O   UNL A   1      33.510  33.995  32.759  1.00  0.00    -0.744 OA
ENDBRANCH  53  54
ENDBRANCH  25  48
BRANCH  37  58
ATOM     58  C   UNL A   1      43.160  28.752  33.549  1.00  0.00    -0.014 A 
ATOM     59  C   UNL A   1      43.494  29.153  34.858  1.00  0.00     0.010 A 
ATOM     60  C   UNL A   1      42.450  27.551  33.379  1.00  0.00     0.010 A 
ATOM     61  C   UNL A   1      43.145  28.362  35.964  1.00  0.00     0.020 A 
ATOM     62  C   UNL A   1      42.086  26.767  34.475  1.00  0.00     0.020 A 
ATOM     63  C   UNL A   1      42.441  27.172  35.763  1.00  0.00     0.054 A 
BRANCH  63  64
ATOM     64  S   UNL A   1      41.942  26.179  37.199  1.00  0.00     0.124 S 
ATOM     65  O   UNL A   1      40.644  26.751  37.546  1.00  0.00    -0.237 OA
ATOM     66  O   UNL A   1      41.906  24.821  36.659  1.00  0.00    -0.237 OA
ATOM     67  O   UNL A   1      43.005  26.419  38.174  1.00  0.00    -0.744 OA
ENDBRANCH  63  64
ENDBRANCH  37  58
ENDBRANCH  11  12
ENDBRANCH   4   6
ENDBRANCH   1   2
BRANCH   1  68
ATOM     68  C   UNL A   1      35.818  21.794  25.391  1.00  0.00     0.042 C 
BRANCH  68  69
ATOM     69  C   UNL A   1      34.506  22.563  25.242  1.00  0.00     0.118 C 
BRANCH  69  70
ATOM     70  N   UNL A   1      33.796  22.184  24.035  1.00  0.00    -0.351 N 
ATOM     71  C   UNL A   1      32.517  22.501  23.647  1.00  0.00     0.271 C 
ATOM     72  H   UNL A   1      34.302  21.621  23.406  1.00  0.00     0.163 HD
ATOM     73  O   UNL A   1      32.027  21.893  22.698  1.00  0.00    -0.267 OA
BRANCH  71  74
ATOM     74  C   UNL A   1      31.820  23.594  24.330  1.00  0.00     0.150 A 
ATOM     75  C   UNL A   1      31.055  23.500  25.521  1.00  0.00     0.056 A 
ATOM     76  N   UNL A   1      31.907  24.869  23.909  1.00  0.00    -0.161 NA
ATOM     77  C   UNL A   1      30.800  24.797  25.885  1.00  0.00     0.118 A 
ATOM     78  N   UNL A   1      31.353  25.596  24.914  1.00  0.00    -0.222 N 
BRANCH  78  79
ATOM     79  C   UNL A   1      31.421  27.015  24.941  1.00  0.00     0.158 A 
ATOM     80  C   UNL A   1      30.640  27.732  24.061  1.00  0.00     0.078 A 
ATOM     81  N   UNL A   1      32.255  27.591  25.833  1.00  0.00    -0.209 NA
ATOM     82  C   UNL A   1      30.716  29.105  24.172  1.00  0.00     0.077 A 
ATOM     83  C   UNL A   1      32.319  28.932  25.802  1.00  0.00     0.165 A 
ATOM     84  N   UNL A   1      31.587  29.721  24.999  1.00  0.00    -0.228 NA
BRANCH  82  85
ATOM     85  C   UNL A   1      29.811  29.983  23.426  1.00  0.00     0.003 A 
ATOM     86  C   UNL A   1      29.395  29.648  22.130  1.00  0.00     0.030 A 
ATOM     87  C   UNL A   1      29.327  31.170  23.983  1.00  0.00     0.030 A 
ATOM     88  C   UNL A   1      28.543  30.506  21.454  1.00  0.00     0.111 A 
ATOM     89  C   UNL A   1      28.487  31.969  23.223  1.00  0.00     0.111 A 
ATOM     90  N   UNL A   1      28.089  31.667  21.970  1.00  0.00    -0.265 NA
ENDBRANCH  82  85
BRANCH  83  91
ATOM     91  C   UNL A   1      33.350  29.554  26.623  1.00  0.00     0.055 A 
ATOM     92  C   UNL A   1      34.564  28.890  26.882  1.00  0.00     0.015 A 
ATOM     93  C   UNL A   1      33.161  30.814  27.194  1.00  0.00     0.134 A 
ATOM     94  C   UNL A   1      35.551  29.475  27.682  1.00  0.00     0.001 A 
ATOM     95  C   UNL A   1      34.136  31.400  28.003  1.00  0.00     0.040 A 
ATOM     96  F   UNL A   1      32.013  31.482  27.001  1.00  0.00    -0.206 F 
ATOM     97  C   UNL A   1      35.334  30.730  28.245  1.00  0.00     0.003 A 
ENDBRANCH  83  91
ENDBRANCH  78  79
ENDBRANCH  71  74
ENDBRANCH  69  70
ENDBRANCH  68  69
ENDBRANCH   1  68
TORSDOF 16
ENDMDL
MODEL 2
REMARK VINA RESULT:     -14.2      3.032      9.796
REMARK SMILES O=C(NCCCNC(=O)c1ccn(-c2cc(-c3ccncc3)nc(-c3ccccc3F)n2)n1)c1ccc(-c2c3nc(c(-c4ccc(S(=O)(=O)[O-])cc4)c4ccc([nH]4)c(-c4ccc(S(=O)(=O)[O-])cc4)c4nc(c(-c5ccc(S(=O)(=O)[O-])cc5)c5ccc2[nH]5)C=C4)C=C3)cc1
REMARK SMILES IDX 4 1 3 2 1 3 2 4 34 6 35 7 93 8 36 9 92 10 37 11 38 12 39 13
REMARK SMILES IDX 86 14 40 15 91 16 85 17 87 18 41 19 90 20 84 21 83 22 42 24
REMARK SMILES IDX 72 25 53 26 71 27 54 28 57 29 70 30 88 31 55 32 56 33 69 35
REMARK SMILES IDX 89 36 58 37 43 38 44 39 52 40 45 41 51 42 46 43 47 44 48 45
REMARK SMILES IDX 49 46 50 47 73 48 74 49 82 50 75 51 81 52 76 53 77 54 78 55
REMARK SMILES IDX 79 56 80 57 59 58 60 59 68 60 61 61 67 62 62 63 63 64 64 65
REMARK SMILES IDX 65 66 66 67 5 68 6 69 7 70 8 71 9 73 10 74 11 75 33 76 12 77
REMARK SMILES IDX 13 78 14 79 15 80 32 81 16 82 24 83 23 84 17 85 18 86 22 87
REMARK SMILES IDX 19 88 21 89 20 90 25 91 26 92 30 93 27 94 29 95 31 96 28 97
REMARK H PARENT 3 5 87 23 57 34 7 72
REMARK Flexibility Score: inf
ROOT
ATOM      1  C   UNL A   1      32.906  29.249  26.946  1.00  0.00     0.118 C 
ENDROOT
BRANCH   1   2
ATOM      2  N   UNL A   1      33.086  30.535  27.589  1.00  0.00    -0.352 N 
ATOM      3  O   UNL A   1      33.937  32.446  28.281  1.00  0.00    -0.269 OA
ATOM      4  C   UNL A   1      34.174  31.284  27.942  1.00  0.00     0.251 C 
ATOM      5  H   UNL A   1      32.234  30.966  27.825  1.00  0.00     0.163 HD
BRANCH   4   6
ATOM      6  C   UNL A   1      35.569  30.774  28.035  1.00  0.00     0.039 A 
ATOM      7  C   UNL A   1      35.975  29.454  27.837  1.00  0.00     0.014 A 
ATOM      8  C   UNL A   1      36.526  31.721  28.444  1.00  0.00     0.014 A 
ATOM      9  C   UNL A   1      37.266  29.057  28.171  1.00  0.00     0.010 A 
ATOM     10  C   UNL A   1      37.820  31.336  28.762  1.00  0.00     0.010 A 
ATOM     11  C   UNL A   1      38.167  29.992  28.680  1.00  0.00    -0.014 A 
BRANCH  11  12
ATOM     12  C   UNL A   1      39.515  29.555  29.021  1.00  0.00     0.031 A 
ATOM     13  C   UNL A   1      39.821  29.551  30.479  1.00  0.00     0.074 A 
ATOM     14  C   UNL A   1      40.354  29.027  28.105  1.00  0.00     0.049 A 
ATOM     15  N   UNL A   1      40.739  30.206  31.111  1.00  0.00    -0.248 NA
ATOM     16  C   UNL A   1      38.909  28.801  31.360  1.00  0.00     0.031 C 
ATOM     17  C   UNL A   1      40.066  28.705  26.703  1.00  0.00     0.029 A 
ATOM     18  N   UNL A   1      41.613  28.539  28.275  1.00  0.00    -0.354 N 
ATOM     19  C   UNL A   1      40.650  29.803  32.444  1.00  0.00     0.074 A 
ATOM     20  C   UNL A   1      39.417  29.067  32.563  1.00  0.00     0.031 C 
ATOM     21  C   UNL A   1      41.012  27.858  26.239  1.00  0.00     0.029 A 
ATOM     22  C   UNL A   1      42.036  27.690  27.257  1.00  0.00     0.049 A 
ATOM     23  H   UNL A   1      42.175  28.767  29.050  1.00  0.00     0.167 HD
ATOM     24  C   UNL A   1      41.699  29.902  33.308  1.00  0.00     0.031 A 
ATOM     25  C   UNL A   1      43.103  26.849  27.286  1.00  0.00     0.031 A 
ATOM     26  C   UNL A   1      42.718  30.792  32.823  1.00  0.00     0.049 A 
ATOM     27  C   UNL A   1      44.006  27.323  28.363  1.00  0.00     0.074 A 
ATOM     28  C   UNL A   1      42.772  32.134  32.505  1.00  0.00     0.029 A 
ATOM     29  N   UNL A   1      43.827  30.223  32.242  1.00  0.00    -0.354 N 
ATOM     30  N   UNL A   1      44.630  28.468  28.322  1.00  0.00    -0.248 NA
ATOM     31  C   UNL A   1      43.851  26.746  29.689  1.00  0.00     0.031 C 
ATOM     32  C   UNL A   1      43.612  32.202  31.355  1.00  0.00     0.029 A 
ATOM     33  C   UNL A   1      44.069  30.911  31.081  1.00  0.00     0.049 A 
ATOM     34  H   UNL A   1      44.348  29.465  32.593  1.00  0.00     0.167 HD
ATOM     35  C   UNL A   1      44.561  28.959  29.618  1.00  0.00     0.074 A 
ATOM     36  C   UNL A   1      44.150  27.815  30.433  1.00  0.00     0.031 C 
ATOM     37  C   UNL A   1      44.572  30.302  29.868  1.00  0.00     0.031 A 
BRANCH  24  38
ATOM     38  C   UNL A   1      41.978  28.889  34.394  1.00  0.00    -0.014 A 
ATOM     39  C   UNL A   1      42.350  29.344  35.676  1.00  0.00     0.010 A 
ATOM     40  C   UNL A   1      42.173  27.519  34.121  1.00  0.00     0.010 A 
ATOM     41  C   UNL A   1      42.966  28.489  36.600  1.00  0.00     0.020 A 
ATOM     42  C   UNL A   1      42.745  26.649  35.052  1.00  0.00     0.020 A 
ATOM     43  C   UNL A   1      43.176  27.149  36.271  1.00  0.00     0.054 A 
BRANCH  43  44
ATOM     44  S   UNL A   1      44.091  26.087  37.414  1.00  0.00     0.124 S 
ATOM     45  O   UNL A   1      43.771  24.756  36.906  1.00  0.00    -0.237 OA
ATOM     46  O   UNL A   1      45.468  26.530  37.212  1.00  0.00    -0.237 OA
ATOM     47  O   UNL A   1      43.521  26.414  38.718  1.00  0.00    -0.744 OA
ENDBRANCH  43  44
ENDBRANCH  24  38
BRANCH  25  48
ATOM     48  C   UNL A   1      43.189  25.482  26.708  1.00  0.00    -0.014 A 
ATOM     49  C   UNL A   1      43.209  25.267  25.316  1.00  0.00     0.010 A 
ATOM     50  C   UNL A   1      43.535  24.394  27.538  1.00  0.00     0.010 A 
ATOM     51  C   UNL A   1      43.607  24.027  24.779  1.00  0.00     0.020 A 
ATOM     52  C   UNL A   1      43.925  23.158  27.012  1.00  0.00     0.020 A 
ATOM     53  C   UNL A   1      43.980  22.985  25.632  1.00  0.00     0.054 A 
BRANCH  53  54
ATOM     54  S   UNL A   1      44.651  21.443  24.936  1.00  0.00     0.124 S 
ATOM     55  O   UNL A   1      44.687  21.736  23.507  1.00  0.00    -0.237 OA
ATOM     56  O   UNL A   1      45.950  21.336  25.593  1.00  0.00    -0.237 OA
ATOM     57  O   UNL A   1      43.673  20.432  25.337  1.00  0.00    -0.744 OA
ENDBRANCH  53  54
ENDBRANCH  25  48
BRANCH  37  58
ATOM     58  C   UNL A   1      44.893  31.243  28.728  1.00  0.00    -0.014 A 
ATOM     59  C   UNL A   1      43.925  31.733  27.829  1.00  0.00     0.010 A 
ATOM     60  C   UNL A   1      46.191  31.778  28.670  1.00  0.00     0.010 A 
ATOM     61  C   UNL A   1      44.255  32.715  26.882  1.00  0.00     0.020 A 
ATOM     62  C   UNL A   1      46.522  32.767  27.741  1.00  0.00     0.020 A 
ATOM     63  C   UNL A   1      45.555  33.226  26.846  1.00  0.00     0.054 A 
BRANCH  63  64
ATOM     64  S   UNL A   1      45.964  34.537  25.658  1.00  0.00     0.124 S 
ATOM     65  O   UNL A   1      45.100  34.219  24.524  1.00  0.00    -0.237 OA
ATOM     66  O   UNL A   1      45.622  35.756  26.388  1.00  0.00    -0.237 OA
ATOM     67  O   UNL A   1      47.394  34.353  25.416  1.00  0.00    -0.744 OA
ENDBRANCH  63  64
ENDBRANCH  37  58
ENDBRANCH  11  12
ENDBRANCH   4   6
ENDBRANCH   1   2
BRANCH   1  68
ATOM     68  C   UNL A   1      33.347  29.193  25.483  1.00  0.00     0.042 C 
BRANCH  68  69
ATOM     69  C   UNL A   1      32.411  28.403  24.569  1.00  0.00     0.118 C 
BRANCH  69  70
ATOM     70  N   UNL A   1      32.889  28.382  23.199  1.00  0.00    -0.351 N 
ATOM     71  C   UNL A   1      33.370  27.325  22.466  1.00  0.00     0.271 C 
ATOM     72  H   UNL A   1      32.865  29.247  22.730  1.00  0.00     0.163 HD
ATOM     73  O   UNL A   1      33.937  27.562  21.402  1.00  0.00    -0.267 OA
BRANCH  71  74
ATOM     74  C   UNL A   1      33.127  25.961  22.946  1.00  0.00     0.150 A 
ATOM     75  C   UNL A   1      32.004  25.146  22.655  1.00  0.00     0.056 A 
ATOM     76  N   UNL A   1      34.031  25.295  23.688  1.00  0.00    -0.161 NA
ATOM     77  C   UNL A   1      32.331  23.903  23.133  1.00  0.00     0.118 A 
ATOM     78  N   UNL A   1      33.569  24.019  23.718  1.00  0.00    -0.222 N 
BRANCH  78  79
ATOM     79  C   UNL A   1      34.342  22.952  24.250  1.00  0.00     0.158 A 
ATOM     80  C   UNL A   1      33.757  21.711  24.381  1.00  0.00     0.078 A 
ATOM     81  N   UNL A   1      35.619  23.212  24.603  1.00  0.00    -0.209 NA
ATOM     82  C   UNL A   1      34.576  20.709  24.857  1.00  0.00     0.077 A 
ATOM     83  C   UNL A   1      36.305  22.189  25.136  1.00  0.00     0.165 A 
ATOM     84  N   UNL A   1      35.834  20.939  25.288  1.00  0.00    -0.228 NA
BRANCH  82  85
ATOM     85  C   UNL A   1      34.139  19.310  24.877  1.00  0.00     0.003 A 
ATOM     86  C   UNL A   1      32.865  18.964  25.350  1.00  0.00     0.030 A 
ATOM     87  C   UNL A   1      34.969  18.283  24.418  1.00  0.00     0.030 A 
ATOM     88  C   UNL A   1      32.490  17.631  25.358  1.00  0.00     0.111 A 
ATOM     89  C   UNL A   1      34.507  16.977  24.477  1.00  0.00     0.111 A 
ATOM     90  N   UNL A   1      33.291  16.627  24.942  1.00  0.00    -0.265 NA
ENDBRANCH  82  85
BRANCH  83  91
ATOM     91  C   UNL A   1      37.614  22.502  25.694  1.00  0.00     0.055 A 
ATOM     92  C   UNL A   1      37.889  23.781  26.214  1.00  0.00     0.015 A 
ATOM     93  C   UNL A   1      38.641  21.556  25.713  1.00  0.00     0.134 A 
ATOM     94  C   UNL A   1      39.149  24.093  26.737  1.00  0.00     0.001 A 
ATOM     95  C   UNL A   1      39.904  21.862  26.222  1.00  0.00     0.040 A 
ATOM     96  F   UNL A   1      38.443  20.328  25.208  1.00  0.00    -0.206 F 
ATOM     97  C   UNL A   1      40.157  23.133  26.737  1.00  0.00     0.003 A 
ENDBRANCH  83  91
ENDBRANCH  78  79
ENDBRANCH  71  74
ENDBRANCH  69  70
ENDBRANCH  68  69
ENDBRANCH   1  68
TORSDOF 16
ENDMDL
MODEL 3
REMARK VINA RESULT:     -13.6      0.990      2.922
REMARK SMILES O=C(NCCCNC(=O)c1ccn(-c2cc(-c3ccncc3)nc(-c3ccccc3F)n2)n1)c1ccc(-c2c3nc(c(-c4ccc(S(=O)(=O)[O-])cc4)c4ccc([nH]4)c(-c4ccc(S(=O)(=O)[O-])cc4)c4nc(c(-c5ccc(S(=O)(=O)[O-])cc5)c5ccc2[nH]5)C=C4)C=C3)cc1
REMARK SMILES IDX 4 1 3 2 1 3 2 4 34 6 35 7 93 8 36 9 92 10 37 11 38 12 39 13
REMARK SMILES IDX 86 14 40 15 91 16 85 17 87 18 41 19 90 20 84 21 83 22 42 24
REMARK SMILES IDX 72 25 53 26 71 27 54 28 57 29 70 30 88 31 55 32 56 33 69 35
REMARK SMILES IDX 89 36 58 37 43 38 44 39 52 40 45 41 51 42 46 43 47 44 48 45
REMARK SMILES IDX 49 46 50 47 73 48 74 49 82 50 75 51 81 52 76 53 77 54 78 55
REMARK SMILES IDX 79 56 80 57 59 58 60 59 68 60 61 61 67 62 62 63 63 64 64 65
REMARK SMILES IDX 65 66 66 67 5 68 6 69 7 70 8 71 9 73 10 74 11 75 33 76 12 77
REMARK SMILES IDX 13 78 14 79 15 80 32 81 16 82 24 83 23 84 17 85 18 86 22 87
REMARK SMILES IDX 19 88 21 89 20 90 25 91 26 92 30 93 27 94 29 95 31 96 28 97
REMARK H PARENT 3 5 87 23 57 34 7 72
REMARK Flexibility Score: inf
ROOT
ATOM      1  C   UNL A   1      37.192  22.889  25.131  1.00  0.00     0.118 C 
ENDROOT
BRANCH   1   2
ATOM      2  N   UNL A   1      38.268  21.966  25.428  1.00  0.00    -0.352 N 
ATOM      3  O   UNL A   1      39.964  20.944  26.396  1.00  0.00    -0.269 OA
ATOM      4  C   UNL A   1      39.382  22.018  26.219  1.00  0.00     0.251 C 
ATOM      5  H   UNL A   1      38.177  21.108  24.954  1.00  0.00     0.163 HD
BRANCH   4   6
ATOM      6  C   UNL A   1      39.974  23.262  26.781  1.00  0.00     0.039 A 
ATOM      7  C   UNL A   1      41.086  23.335  27.621  1.00  0.00     0.014 A 
ATOM      8  C   UNL A   1      39.272  24.446  26.485  1.00  0.00     0.014 A 
ATOM      9  C   UNL A   1      41.407  24.528  28.262  1.00  0.00     0.010 A 
ATOM     10  C   UNL A   1      39.598  25.642  27.106  1.00  0.00     0.010 A 
ATOM     11  C   UNL A   1      40.630  25.663  28.038  1.00  0.00    -0.014 A 
BRANCH  11  12
ATOM     12  C   UNL A   1      40.987  26.903  28.717  1.00  0.00     0.031 A 
ATOM     13  C   UNL A   1      42.175  27.605  28.154  1.00  0.00     0.074 A 
ATOM     14  C   UNL A   1      40.199  27.459  29.661  1.00  0.00     0.049 A 
ATOM     15  N   UNL A   1      43.287  27.905  28.742  1.00  0.00    -0.248 NA
ATOM     16  C   UNL A   1      42.159  27.913  26.714  1.00  0.00     0.031 C 
ATOM     17  C   UNL A   1      38.866  27.023  30.089  1.00  0.00     0.029 A 
ATOM     18  N   UNL A   1      40.372  28.622  30.347  1.00  0.00    -0.354 N 
ATOM     19  C   UNL A   1      44.038  28.615  27.805  1.00  0.00     0.074 A 
ATOM     20  C   UNL A   1      43.366  28.451  26.540  1.00  0.00     0.031 C 
ATOM     21  C   UNL A   1      38.260  28.033  30.754  1.00  0.00     0.029 A 
ATOM     22  C   UNL A   1      39.206  29.124  30.916  1.00  0.00     0.049 A 
ATOM     23  H   UNL A   1      41.245  29.068  30.434  1.00  0.00     0.167 HD
ATOM     24  C   UNL A   1      45.031  29.475  28.165  1.00  0.00     0.031 A 
ATOM     25  C   UNL A   1      39.011  30.377  31.406  1.00  0.00     0.031 A 
ATOM     26  C   UNL A   1      45.459  29.270  29.522  1.00  0.00     0.049 A 
ATOM     27  C   UNL A   1      40.350  30.956  31.676  1.00  0.00     0.074 A 
ATOM     28  C   UNL A   1      46.027  28.223  30.219  1.00  0.00     0.029 A 
ATOM     29  N   UNL A   1      44.973  30.135  30.474  1.00  0.00    -0.354 N 
ATOM     30  N   UNL A   1      41.162  30.489  32.582  1.00  0.00    -0.248 NA
ATOM     31  C   UNL A   1      40.976  31.749  30.628  1.00  0.00     0.031 C 
ATOM     32  C   UNL A   1      45.415  28.267  31.506  1.00  0.00     0.029 A 
ATOM     33  C   UNL A   1      44.562  29.373  31.537  1.00  0.00     0.049 A 
ATOM     34  H   UNL A   1      44.928  31.116  30.405  1.00  0.00     0.167 HD
ATOM     35  C   UNL A   1      42.421  30.554  32.002  1.00  0.00     0.074 A 
ATOM     36  C   UNL A   1      42.254  31.421  30.836  1.00  0.00     0.031 C 
ATOM     37  C   UNL A   1      43.411  29.682  32.358  1.00  0.00     0.031 A 
BRANCH  24  38
ATOM     38  C   UNL A   1      45.330  30.755  27.421  1.00  0.00    -0.014 A 
ATOM     39  C   UNL A   1      46.635  30.976  26.934  1.00  0.00     0.010 A 
ATOM     40  C   UNL A   1      44.461  31.866  27.443  1.00  0.00     0.010 A 
ATOM     41  C   UNL A   1      47.069  32.258  26.572  1.00  0.00     0.020 A 
ATOM     42  C   UNL A   1      44.869  33.139  27.042  1.00  0.00     0.020 A 
ATOM     43  C   UNL A   1      46.185  33.335  26.648  1.00  0.00     0.054 A 
BRANCH  43  44
ATOM     44  S   UNL A   1      46.790  35.007  26.310  1.00  0.00     0.124 S 
ATOM     45  O   UNL A   1      47.736  34.768  25.225  1.00  0.00    -0.237 OA
ATOM     46  O   UNL A   1      45.564  35.710  25.941  1.00  0.00    -0.237 OA
ATOM     47  O   UNL A   1      47.382  35.420  27.580  1.00  0.00    -0.744 OA
ENDBRANCH  43  44
ENDBRANCH  24  38
BRANCH  25  48
ATOM     48  C   UNL A   1      37.783  31.209  31.294  1.00  0.00    -0.014 A 
ATOM     49  C   UNL A   1      36.561  30.803  31.863  1.00  0.00     0.010 A 
ATOM     50  C   UNL A   1      37.885  32.547  30.858  1.00  0.00     0.010 A 
ATOM     51  C   UNL A   1      35.501  31.716  32.033  1.00  0.00     0.020 A 
ATOM     52  C   UNL A   1      36.835  33.458  31.018  1.00  0.00     0.020 A 
ATOM     53  C   UNL A   1      35.653  33.044  31.626  1.00  0.00     0.054 A 
BRANCH  53  54
ATOM     54  S   UNL A   1      34.350  34.258  31.996  1.00  0.00     0.124 S 
ATOM     55  O   UNL A   1      35.116  35.394  32.499  1.00  0.00    -0.237 OA
ATOM     56  O   UNL A   1      33.714  34.450  30.697  1.00  0.00    -0.237 OA
ATOM     57  O   UNL A   1      33.521  33.580  32.993  1.00  0.00    -0.744 OA
ENDBRANCH  53  54
ENDBRANCH  25  48
BRANCH  37  58
ATOM     58  C   UNL A   1      43.187  28.792  33.560  1.00  0.00    -0.014 A 
ATOM     59  C   UNL A   1      43.602  29.127  34.864  1.00  0.00     0.010 A 
ATOM     60  C   UNL A   1      42.380  27.654  33.388  1.00  0.00     0.010 A 
ATOM     61  C   UNL A   1      43.239  28.331  35.962  1.00  0.00     0.020 A 
ATOM     62  C   UNL A   1      42.001  26.867  34.477  1.00  0.00     0.020 A 
ATOM     63  C   UNL A   1      42.438  27.204  35.759  1.00  0.00     0.054 A 
BRANCH  63  64
ATOM     64  S   UNL A   1      41.923  26.209  37.188  1.00  0.00     0.124 S 
ATOM     65  O   UNL A   1      40.634  26.799  37.538  1.00  0.00    -0.237 OA
ATOM     66  O   UNL A   1      41.867  24.856  36.638  1.00  0.00    -0.237 OA
ATOM     67  O   UNL A   1      42.989  26.425  38.165  1.00  0.00    -0.744 OA
ENDBRANCH  63  64
ENDBRANCH  37  58
ENDBRANCH  11  12
ENDBRANCH   4   6
ENDBRANCH   1   2
BRANCH   1  68
ATOM     68  C   UNL A   1      36.017  22.284  24.361  1.00  0.00     0.042 C 
BRANCH  68  69
ATOM     69  C   UNL A   1      35.031  23.308  23.802  1.00  0.00     0.118 C 
BRANCH  69  70
ATOM     70  N   UNL A   1      33.946  22.670  23.080  1.00  0.00    -0.351 N 
ATOM     71  C   UNL A   1      32.597  22.709  23.334  1.00  0.00     0.271 C 
ATOM     72  H   UNL A   1      34.215  22.136  22.299  1.00  0.00     0.163 HD
ATOM     73  O   UNL A   1      31.868  21.916  22.741  1.00  0.00    -0.267 OA
BRANCH  71  74
ATOM     74  C   UNL A   1      32.076  23.734  24.243  1.00  0.00     0.150 A 
ATOM     75  C   UNL A   1      31.654  23.545  25.584  1.00  0.00     0.056 A 
ATOM     76  N   UNL A   1      32.015  25.032  23.893  1.00  0.00    -0.161 NA
ATOM     77  C   UNL A   1      31.470  24.809  26.082  1.00  0.00     0.118 A 
ATOM     78  N   UNL A   1      31.726  25.681  25.051  1.00  0.00    -0.222 N 
BRANCH  78  79
ATOM     79  C   UNL A   1      31.761  27.098  25.147  1.00  0.00     0.158 A 
ATOM     80  C   UNL A   1      32.592  27.679  26.080  1.00  0.00     0.078 A 
ATOM     81  N   UNL A   1      30.969  27.807  24.314  1.00  0.00    -0.209 NA
ATOM     82  C   UNL A   1      32.614  29.058  26.088  1.00  0.00     0.077 A 
ATOM     83  C   UNL A   1      31.001  29.141  24.460  1.00  0.00     0.165 A 
ATOM     84  N   UNL A   1      31.789  29.804  25.323  1.00  0.00    -0.228 NA
BRANCH  82  85
ATOM     85  C   UNL A   1      33.581  29.802  26.900  1.00  0.00     0.003 A 
ATOM     86  C   UNL A   1      33.301  31.107  27.329  1.00  0.00     0.030 A 
ATOM     87  C   UNL A   1      34.799  29.234  27.280  1.00  0.00     0.030 A 
ATOM     88  C   UNL A   1      34.242  31.780  28.091  1.00  0.00     0.111 A 
ATOM     89  C   UNL A   1      35.682  29.992  28.035  1.00  0.00     0.111 A 
ATOM     90  N   UNL A   1      35.434  31.253  28.443  1.00  0.00    -0.265 NA
ENDBRANCH  82  85
BRANCH  83  91
ATOM     91  C   UNL A   1      30.017  29.903  23.704  1.00  0.00     0.055 A 
ATOM     92  C   UNL A   1      29.504  31.115  24.202  1.00  0.00     0.015 A 
ATOM     93  C   UNL A   1      29.536  29.449  22.473  1.00  0.00     0.134 A 
ATOM     94  C   UNL A   1      28.547  31.844  23.488  1.00  0.00     0.001 A 
ATOM     95  C   UNL A   1      28.573  30.164  21.759  1.00  0.00     0.040 A 
ATOM     96  F   UNL A   1      29.971  28.288  21.961  1.00  0.00    -0.206 F 
ATOM     97  C   UNL A   1      28.080  31.365  22.266  1.00  0.00     0.003 A 
ENDBRANCH  83  91
ENDBRANCH  78  79
ENDBRANCH  71  74
ENDBRANCH  69  70
ENDBRANCH  68  69
ENDBRANCH   1  68
TORSDOF 16
ENDMDL
