MODEL 1
REMARK VINA RESULT:      -9.6      0.000      0.000
REMARK SMILES C[C@](NC(=O)NCCC[NH3+])(C(=O)NCCCNC(=O)c1ccc(-c2c3nc(c(-c4ccc(S(=O)(=O)[O-])cc4)c4ccc([nH]4)c(-c4ccc(S(=O)(=O)[O-])cc4)c4nc(c(-c5ccc(S(=O)(=O)[O-])cc5)c5ccc2[nH]5)C=C4)C=C3)cc1)C(F)(F)F
REMARK SMILES IDX 14 1 13 2 11 3 12 4 2 6 1 7 80 8 81 9 82 10 83 11 3 12 4 13
REMARK SMILES IDX 5 15 6 16 7 18 8 19 9 20 10 21 15 25 16 26 17 27 18 28 19 30
REMARK SMILES IDX 20 31 21 32 79 33 22 34 78 35 23 36 24 37 25 38 72 39 26 40
REMARK SMILES IDX 77 41 71 42 73 43 27 44 76 45 70 46 69 47 28 49 58 50 39 51
REMARK SMILES IDX 57 52 40 53 43 54 56 55 74 56 41 57 42 58 55 60 75 61 44 62
REMARK SMILES IDX 29 63 30 64 38 65 31 66 37 67 32 68 33 69 34 70 35 71 36 72
REMARK SMILES IDX 59 73 60 74 68 75 61 76 67 77 62 78 63 79 64 80 65 81 66 82
REMARK SMILES IDX 45 83 46 84 54 85 47 86 53 87 48 88 49 89 50 90 51 91 52 92
REMARK H PARENT 13 5 3 14 6 17 10 22 10 23 10 24 17 29 73 48 43 59
REMARK Flexibility Score: inf
ROOT
ATOM      1  C   UNL A   1      32.356  26.413  25.456  1.00  0.00     0.117 C 
ENDROOT
BRANCH   1   2
ATOM      2  N   UNL A   1      33.034  26.383  24.165  1.00  0.00    -0.354 N 
ATOM      3  C   UNL A   1      33.647  25.344  23.508  1.00  0.00     0.255 C 
ATOM      4  O   UNL A   1      34.035  25.566  22.361  1.00  0.00    -0.272 OA
ATOM      5  H   UNL A   1      33.055  27.245  23.688  1.00  0.00     0.163 HD
BRANCH   3   6
ATOM      6  C   UNL A   1      33.658  23.947  24.158  1.00  0.00     0.213 C 
ATOM      7  C   UNL A   1      34.033  23.003  22.994  1.00  0.00     0.056 C 
BRANCH   6   8
ATOM      8  C   UNL A   1      34.762  23.951  25.231  1.00  0.00     0.420 C 
ATOM      9  F   UNL A   1      35.514  25.074  25.195  1.00  0.00    -0.168 F 
ATOM     10  F   UNL A   1      34.224  23.896  26.478  1.00  0.00    -0.168 F 
ATOM     11  F   UNL A   1      35.585  22.882  25.136  1.00  0.00    -0.168 F 
ENDBRANCH   6   8
BRANCH   6  12
ATOM     12  N   UNL A   1      32.285  23.804  24.758  1.00  0.00    -0.316 N 
ATOM     13  C   UNL A   1      31.534  22.938  25.432  1.00  0.00     0.315 C 
ATOM     14  H   UNL A   1      31.770  24.627  24.595  1.00  0.00     0.166 HD
ATOM     15  O   UNL A   1      30.442  23.345  25.832  1.00  0.00    -0.249 OA
ATOM     16  N   UNL A   1      31.849  21.665  25.668  1.00  0.00    -0.338 N 
ATOM     17  H   UNL A   1      31.188  21.176  26.210  1.00  0.00     0.165 HD
BRANCH  16  18
ATOM     18  C   UNL A   1      32.985  20.880  25.271  1.00  0.00     0.123 C 
BRANCH  18  19
ATOM     19  C   UNL A   1      32.679  19.700  24.366  1.00  0.00     0.082 C 
BRANCH  19  20
ATOM     20  C   UNL A   1      32.313  18.400  25.074  1.00  0.00     0.260 C 
BRANCH  20  21
ATOM     21  N   UNL A   1      32.934  18.287  26.390  1.00  0.00    -0.358 N 
ATOM     22  H   UNL A   1      32.624  19.060  26.979  1.00  0.00     0.344 HD
ATOM     23  H   UNL A   1      33.948  18.320  26.292  1.00  0.00     0.344 HD
ATOM     24  H   UNL A   1      32.661  17.403  26.819  1.00  0.00     0.344 HD
ENDBRANCH  20  21
ENDBRANCH  19  20
ENDBRANCH  18  19
ENDBRANCH  16  18
ENDBRANCH   6  12
ENDBRANCH   3   6
ENDBRANCH   1   2
BRANCH   1  25
ATOM     25  C   UNL A   1      33.258  26.958  26.546  1.00  0.00     0.042 C 
BRANCH  25  26
ATOM     26  C   UNL A   1      34.124  28.101  26.052  1.00  0.00     0.118 C 
BRANCH  26  27
ATOM     27  N   UNL A   1      33.654  29.394  26.533  1.00  0.00    -0.352 N 
ATOM     28  C   UNL A   1      34.235  30.240  27.443  1.00  0.00     0.251 C 
ATOM     29  H   UNL A   1      32.801  29.704  26.151  1.00  0.00     0.163 HD
ATOM     30  O   UNL A   1      33.597  31.190  27.890  1.00  0.00    -0.269 OA
BRANCH  28  31
ATOM     31  C   UNL A   1      35.616  29.981  27.889  1.00  0.00     0.039 A 
ATOM     32  C   UNL A   1      35.841  29.560  29.198  1.00  0.00     0.014 A 
ATOM     33  C   UNL A   1      36.684  30.131  26.998  1.00  0.00     0.014 A 
ATOM     34  C   UNL A   1      37.138  29.238  29.599  1.00  0.00     0.010 A 
ATOM     35  C   UNL A   1      37.950  29.703  27.364  1.00  0.00     0.010 A 
ATOM     36  C   UNL A   1      38.196  29.274  28.674  1.00  0.00    -0.014 A 
BRANCH  36  37
ATOM     37  C   UNL A   1      39.574  28.896  29.070  1.00  0.00     0.031 A 
ATOM     38  C   UNL A   1      40.439  29.883  29.808  1.00  0.00     0.074 A 
ATOM     39  C   UNL A   1      40.058  27.687  28.724  1.00  0.00     0.049 A 
ATOM     40  N   UNL A   1      41.673  29.748  30.220  1.00  0.00    -0.248 NA
ATOM     41  C   UNL A   1      39.855  31.205  30.095  1.00  0.00     0.031 C 
ATOM     42  C   UNL A   1      39.331  26.668  27.963  1.00  0.00     0.029 A 
ATOM     43  N   UNL A   1      41.276  27.110  28.971  1.00  0.00    -0.354 N 
ATOM     44  C   UNL A   1      42.014  30.966  30.797  1.00  0.00     0.074 A 
ATOM     45  C   UNL A   1      40.883  31.850  30.623  1.00  0.00     0.031 C 
ATOM     46  C   UNL A   1      40.102  25.575  27.843  1.00  0.00     0.029 A 
ATOM     47  C   UNL A   1      41.390  25.831  28.479  1.00  0.00     0.049 A 
ATOM     48  H   UNL A   1      42.001  27.566  29.456  1.00  0.00     0.167 HD
ATOM     49  C   UNL A   1      43.154  31.311  31.440  1.00  0.00     0.031 A 
ATOM     50  C   UNL A   1      42.417  24.961  28.534  1.00  0.00     0.031 A 
ATOM     51  C   UNL A   1      44.270  30.423  31.618  1.00  0.00     0.049 A 
ATOM     52  C   UNL A   1      43.676  25.369  29.252  1.00  0.00     0.074 A 
ATOM     53  C   UNL A   1      45.452  30.653  32.300  1.00  0.00     0.029 A 
ATOM     54  N   UNL A   1      44.344  29.134  31.111  1.00  0.00    -0.354 N 
ATOM     55  N   UNL A   1      43.952  26.501  29.854  1.00  0.00    -0.248 NA
ATOM     56  C   UNL A   1      44.752  24.372  29.313  1.00  0.00     0.031 C 
ATOM     57  C   UNL A   1      46.265  29.525  32.155  1.00  0.00     0.029 A 
ATOM     58  C   UNL A   1      45.562  28.565  31.445  1.00  0.00     0.049 A 
ATOM     59  H   UNL A   1      43.636  28.690  30.591  1.00  0.00     0.167 HD
ATOM     60  C   UNL A   1      45.224  26.342  30.393  1.00  0.00     0.074 A 
ATOM     61  C   UNL A   1      45.650  24.997  30.061  1.00  0.00     0.031 C 
ATOM     62  C   UNL A   1      45.971  27.225  31.101  1.00  0.00     0.031 A 
BRANCH  49  63
ATOM     63  C   UNL A   1      43.247  32.711  31.993  1.00  0.00    -0.014 A 
ATOM     64  C   UNL A   1      43.749  33.771  31.214  1.00  0.00     0.010 A 
ATOM     65  C   UNL A   1      42.795  32.978  33.298  1.00  0.00     0.010 A 
ATOM     66  C   UNL A   1      43.836  35.060  31.744  1.00  0.00     0.020 A 
ATOM     67  C   UNL A   1      42.850  34.274  33.819  1.00  0.00     0.020 A 
ATOM     68  C   UNL A   1      43.387  35.303  33.045  1.00  0.00     0.054 A 
BRANCH  68  69
ATOM     69  S   UNL A   1      43.486  36.993  33.695  1.00  0.00     0.124 S 
ATOM     70  O   UNL A   1      43.630  37.778  32.471  1.00  0.00    -0.237 OA
ATOM     71  O   UNL A   1      42.212  37.144  34.391  1.00  0.00    -0.237 OA
ATOM     72  O   UNL A   1      44.666  36.966  34.556  1.00  0.00    -0.744 OA
ENDBRANCH  68  69
ENDBRANCH  49  63
BRANCH  50  73
ATOM     73  C   UNL A   1      42.287  23.614  27.914  1.00  0.00    -0.014 A 
ATOM     74  C   UNL A   1      41.744  22.539  28.642  1.00  0.00     0.010 A 
ATOM     75  C   UNL A   1      42.697  23.398  26.586  1.00  0.00     0.010 A 
ATOM     76  C   UNL A   1      41.637  21.271  28.063  1.00  0.00     0.020 A 
ATOM     77  C   UNL A   1      42.562  22.140  25.992  1.00  0.00     0.020 A 
ATOM     78  C   UNL A   1      42.044  21.080  26.740  1.00  0.00     0.054 A 
BRANCH  78  79
ATOM     79  S   UNL A   1      41.854  19.437  25.995  1.00  0.00     0.124 S 
ATOM     80  O   UNL A   1      42.726  19.530  24.828  1.00  0.00    -0.237 OA
ATOM     81  O   UNL A   1      42.316  18.554  27.063  1.00  0.00    -0.237 OA
ATOM     82  O   UNL A   1      40.424  19.357  25.705  1.00  0.00    -0.744 OA
ENDBRANCH  78  79
ENDBRANCH  50  73
BRANCH  62  83
ATOM     83  C   UNL A   1      47.310  26.750  31.602  1.00  0.00    -0.014 A 
ATOM     84  C   UNL A   1      47.445  26.114  32.848  1.00  0.00     0.010 A 
ATOM     85  C   UNL A   1      48.448  26.917  30.791  1.00  0.00     0.010 A 
ATOM     86  C   UNL A   1      48.702  25.699  33.296  1.00  0.00     0.020 A 
ATOM     87  C   UNL A   1      49.700  26.472  31.220  1.00  0.00     0.020 A 
ATOM     88  C   UNL A   1      49.822  25.885  32.480  1.00  0.00     0.054 A 
BRANCH  88  89
ATOM     89  S   UNL A   1      51.440  25.324  33.077  1.00  0.00     0.124 S 
ATOM     90  O   UNL A   1      52.351  26.223  32.375  1.00  0.00    -0.237 OA
ATOM     91  O   UNL A   1      51.338  25.533  34.519  1.00  0.00    -0.237 OA
ATOM     92  O   UNL A   1      51.498  23.926  32.659  1.00  0.00    -0.744 OA
ENDBRANCH  88  89
ENDBRANCH  62  83
ENDBRANCH  36  37
ENDBRANCH  28  31
ENDBRANCH  26  27
ENDBRANCH  25  26
ENDBRANCH   1  25
TORSDOF 19
ENDMDL
MODEL 2
REMARK VINA RESULT:      -9.2      2.311      2.991
REMARK SMILES C[C@](NC(=O)NCCC[NH3+])(C(=O)NCCCNC(=O)c1ccc(-c2c3nc(c(-c4ccc(S(=O)(=O)[O-])cc4)c4ccc([nH]4)c(-c4ccc(S(=O)(=O)[O-])cc4)c4nc(c(-c5ccc(S(=O)(=O)[O-])cc5)c5ccc2[nH]5)C=C4)C=C3)cc1)C(F)(F)F
REMARK SMILES IDX 14 1 13 2 11 3 12 4 2 6 1 7 80 8 81 9 82 10 83 11 3 12 4 13
REMARK SMILES IDX 5 15 6 16 7 18 8 19 9 20 10 21 15 25 16 26 17 27 18 28 19 30
REMARK SMILES IDX 20 31 21 32 79 33 22 34 78 35 23 36 24 37 25 38 72 39 26 40
REMARK SMILES IDX 77 41 71 42 73 43 27 44 76 45 70 46 69 47 28 49 58 50 39 51
REMARK SMILES IDX 57 52 40 53 43 54 56 55 74 56 41 57 42 58 55 60 75 61 44 62
REMARK SMILES IDX 29 63 30 64 38 65 31 66 37 67 32 68 33 69 34 70 35 71 36 72
REMARK SMILES IDX 59 73 60 74 68 75 61 76 67 77 62 78 63 79 64 80 65 81 66 82
REMARK SMILES IDX 45 83 46 84 54 85 47 86 53 87 48 88 49 89 50 90 51 91 52 92
REMARK H PARENT 13 5 3 14 6 17 10 22 10 23 10 24 17 29 73 48 43 59
REMARK Flexibility Score: inf
ROOT
ATOM      1  C   UNL A   1      33.032  26.766  25.640  1.00  0.00     0.117 C 
ENDROOT
BRANCH   1   2
ATOM      2  N   UNL A   1      32.172  26.810  24.462  1.00  0.00    -0.354 N 
ATOM      3  C   UNL A   1      31.706  25.794  23.665  1.00  0.00     0.255 C 
ATOM      4  O   UNL A   1      30.886  26.100  22.800  1.00  0.00    -0.272 OA
ATOM      5  H   UNL A   1      31.880  27.713  24.196  1.00  0.00     0.163 HD
BRANCH   3   6
ATOM      6  C   UNL A   1      32.091  24.340  24.000  1.00  0.00     0.213 C 
ATOM      7  C   UNL A   1      31.231  23.498  23.033  1.00  0.00     0.056 C 
BRANCH   6   8
ATOM      8  C   UNL A   1      33.588  24.177  23.677  1.00  0.00     0.420 C 
ATOM      9  F   UNL A   1      34.354  24.126  24.791  1.00  0.00    -0.168 F 
ATOM     10  F   UNL A   1      33.815  23.015  23.009  1.00  0.00    -0.168 F 
ATOM     11  F   UNL A   1      34.059  25.162  22.879  1.00  0.00    -0.168 F 
ENDBRANCH   6   8
BRANCH   6  12
ATOM     12  N   UNL A   1      31.813  24.211  25.474  1.00  0.00    -0.316 N 
ATOM     13  C   UNL A   1      31.791  23.307  26.450  1.00  0.00     0.315 C 
ATOM     14  H   UNL A   1      31.560  25.090  25.836  1.00  0.00     0.166 HD
ATOM     15  O   UNL A   1      31.607  23.729  27.592  1.00  0.00    -0.249 OA
ATOM     16  N   UNL A   1      31.910  21.990  26.283  1.00  0.00    -0.338 N 
ATOM     17  H   UNL A   1      31.902  21.473  27.120  1.00  0.00     0.165 HD
BRANCH  16  18
ATOM     18  C   UNL A   1      32.048  21.193  25.096  1.00  0.00     0.123 C 
BRANCH  18  19
ATOM     19  C   UNL A   1      33.251  20.267  25.068  1.00  0.00     0.082 C 
BRANCH  19  20
ATOM     20  C   UNL A   1      32.941  18.777  25.148  1.00  0.00     0.260 C 
BRANCH  20  21
ATOM     21  N   UNL A   1      32.770  18.315  26.522  1.00  0.00    -0.358 N 
ATOM     22  H   UNL A   1      33.656  18.396  27.020  1.00  0.00     0.344 HD
ATOM     23  H   UNL A   1      32.470  17.340  26.518  1.00  0.00     0.344 HD
ATOM     24  H   UNL A   1      32.065  18.886  26.987  1.00  0.00     0.344 HD
ENDBRANCH  20  21
ENDBRANCH  19  20
ENDBRANCH  18  19
ENDBRANCH  16  18
ENDBRANCH   6  12
ENDBRANCH   3   6
ENDBRANCH   1   2
BRANCH   1  25
ATOM     25  C   UNL A   1      33.955  27.967  25.701  1.00  0.00     0.042 C 
BRANCH  25  26
ATOM     26  C   UNL A   1      33.996  28.588  27.085  1.00  0.00     0.118 C 
BRANCH  26  27
ATOM     27  N   UNL A   1      33.762  30.026  27.049  1.00  0.00    -0.352 N 
ATOM     28  C   UNL A   1      34.410  31.023  27.731  1.00  0.00     0.251 C 
ATOM     29  H   UNL A   1      33.037  30.323  26.452  1.00  0.00     0.163 HD
ATOM     30  O   UNL A   1      33.944  32.160  27.744  1.00  0.00    -0.269 OA
BRANCH  28  31
ATOM     31  C   UNL A   1      35.652  30.708  28.462  1.00  0.00     0.039 A 
ATOM     32  C   UNL A   1      35.624  29.744  29.468  1.00  0.00     0.014 A 
ATOM     33  C   UNL A   1      36.848  31.351  28.127  1.00  0.00     0.014 A 
ATOM     34  C   UNL A   1      36.812  29.387  30.104  1.00  0.00     0.010 A 
ATOM     35  C   UNL A   1      38.041  30.914  28.680  1.00  0.00     0.010 A 
ATOM     36  C   UNL A   1      38.035  29.945  29.691  1.00  0.00    -0.014 A 
BRANCH  36  37
ATOM     37  C   UNL A   1      39.313  29.549  30.328  1.00  0.00     0.031 A 
ATOM     38  C   UNL A   1      39.788  30.263  31.566  1.00  0.00     0.074 A 
ATOM     39  C   UNL A   1      40.066  28.583  29.765  1.00  0.00     0.049 A 
ATOM     40  N   UNL A   1      40.884  30.076  32.254  1.00  0.00    -0.248 NA
ATOM     41  C   UNL A   1      38.935  31.348  32.082  1.00  0.00     0.031 C 
ATOM     42  C   UNL A   1      39.735  27.856  28.536  1.00  0.00     0.029 A 
ATOM     43  N   UNL A   1      41.263  28.042  30.157  1.00  0.00    -0.354 N 
ATOM     44  C   UNL A   1      40.859  31.026  33.269  1.00  0.00     0.074 A 
ATOM     45  C   UNL A   1      39.675  31.831  33.068  1.00  0.00     0.031 C 
ATOM     46  C   UNL A   1      40.684  26.937  28.299  1.00  0.00     0.029 A 
ATOM     47  C   UNL A   1      41.710  27.037  29.331  1.00  0.00     0.049 A 
ATOM     48  H   UNL A   1      41.756  28.344  30.953  1.00  0.00     0.167 HD
ATOM     49  C   UNL A   1      41.727  31.196  34.293  1.00  0.00     0.031 A 
ATOM     50  C   UNL A   1      42.823  26.281  29.399  1.00  0.00     0.031 A 
ATOM     51  C   UNL A   1      42.897  30.385  34.492  1.00  0.00     0.049 A 
ATOM     52  C   UNL A   1      43.775  26.491  30.546  1.00  0.00     0.074 A 
ATOM     53  C   UNL A   1      43.815  30.437  35.525  1.00  0.00     0.029 A 
ATOM     54  N   UNL A   1      43.312  29.373  33.638  1.00  0.00    -0.354 N 
ATOM     55  N   UNL A   1      43.697  27.348  31.536  1.00  0.00    -0.248 NA
ATOM     56  C   UNL A   1      44.955  25.619  30.592  1.00  0.00     0.031 C 
ATOM     57  C   UNL A   1      44.817  29.498  35.266  1.00  0.00     0.029 A 
ATOM     58  C   UNL A   1      44.486  28.810  34.109  1.00  0.00     0.049 A 
ATOM     59  H   UNL A   1      42.842  29.097  32.818  1.00  0.00     0.167 HD
ATOM     60  C   UNL A   1      44.802  27.096  32.342  1.00  0.00     0.074 A 
ATOM     61  C   UNL A   1      45.519  25.994  31.731  1.00  0.00     0.031 C 
ATOM     62  C   UNL A   1      45.189  27.716  33.484  1.00  0.00     0.031 A 
BRANCH  49  63
ATOM     63  C   UNL A   1      41.441  32.307  35.272  1.00  0.00    -0.014 A 
ATOM     64  C   UNL A   1      40.700  32.072  36.446  1.00  0.00     0.010 A 
ATOM     65  C   UNL A   1      41.948  33.597  35.033  1.00  0.00     0.010 A 
ATOM     66  C   UNL A   1      40.437  33.114  37.338  1.00  0.00     0.020 A 
ATOM     67  C   UNL A   1      41.715  34.634  35.941  1.00  0.00     0.020 A 
ATOM     68  C   UNL A   1      40.945  34.389  37.079  1.00  0.00     0.054 A 
BRANCH  68  69
ATOM     69  S   UNL A   1      40.611  35.715  38.271  1.00  0.00     0.124 S 
ATOM     70  O   UNL A   1      41.941  35.970  38.817  1.00  0.00    -0.237 OA
ATOM     71  O   UNL A   1      40.065  36.774  37.426  1.00  0.00    -0.237 OA
ATOM     72  O   UNL A   1      39.662  35.112  39.203  1.00  0.00    -0.744 OA
ENDBRANCH  68  69
ENDBRANCH  49  63
BRANCH  50  73
ATOM     73  C   UNL A   1      43.081  25.241  28.365  1.00  0.00    -0.014 A 
ATOM     74  C   UNL A   1      42.498  23.966  28.471  1.00  0.00     0.010 A 
ATOM     75  C   UNL A   1      43.906  25.523  27.261  1.00  0.00     0.010 A 
ATOM     76  C   UNL A   1      42.754  22.986  27.507  1.00  0.00     0.020 A 
ATOM     77  C   UNL A   1      44.139  24.558  26.278  1.00  0.00     0.020 A 
ATOM     78  C   UNL A   1      43.571  23.289  26.415  1.00  0.00     0.054 A 
BRANCH  78  79
ATOM     79  S   UNL A   1      43.854  22.016  25.154  1.00  0.00     0.124 S 
ATOM     80  O   UNL A   1      42.908  20.978  25.553  1.00  0.00    -0.237 OA
ATOM     81  O   UNL A   1      43.533  22.724  23.917  1.00  0.00    -0.237 OA
ATOM     82  O   UNL A   1      45.265  21.677  25.321  1.00  0.00    -0.744 OA
ENDBRANCH  78  79
ENDBRANCH  50  73
BRANCH  62  83
ATOM     83  C   UNL A   1      46.420  27.189  34.173  1.00  0.00    -0.014 A 
ATOM     84  C   UNL A   1      47.697  27.710  33.898  1.00  0.00     0.010 A 
ATOM     85  C   UNL A   1      46.288  26.172  35.137  1.00  0.00     0.010 A 
ATOM     86  C   UNL A   1      48.825  27.189  34.538  1.00  0.00     0.020 A 
ATOM     87  C   UNL A   1      47.408  25.674  35.805  1.00  0.00     0.020 A 
ATOM     88  C   UNL A   1      48.672  26.171  35.485  1.00  0.00     0.054 A 
BRANCH  88  89
ATOM     89  S   UNL A   1      50.150  25.523  36.314  1.00  0.00     0.124 S 
ATOM     90  O   UNL A   1      49.596  24.435  37.115  1.00  0.00    -0.237 OA
ATOM     91  O   UNL A   1      50.991  25.113  35.192  1.00  0.00    -0.237 OA
ATOM     92  O   UNL A   1      50.650  26.665  37.075  1.00  0.00    -0.744 OA
ENDBRANCH  88  89
ENDBRANCH  62  83
ENDBRANCH  36  37
ENDBRANCH  28  31
ENDBRANCH  26  27
ENDBRANCH  25  26
ENDBRANCH   1  25
TORSDOF 19
ENDMDL
MODEL 3
REMARK VINA RESULT:      -9.2      1.567      2.226
REMARK SMILES C[C@](NC(=O)NCCC[NH3+])(C(=O)NCCCNC(=O)c1ccc(-c2c3nc(c(-c4ccc(S(=O)(=O)[O-])cc4)c4ccc([nH]4)c(-c4ccc(S(=O)(=O)[O-])cc4)c4nc(c(-c5ccc(S(=O)(=O)[O-])cc5)c5ccc2[nH]5)C=C4)C=C3)cc1)C(F)(F)F
REMARK SMILES IDX 14 1 13 2 11 3 12 4 2 6 1 7 80 8 81 9 82 10 83 11 3 12 4 13
REMARK SMILES IDX 5 15 6 16 7 18 8 19 9 20 10 21 15 25 16 26 17 27 18 28 19 30
REMARK SMILES IDX 20 31 21 32 79 33 22 34 78 35 23 36 24 37 25 38 72 39 26 40
REMARK SMILES IDX 77 41 71 42 73 43 27 44 76 45 70 46 69 47 28 49 58 50 39 51
REMARK SMILES IDX 57 52 40 53 43 54 56 55 74 56 41 57 42 58 55 60 75 61 44 62
REMARK SMILES IDX 29 63 30 64 38 65 31 66 37 67 32 68 33 69 34 70 35 71 36 72
REMARK SMILES IDX 59 73 60 74 68 75 61 76 67 77 62 78 63 79 64 80 65 81 66 82
REMARK SMILES IDX 45 83 46 84 54 85 47 86 53 87 48 88 49 89 50 90 51 91 52 92
REMARK H PARENT 13 5 3 14 6 17 10 22 10 23 10 24 17 29 73 48 43 59
REMARK Flexibility Score: inf
ROOT
ATOM      1  C   UNL A   1      33.036  27.597  24.835  1.00  0.00     0.117 C 
ENDROOT
BRANCH   1   2
ATOM      2  N   UNL A   1      33.582  26.789  23.751  1.00  0.00    -0.354 N 
ATOM      3  C   UNL A   1      33.264  25.516  23.344  1.00  0.00     0.255 C 
ATOM      4  O   UNL A   1      33.798  25.115  22.310  1.00  0.00    -0.272 OA
ATOM      5  H   UNL A   1      34.293  27.226  23.226  1.00  0.00     0.163 HD
BRANCH   3   6
ATOM      6  C   UNL A   1      32.155  24.746  24.086  1.00  0.00     0.213 C 
ATOM      7  C   UNL A   1      32.397  25.091  25.572  1.00  0.00     0.056 C 
BRANCH   6   8
ATOM      8  C   UNL A   1      30.806  25.314  23.610  1.00  0.00     0.420 C 
ATOM      9  F   UNL A   1      30.942  26.164  22.567  1.00  0.00    -0.168 F 
ATOM     10  F   UNL A   1      29.986  24.318  23.181  1.00  0.00    -0.168 F 
ATOM     11  F   UNL A   1      30.132  25.951  24.594  1.00  0.00    -0.168 F 
ENDBRANCH   6   8
BRANCH   6  12
ATOM     12  N   UNL A   1      32.348  23.314  23.662  1.00  0.00    -0.316 N 
ATOM     13  C   UNL A   1      33.086  22.242  23.937  1.00  0.00     0.315 C 
ATOM     14  H   UNL A   1      31.717  23.101  22.937  1.00  0.00     0.166 HD
ATOM     15  O   UNL A   1      32.775  21.195  23.368  1.00  0.00    -0.249 OA
ATOM     16  N   UNL A   1      34.150  22.224  24.738  1.00  0.00    -0.338 N 
ATOM     17  H   UNL A   1      34.559  21.336  24.851  1.00  0.00     0.165 HD
BRANCH  16  18
ATOM     18  C   UNL A   1      34.806  23.274  25.467  1.00  0.00     0.123 C 
BRANCH  18  19
ATOM     19  C   UNL A   1      36.152  23.710  24.915  1.00  0.00     0.082 C 
BRANCH  19  20
ATOM     20  C   UNL A   1      37.321  22.777  25.210  1.00  0.00     0.260 C 
BRANCH  20  21
ATOM     21  N   UNL A   1      38.116  23.221  26.351  1.00  0.00    -0.358 N 
ATOM     22  H   UNL A   1      38.125  24.241  26.382  1.00  0.00     0.344 HD
ATOM     23  H   UNL A   1      39.070  22.876  26.256  1.00  0.00     0.344 HD
ATOM     24  H   UNL A   1      37.707  22.859  27.212  1.00  0.00     0.344 HD
ENDBRANCH  20  21
ENDBRANCH  19  20
ENDBRANCH  18  19
ENDBRANCH  16  18
ENDBRANCH   6  12
ENDBRANCH   3   6
ENDBRANCH   1   2
BRANCH   1  25
ATOM     25  C   UNL A   1      34.125  28.088  25.768  1.00  0.00     0.042 C 
BRANCH  25  26
ATOM     26  C   UNL A   1      33.609  28.329  27.174  1.00  0.00     0.118 C 
BRANCH  26  27
ATOM     27  N   UNL A   1      33.497  29.748  27.483  1.00  0.00    -0.352 N 
ATOM     28  C   UNL A   1      34.404  30.572  28.097  1.00  0.00     0.251 C 
ATOM     29  H   UNL A   1      32.652  30.176  27.212  1.00  0.00     0.163 HD
ATOM     30  O   UNL A   1      34.062  31.693  28.467  1.00  0.00    -0.269 OA
BRANCH  28  31
ATOM     31  C   UNL A   1      35.779  30.090  28.323  1.00  0.00     0.039 A 
ATOM     32  C   UNL A   1      36.702  30.150  27.280  1.00  0.00     0.014 A 
ATOM     33  C   UNL A   1      36.157  29.604  29.579  1.00  0.00     0.014 A 
ATOM     34  C   UNL A   1      38.023  29.769  27.515  1.00  0.00     0.010 A 
ATOM     35  C   UNL A   1      37.492  29.335  29.839  1.00  0.00     0.010 A 
ATOM     36  C   UNL A   1      38.435  29.391  28.805  1.00  0.00    -0.014 A 
BRANCH  36  37
ATOM     37  C   UNL A   1      39.843  29.022  29.084  1.00  0.00     0.031 A 
ATOM     38  C   UNL A   1      40.772  30.027  29.714  1.00  0.00     0.074 A 
ATOM     39  C   UNL A   1      40.295  27.804  28.727  1.00  0.00     0.049 A 
ATOM     40  N   UNL A   1      42.037  29.901  30.016  1.00  0.00    -0.248 NA
ATOM     41  C   UNL A   1      40.214  31.357  30.018  1.00  0.00     0.031 C 
ATOM     42  C   UNL A   1      39.503  26.766  28.062  1.00  0.00     0.029 A 
ATOM     43  N   UNL A   1      41.531  27.231  28.878  1.00  0.00    -0.354 N 
ATOM     44  C   UNL A   1      42.428  31.133  30.528  1.00  0.00     0.074 A 
ATOM     45  C   UNL A   1      41.285  32.014  30.434  1.00  0.00     0.031 C 
ATOM     46  C   UNL A   1      40.261  25.669  27.902  1.00  0.00     0.029 A 
ATOM     47  C   UNL A   1      41.601  25.939  28.412  1.00  0.00     0.049 A 
ATOM     48  H   UNL A   1      42.296  27.699  29.283  1.00  0.00     0.167 HD
ATOM     49  C   UNL A   1      43.622  31.492  31.055  1.00  0.00     0.031 A 
ATOM     50  C   UNL A   1      42.629  25.070  28.397  1.00  0.00     0.031 A 
ATOM     51  C   UNL A   1      44.750  30.608  31.155  1.00  0.00     0.049 A 
ATOM     52  C   UNL A   1      43.947  25.494  28.986  1.00  0.00     0.074 A 
ATOM     53  C   UNL A   1      45.988  30.854  31.721  1.00  0.00     0.029 A 
ATOM     54  N   UNL A   1      44.779  29.306  30.677  1.00  0.00    -0.354 N 
ATOM     55  N   UNL A   1      44.276  26.642  29.530  1.00  0.00    -0.248 NA
ATOM     56  C   UNL A   1      45.026  24.498  28.975  1.00  0.00     0.031 C 
ATOM     57  C   UNL A   1      46.786  29.721  31.532  1.00  0.00     0.029 A 
ATOM     58  C   UNL A   1      46.022  28.744  30.914  1.00  0.00     0.049 A 
ATOM     59  H   UNL A   1      44.027  28.849  30.235  1.00  0.00     0.167 HD
ATOM     60  C   UNL A   1      45.593  26.495  29.956  1.00  0.00     0.074 A 
ATOM     61  C   UNL A   1      45.988  25.141  29.623  1.00  0.00     0.031 C 
ATOM     62  C   UNL A   1      46.400  27.395  30.570  1.00  0.00     0.031 A 
BRANCH  49  63
ATOM     63  C   UNL A   1      43.763  32.907  31.560  1.00  0.00    -0.014 A 
ATOM     64  C   UNL A   1      44.262  33.930  30.732  1.00  0.00     0.010 A 
ATOM     65  C   UNL A   1      43.361  33.224  32.870  1.00  0.00     0.010 A 
ATOM     66  C   UNL A   1      44.395  35.233  31.218  1.00  0.00     0.020 A 
ATOM     67  C   UNL A   1      43.461  34.534  33.349  1.00  0.00     0.020 A 
ATOM     68  C   UNL A   1      43.994  35.526  32.525  1.00  0.00     0.054 A 
BRANCH  68  69
ATOM     69  S   UNL A   1      44.152  37.233  33.117  1.00  0.00     0.124 S 
ATOM     70  O   UNL A   1      45.509  37.240  33.658  1.00  0.00    -0.237 OA
ATOM     71  O   UNL A   1      43.957  38.014  31.899  1.00  0.00    -0.237 OA
ATOM     72  O   UNL A   1      43.087  37.356  34.110  1.00  0.00    -0.744 OA
ENDBRANCH  68  69
ENDBRANCH  49  63
BRANCH  50  73
ATOM     73  C   UNL A   1      42.444  23.707  27.826  1.00  0.00    -0.014 A 
ATOM     74  C   UNL A   1      41.868  22.681  28.597  1.00  0.00     0.010 A 
ATOM     75  C   UNL A   1      42.837  23.428  26.505  1.00  0.00     0.010 A 
ATOM     76  C   UNL A   1      41.709  21.397  28.064  1.00  0.00     0.020 A 
ATOM     77  C   UNL A   1      42.651  22.156  25.957  1.00  0.00     0.020 A 
ATOM     78  C   UNL A   1      42.099  21.144  26.746  1.00  0.00     0.054 A 
BRANCH  78  79
ATOM     79  S   UNL A   1      41.843  19.483  26.063  1.00  0.00     0.124 S 
ATOM     80  O   UNL A   1      42.310  18.631  27.152  1.00  0.00    -0.237 OA
ATOM     81  O   UNL A   1      40.404  19.464  25.816  1.00  0.00    -0.237 OA
ATOM     82  O   UNL A   1      42.674  19.476  24.861  1.00  0.00    -0.744 OA
ENDBRANCH  78  79
ENDBRANCH  50  73
BRANCH  62  83
ATOM     83  C   UNL A   1      47.779  26.931  30.960  1.00  0.00    -0.014 A 
ATOM     84  C   UNL A   1      48.881  27.099  30.104  1.00  0.00     0.010 A 
ATOM     85  C   UNL A   1      47.976  26.345  32.224  1.00  0.00     0.010 A 
ATOM     86  C   UNL A   1      50.146  26.643  30.484  1.00  0.00     0.020 A 
ATOM     87  C   UNL A   1      49.245  25.920  32.622  1.00  0.00     0.020 A 
ATOM     88  C   UNL A   1      50.318  26.053  31.740  1.00  0.00     0.054 A 
BRANCH  88  89
ATOM     89  S   UNL A   1      51.973  25.483  32.216  1.00  0.00     0.124 S 
ATOM     90  O   UNL A   1      52.780  25.905  31.074  1.00  0.00    -0.237 OA
ATOM     91  O   UNL A   1      52.215  26.211  33.460  1.00  0.00    -0.237 OA
ATOM     92  O   UNL A   1      51.813  24.040  32.367  1.00  0.00    -0.744 OA
ENDBRANCH  88  89
ENDBRANCH  62  83
ENDBRANCH  36  37
ENDBRANCH  28  31
ENDBRANCH  26  27
ENDBRANCH  25  26
ENDBRANCH   1  25
TORSDOF 19
ENDMDL
