MODEL 1
REMARK VINA RESULT:     -13.3      0.000      0.000
REMARK SMILES Cc1ccc(NC(=O)N2CCCC[C@@H]2C(=O)NCCCNC(=O)c2ccc(-c3c4nc(c(-c5ccc(S(=O)(=O)[O-])cc5)c5ccc([nH]5)c(-c5ccc(S(=O)(=O)[O-])cc5)c5nc(c(-c6ccc(S(=O)(=O)[O-])cc6)c6ccc3[nH]6)C=C5)C=C4)cc2)cc1
REMARK SMILES IDX 19 1 18 2 17 3 15 4 16 5 14 7 9 8 10 9 11 10 13 11 12 12
REMARK SMILES IDX 7 13 6 14 8 16 5 17 1 18 2 19 3 20 85 21 4 22 84 23 20 24
REMARK SMILES IDX 21 25 22 26 23 28 24 29 25 30 83 31 26 32 82 33 27 34 28 35
REMARK SMILES IDX 29 36 76 37 30 38 81 39 75 40 77 41 31 42 80 43 74 44 73 45
REMARK SMILES IDX 32 47 62 48 43 49 61 50 44 51 47 52 60 53 78 54 45 55 46 56
REMARK SMILES IDX 59 58 79 59 48 60 33 61 34 62 42 63 35 64 41 65 36 66 37 67
REMARK SMILES IDX 38 68 39 69 40 70 63 71 64 72 72 73 65 74 71 75 66 76 67 77
REMARK SMILES IDX 68 78 69 79 70 80 49 81 50 82 58 83 51 84 57 85 52 86 53 87
REMARK SMILES IDX 54 88 55 89 56 90
REMARK H PARENT 17 6 6 15 21 27 77 46 47 57
REMARK Flexibility Score: inf
ROOT
ATOM      1  C   UNL A   1      32.810  29.750  26.851  1.00  0.00     0.042 C 
ENDROOT
BRANCH   1   2
ATOM      2  C   UNL A   1      31.948  28.564  27.270  1.00  0.00     0.117 C 
BRANCH   2   3
ATOM      3  N   UNL A   1      32.592  27.286  26.994  1.00  0.00    -0.354 N 
ATOM      4  C   UNL A   1      32.848  26.630  25.826  1.00  0.00     0.242 C 
ATOM      5  O   UNL A   1      33.241  25.460  25.917  1.00  0.00    -0.273 OA
ATOM      6  H   UNL A   1      32.900  26.809  27.798  1.00  0.00     0.163 HD
BRANCH   4   7
ATOM      7  C   UNL A   1      32.487  27.209  24.432  1.00  0.00     0.176 C 
ATOM      8  N   UNL A   1      31.605  26.358  23.591  1.00  0.00    -0.313 N 
ATOM      9  C   UNL A   1      31.721  26.415  22.137  1.00  0.00     0.122 C 
ATOM     10  C   UNL A   1      33.117  26.685  21.607  1.00  0.00     0.022 C 
ATOM     11  C   UNL A   1      33.824  27.610  23.776  1.00  0.00     0.035 C 
ATOM     12  C   UNL A   1      33.709  27.900  22.293  1.00  0.00     0.004 C 
BRANCH   8  13
ATOM     13  C   UNL A   1      30.443  25.746  24.058  1.00  0.00     0.322 C 
ATOM     14  N   UNL A   1      30.219  24.437  23.763  1.00  0.00    -0.308 N 
ATOM     15  H   UNL A   1      29.361  24.233  23.327  1.00  0.00     0.171 HD
ATOM     16  O   UNL A   1      29.572  26.378  24.659  1.00  0.00    -0.248 OA
BRANCH  14  17
ATOM     17  C   UNL A   1      31.062  23.337  24.006  1.00  0.00     0.042 A 
ATOM     18  C   UNL A   1      33.235  19.707  24.777  1.00  0.00     0.044 C 
ATOM     19  C   UNL A   1      32.568  21.027  24.537  1.00  0.00    -0.051 A 
ATOM     20  C   UNL A   1      32.592  21.610  23.265  1.00  0.00     0.005 A 
ATOM     21  C   UNL A   1      31.830  21.646  25.553  1.00  0.00     0.005 A 
ATOM     22  C   UNL A   1      31.862  22.771  23.009  1.00  0.00     0.026 A 
ATOM     23  C   UNL A   1      31.095  22.806  25.295  1.00  0.00     0.026 A 
ENDBRANCH  14  17
ENDBRANCH   8  13
ENDBRANCH   4   7
ENDBRANCH   2   3
ENDBRANCH   1   2
BRANCH   1  24
ATOM     24  C   UNL A   1      34.273  29.585  27.241  1.00  0.00     0.118 C 
BRANCH  24  25
ATOM     25  N   UNL A   1      34.992  30.847  27.305  1.00  0.00    -0.352 N 
ATOM     26  C   UNL A   1      36.168  31.077  28.003  1.00  0.00     0.251 C 
ATOM     27  H   UNL A   1      34.612  31.606  26.808  1.00  0.00     0.163 HD
ATOM     28  O   UNL A   1      36.499  32.169  28.420  1.00  0.00    -0.269 OA
BRANCH  26  29
ATOM     29  C   UNL A   1      37.098  29.929  28.064  1.00  0.00     0.039 A 
ATOM     30  C   UNL A   1      37.200  29.256  29.288  1.00  0.00     0.014 A 
ATOM     31  C   UNL A   1      38.032  29.738  27.052  1.00  0.00     0.014 A 
ATOM     32  C   UNL A   1      38.334  28.493  29.554  1.00  0.00     0.010 A 
ATOM     33  C   UNL A   1      39.200  29.068  27.360  1.00  0.00     0.010 A 
ATOM     34  C   UNL A   1      39.369  28.473  28.620  1.00  0.00    -0.014 A 
BRANCH  34  35
ATOM     35  C   UNL A   1      40.689  27.904  28.881  1.00  0.00     0.031 A 
ATOM     36  C   UNL A   1      40.980  26.504  28.483  1.00  0.00     0.074 A 
ATOM     37  C   UNL A   1      41.681  28.656  29.407  1.00  0.00     0.049 A 
ATOM     38  N   UNL A   1      41.932  25.784  28.979  1.00  0.00    -0.248 NA
ATOM     39  C   UNL A   1      40.160  25.777  27.518  1.00  0.00     0.031 C 
ATOM     40  C   UNL A   1      43.107  28.338  29.396  1.00  0.00     0.029 A 
ATOM     41  N   UNL A   1      41.592  29.758  30.259  1.00  0.00    -0.354 N 
ATOM     42  C   UNL A   1      42.043  24.652  28.203  1.00  0.00     0.074 A 
ATOM     43  C   UNL A   1      40.867  24.654  27.366  1.00  0.00     0.031 C 
ATOM     44  C   UNL A   1      43.700  28.988  30.408  1.00  0.00     0.029 A 
ATOM     45  C   UNL A   1      42.650  29.633  31.176  1.00  0.00     0.049 A 
ATOM     46  H   UNL A   1      40.922  30.479  30.225  1.00  0.00     0.167 HD
ATOM     47  C   UNL A   1      43.184  23.905  28.245  1.00  0.00     0.031 A 
ATOM     48  C   UNL A   1      42.506  29.560  32.531  1.00  0.00     0.031 A 
ATOM     49  C   UNL A   1      44.123  24.394  29.251  1.00  0.00     0.049 A 
ATOM     50  C   UNL A   1      43.153  28.334  33.139  1.00  0.00     0.074 A 
ATOM     51  C   UNL A   1      45.277  25.158  29.181  1.00  0.00     0.029 A 
ATOM     52  N   UNL A   1      43.778  24.324  30.594  1.00  0.00    -0.354 N 
ATOM     53  N   UNL A   1      43.566  27.311  32.445  1.00  0.00    -0.248 NA
ATOM     54  C   UNL A   1      43.337  28.135  34.575  1.00  0.00     0.031 C 
ATOM     55  C   UNL A   1      45.597  25.590  30.494  1.00  0.00     0.029 A 
ATOM     56  C   UNL A   1      44.651  25.072  31.359  1.00  0.00     0.049 A 
ATOM     57  H   UNL A   1      43.016  23.811  30.951  1.00  0.00     0.167 HD
ATOM     58  C   UNL A   1      44.036  26.335  33.285  1.00  0.00     0.074 A 
ATOM     59  C   UNL A   1      43.891  26.909  34.610  1.00  0.00     0.031 C 
ATOM     60  C   UNL A   1      44.484  25.137  32.806  1.00  0.00     0.031 A 
BRANCH  47  61
ATOM     61  C   UNL A   1      43.563  22.906  27.171  1.00  0.00    -0.014 A 
ATOM     62  C   UNL A   1      42.742  21.782  26.941  1.00  0.00     0.010 A 
ATOM     63  C   UNL A   1      44.738  22.980  26.398  1.00  0.00     0.010 A 
ATOM     64  C   UNL A   1      43.126  20.739  26.084  1.00  0.00     0.020 A 
ATOM     65  C   UNL A   1      45.156  21.927  25.569  1.00  0.00     0.020 A 
ATOM     66  C   UNL A   1      44.352  20.802  25.428  1.00  0.00     0.054 A 
BRANCH  66  67
ATOM     67  S   UNL A   1      44.884  19.404  24.408  1.00  0.00     0.124 S 
ATOM     68  O   UNL A   1      46.329  19.388  24.622  1.00  0.00    -0.237 OA
ATOM     69  O   UNL A   1      44.148  18.288  24.996  1.00  0.00    -0.237 OA
ATOM     70  O   UNL A   1      44.467  19.781  23.059  1.00  0.00    -0.744 OA
ENDBRANCH  66  67
ENDBRANCH  47  61
BRANCH  48  71
ATOM     71  C   UNL A   1      41.289  30.241  33.054  1.00  0.00    -0.014 A 
ATOM     72  C   UNL A   1      41.322  31.650  33.117  1.00  0.00     0.010 A 
ATOM     73  C   UNL A   1      40.046  29.586  33.011  1.00  0.00     0.010 A 
ATOM     74  C   UNL A   1      40.155  32.393  32.930  1.00  0.00     0.020 A 
ATOM     75  C   UNL A   1      38.872  30.334  32.831  1.00  0.00     0.020 A 
ATOM     76  C   UNL A   1      38.951  31.724  32.707  1.00  0.00     0.054 A 
BRANCH  76  77
ATOM     77  S   UNL A   1      37.543  32.681  32.066  1.00  0.00     0.124 S 
ATOM     78  O   UNL A   1      38.147  33.446  30.980  1.00  0.00    -0.237 OA
ATOM     79  O   UNL A   1      36.618  31.624  31.652  1.00  0.00    -0.237 OA
ATOM     80  O   UNL A   1      37.113  33.459  33.223  1.00  0.00    -0.744 OA
ENDBRANCH  76  77
ENDBRANCH  48  71
BRANCH  60  81
ATOM     81  C   UNL A   1      44.867  23.915  33.615  1.00  0.00    -0.014 A 
ATOM     82  C   UNL A   1      44.007  22.846  33.905  1.00  0.00     0.010 A 
ATOM     83  C   UNL A   1      46.220  23.765  34.016  1.00  0.00     0.010 A 
ATOM     84  C   UNL A   1      44.459  21.710  34.600  1.00  0.00     0.020 A 
ATOM     85  C   UNL A   1      46.691  22.622  34.669  1.00  0.00     0.020 A 
ATOM     86  C   UNL A   1      45.798  21.606  34.977  1.00  0.00     0.054 A 
BRANCH  86  87
ATOM     87  S   UNL A   1      46.391  20.104  35.796  1.00  0.00     0.124 S 
ATOM     88  O   UNL A   1      45.567  19.073  35.170  1.00  0.00    -0.237 OA
ATOM     89  O   UNL A   1      47.808  20.072  35.441  1.00  0.00    -0.237 OA
ATOM     90  O   UNL A   1      46.117  20.355  37.209  1.00  0.00    -0.744 OA
ENDBRANCH  86  87
ENDBRANCH  60  81
ENDBRANCH  34  35
ENDBRANCH  26  29
ENDBRANCH  24  25
ENDBRANCH   1  24
TORSDOF 15
ENDMDL
MODEL 2
REMARK VINA RESULT:     -13.2      4.666     11.145
REMARK SMILES Cc1ccc(NC(=O)N2CCCC[C@@H]2C(=O)NCCCNC(=O)c2ccc(-c3c4nc(c(-c5ccc(S(=O)(=O)[O-])cc5)c5ccc([nH]5)c(-c5ccc(S(=O)(=O)[O-])cc5)c5nc(c(-c6ccc(S(=O)(=O)[O-])cc6)c6ccc3[nH]6)C=C5)C=C4)cc2)cc1
REMARK SMILES IDX 19 1 18 2 17 3 15 4 16 5 14 7 9 8 10 9 11 10 13 11 12 12
REMARK SMILES IDX 7 13 6 14 8 16 5 17 1 18 2 19 3 20 85 21 4 22 84 23 20 24
REMARK SMILES IDX 21 25 22 26 23 28 24 29 25 30 83 31 26 32 82 33 27 34 28 35
REMARK SMILES IDX 29 36 76 37 30 38 81 39 75 40 77 41 31 42 80 43 74 44 73 45
REMARK SMILES IDX 32 47 62 48 43 49 61 50 44 51 47 52 60 53 78 54 45 55 46 56
REMARK SMILES IDX 59 58 79 59 48 60 33 61 34 62 42 63 35 64 41 65 36 66 37 67
REMARK SMILES IDX 38 68 39 69 40 70 63 71 64 72 72 73 65 74 71 75 66 76 67 77
REMARK SMILES IDX 68 78 69 79 70 80 49 81 50 82 58 83 51 84 57 85 52 86 53 87
REMARK SMILES IDX 54 88 55 89 56 90
REMARK H PARENT 17 6 6 15 21 27 77 46 47 57
REMARK Flexibility Score: inf
ROOT
ATOM      1  C   UNL A   1      37.266  21.994  25.125  1.00  0.00     0.042 C 
ENDROOT
BRANCH   1   2
ATOM      2  C   UNL A   1      36.647  22.432  23.802  1.00  0.00     0.117 C 
BRANCH   2   3
ATOM      3  N   UNL A   1      35.928  23.696  23.918  1.00  0.00    -0.354 N 
ATOM      4  C   UNL A   1      34.727  24.010  24.481  1.00  0.00     0.242 C 
ATOM      5  O   UNL A   1      34.283  25.143  24.254  1.00  0.00    -0.273 OA
ATOM      6  H   UNL A   1      36.398  24.463  23.517  1.00  0.00     0.163 HD
BRANCH   4   7
ATOM      7  C   UNL A   1      33.830  22.969  25.204  1.00  0.00     0.176 C 
ATOM      8  N   UNL A   1      32.430  22.876  24.712  1.00  0.00    -0.313 N 
ATOM      9  C   UNL A   1      31.367  22.495  25.637  1.00  0.00     0.122 C 
ATOM     10  C   UNL A   1      31.559  22.950  27.071  1.00  0.00     0.022 C 
ATOM     11  C   UNL A   1      33.975  23.255  26.712  1.00  0.00     0.035 C 
ATOM     12  C   UNL A   1      32.936  22.553  27.564  1.00  0.00     0.004 C 
BRANCH   8  13
ATOM     13  C   UNL A   1      32.084  22.800  23.365  1.00  0.00     0.322 C 
ATOM     14  N   UNL A   1      31.061  23.567  22.899  1.00  0.00    -0.308 N 
ATOM     15  H   UNL A   1      30.341  23.088  22.430  1.00  0.00     0.171 HD
ATOM     16  O   UNL A   1      32.622  21.998  22.599  1.00  0.00    -0.248 OA
BRANCH  14  17
ATOM     17  C   UNL A   1      30.906  24.961  23.005  1.00  0.00     0.042 A 
ATOM     18  C   UNL A   1      30.681  29.191  23.747  1.00  0.00     0.044 C 
ATOM     19  C   UNL A   1      30.678  27.729  23.417  1.00  0.00    -0.051 A 
ATOM     20  C   UNL A   1      31.508  27.232  22.408  1.00  0.00     0.005 A 
ATOM     21  C   UNL A   1      29.919  26.831  24.177  1.00  0.00     0.005 A 
ATOM     22  C   UNL A   1      31.602  25.857  22.188  1.00  0.00     0.026 A 
ATOM     23  C   UNL A   1      30.019  25.454  23.961  1.00  0.00     0.026 A 
ENDBRANCH  14  17
ENDBRANCH   8  13
ENDBRANCH   4   7
ENDBRANCH   2   3
ENDBRANCH   1   2
BRANCH   1  24
ATOM     24  C   UNL A   1      37.931  23.141  25.875  1.00  0.00     0.118 C 
BRANCH  24  25
ATOM     25  N   UNL A   1      39.027  22.706  26.726  1.00  0.00    -0.352 N 
ATOM     26  C   UNL A   1      40.044  23.512  27.215  1.00  0.00     0.251 C 
ATOM     27  H   UNL A   1      39.049  21.755  26.979  1.00  0.00     0.163 HD
ATOM     28  O   UNL A   1      41.146  23.095  27.515  1.00  0.00    -0.269 OA
BRANCH  26  29
ATOM     29  C   UNL A   1      39.652  24.905  27.520  1.00  0.00     0.039 A 
ATOM     30  C   UNL A   1      40.189  25.911  26.708  1.00  0.00     0.014 A 
ATOM     31  C   UNL A   1      39.036  25.202  28.730  1.00  0.00     0.014 A 
ATOM     32  C   UNL A   1      40.239  27.217  27.184  1.00  0.00     0.010 A 
ATOM     33  C   UNL A   1      39.182  26.477  29.240  1.00  0.00     0.010 A 
ATOM     34  C   UNL A   1      39.811  27.479  28.486  1.00  0.00    -0.014 A 
BRANCH  34  35
ATOM     35  C   UNL A   1      40.026  28.751  29.172  1.00  0.00     0.031 A 
ATOM     36  C   UNL A   1      39.010  29.827  29.062  1.00  0.00     0.074 A 
ATOM     37  C   UNL A   1      41.097  28.939  29.974  1.00  0.00     0.049 A 
ATOM     38  N   UNL A   1      39.241  31.079  29.287  1.00  0.00    -0.248 NA
ATOM     39  C   UNL A   1      37.641  29.572  28.621  1.00  0.00     0.031 C 
ATOM     40  C   UNL A   1      41.255  29.994  30.973  1.00  0.00     0.029 A 
ATOM     41  N   UNL A   1      42.362  28.353  29.903  1.00  0.00    -0.354 N 
ATOM     42  C   UNL A   1      38.026  31.725  29.326  1.00  0.00     0.074 A 
ATOM     43  C   UNL A   1      37.074  30.764  28.821  1.00  0.00     0.031 C 
ATOM     44  C   UNL A   1      42.565  30.191  31.183  1.00  0.00     0.029 A 
ATOM     45  C   UNL A   1      43.283  29.365  30.229  1.00  0.00     0.049 A 
ATOM     46  H   UNL A   1      42.569  27.419  29.671  1.00  0.00     0.167 HD
ATOM     47  C   UNL A   1      37.924  32.952  29.912  1.00  0.00     0.031 A 
ATOM     48  C   UNL A   1      44.294  29.792  29.419  1.00  0.00     0.031 A 
ATOM     49  C   UNL A   1      39.223  33.468  30.335  1.00  0.00     0.049 A 
ATOM     50  C   UNL A   1      44.266  31.283  29.157  1.00  0.00     0.074 A 
ATOM     51  C   UNL A   1      39.862  33.540  31.563  1.00  0.00     0.029 A 
ATOM     52  N   UNL A   1      40.178  33.774  29.376  1.00  0.00    -0.354 N 
ATOM     53  N   UNL A   1      43.248  32.049  29.433  1.00  0.00    -0.248 NA
ATOM     54  C   UNL A   1      45.352  32.021  28.517  1.00  0.00     0.031 C 
ATOM     55  C   UNL A   1      41.228  33.844  31.330  1.00  0.00     0.029 A 
ATOM     56  C   UNL A   1      41.411  33.977  29.965  1.00  0.00     0.049 A 
ATOM     57  H   UNL A   1      40.001  33.837  28.409  1.00  0.00     0.167 HD
ATOM     58  C   UNL A   1      43.499  33.330  29.014  1.00  0.00     0.074 A 
ATOM     59  C   UNL A   1      44.841  33.265  28.465  1.00  0.00     0.031 C 
ATOM     60  C   UNL A   1      42.567  34.320  29.145  1.00  0.00     0.031 A 
BRANCH  47  61
ATOM     61  C   UNL A   1      36.607  33.553  30.359  1.00  0.00    -0.014 A 
ATOM     62  C   UNL A   1      35.637  33.904  29.396  1.00  0.00     0.010 A 
ATOM     63  C   UNL A   1      36.285  33.854  31.696  1.00  0.00     0.010 A 
ATOM     64  C   UNL A   1      34.475  34.617  29.730  1.00  0.00     0.020 A 
ATOM     65  C   UNL A   1      35.149  34.602  32.042  1.00  0.00     0.020 A 
ATOM     66  C   UNL A   1      34.255  34.994  31.052  1.00  0.00     0.054 A 
BRANCH  66  67
ATOM     67  S   UNL A   1      32.807  36.004  31.456  1.00  0.00     0.124 S 
ATOM     68  O   UNL A   1      32.199  36.224  30.147  1.00  0.00    -0.237 OA
ATOM     69  O   UNL A   1      32.060  35.134  32.360  1.00  0.00    -0.237 OA
ATOM     70  O   UNL A   1      33.380  37.198  32.075  1.00  0.00    -0.744 OA
ENDBRANCH  66  67
ENDBRANCH  47  61
BRANCH  48  71
ATOM     71  C   UNL A   1      44.794  28.761  28.470  1.00  0.00    -0.014 A 
ATOM     72  C   UNL A   1      44.170  28.700  27.206  1.00  0.00     0.010 A 
ATOM     73  C   UNL A   1      46.090  28.238  28.619  1.00  0.00     0.010 A 
ATOM     74  C   UNL A   1      44.899  28.321  26.076  1.00  0.00     0.020 A 
ATOM     75  C   UNL A   1      46.820  27.850  27.485  1.00  0.00     0.020 A 
ATOM     76  C   UNL A   1      46.243  27.977  26.217  1.00  0.00     0.054 A 
BRANCH  76  77
ATOM     77  S   UNL A   1      47.269  27.889  24.717  1.00  0.00     0.124 S 
ATOM     78  O   UNL A   1      46.703  28.942  23.883  1.00  0.00    -0.237 OA
ATOM     79  O   UNL A   1      48.608  28.156  25.247  1.00  0.00    -0.237 OA
ATOM     80  O   UNL A   1      47.053  26.525  24.245  1.00  0.00    -0.744 OA
ENDBRANCH  76  77
ENDBRANCH  48  71
BRANCH  60  81
ATOM     81  C   UNL A   1      42.637  35.723  28.579  1.00  0.00    -0.014 A 
ATOM     82  C   UNL A   1      42.173  36.098  27.310  1.00  0.00     0.010 A 
ATOM     83  C   UNL A   1      43.093  36.770  29.422  1.00  0.00     0.010 A 
ATOM     84  C   UNL A   1      42.206  37.438  26.885  1.00  0.00     0.020 A 
ATOM     85  C   UNL A   1      43.090  38.111  29.026  1.00  0.00     0.020 A 
ATOM     86  C   UNL A   1      42.664  38.435  27.746  1.00  0.00     0.054 A 
BRANCH  86  87
ATOM     87  S   UNL A   1      42.625  40.168  27.222  1.00  0.00     0.124 S 
ATOM     88  O   UNL A   1      41.202  40.373  26.965  1.00  0.00    -0.237 OA
ATOM     89  O   UNL A   1      43.158  40.877  28.384  1.00  0.00    -0.237 OA
ATOM     90  O   UNL A   1      43.486  40.188  26.043  1.00  0.00    -0.744 OA
ENDBRANCH  86  87
ENDBRANCH  60  81
ENDBRANCH  34  35
ENDBRANCH  26  29
ENDBRANCH  24  25
ENDBRANCH   1  24
TORSDOF 15
ENDMDL
MODEL 3
REMARK VINA RESULT:     -13.2      1.441      2.298
REMARK SMILES Cc1ccc(NC(=O)N2CCCC[C@@H]2C(=O)NCCCNC(=O)c2ccc(-c3c4nc(c(-c5ccc(S(=O)(=O)[O-])cc5)c5ccc([nH]5)c(-c5ccc(S(=O)(=O)[O-])cc5)c5nc(c(-c6ccc(S(=O)(=O)[O-])cc6)c6ccc3[nH]6)C=C5)C=C4)cc2)cc1
REMARK SMILES IDX 19 1 18 2 17 3 15 4 16 5 14 7 9 8 10 9 11 10 13 11 12 12
REMARK SMILES IDX 7 13 6 14 8 16 5 17 1 18 2 19 3 20 85 21 4 22 84 23 20 24
REMARK SMILES IDX 21 25 22 26 23 28 24 29 25 30 83 31 26 32 82 33 27 34 28 35
REMARK SMILES IDX 29 36 76 37 30 38 81 39 75 40 77 41 31 42 80 43 74 44 73 45
REMARK SMILES IDX 32 47 62 48 43 49 61 50 44 51 47 52 60 53 78 54 45 55 46 56
REMARK SMILES IDX 59 58 79 59 48 60 33 61 34 62 42 63 35 64 41 65 36 66 37 67
REMARK SMILES IDX 38 68 39 69 40 70 63 71 64 72 72 73 65 74 71 75 66 76 67 77
REMARK SMILES IDX 68 78 69 79 70 80 49 81 50 82 58 83 51 84 57 85 52 86 53 87
REMARK SMILES IDX 54 88 55 89 56 90
REMARK H PARENT 17 6 6 15 21 27 77 46 47 57
REMARK Flexibility Score: inf
ROOT
ATOM      1  C   UNL A   1      33.315  29.476  25.879  1.00  0.00     0.042 C 
ENDROOT
BRANCH   1   2
ATOM      2  C   UNL A   1      33.216  28.042  25.370  1.00  0.00     0.117 C 
BRANCH   2   3
ATOM      3  N   UNL A   1      31.878  27.716  24.894  1.00  0.00    -0.354 N 
ATOM      4  C   UNL A   1      31.189  26.540  24.852  1.00  0.00     0.242 C 
ATOM      5  O   UNL A   1      30.132  26.534  24.208  1.00  0.00    -0.273 OA
ATOM      6  H   UNL A   1      31.379  28.486  24.536  1.00  0.00     0.163 HD
BRANCH   4   7
ATOM      7  C   UNL A   1      31.760  25.202  25.395  1.00  0.00     0.176 C 
ATOM      8  N   UNL A   1      32.196  24.224  24.364  1.00  0.00    -0.313 N 
ATOM      9  C   UNL A   1      32.113  22.794  24.647  1.00  0.00     0.122 C 
ATOM     10  C   UNL A   1      30.964  22.375  25.544  1.00  0.00     0.022 C 
ATOM     11  C   UNL A   1      30.720  24.670  26.401  1.00  0.00     0.035 C 
ATOM     12  C   UNL A   1      30.946  23.225  26.799  1.00  0.00     0.004 C 
BRANCH   8  13
ATOM     13  C   UNL A   1      32.988  24.555  23.267  1.00  0.00     0.322 C 
ATOM     14  N   UNL A   1      34.301  24.853  23.463  1.00  0.00    -0.308 N 
ATOM     15  H   UNL A   1      34.606  25.718  23.107  1.00  0.00     0.171 HD
ATOM     16  O   UNL A   1      32.517  24.666  22.133  1.00  0.00    -0.248 OA
BRANCH  14  17
ATOM     17  C   UNL A   1      35.279  24.076  24.112  1.00  0.00     0.042 A 
ATOM     18  C   UNL A   1      38.591  21.917  25.803  1.00  0.00     0.044 C 
ATOM     19  C   UNL A   1      37.371  22.594  25.257  1.00  0.00    -0.051 A 
ATOM     20  C   UNL A   1      36.740  23.607  25.987  1.00  0.00     0.005 A 
ATOM     21  C   UNL A   1      36.905  22.293  23.972  1.00  0.00     0.005 A 
ATOM     22  C   UNL A   1      35.684  24.326  25.426  1.00  0.00     0.026 A 
ATOM     23  C   UNL A   1      35.852  23.018  23.408  1.00  0.00     0.026 A 
ENDBRANCH  14  17
ENDBRANCH   8  13
ENDBRANCH   4   7
ENDBRANCH   2   3
ENDBRANCH   1   2
BRANCH   1  24
ATOM     24  C   UNL A   1      34.144  29.596  27.151  1.00  0.00     0.118 C 
BRANCH  24  25
ATOM     25  N   UNL A   1      34.864  30.856  27.247  1.00  0.00    -0.352 N 
ATOM     26  C   UNL A   1      36.038  31.070  27.954  1.00  0.00     0.251 C 
ATOM     27  H   UNL A   1      34.485  31.627  26.766  1.00  0.00     0.163 HD
ATOM     28  O   UNL A   1      36.367  32.152  28.397  1.00  0.00    -0.269 OA
BRANCH  26  29
ATOM     29  C   UNL A   1      36.967  29.920  27.991  1.00  0.00     0.039 A 
ATOM     30  C   UNL A   1      37.089  29.238  29.207  1.00  0.00     0.014 A 
ATOM     31  C   UNL A   1      37.883  29.737  26.962  1.00  0.00     0.014 A 
ATOM     32  C   UNL A   1      38.226  28.473  29.449  1.00  0.00     0.010 A 
ATOM     33  C   UNL A   1      39.056  29.063  27.245  1.00  0.00     0.010 A 
ATOM     34  C   UNL A   1      39.246  28.459  28.497  1.00  0.00    -0.014 A 
BRANCH  34  35
ATOM     35  C   UNL A   1      40.569  27.887  28.732  1.00  0.00     0.031 A 
ATOM     36  C   UNL A   1      40.833  26.469  28.378  1.00  0.00     0.074 A 
ATOM     37  C   UNL A   1      41.587  28.648  29.192  1.00  0.00     0.049 A 
ATOM     38  N   UNL A   1      41.797  25.759  28.867  1.00  0.00    -0.248 NA
ATOM     39  C   UNL A   1      39.971  25.714  27.473  1.00  0.00     0.031 C 
ATOM     40  C   UNL A   1      43.009  28.315  29.141  1.00  0.00     0.029 A 
ATOM     41  N   UNL A   1      41.539  29.783  30.003  1.00  0.00    -0.354 N 
ATOM     42  C   UNL A   1      41.868  24.597  28.133  1.00  0.00     0.074 A 
ATOM     43  C   UNL A   1      40.662  24.579  27.339  1.00  0.00     0.031 C 
ATOM     44  C   UNL A   1      43.644  28.997  30.105  1.00  0.00     0.029 A 
ATOM     45  C   UNL A   1      42.629  29.683  30.886  1.00  0.00     0.049 A 
ATOM     46  H   UNL A   1      40.874  30.509  29.965  1.00  0.00     0.167 HD
ATOM     47  C   UNL A   1      43.003  23.841  28.162  1.00  0.00     0.031 A 
ATOM     48  C   UNL A   1      42.534  29.664  32.246  1.00  0.00     0.031 A 
ATOM     49  C   UNL A   1      43.983  24.358  29.113  1.00  0.00     0.049 A 
ATOM     50  C   UNL A   1      43.192  28.456  32.878  1.00  0.00     0.074 A 
ATOM     51  C   UNL A   1      45.140  25.107  28.972  1.00  0.00     0.029 A 
ATOM     52  N   UNL A   1      43.687  24.344  30.470  1.00  0.00    -0.354 N 
ATOM     53  N   UNL A   1      43.570  27.402  32.210  1.00  0.00    -0.248 NA
ATOM     54  C   UNL A   1      43.427  28.310  34.312  1.00  0.00     0.031 C 
ATOM     55  C   UNL A   1      45.513  25.586  30.254  1.00  0.00     0.029 A 
ATOM     56  C   UNL A   1      44.595  25.111  31.173  1.00  0.00     0.049 A 
ATOM     57  H   UNL A   1      42.935  23.853  30.874  1.00  0.00     0.167 HD
ATOM     58  C   UNL A   1      44.062  26.455  33.070  1.00  0.00     0.074 A 
ATOM     59  C   UNL A   1      43.971  27.081  34.375  1.00  0.00     0.031 C 
ATOM     60  C   UNL A   1      44.482  25.234  32.621  1.00  0.00     0.031 A 
BRANCH  47  61
ATOM     61  C   UNL A   1      43.334  22.797  27.114  1.00  0.00    -0.014 A 
ATOM     62  C   UNL A   1      42.580  21.606  27.053  1.00  0.00     0.010 A 
ATOM     63  C   UNL A   1      44.405  22.897  26.206  1.00  0.00     0.010 A 
ATOM     64  C   UNL A   1      42.943  20.534  26.223  1.00  0.00     0.020 A 
ATOM     65  C   UNL A   1      44.806  21.820  25.400  1.00  0.00     0.020 A 
ATOM     66  C   UNL A   1      44.079  20.635  25.424  1.00  0.00     0.054 A 
BRANCH  66  67
ATOM     67  S   UNL A   1      44.598  19.208  24.437  1.00  0.00     0.124 S 
ATOM     68  O   UNL A   1      45.991  19.034  24.841  1.00  0.00    -0.237 OA
ATOM     69  O   UNL A   1      43.677  18.167  24.883  1.00  0.00    -0.237 OA
ATOM     70  O   UNL A   1      44.410  19.655  23.058  1.00  0.00    -0.744 OA
ENDBRANCH  66  67
ENDBRANCH  47  61
BRANCH  48  71
ATOM     71  C   UNL A   1      41.343  30.376  32.786  1.00  0.00    -0.014 A 
ATOM     72  C   UNL A   1      41.460  31.771  32.965  1.00  0.00     0.010 A 
ATOM     73  C   UNL A   1      40.065  29.807  32.654  1.00  0.00     0.010 A 
ATOM     74  C   UNL A   1      40.347  32.599  32.803  1.00  0.00     0.020 A 
ATOM     75  C   UNL A   1      38.945  30.639  32.500  1.00  0.00     0.020 A 
ATOM     76  C   UNL A   1      39.113  32.028  32.492  1.00  0.00     0.054 A 
BRANCH  76  77
ATOM     77  S   UNL A   1      37.789  33.120  31.888  1.00  0.00     0.124 S 
ATOM     78  O   UNL A   1      36.639  32.225  31.835  1.00  0.00    -0.237 OA
ATOM     79  O   UNL A   1      37.740  34.146  32.932  1.00  0.00    -0.237 OA
ATOM     80  O   UNL A   1      38.295  33.576  30.598  1.00  0.00    -0.744 OA
ENDBRANCH  76  77
ENDBRANCH  48  71
BRANCH  60  81
ATOM     81  C   UNL A   1      44.883  24.040  33.462  1.00  0.00    -0.014 A 
ATOM     82  C   UNL A   1      44.086  22.905  33.672  1.00  0.00     0.010 A 
ATOM     83  C   UNL A   1      46.201  23.995  33.987  1.00  0.00     0.010 A 
ATOM     84  C   UNL A   1      44.561  21.803  34.406  1.00  0.00     0.020 A 
ATOM     85  C   UNL A   1      46.698  22.887  34.681  1.00  0.00     0.020 A 
ATOM     86  C   UNL A   1      45.863  21.802  34.906  1.00  0.00     0.054 A 
BRANCH  86  87
ATOM     87  S   UNL A   1      46.494  20.346  35.777  1.00  0.00     0.124 S 
ATOM     88  O   UNL A   1      46.364  20.750  37.174  1.00  0.00    -0.237 OA
ATOM     89  O   UNL A   1      45.584  19.284  35.348  1.00  0.00    -0.237 OA
ATOM     90  O   UNL A   1      47.862  20.218  35.283  1.00  0.00    -0.744 OA
ENDBRANCH  86  87
ENDBRANCH  60  81
ENDBRANCH  34  35
ENDBRANCH  26  29
ENDBRANCH  24  25
ENDBRANCH   1  24
TORSDOF 15
ENDMDL
