MODEL 1
REMARK VINA RESULT:     -11.7      0.000      0.000
REMARK SMILES CC(C)c1nc(OCC(=O)NCCCNC(=O)c2ccc(-c3c4nc(c(-c5ccc(S(=O)(=O)[O-])cc5)c5ccc([nH]5)c(-c5ccc(S(=O)(=O)[O-])cc5)c5nc(c(-c6ccc(S(=O)(=O)[O-])cc6)c6ccc3[nH]6)C=C5)C=C4)cc2)cc(-c2ccccn2)n1
REMARK SMILES IDX 13 1 12 2 11 3 9 4 10 5 8 7 7 8 6 9 4 10 5 11 86 12 79 13
REMARK SMILES IDX 78 14 2 15 1 16 3 17 80 18 81 19 85 20 82 21 84 22 83 23
REMARK SMILES IDX 14 24 15 25 16 26 17 28 18 29 19 30 77 31 20 32 76 33 21 34
REMARK SMILES IDX 22 35 23 36 70 37 24 38 75 39 69 40 71 41 25 42 74 43 68 44
REMARK SMILES IDX 67 45 26 47 56 48 37 49 55 50 38 51 41 52 54 53 72 54 39 55
REMARK SMILES IDX 40 56 53 58 73 59 42 60 27 61 28 62 36 63 29 64 35 65 30 66
REMARK SMILES IDX 31 67 32 68 33 69 34 70 57 71 58 72 66 73 59 74 65 75 60 76
REMARK SMILES IDX 61 77 62 78 63 79 64 80 43 81 44 82 52 83 45 84 51 85 46 86
REMARK SMILES IDX 47 87 48 88 49 89 50 90
REMARK H PARENT 11 6 15 27 71 46 41 57
REMARK Flexibility Score: inf
ROOT
ATOM      1  C   UNL A   1      32.949  27.882  25.886  1.00  0.00     0.042 C 
ENDROOT
BRANCH   1   2
ATOM      2  C   UNL A   1      31.517  27.362  25.892  1.00  0.00     0.117 C 
BRANCH   2   3
ATOM      3  N   UNL A   1      31.346  26.209  26.757  1.00  0.00    -0.353 N 
ATOM      4  C   UNL A   1      31.540  24.894  26.459  1.00  0.00     0.258 C 
ATOM      5  O   UNL A   1      31.343  24.050  27.336  1.00  0.00    -0.271 OA
ATOM      6  H   UNL A   1      31.053  26.403  27.677  1.00  0.00     0.163 HD
BRANCH   4   7
ATOM      7  C   UNL A   1      32.011  24.490  25.056  1.00  0.00     0.331 C 
BRANCH   7   8
ATOM      8  O   UNL A   1      31.706  23.170  24.643  1.00  0.00    -0.467 OA
BRANCH   8   9
ATOM      9  C   UNL A   1      32.699  22.235  24.700  1.00  0.00     0.217 A 
ATOM     10  C   UNL A   1      34.977  21.939  24.581  1.00  0.00     0.135 A 
ATOM     11  N   UNL A   1      33.922  22.774  24.584  1.00  0.00    -0.198 NA
ATOM     12  N   UNL A   1      34.872  20.600  24.647  1.00  0.00    -0.231 NA
ATOM     13  C   UNL A   1      33.631  20.087  24.784  1.00  0.00     0.096 A 
ATOM     14  C   UNL A   1      32.507  20.885  24.841  1.00  0.00     0.099 A 
BRANCH  10  15
ATOM     15  C   UNL A   1      36.376  22.519  24.516  1.00  0.00     0.051 C 
ATOM     16  C   UNL A   1      36.644  23.585  25.584  1.00  0.00     0.016 C 
ATOM     17  C   UNL A   1      37.415  21.401  24.631  1.00  0.00     0.016 C 
ENDBRANCH  10  15
BRANCH  13  18
ATOM     18  C   UNL A   1      33.496  18.625  24.834  1.00  0.00     0.089 A 
ATOM     19  C   UNL A   1      34.215  17.808  23.959  1.00  0.00     0.030 A 
ATOM     20  N   UNL A   1      32.569  18.126  25.693  1.00  0.00    -0.255 NA
ATOM     21  C   UNL A   1      33.979  16.435  23.963  1.00  0.00     0.004 A 
ATOM     22  C   UNL A   1      32.373  16.790  25.683  1.00  0.00     0.112 A 
ATOM     23  C   UNL A   1      33.038  15.914  24.840  1.00  0.00     0.020 A 
ENDBRANCH  13  18
ENDBRANCH   8   9
ENDBRANCH   7   8
ENDBRANCH   4   7
ENDBRANCH   2   3
ENDBRANCH   1   2
BRANCH   1  24
ATOM     24  C   UNL A   1      33.481  28.296  27.255  1.00  0.00     0.118 C 
BRANCH  24  25
ATOM     25  N   UNL A   1      33.474  29.739  27.462  1.00  0.00    -0.352 N 
ATOM     26  C   UNL A   1      34.440  30.568  27.976  1.00  0.00     0.251 C 
ATOM     27  H   UNL A   1      32.643  30.191  27.191  1.00  0.00     0.163 HD
ATOM     28  O   UNL A   1      34.156  31.743  28.213  1.00  0.00    -0.269 OA
BRANCH  26  29
ATOM     29  C   UNL A   1      35.801  30.063  28.263  1.00  0.00     0.039 A 
ATOM     30  C   UNL A   1      36.773  30.132  27.260  1.00  0.00     0.014 A 
ATOM     31  C   UNL A   1      36.118  29.501  29.502  1.00  0.00     0.014 A 
ATOM     32  C   UNL A   1      38.075  29.701  27.523  1.00  0.00     0.010 A 
ATOM     33  C   UNL A   1      37.435  29.149  29.788  1.00  0.00     0.010 A 
ATOM     34  C   UNL A   1      38.428  29.241  28.803  1.00  0.00    -0.014 A 
BRANCH  34  35
ATOM     35  C   UNL A   1      39.826  28.855  29.128  1.00  0.00     0.031 A 
ATOM     36  C   UNL A   1      40.743  29.826  29.822  1.00  0.00     0.074 A 
ATOM     37  C   UNL A   1      40.292  27.649  28.745  1.00  0.00     0.049 A 
ATOM     38  N   UNL A   1      42.002  29.684  30.148  1.00  0.00    -0.248 NA
ATOM     39  C   UNL A   1      40.175  31.136  30.174  1.00  0.00     0.031 C 
ATOM     40  C   UNL A   1      39.515  26.626  28.042  1.00  0.00     0.029 A 
ATOM     41  N   UNL A   1      41.531  27.079  28.894  1.00  0.00    -0.354 N 
ATOM     42  C   UNL A   1      42.381  30.888  30.731  1.00  0.00     0.074 A 
ATOM     43  C   UNL A   1      41.235  31.769  30.655  1.00  0.00     0.031 C 
ATOM     44  C   UNL A   1      40.283  25.540  27.860  1.00  0.00     0.029 A 
ATOM     45  C   UNL A   1      41.618  25.805  28.387  1.00  0.00     0.049 A 
ATOM     46  H   UNL A   1      42.287  27.540  29.325  1.00  0.00     0.167 HD
ATOM     47  C   UNL A   1      43.566  31.227  31.296  1.00  0.00     0.031 A 
ATOM     48  C   UNL A   1      42.653  24.944  28.347  1.00  0.00     0.031 A 
ATOM     49  C   UNL A   1      44.708  30.353  31.359  1.00  0.00     0.049 A 
ATOM     50  C   UNL A   1      43.973  25.355  28.939  1.00  0.00     0.074 A 
ATOM     51  C   UNL A   1      45.940  30.587  31.942  1.00  0.00     0.029 A 
ATOM     52  N   UNL A   1      44.761  29.079  30.810  1.00  0.00    -0.354 N 
ATOM     53  N   UNL A   1      44.296  26.478  29.535  1.00  0.00    -0.248 NA
ATOM     54  C   UNL A   1      45.065  24.376  28.862  1.00  0.00     0.031 C 
ATOM     55  C   UNL A   1      46.759  29.478  31.693  1.00  0.00     0.029 A 
ATOM     56  C   UNL A   1      46.014  28.525  31.018  1.00  0.00     0.049 A 
ATOM     57  H   UNL A   1      44.017  28.635  30.343  1.00  0.00     0.167 HD
ATOM     58  C   UNL A   1      45.620  26.328  29.934  1.00  0.00     0.074 A 
ATOM     59  C   UNL A   1      46.033  25.002  29.519  1.00  0.00     0.031 C 
ATOM     60  C   UNL A   1      46.418  27.207  30.592  1.00  0.00     0.031 A 
BRANCH  47  61
ATOM     61  C   UNL A   1      43.679  32.618  31.873  1.00  0.00    -0.014 A 
ATOM     62  C   UNL A   1      44.098  33.704  31.081  1.00  0.00     0.010 A 
ATOM     63  C   UNL A   1      43.372  32.842  33.227  1.00  0.00     0.010 A 
ATOM     64  C   UNL A   1      44.280  34.967  31.649  1.00  0.00     0.020 A 
ATOM     65  C   UNL A   1      43.516  34.113  33.790  1.00  0.00     0.020 A 
ATOM     66  C   UNL A   1      43.997  35.162  33.004  1.00  0.00     0.054 A 
BRANCH  66  67
ATOM     67  S   UNL A   1      44.270  36.805  33.721  1.00  0.00     0.124 S 
ATOM     68  O   UNL A   1      45.236  37.383  32.788  1.00  0.00    -0.237 OA
ATOM     69  O   UNL A   1      42.935  37.396  33.686  1.00  0.00    -0.237 OA
ATOM     70  O   UNL A   1      44.788  36.520  35.056  1.00  0.00    -0.744 OA
ENDBRANCH  66  67
ENDBRANCH  47  61
BRANCH  48  71
ATOM     71  C   UNL A   1      42.464  23.588  27.761  1.00  0.00    -0.014 A 
ATOM     72  C   UNL A   1      42.896  23.319  26.451  1.00  0.00     0.010 A 
ATOM     73  C   UNL A   1      41.890  22.551  28.518  1.00  0.00     0.010 A 
ATOM     74  C   UNL A   1      42.754  22.040  25.906  1.00  0.00     0.020 A 
ATOM     75  C   UNL A   1      41.773  21.262  27.987  1.00  0.00     0.020 A 
ATOM     76  C   UNL A   1      42.202  21.018  26.681  1.00  0.00     0.054 A 
BRANCH  76  77
ATOM     77  S   UNL A   1      42.103  19.348  25.976  1.00  0.00     0.124 S 
ATOM     78  O   UNL A   1      40.670  19.204  25.734  1.00  0.00    -0.237 OA
ATOM     79  O   UNL A   1      42.940  19.461  24.784  1.00  0.00    -0.237 OA
ATOM     80  O   UNL A   1      42.648  18.498  27.032  1.00  0.00    -0.744 OA
ENDBRANCH  76  77
ENDBRANCH  48  71
BRANCH  60  81
ATOM     81  C   UNL A   1      47.811  26.751  30.943  1.00  0.00    -0.014 A 
ATOM     82  C   UNL A   1      48.911  27.053  30.122  1.00  0.00     0.010 A 
ATOM     83  C   UNL A   1      48.026  26.049  32.144  1.00  0.00     0.010 A 
ATOM     84  C   UNL A   1      50.197  26.633  30.479  1.00  0.00     0.020 A 
ATOM     85  C   UNL A   1      49.312  25.655  32.520  1.00  0.00     0.020 A 
ATOM     86  C   UNL A   1      50.388  25.937  31.678  1.00  0.00     0.054 A 
BRANCH  86  87
ATOM     87  S   UNL A   1      52.071  25.441  32.140  1.00  0.00     0.124 S 
ATOM     88  O   UNL A   1      52.308  26.243  33.337  1.00  0.00    -0.237 OA
ATOM     89  O   UNL A   1      51.930  24.004  32.364  1.00  0.00    -0.237 OA
ATOM     90  O   UNL A   1      52.873  25.808  30.975  1.00  0.00    -0.744 OA
ENDBRANCH  86  87
ENDBRANCH  60  81
ENDBRANCH  34  35
ENDBRANCH  26  29
ENDBRANCH  24  25
ENDBRANCH   1  24
TORSDOF 17
ENDMDL
MODEL 2
REMARK VINA RESULT:     -11.4      0.753      2.484
REMARK SMILES CC(C)c1nc(OCC(=O)NCCCNC(=O)c2ccc(-c3c4nc(c(-c5ccc(S(=O)(=O)[O-])cc5)c5ccc([nH]5)c(-c5ccc(S(=O)(=O)[O-])cc5)c5nc(c(-c6ccc(S(=O)(=O)[O-])cc6)c6ccc3[nH]6)C=C5)C=C4)cc2)cc(-c2ccccn2)n1
REMARK SMILES IDX 13 1 12 2 11 3 9 4 10 5 8 7 7 8 6 9 4 10 5 11 86 12 79 13
REMARK SMILES IDX 78 14 2 15 1 16 3 17 80 18 81 19 85 20 82 21 84 22 83 23
REMARK SMILES IDX 14 24 15 25 16 26 17 28 18 29 19 30 77 31 20 32 76 33 21 34
REMARK SMILES IDX 22 35 23 36 70 37 24 38 75 39 69 40 71 41 25 42 74 43 68 44
REMARK SMILES IDX 67 45 26 47 56 48 37 49 55 50 38 51 41 52 54 53 72 54 39 55
REMARK SMILES IDX 40 56 53 58 73 59 42 60 27 61 28 62 36 63 29 64 35 65 30 66
REMARK SMILES IDX 31 67 32 68 33 69 34 70 57 71 58 72 66 73 59 74 65 75 60 76
REMARK SMILES IDX 61 77 62 78 63 79 64 80 43 81 44 82 52 83 45 84 51 85 46 86
REMARK SMILES IDX 47 87 48 88 49 89 50 90
REMARK H PARENT 11 6 15 27 71 46 41 57
REMARK Flexibility Score: inf
ROOT
ATOM      1  C   UNL A   1      33.638  27.526  25.100  1.00  0.00     0.042 C 
ENDROOT
BRANCH   1   2
ATOM      2  C   UNL A   1      32.342  26.743  24.922  1.00  0.00     0.117 C 
BRANCH   2   3
ATOM      3  N   UNL A   1      31.976  25.992  26.109  1.00  0.00    -0.353 N 
ATOM      4  C   UNL A   1      31.472  24.729  26.187  1.00  0.00     0.258 C 
ATOM      5  O   UNL A   1      31.223  24.257  27.299  1.00  0.00    -0.271 OA
ATOM      6  H   UNL A   1      32.111  26.456  26.968  1.00  0.00     0.163 HD
BRANCH   4   7
ATOM      7  C   UNL A   1      31.241  23.919  24.906  1.00  0.00     0.331 C 
BRANCH   7   8
ATOM      8  O   UNL A   1      31.224  22.510  25.045  1.00  0.00    -0.467 OA
BRANCH   8   9
ATOM      9  C   UNL A   1      32.409  21.840  24.934  1.00  0.00     0.217 A 
ATOM     10  C   UNL A   1      33.342  19.775  24.547  1.00  0.00     0.135 A 
ATOM     11  N   UNL A   1      32.242  20.543  24.636  1.00  0.00    -0.198 NA
ATOM     12  N   UNL A   1      34.590  20.223  24.776  1.00  0.00    -0.231 NA
ATOM     13  C   UNL A   1      34.729  21.536  25.054  1.00  0.00     0.096 A 
ATOM     14  C   UNL A   1      33.650  22.394  25.116  1.00  0.00     0.099 A 
BRANCH  10  15
ATOM     15  C   UNL A   1      33.195  18.319  24.149  1.00  0.00     0.051 C 
ATOM     16  C   UNL A   1      32.487  17.466  25.207  1.00  0.00     0.016 C 
ATOM     17  C   UNL A   1      32.450  18.211  22.816  1.00  0.00     0.016 C 
ENDBRANCH  10  15
BRANCH  13  18
ATOM     18  C   UNL A   1      36.081  22.038  25.330  1.00  0.00     0.089 A 
ATOM     19  C   UNL A   1      37.194  21.199  25.223  1.00  0.00     0.030 A 
ATOM     20  N   UNL A   1      36.179  23.312  25.791  1.00  0.00    -0.255 NA
ATOM     21  C   UNL A   1      38.445  21.680  25.599  1.00  0.00     0.004 A 
ATOM     22  C   UNL A   1      37.408  23.754  26.133  1.00  0.00     0.112 A 
ATOM     23  C   UNL A   1      38.557  22.982  26.064  1.00  0.00     0.020 A 
ENDBRANCH  13  18
ENDBRANCH   8   9
ENDBRANCH   7   8
ENDBRANCH   4   7
ENDBRANCH   2   3
ENDBRANCH   1   2
BRANCH   1  24
ATOM     24  C   UNL A   1      33.964  27.895  26.544  1.00  0.00     0.118 C 
BRANCH  24  25
ATOM     25  N   UNL A   1      33.664  29.285  26.863  1.00  0.00    -0.352 N 
ATOM     26  C   UNL A   1      34.395  30.214  27.562  1.00  0.00     0.251 C 
ATOM     27  H   UNL A   1      32.800  29.610  26.523  1.00  0.00     0.163 HD
ATOM     28  O   UNL A   1      33.872  31.291  27.854  1.00  0.00    -0.269 OA
BRANCH  26  29
ATOM     29  C   UNL A   1      35.784  29.929  27.983  1.00  0.00     0.039 A 
ATOM     30  C   UNL A   1      36.014  29.464  29.283  1.00  0.00     0.014 A 
ATOM     31  C   UNL A   1      36.861  30.139  27.119  1.00  0.00     0.014 A 
ATOM     32  C   UNL A   1      37.313  29.148  29.687  1.00  0.00     0.010 A 
ATOM     33  C   UNL A   1      38.142  29.745  27.497  1.00  0.00     0.010 A 
ATOM     34  C   UNL A   1      38.385  29.249  28.785  1.00  0.00    -0.014 A 
BRANCH  34  35
ATOM     35  C   UNL A   1      39.761  28.840  29.170  1.00  0.00     0.031 A 
ATOM     36  C   UNL A   1      40.656  29.791  29.919  1.00  0.00     0.074 A 
ATOM     37  C   UNL A   1      40.230  27.634  28.793  1.00  0.00     0.049 A 
ATOM     38  N   UNL A   1      41.897  29.629  30.301  1.00  0.00    -0.248 NA
ATOM     39  C   UNL A   1      40.088  31.103  30.263  1.00  0.00     0.031 C 
ATOM     40  C   UNL A   1      39.475  26.631  28.040  1.00  0.00     0.029 A 
ATOM     41  N   UNL A   1      41.454  27.048  28.991  1.00  0.00    -0.354 N 
ATOM     42  C   UNL A   1      42.263  30.821  30.918  1.00  0.00     0.074 A 
ATOM     43  C   UNL A   1      41.132  31.717  30.801  1.00  0.00     0.031 C 
ATOM     44  C   UNL A   1      40.238  25.537  27.879  1.00  0.00     0.029 A 
ATOM     45  C   UNL A   1      41.550  25.779  28.470  1.00  0.00     0.049 A 
ATOM     46  H   UNL A   1      42.195  27.493  29.463  1.00  0.00     0.167 HD
ATOM     47  C   UNL A   1      43.423  31.138  31.543  1.00  0.00     0.031 A 
ATOM     48  C   UNL A   1      42.576  24.906  28.467  1.00  0.00     0.031 A 
ATOM     49  C   UNL A   1      44.551  30.249  31.646  1.00  0.00     0.049 A 
ATOM     50  C   UNL A   1      43.871  25.293  29.125  1.00  0.00     0.074 A 
ATOM     51  C   UNL A   1      45.758  30.460  32.288  1.00  0.00     0.029 A 
ATOM     52  N   UNL A   1      44.615  28.982  31.082  1.00  0.00    -0.354 N 
ATOM     53  N   UNL A   1      44.180  26.404  29.751  1.00  0.00    -0.248 NA
ATOM     54  C   UNL A   1      44.954  24.302  29.085  1.00  0.00     0.031 C 
ATOM     55  C   UNL A   1      46.574  29.344  32.063  1.00  0.00     0.029 A 
ATOM     56  C   UNL A   1      45.850  28.409  31.340  1.00  0.00     0.049 A 
ATOM     57  H   UNL A   1      43.889  28.553  30.575  1.00  0.00     0.167 HD
ATOM     58  C   UNL A   1      45.481  26.232  30.209  1.00  0.00     0.074 A 
ATOM     59  C   UNL A   1      45.898  24.907  29.795  1.00  0.00     0.031 C 
ATOM     60  C   UNL A   1      46.258  27.092  30.916  1.00  0.00     0.031 A 
BRANCH  47  61
ATOM     61  C   UNL A   1      43.526  32.519  32.143  1.00  0.00    -0.014 A 
ATOM     62  C   UNL A   1      43.952  33.618  31.374  1.00  0.00     0.010 A 
ATOM     63  C   UNL A   1      43.201  32.720  33.497  1.00  0.00     0.010 A 
ATOM     64  C   UNL A   1      44.124  34.873  31.965  1.00  0.00     0.020 A 
ATOM     65  C   UNL A   1      43.335  33.982  34.082  1.00  0.00     0.020 A 
ATOM     66  C   UNL A   1      43.824  35.045  33.319  1.00  0.00     0.054 A 
BRANCH  66  67
ATOM     67  S   UNL A   1      44.083  36.677  34.066  1.00  0.00     0.124 S 
ATOM     68  O   UNL A   1      43.429  36.519  35.364  1.00  0.00    -0.237 OA
ATOM     69  O   UNL A   1      45.538  36.784  34.108  1.00  0.00    -0.237 OA
ATOM     70  O   UNL A   1      43.418  37.592  33.142  1.00  0.00    -0.744 OA
ENDBRANCH  66  67
ENDBRANCH  47  61
BRANCH  48  71
ATOM     71  C   UNL A   1      42.398  23.561  27.854  1.00  0.00    -0.014 A 
ATOM     72  C   UNL A   1      42.822  23.325  26.535  1.00  0.00     0.010 A 
ATOM     73  C   UNL A   1      41.844  22.500  28.594  1.00  0.00     0.010 A 
ATOM     74  C   UNL A   1      42.692  22.056  25.964  1.00  0.00     0.020 A 
ATOM     75  C   UNL A   1      41.739  21.222  28.037  1.00  0.00     0.020 A 
ATOM     76  C   UNL A   1      42.158  21.011  26.722  1.00  0.00     0.054 A 
BRANCH  76  77
ATOM     77  S   UNL A   1      42.074  19.355  25.983  1.00  0.00     0.124 S 
ATOM     78  O   UNL A   1      40.644  19.207  25.729  1.00  0.00    -0.237 OA
ATOM     79  O   UNL A   1      42.917  19.497  24.798  1.00  0.00    -0.237 OA
ATOM     80  O   UNL A   1      42.618  18.487  27.025  1.00  0.00    -0.744 OA
ENDBRANCH  76  77
ENDBRANCH  48  71
BRANCH  60  81
ATOM     81  C   UNL A   1      47.628  26.614  31.324  1.00  0.00    -0.014 A 
ATOM     82  C   UNL A   1      47.852  26.006  32.572  1.00  0.00     0.010 A 
ATOM     83  C   UNL A   1      48.699  26.732  30.419  1.00  0.00     0.010 A 
ATOM     84  C   UNL A   1      49.129  25.555  32.919  1.00  0.00     0.020 A 
ATOM     85  C   UNL A   1      49.969  26.254  30.749  1.00  0.00     0.020 A 
ATOM     86  C   UNL A   1      50.180  25.682  32.004  1.00  0.00     0.054 A 
BRANCH  86  87
ATOM     87  S   UNL A   1      51.818  25.050  32.462  1.00  0.00     0.124 S 
ATOM     88  O   UNL A   1      52.680  25.693  31.475  1.00  0.00    -0.237 OA
ATOM     89  O   UNL A   1      51.971  25.525  33.836  1.00  0.00    -0.237 OA
ATOM     90  O   UNL A   1      51.682  23.602  32.322  1.00  0.00    -0.744 OA
ENDBRANCH  86  87
ENDBRANCH  60  81
ENDBRANCH  34  35
ENDBRANCH  26  29
ENDBRANCH  24  25
ENDBRANCH   1  24
TORSDOF 17
ENDMDL
MODEL 3
REMARK VINA RESULT:     -11.4      3.124      9.949
REMARK SMILES CC(C)c1nc(OCC(=O)NCCCNC(=O)c2ccc(-c3c4nc(c(-c5ccc(S(=O)(=O)[O-])cc5)c5ccc([nH]5)c(-c5ccc(S(=O)(=O)[O-])cc5)c5nc(c(-c6ccc(S(=O)(=O)[O-])cc6)c6ccc3[nH]6)C=C5)C=C4)cc2)cc(-c2ccccn2)n1
REMARK SMILES IDX 13 1 12 2 11 3 9 4 10 5 8 7 7 8 6 9 4 10 5 11 86 12 79 13
REMARK SMILES IDX 78 14 2 15 1 16 3 17 80 18 81 19 85 20 82 21 84 22 83 23
REMARK SMILES IDX 14 24 15 25 16 26 17 28 18 29 19 30 77 31 20 32 76 33 21 34
REMARK SMILES IDX 22 35 23 36 70 37 24 38 75 39 69 40 71 41 25 42 74 43 68 44
REMARK SMILES IDX 67 45 26 47 56 48 37 49 55 50 38 51 41 52 54 53 72 54 39 55
REMARK SMILES IDX 40 56 53 58 73 59 42 60 27 61 28 62 36 63 29 64 35 65 30 66
REMARK SMILES IDX 31 67 32 68 33 69 34 70 57 71 58 72 66 73 59 74 65 75 60 76
REMARK SMILES IDX 61 77 62 78 63 79 64 80 43 81 44 82 52 83 45 84 51 85 46 86
REMARK SMILES IDX 47 87 48 88 49 89 50 90
REMARK H PARENT 11 6 15 27 71 46 41 57
REMARK Flexibility Score: inf
ROOT
ATOM      1  C   UNL A   1      35.954  23.749  24.775  1.00  0.00     0.042 C 
ENDROOT
BRANCH   1   2
ATOM      2  C   UNL A   1      34.604  23.197  24.333  1.00  0.00     0.117 C 
BRANCH   2   3
ATOM      3  N   UNL A   1      34.413  23.275  22.896  1.00  0.00    -0.353 N 
ATOM      4  C   UNL A   1      33.391  23.858  22.211  1.00  0.00     0.258 C 
ATOM      5  O   UNL A   1      33.405  23.823  20.979  1.00  0.00    -0.271 OA
ATOM      6  H   UNL A   1      35.113  22.853  22.347  1.00  0.00     0.163 HD
BRANCH   4   7
ATOM      7  C   UNL A   1      32.259  24.557  22.976  1.00  0.00     0.331 C 
BRANCH   7   8
ATOM      8  O   UNL A   1      31.536  25.547  22.268  1.00  0.00    -0.467 OA
BRANCH   8   9
ATOM      9  C   UNL A   1      31.347  26.757  22.872  1.00  0.00     0.217 A 
ATOM     10  C   UNL A   1      30.088  28.681  22.815  1.00  0.00     0.135 A 
ATOM     11  N   UNL A   1      30.336  27.452  22.328  1.00  0.00    -0.198 NA
ATOM     12  N   UNL A   1      30.816  29.264  23.785  1.00  0.00    -0.231 NA
ATOM     13  C   UNL A   1      31.813  28.534  24.327  1.00  0.00     0.096 A 
ATOM     14  C   UNL A   1      32.096  27.249  23.909  1.00  0.00     0.099 A 
BRANCH  10  15
ATOM     15  C   UNL A   1      28.913  29.467  22.268  1.00  0.00     0.051 C 
ATOM     16  C   UNL A   1      27.594  29.178  22.992  1.00  0.00     0.016 C 
ATOM     17  C   UNL A   1      29.213  30.968  22.322  1.00  0.00     0.016 C 
ENDBRANCH  10  15
BRANCH  13  18
ATOM     18  C   UNL A   1      32.633  29.163  25.370  1.00  0.00     0.089 A 
ATOM     19  C   UNL A   1      33.809  28.559  25.820  1.00  0.00     0.030 A 
ATOM     20  N   UNL A   1      32.137  30.292  25.940  1.00  0.00    -0.255 NA
ATOM     21  C   UNL A   1      34.501  29.128  26.886  1.00  0.00     0.004 A 
ATOM     22  C   UNL A   1      32.839  30.829  26.961  1.00  0.00     0.112 A 
ATOM     23  C   UNL A   1      34.007  30.285  27.470  1.00  0.00     0.020 A 
ENDBRANCH  13  18
ENDBRANCH   8   9
ENDBRANCH   7   8
ENDBRANCH   4   7
ENDBRANCH   2   3
ENDBRANCH   1   2
BRANCH   1  24
ATOM     24  C   UNL A   1      36.417  23.272  26.149  1.00  0.00     0.118 C 
BRANCH  24  25
ATOM     25  N   UNL A   1      37.632  22.469  26.098  1.00  0.00    -0.352 N 
ATOM     26  C   UNL A   1      38.939  22.818  26.332  1.00  0.00     0.251 C 
ATOM     27  H   UNL A   1      37.494  21.524  25.857  1.00  0.00     0.163 HD
ATOM     28  O   UNL A   1      39.831  22.010  26.070  1.00  0.00    -0.269 OA
BRANCH  26  29
ATOM     29  C   UNL A   1      39.285  24.151  26.872  1.00  0.00     0.039 A 
ATOM     30  C   UNL A   1      38.945  24.453  28.195  1.00  0.00     0.014 A 
ATOM     31  C   UNL A   1      39.916  25.112  26.079  1.00  0.00     0.014 A 
ATOM     32  C   UNL A   1      39.300  25.690  28.738  1.00  0.00     0.010 A 
ATOM     33  C   UNL A   1      40.342  26.310  26.647  1.00  0.00     0.010 A 
ATOM     34  C   UNL A   1      40.036  26.616  27.981  1.00  0.00    -0.014 A 
BRANCH  34  35
ATOM     35  C   UNL A   1      40.495  27.904  28.565  1.00  0.00     0.031 A 
ATOM     36  C   UNL A   1      41.915  28.063  29.038  1.00  0.00     0.074 A 
ATOM     37  C   UNL A   1      39.617  28.914  28.726  1.00  0.00     0.049 A 
ATOM     38  N   UNL A   1      42.484  29.093  29.611  1.00  0.00    -0.248 NA
ATOM     39  C   UNL A   1      42.805  26.905  28.863  1.00  0.00     0.031 C 
ATOM     40  C   UNL A   1      38.206  28.880  28.336  1.00  0.00     0.029 A 
ATOM     41  N   UNL A   1      39.782  30.166  29.261  1.00  0.00    -0.354 N 
ATOM     42  C   UNL A   1      43.792  28.703  29.877  1.00  0.00     0.074 A 
ATOM     43  C   UNL A   1      43.911  27.323  29.460  1.00  0.00     0.031 C 
ATOM     44  C   UNL A   1      37.647  30.070  28.605  1.00  0.00     0.029 A 
ATOM     45  C   UNL A   1      38.642  30.935  29.231  1.00  0.00     0.049 A 
ATOM     46  H   UNL A   1      40.637  30.486  29.631  1.00  0.00     0.167 HD
ATOM     47  C   UNL A   1      44.809  29.430  30.402  1.00  0.00     0.031 A 
ATOM     48  C   UNL A   1      38.420  32.193  29.658  1.00  0.00     0.031 A 
ATOM     49  C   UNL A   1      44.684  30.799  30.828  1.00  0.00     0.049 A 
ATOM     50  C   UNL A   1      39.548  32.968  30.279  1.00  0.00     0.074 A 
ATOM     51  C   UNL A   1      45.661  31.636  31.338  1.00  0.00     0.029 A 
ATOM     52  N   UNL A   1      43.505  31.532  30.803  1.00  0.00    -0.354 N 
ATOM     53  N   UNL A   1      40.793  32.601  30.473  1.00  0.00    -0.248 NA
ATOM     54  C   UNL A   1      39.243  34.332  30.730  1.00  0.00     0.031 C 
ATOM     55  C   UNL A   1      45.060  32.854  31.677  1.00  0.00     0.029 A 
ATOM     56  C   UNL A   1      43.724  32.801  31.312  1.00  0.00     0.049 A 
ATOM     57  H   UNL A   1      42.641  31.199  30.470  1.00  0.00     0.167 HD
ATOM     58  C   UNL A   1      41.429  33.702  31.038  1.00  0.00     0.074 A 
ATOM     59  C   UNL A   1      40.433  34.749  31.146  1.00  0.00     0.031 C 
ATOM     60  C   UNL A   1      42.723  33.834  31.424  1.00  0.00     0.031 A 
BRANCH  47  61
ATOM     61  C   UNL A   1      46.140  28.736  30.558  1.00  0.00    -0.014 A 
ATOM     62  C   UNL A   1      46.447  27.998  31.717  1.00  0.00     0.010 A 
ATOM     63  C   UNL A   1      47.104  28.830  29.537  1.00  0.00     0.010 A 
ATOM     64  C   UNL A   1      47.713  27.433  31.884  1.00  0.00     0.020 A 
ATOM     65  C   UNL A   1      48.359  28.234  29.684  1.00  0.00     0.020 A 
ATOM     66  C   UNL A   1      48.666  27.564  30.870  1.00  0.00     0.054 A 
BRANCH  66  67
ATOM     67  S   UNL A   1      50.312  26.845  31.126  1.00  0.00     0.124 S 
ATOM     68  O   UNL A   1      51.132  28.039  31.324  1.00  0.00    -0.237 OA
ATOM     69  O   UNL A   1      50.119  26.014  32.311  1.00  0.00    -0.237 OA
ATOM     70  O   UNL A   1      50.567  26.112  29.889  1.00  0.00    -0.744 OA
ENDBRANCH  66  67
ENDBRANCH  47  61
BRANCH  48  71
ATOM     71  C   UNL A   1      37.078  32.810  29.469  1.00  0.00    -0.014 A 
ATOM     72  C   UNL A   1      36.201  32.939  30.560  1.00  0.00     0.010 A 
ATOM     73  C   UNL A   1      36.684  33.306  28.213  1.00  0.00     0.010 A 
ATOM     74  C   UNL A   1      34.954  33.549  30.399  1.00  0.00     0.020 A 
ATOM     75  C   UNL A   1      35.450  33.943  28.054  1.00  0.00     0.020 A 
ATOM     76  C   UNL A   1      34.590  34.055  29.149  1.00  0.00     0.054 A 
BRANCH  76  77
ATOM     77  S   UNL A   1      32.998  34.913  28.987  1.00  0.00     0.124 S 
ATOM     78  O   UNL A   1      32.316  34.101  27.983  1.00  0.00    -0.237 OA
ATOM     79  O   UNL A   1      32.459  34.832  30.342  1.00  0.00    -0.237 OA
ATOM     80  O   UNL A   1      33.377  36.256  28.554  1.00  0.00    -0.744 OA
ENDBRANCH  76  77
ENDBRANCH  48  71
BRANCH  60  81
ATOM     81  C   UNL A   1      43.152  35.174  31.964  1.00  0.00    -0.014 A 
ATOM     82  C   UNL A   1      43.721  36.154  31.133  1.00  0.00     0.010 A 
ATOM     83  C   UNL A   1      42.932  35.474  33.322  1.00  0.00     0.010 A 
ATOM     84  C   UNL A   1      44.094  37.396  31.656  1.00  0.00     0.020 A 
ATOM     85  C   UNL A   1      43.273  36.724  33.842  1.00  0.00     0.020 A 
ATOM     86  C   UNL A   1      43.867  37.673  33.008  1.00  0.00     0.054 A 
BRANCH  86  87
ATOM     87  S   UNL A   1      44.320  39.308  33.653  1.00  0.00     0.124 S 
ATOM     88  O   UNL A   1      45.083  39.872  32.544  1.00  0.00    -0.237 OA
ATOM     89  O   UNL A   1      43.019  39.926  33.900  1.00  0.00    -0.237 OA
ATOM     90  O   UNL A   1      45.096  39.004  34.853  1.00  0.00    -0.744 OA
ENDBRANCH  86  87
ENDBRANCH  60  81
ENDBRANCH  34  35
ENDBRANCH  26  29
ENDBRANCH  24  25
ENDBRANCH   1  24
TORSDOF 17
ENDMDL
