MODEL 1
REMARK VINA RESULT:     -11.0      0.000      0.000
REMARK SMILES Cc1ccc(-c2cc(Cl)cc3c2O[C@@H](C(F)(F)F)C(C(=O)NCCCNC(=O)c2ccc(-c4c5nc(c(-c6ccc(S(=O)(=O)[O-])cc6)c6ccc([nH]6)c(-c6ccc(S(=O)(=O)[O-])cc6)c6nc(c(-c7ccc(S(=O)(=O)[O-])cc7)c7ccc4[nH]7)C=C6)C=C5)cc2)=C3)cc1
REMARK SMILES IDX 25 1 24 2 23 3 22 4 20 5 21 6 19 8 6 9 7 10 12 11 8 12 11 13
REMARK SMILES IDX 13 14 9 15 10 16 89 17 14 18 5 19 1 20 2 21 3 22 91 23 4 24
REMARK SMILES IDX 90 25 15 26 16 27 17 28 18 29 26 30 27 31 28 33 29 34 30 35
REMARK SMILES IDX 88 36 31 37 87 38 32 39 33 40 34 41 81 42 35 43 86 44 80 45
REMARK SMILES IDX 82 46 36 47 85 48 79 49 78 50 37 52 67 53 48 54 66 55 49 56
REMARK SMILES IDX 52 57 65 58 83 59 50 60 51 61 64 63 84 64 53 65 38 66 39 67
REMARK SMILES IDX 47 68 40 69 46 70 41 71 42 72 43 73 44 74 45 75 68 76 69 77
REMARK SMILES IDX 77 78 70 79 76 80 71 81 72 82 73 83 74 84 75 85 54 86 55 87
REMARK SMILES IDX 63 88 56 89 62 90 57 91 58 92 59 93 60 94 61 95
REMARK H PARENT 22 7 26 32 82 51 52 62
REMARK Flexibility Score: inf
ROOT
ATOM      1  C   UNL A   1      46.564  29.101  25.880  1.00  0.00     0.118 C 
ENDROOT
BRANCH   1   2
ATOM      2  C   UNL A   1      45.815  27.955  25.221  1.00  0.00     0.042 C 
BRANCH   2   3
ATOM      3  C   UNL A   1      46.614  26.654  25.015  1.00  0.00     0.118 C 
BRANCH   3   4
ATOM      4  N   UNL A   1      47.166  26.027  26.216  1.00  0.00    -0.352 N 
ATOM      5  C   UNL A   1      47.096  24.770  26.758  1.00  0.00     0.251 C 
ATOM      6  O   UNL A   1      48.056  24.388  27.432  1.00  0.00    -0.270 OA
ATOM      7  H   UNL A   1      47.710  26.646  26.754  1.00  0.00     0.163 HD
BRANCH   5   8
ATOM      8  C   UNL A   1      45.836  23.898  26.706  1.00  0.00     0.067 C 
ATOM      9  C   UNL A   1      45.141  25.875  30.067  1.00  0.00     0.026 A 
ATOM     10  C   UNL A   1      44.588  25.223  31.198  1.00  0.00     0.033 A 
ATOM     11  C   UNL A   1      45.037  25.172  28.862  1.00  0.00     0.135 A 
ATOM     12  C   UNL A   1      44.232  23.872  31.152  1.00  0.00     0.042 A 
ATOM     13  C   UNL A   1      45.078  23.755  28.919  1.00  0.00     0.019 A 
ATOM     14  O   UNL A   1      44.749  25.790  27.600  1.00  0.00    -0.475 OA
ATOM     15  Cl  UNL A   1      43.584  23.106  32.550  1.00  0.00    -0.084 Cl
ATOM     16  C   UNL A   1      44.557  23.110  30.034  1.00  0.00     0.032 A 
ATOM     17  C   UNL A   1      45.658  23.028  27.733  1.00  0.00     0.025 C 
ATOM     18  C   UNL A   1      44.572  24.713  26.603  1.00  0.00     0.314 C 
BRANCH   9  19
ATOM     19  C   UNL A   1      46.366  26.671  30.408  1.00  0.00    -0.015 A 
ATOM     20  C   UNL A   1      49.299  29.735  31.409  1.00  0.00     0.044 C 
ATOM     21  C   UNL A   1      48.320  28.640  31.089  1.00  0.00    -0.051 A 
ATOM     22  C   UNL A   1      48.312  28.020  29.829  1.00  0.00     0.004 A 
ATOM     23  C   UNL A   1      47.389  28.225  32.036  1.00  0.00     0.004 A 
ATOM     24  C   UNL A   1      47.342  27.052  29.487  1.00  0.00     0.009 A 
ATOM     25  C   UNL A   1      46.442  27.250  31.703  1.00  0.00     0.009 A 
ENDBRANCH   9  19
BRANCH  18  26
ATOM     26  C   UNL A   1      44.092  24.733  25.134  1.00  0.00     0.429 C 
ATOM     27  F   UNL A   1      43.054  23.849  25.000  1.00  0.00    -0.167 F 
ATOM     28  F   UNL A   1      43.633  25.908  24.682  1.00  0.00    -0.167 F 
ATOM     29  F   UNL A   1      45.020  24.261  24.263  1.00  0.00    -0.167 F 
ENDBRANCH  18  26
ENDBRANCH   5   8
ENDBRANCH   3   4
ENDBRANCH   2   3
ENDBRANCH   1   2
BRANCH   1  30
ATOM     30  N   UNL A   1      45.916  30.344  25.589  1.00  0.00    -0.352 N 
ATOM     31  C   UNL A   1      45.331  31.289  26.409  1.00  0.00     0.251 C 
ATOM     32  H   UNL A   1      45.882  30.566  24.630  1.00  0.00     0.163 HD
ATOM     33  O   UNL A   1      44.357  31.824  25.950  1.00  0.00    -0.269 OA
BRANCH  31  34
ATOM     34  C   UNL A   1      46.108  31.889  27.609  1.00  0.00     0.039 A 
ATOM     35  C   UNL A   1      46.477  30.792  28.405  1.00  0.00     0.014 A 
ATOM     36  C   UNL A   1      45.351  32.835  28.282  1.00  0.00     0.014 A 
ATOM     37  C   UNL A   1      45.472  30.225  29.178  1.00  0.00     0.010 A 
ATOM     38  C   UNL A   1      44.277  32.321  28.966  1.00  0.00     0.010 A 
ATOM     39  C   UNL A   1      44.296  30.953  29.275  1.00  0.00    -0.014 A 
BRANCH  39  40
ATOM     40  C   UNL A   1      43.011  30.382  29.604  1.00  0.00     0.031 A 
ATOM     41  C   UNL A   1      42.534  29.338  28.688  1.00  0.00     0.074 A 
ATOM     42  C   UNL A   1      42.454  30.716  30.794  1.00  0.00     0.049 A 
ATOM     43  N   UNL A   1      41.351  28.851  28.662  1.00  0.00    -0.248 NA
ATOM     44  C   UNL A   1      43.406  28.777  27.651  1.00  0.00     0.031 C 
ATOM     45  C   UNL A   1      41.348  30.066  31.496  1.00  0.00     0.029 A 
ATOM     46  N   UNL A   1      42.657  31.892  31.533  1.00  0.00    -0.354 N 
ATOM     47  C   UNL A   1      41.395  27.728  27.860  1.00  0.00     0.074 A 
ATOM     48  C   UNL A   1      42.664  27.773  27.189  1.00  0.00     0.031 C 
ATOM     49  C   UNL A   1      40.769  30.970  32.310  1.00  0.00     0.029 A 
ATOM     50  C   UNL A   1      41.398  32.256  32.027  1.00  0.00     0.049 A 
ATOM     51  H   UNL A   1      43.509  32.364  31.675  1.00  0.00     0.167 HD
ATOM     52  C   UNL A   1      40.407  26.805  27.996  1.00  0.00     0.031 A 
ATOM     53  C   UNL A   1      40.730  33.349  31.546  1.00  0.00     0.031 A 
ATOM     54  C   UNL A   1      39.341  27.348  28.838  1.00  0.00     0.049 A 
ATOM     55  C   UNL A   1      39.464  32.909  30.814  1.00  0.00     0.074 A 
ATOM     56  C   UNL A   1      39.084  27.247  30.194  1.00  0.00     0.029 A 
ATOM     57  N   UNL A   1      38.666  28.482  28.390  1.00  0.00    -0.354 N 
ATOM     58  N   UNL A   1      39.319  31.754  30.207  1.00  0.00    -0.248 NA
ATOM     59  C   UNL A   1      38.240  33.703  30.798  1.00  0.00     0.031 C 
ATOM     60  C   UNL A   1      38.383  28.426  30.585  1.00  0.00     0.029 A 
ATOM     61  C   UNL A   1      38.187  29.216  29.462  1.00  0.00     0.049 A 
ATOM     62  H   UNL A   1      38.545  28.727  27.445  1.00  0.00     0.167 HD
ATOM     63  C   UNL A   1      38.013  31.611  29.803  1.00  0.00     0.074 A 
ATOM     64  C   UNL A   1      37.387  32.871  30.174  1.00  0.00     0.031 C 
ATOM     65  C   UNL A   1      37.495  30.479  29.235  1.00  0.00     0.031 A 
BRANCH  52  66
ATOM     66  C   UNL A   1      40.586  25.349  27.642  1.00  0.00    -0.014 A 
ATOM     67  C   UNL A   1      39.790  24.799  26.618  1.00  0.00     0.010 A 
ATOM     68  C   UNL A   1      41.442  24.449  28.312  1.00  0.00     0.010 A 
ATOM     69  C   UNL A   1      39.807  23.430  26.313  1.00  0.00     0.020 A 
ATOM     70  C   UNL A   1      41.451  23.071  28.036  1.00  0.00     0.020 A 
ATOM     71  C   UNL A   1      40.631  22.570  27.032  1.00  0.00     0.054 A 
BRANCH  71  72
ATOM     72  S   UNL A   1      40.636  20.806  26.619  1.00  0.00     0.124 S 
ATOM     73  O   UNL A   1      39.338  20.632  25.970  1.00  0.00    -0.237 OA
ATOM     74  O   UNL A   1      41.798  20.695  25.744  1.00  0.00    -0.237 OA
ATOM     75  O   UNL A   1      40.770  20.145  27.916  1.00  0.00    -0.744 OA
ENDBRANCH  71  72
ENDBRANCH  52  66
BRANCH  53  76
ATOM     76  C   UNL A   1      41.605  34.524  31.204  1.00  0.00    -0.014 A 
ATOM     77  C   UNL A   1      42.542  34.953  32.176  1.00  0.00     0.010 A 
ATOM     78  C   UNL A   1      41.796  34.962  29.882  1.00  0.00     0.010 A 
ATOM     79  C   UNL A   1      43.695  35.676  31.824  1.00  0.00     0.020 A 
ATOM     80  C   UNL A   1      42.954  35.690  29.523  1.00  0.00     0.020 A 
ATOM     81  C   UNL A   1      43.919  36.008  30.490  1.00  0.00     0.054 A 
BRANCH  81  82
ATOM     82  S   UNL A   1      45.563  36.656  29.993  1.00  0.00     0.124 S 
ATOM     83  O   UNL A   1      45.468  36.641  28.535  1.00  0.00    -0.237 OA
ATOM     84  O   UNL A   1      45.630  37.991  30.584  1.00  0.00    -0.237 OA
ATOM     85  O   UNL A   1      46.505  35.686  30.554  1.00  0.00    -0.744 OA
ENDBRANCH  81  82
ENDBRANCH  53  76
BRANCH  65  86
ATOM     86  C   UNL A   1      36.197  30.437  28.457  1.00  0.00    -0.014 A 
ATOM     87  C   UNL A   1      35.627  29.249  27.976  1.00  0.00     0.010 A 
ATOM     88  C   UNL A   1      35.420  31.615  28.340  1.00  0.00     0.010 A 
ATOM     89  C   UNL A   1      34.385  29.248  27.332  1.00  0.00     0.020 A 
ATOM     90  C   UNL A   1      34.150  31.614  27.759  1.00  0.00     0.020 A 
ATOM     91  C   UNL A   1      33.656  30.432  27.224  1.00  0.00     0.054 A 
BRANCH  91  92
ATOM     92  S   UNL A   1      32.038  30.404  26.418  1.00  0.00     0.124 S 
ATOM     93  O   UNL A   1      32.395  30.038  25.050  1.00  0.00    -0.237 OA
ATOM     94  O   UNL A   1      31.317  29.382  27.173  1.00  0.00    -0.237 OA
ATOM     95  O   UNL A   1      31.542  31.766  26.595  1.00  0.00    -0.744 OA
ENDBRANCH  91  92
ENDBRANCH  65  86
ENDBRANCH  39  40
ENDBRANCH  31  34
ENDBRANCH   1  30
TORSDOF 15
ENDMDL
MODEL 2
REMARK VINA RESULT:     -10.4      6.738     10.801
REMARK SMILES Cc1ccc(-c2cc(Cl)cc3c2O[C@@H](C(F)(F)F)C(C(=O)NCCCNC(=O)c2ccc(-c4c5nc(c(-c6ccc(S(=O)(=O)[O-])cc6)c6ccc([nH]6)c(-c6ccc(S(=O)(=O)[O-])cc6)c6nc(c(-c7ccc(S(=O)(=O)[O-])cc7)c7ccc4[nH]7)C=C6)C=C5)cc2)=C3)cc1
REMARK SMILES IDX 25 1 24 2 23 3 22 4 20 5 21 6 19 8 6 9 7 10 12 11 8 12 11 13
REMARK SMILES IDX 13 14 9 15 10 16 89 17 14 18 5 19 1 20 2 21 3 22 91 23 4 24
REMARK SMILES IDX 90 25 15 26 16 27 17 28 18 29 26 30 27 31 28 33 29 34 30 35
REMARK SMILES IDX 88 36 31 37 87 38 32 39 33 40 34 41 81 42 35 43 86 44 80 45
REMARK SMILES IDX 82 46 36 47 85 48 79 49 78 50 37 52 67 53 48 54 66 55 49 56
REMARK SMILES IDX 52 57 65 58 83 59 50 60 51 61 64 63 84 64 53 65 38 66 39 67
REMARK SMILES IDX 47 68 40 69 46 70 41 71 42 72 43 73 44 74 45 75 68 76 69 77
REMARK SMILES IDX 77 78 70 79 76 80 71 81 72 82 73 83 74 84 75 85 54 86 55 87
REMARK SMILES IDX 63 88 56 89 62 90 57 91 58 92 59 93 60 94 61 95
REMARK H PARENT 22 7 26 32 82 51 52 62
REMARK Flexibility Score: inf
ROOT
ATOM      1  C   UNL A   1      45.164  25.904  36.314  1.00  0.00     0.118 C 
ENDROOT
BRANCH   1   2
ATOM      2  C   UNL A   1      45.902  25.687  37.623  1.00  0.00     0.042 C 
BRANCH   2   3
ATOM      3  C   UNL A   1      47.203  24.866  37.539  1.00  0.00     0.118 C 
BRANCH   3   4
ATOM      4  N   UNL A   1      47.234  23.607  38.283  1.00  0.00    -0.352 N 
ATOM      5  C   UNL A   1      47.996  23.122  39.314  1.00  0.00     0.251 C 
ATOM      6  O   UNL A   1      47.471  22.304  40.073  1.00  0.00    -0.270 OA
ATOM      7  H   UNL A   1      46.555  22.964  37.974  1.00  0.00     0.163 HD
BRANCH   5   8
ATOM      8  C   UNL A   1      49.492  23.419  39.470  1.00  0.00     0.067 C 
ATOM      9  C   UNL A   1      49.605  19.462  39.336  1.00  0.00     0.026 A 
ATOM     10  C   UNL A   1      50.469  18.726  40.185  1.00  0.00     0.033 A 
ATOM     11  C   UNL A   1      49.884  20.829  39.240  1.00  0.00     0.135 A 
ATOM     12  C   UNL A   1      51.338  19.372  41.068  1.00  0.00     0.042 A 
ATOM     13  C   UNL A   1      50.427  21.474  40.382  1.00  0.00     0.019 A 
ATOM     14  O   UNL A   1      49.788  21.580  38.023  1.00  0.00    -0.475 OA
ATOM     15  Cl  UNL A   1      52.357  18.447  42.102  1.00  0.00    -0.084 Cl
ATOM     16  C   UNL A   1      51.258  20.752  41.231  1.00  0.00     0.032 A 
ATOM     17  C   UNL A   1      50.095  22.929  40.583  1.00  0.00     0.025 C 
ATOM     18  C   UNL A   1      50.302  22.940  38.291  1.00  0.00     0.314 C 
BRANCH   9  19
ATOM     19  C   UNL A   1      48.196  18.948  39.369  1.00  0.00    -0.015 A 
ATOM     20  C   UNL A   1      44.511  16.632  39.138  1.00  0.00     0.044 C 
ATOM     21  C   UNL A   1      45.759  17.463  39.258  1.00  0.00    -0.051 A 
ATOM     22  C   UNL A   1      46.015  18.518  38.367  1.00  0.00     0.004 A 
ATOM     23  C   UNL A   1      46.695  17.193  40.251  1.00  0.00     0.004 A 
ATOM     24  C   UNL A   1      47.223  19.249  38.416  1.00  0.00     0.009 A 
ATOM     25  C   UNL A   1      47.882  17.932  40.311  1.00  0.00     0.009 A 
ENDBRANCH   9  19
BRANCH  18  26
ATOM     26  C   UNL A   1      50.606  24.134  37.358  1.00  0.00     0.429 C 
ATOM     27  F   UNL A   1      51.932  24.094  37.014  1.00  0.00    -0.167 F 
ATOM     28  F   UNL A   1      49.929  24.164  36.202  1.00  0.00    -0.167 F 
ATOM     29  F   UNL A   1      50.477  25.337  37.971  1.00  0.00    -0.167 F 
ENDBRANCH  18  26
ENDBRANCH   5   8
ENDBRANCH   3   4
ENDBRANCH   2   3
ENDBRANCH   1   2
BRANCH   1  30
ATOM     30  N   UNL A   1      45.385  27.237  35.839  1.00  0.00    -0.352 N 
ATOM     31  C   UNL A   1      44.526  28.176  35.306  1.00  0.00     0.251 C 
ATOM     32  H   UNL A   1      46.321  27.538  35.906  1.00  0.00     0.163 HD
ATOM     33  O   UNL A   1      44.999  28.861  34.439  1.00  0.00    -0.269 OA
BRANCH  31  34
ATOM     34  C   UNL A   1      43.226  28.577  36.052  1.00  0.00     0.039 A 
ATOM     35  C   UNL A   1      42.377  27.464  35.954  1.00  0.00     0.014 A 
ATOM     36  C   UNL A   1      42.681  29.740  35.531  1.00  0.00     0.014 A 
ATOM     37  C   UNL A   1      41.759  27.265  34.726  1.00  0.00     0.010 A 
ATOM     38  C   UNL A   1      42.162  29.607  34.267  1.00  0.00     0.010 A 
ATOM     39  C   UNL A   1      41.844  28.315  33.826  1.00  0.00    -0.014 A 
BRANCH  39  40
ATOM     40  C   UNL A   1      41.707  28.172  32.395  1.00  0.00     0.031 A 
ATOM     41  C   UNL A   1      40.350  28.372  31.871  1.00  0.00     0.074 A 
ATOM     42  C   UNL A   1      42.838  28.049  31.658  1.00  0.00     0.049 A 
ATOM     43  N   UNL A   1      39.959  28.090  30.685  1.00  0.00    -0.248 NA
ATOM     44  C   UNL A   1      39.273  28.892  32.719  1.00  0.00     0.031 C 
ATOM     45  C   UNL A   1      43.004  28.198  30.213  1.00  0.00     0.029 A 
ATOM     46  N   UNL A   1      44.077  27.537  32.073  1.00  0.00    -0.354 N 
ATOM     47  C   UNL A   1      38.719  28.673  30.521  1.00  0.00     0.074 A 
ATOM     48  C   UNL A   1      38.299  29.082  31.832  1.00  0.00     0.031 C 
ATOM     49  C   UNL A   1      44.089  27.495  29.833  1.00  0.00     0.029 A 
ATOM     50  C   UNL A   1      44.547  26.759  31.007  1.00  0.00     0.049 A 
ATOM     51  H   UNL A   1      44.526  27.693  32.936  1.00  0.00     0.167 HD
ATOM     52  C   UNL A   1      38.274  28.887  29.254  1.00  0.00     0.031 A 
ATOM     53  C   UNL A   1      44.596  25.393  31.086  1.00  0.00     0.031 A 
ATOM     54  C   UNL A   1      39.151  28.204  28.305  1.00  0.00     0.049 A 
ATOM     55  C   UNL A   1      43.609  24.775  30.099  1.00  0.00     0.074 A 
ATOM     56  C   UNL A   1      40.246  28.634  27.573  1.00  0.00     0.029 A 
ATOM     57  N   UNL A   1      39.250  26.816  28.384  1.00  0.00    -0.354 N 
ATOM     58  N   UNL A   1      42.501  25.351  29.694  1.00  0.00    -0.248 NA
ATOM     59  C   UNL A   1      43.853  23.504  29.424  1.00  0.00     0.031 C 
ATOM     60  C   UNL A   1      41.087  27.503  27.358  1.00  0.00     0.029 A 
ATOM     61  C   UNL A   1      40.485  26.390  27.925  1.00  0.00     0.049 A 
ATOM     62  H   UNL A   1      38.541  26.222  28.719  1.00  0.00     0.167 HD
ATOM     63  C   UNL A   1      41.939  24.605  28.687  1.00  0.00     0.074 A 
ATOM     64  C   UNL A   1      42.811  23.446  28.575  1.00  0.00     0.031 C 
ATOM     65  C   UNL A   1      40.835  24.976  27.968  1.00  0.00     0.031 A 
BRANCH  52  66
ATOM     66  C   UNL A   1      37.271  29.959  28.904  1.00  0.00    -0.014 A 
ATOM     67  C   UNL A   1      37.513  31.278  29.336  1.00  0.00     0.010 A 
ATOM     68  C   UNL A   1      36.048  29.741  28.235  1.00  0.00     0.010 A 
ATOM     69  C   UNL A   1      36.575  32.306  29.160  1.00  0.00     0.020 A 
ATOM     70  C   UNL A   1      35.087  30.753  28.074  1.00  0.00     0.020 A 
ATOM     71  C   UNL A   1      35.359  32.035  28.538  1.00  0.00     0.054 A 
BRANCH  71  72
ATOM     72  S   UNL A   1      34.164  33.378  28.321  1.00  0.00     0.124 S 
ATOM     73  O   UNL A   1      33.054  32.707  27.648  1.00  0.00    -0.237 OA
ATOM     74  O   UNL A   1      33.909  33.792  29.697  1.00  0.00    -0.237 OA
ATOM     75  O   UNL A   1      34.881  34.353  27.503  1.00  0.00    -0.744 OA
ENDBRANCH  71  72
ENDBRANCH  52  66
BRANCH  53  76
ATOM     76  C   UNL A   1      44.974  24.853  32.438  1.00  0.00    -0.014 A 
ATOM     77  C   UNL A   1      44.060  23.978  33.077  1.00  0.00     0.010 A 
ATOM     78  C   UNL A   1      46.297  24.868  32.914  1.00  0.00     0.010 A 
ATOM     79  C   UNL A   1      44.476  23.061  34.057  1.00  0.00     0.020 A 
ATOM     80  C   UNL A   1      46.719  23.947  33.900  1.00  0.00     0.020 A 
ATOM     81  C   UNL A   1      45.816  23.019  34.438  1.00  0.00     0.054 A 
BRANCH  81  82
ATOM     82  S   UNL A   1      46.411  21.619  35.464  1.00  0.00     0.124 S 
ATOM     83  O   UNL A   1      45.625  21.781  36.685  1.00  0.00    -0.237 OA
ATOM     84  O   UNL A   1      46.085  20.424  34.687  1.00  0.00    -0.237 OA
ATOM     85  O   UNL A   1      47.843  21.882  35.619  1.00  0.00    -0.744 OA
ENDBRANCH  81  82
ENDBRANCH  53  76
BRANCH  65  86
ATOM     86  C   UNL A   1      40.001  24.022  27.140  1.00  0.00    -0.014 A 
ATOM     87  C   UNL A   1      40.297  22.656  27.010  1.00  0.00     0.010 A 
ATOM     88  C   UNL A   1      38.771  24.466  26.597  1.00  0.00     0.010 A 
ATOM     89  C   UNL A   1      39.454  21.794  26.301  1.00  0.00     0.020 A 
ATOM     90  C   UNL A   1      37.890  23.601  25.945  1.00  0.00     0.020 A 
ATOM     91  C   UNL A   1      38.257  22.273  25.768  1.00  0.00     0.054 A 
BRANCH  91  92
ATOM     92  S   UNL A   1      37.165  21.137  24.884  1.00  0.00     0.124 S 
ATOM     93  O   UNL A   1      36.013  21.077  25.778  1.00  0.00    -0.237 OA
ATOM     94  O   UNL A   1      36.940  21.824  23.615  1.00  0.00    -0.237 OA
ATOM     95  O   UNL A   1      37.951  19.909  24.788  1.00  0.00    -0.744 OA
ENDBRANCH  91  92
ENDBRANCH  65  86
ENDBRANCH  39  40
ENDBRANCH  31  34
ENDBRANCH   1  30
TORSDOF 15
ENDMDL
MODEL 3
REMARK VINA RESULT:     -10.3      4.285      9.230
REMARK SMILES Cc1ccc(-c2cc(Cl)cc3c2O[C@@H](C(F)(F)F)C(C(=O)NCCCNC(=O)c2ccc(-c4c5nc(c(-c6ccc(S(=O)(=O)[O-])cc6)c6ccc([nH]6)c(-c6ccc(S(=O)(=O)[O-])cc6)c6nc(c(-c7ccc(S(=O)(=O)[O-])cc7)c7ccc4[nH]7)C=C6)C=C5)cc2)=C3)cc1
REMARK SMILES IDX 25 1 24 2 23 3 22 4 20 5 21 6 19 8 6 9 7 10 12 11 8 12 11 13
REMARK SMILES IDX 13 14 9 15 10 16 89 17 14 18 5 19 1 20 2 21 3 22 91 23 4 24
REMARK SMILES IDX 90 25 15 26 16 27 17 28 18 29 26 30 27 31 28 33 29 34 30 35
REMARK SMILES IDX 88 36 31 37 87 38 32 39 33 40 34 41 81 42 35 43 86 44 80 45
REMARK SMILES IDX 82 46 36 47 85 48 79 49 78 50 37 52 67 53 48 54 66 55 49 56
REMARK SMILES IDX 52 57 65 58 83 59 50 60 51 61 64 63 84 64 53 65 38 66 39 67
REMARK SMILES IDX 47 68 40 69 46 70 41 71 42 72 43 73 44 74 45 75 68 76 69 77
REMARK SMILES IDX 77 78 70 79 76 80 71 81 72 82 73 83 74 84 75 85 54 86 55 87
REMARK SMILES IDX 63 88 56 89 62 90 57 91 58 92 59 93 60 94 61 95
REMARK H PARENT 22 7 26 32 82 51 52 62
REMARK Flexibility Score: inf
ROOT
ATOM      1  C   UNL A   1      42.286  27.524  25.268  1.00  0.00     0.118 C 
ENDROOT
BRANCH   1   2
ATOM      2  C   UNL A   1      43.433  26.540  25.121  1.00  0.00     0.042 C 
BRANCH   2   3
ATOM      3  C   UNL A   1      43.084  25.055  25.339  1.00  0.00     0.118 C 
BRANCH   3   4
ATOM      4  N   UNL A   1      43.454  24.130  24.268  1.00  0.00    -0.352 N 
ATOM      5  C   UNL A   1      44.105  22.925  24.227  1.00  0.00     0.251 C 
ATOM      6  O   UNL A   1      43.801  22.146  23.320  1.00  0.00    -0.270 OA
ATOM      7  H   UNL A   1      43.174  24.445  23.378  1.00  0.00     0.163 HD
BRANCH   5   8
ATOM      8  C   UNL A   1      45.285  22.571  25.139  1.00  0.00     0.067 C 
ATOM      9  C   UNL A   1      42.288  21.932  27.647  1.00  0.00     0.026 A 
ATOM     10  C   UNL A   1      42.376  22.322  29.007  1.00  0.00     0.033 A 
ATOM     11  C   UNL A   1      43.502  21.908  26.953  1.00  0.00     0.135 A 
ATOM     12  C   UNL A   1      43.538  22.908  29.517  1.00  0.00     0.042 A 
ATOM     13  C   UNL A   1      44.495  22.849  27.327  1.00  0.00     0.019 A 
ATOM     14  O   UNL A   1      43.851  20.904  25.990  1.00  0.00    -0.475 OA
ATOM     15  Cl  UNL A   1      43.602  23.392  31.168  1.00  0.00    -0.084 Cl
ATOM     16  C   UNL A   1      44.573  23.253  28.655  1.00  0.00     0.032 A 
ATOM     17  C   UNL A   1      45.438  23.330  26.255  1.00  0.00     0.025 C 
ATOM     18  C   UNL A   1      45.256  21.133  25.592  1.00  0.00     0.314 C 
BRANCH   9  19
ATOM     19  C   UNL A   1      41.020  22.403  26.998  1.00  0.00    -0.015 A 
ATOM     20  C   UNL A   1      36.967  23.660  26.006  1.00  0.00     0.044 C 
ATOM     21  C   UNL A   1      38.384  23.258  26.305  1.00  0.00    -0.051 A 
ATOM     22  C   UNL A   1      38.905  22.039  25.842  1.00  0.00     0.004 A 
ATOM     23  C   UNL A   1      39.208  24.084  27.062  1.00  0.00     0.004 A 
ATOM     24  C   UNL A   1      40.205  21.611  26.189  1.00  0.00     0.009 A 
ATOM     25  C   UNL A   1      40.505  23.668  27.388  1.00  0.00     0.009 A 
ENDBRANCH   9  19
BRANCH  18  26
ATOM     26  C   UNL A   1      46.235  20.303  24.731  1.00  0.00     0.429 C 
ATOM     27  F   UNL A   1      47.087  21.161  24.087  1.00  0.00    -0.167 F 
ATOM     28  F   UNL A   1      47.016  19.441  25.396  1.00  0.00    -0.167 F 
ATOM     29  F   UNL A   1      45.625  19.646  23.713  1.00  0.00    -0.167 F 
ENDBRANCH  18  26
ENDBRANCH   5   8
ENDBRANCH   3   4
ENDBRANCH   2   3
ENDBRANCH   1   2
BRANCH   1  30
ATOM     30  N   UNL A   1      41.339  27.037  26.225  1.00  0.00    -0.352 N 
ATOM     31  C   UNL A   1      40.970  27.504  27.471  1.00  0.00     0.251 C 
ATOM     32  H   UNL A   1      40.864  26.221  25.943  1.00  0.00     0.163 HD
ATOM     33  O   UNL A   1      40.714  26.649  28.277  1.00  0.00    -0.269 OA
BRANCH  31  34
ATOM     34  C   UNL A   1      40.525  28.976  27.668  1.00  0.00     0.039 A 
ATOM     35  C   UNL A   1      41.645  29.756  27.337  1.00  0.00     0.014 A 
ATOM     36  C   UNL A   1      40.054  29.197  28.952  1.00  0.00     0.014 A 
ATOM     37  C   UNL A   1      42.662  29.806  28.281  1.00  0.00     0.010 A 
ATOM     38  C   UNL A   1      41.018  29.139  29.928  1.00  0.00     0.010 A 
ATOM     39  C   UNL A   1      42.353  29.301  29.535  1.00  0.00    -0.014 A 
BRANCH  39  40
ATOM     40  C   UNL A   1      43.334  28.828  30.484  1.00  0.00     0.031 A 
ATOM     41  C   UNL A   1      44.268  27.817  29.973  1.00  0.00     0.074 A 
ATOM     42  C   UNL A   1      43.423  29.468  31.676  1.00  0.00     0.049 A 
ATOM     43  N   UNL A   1      45.068  27.113  30.681  1.00  0.00    -0.248 NA
ATOM     44  C   UNL A   1      44.327  27.486  28.545  1.00  0.00     0.031 C 
ATOM     45  C   UNL A   1      44.498  29.403  32.666  1.00  0.00     0.029 A 
ATOM     46  N   UNL A   1      42.411  30.174  32.345  1.00  0.00    -0.354 N 
ATOM     47  C   UNL A   1      45.944  26.499  29.809  1.00  0.00     0.074 A 
ATOM     48  C   UNL A   1      45.393  26.690  28.497  1.00  0.00     0.031 C 
ATOM     49  C   UNL A   1      43.987  29.719  33.872  1.00  0.00     0.029 A 
ATOM     50  C   UNL A   1      42.543  29.840  33.700  1.00  0.00     0.049 A 
ATOM     51  H   UNL A   1      41.746  30.780  31.946  1.00  0.00     0.167 HD
ATOM     52  C   UNL A   1      47.127  26.045  30.303  1.00  0.00     0.031 A 
ATOM     53  C   UNL A   1      41.624  29.048  34.333  1.00  0.00     0.031 A 
ATOM     54  C   UNL A   1      47.103  26.104  31.764  1.00  0.00     0.049 A 
ATOM     55  C   UNL A   1      42.265  27.721  34.734  1.00  0.00     0.074 A 
ATOM     56  C   UNL A   1      47.543  27.059  32.664  1.00  0.00     0.029 A 
ATOM     57  N   UNL A   1      46.155  25.335  32.436  1.00  0.00    -0.354 N 
ATOM     58  N   UNL A   1      43.266  27.156  34.101  1.00  0.00    -0.248 NA
ATOM     59  C   UNL A   1      41.883  26.988  35.937  1.00  0.00     0.031 C 
ATOM     60  C   UNL A   1      46.727  26.956  33.829  1.00  0.00     0.029 A 
ATOM     61  C   UNL A   1      45.824  25.921  33.646  1.00  0.00     0.049 A 
ATOM     62  H   UNL A   1      45.774  24.493  32.097  1.00  0.00     0.167 HD
ATOM     63  C   UNL A   1      43.706  26.070  34.818  1.00  0.00     0.074 A 
ATOM     64  C   UNL A   1      42.788  25.993  35.945  1.00  0.00     0.031 C 
ATOM     65  C   UNL A   1      44.804  25.319  34.496  1.00  0.00     0.031 A 
BRANCH  52  66
ATOM     66  C   UNL A   1      48.364  25.878  29.454  1.00  0.00    -0.014 A 
ATOM     67  C   UNL A   1      49.505  26.641  29.766  1.00  0.00     0.010 A 
ATOM     68  C   UNL A   1      48.457  25.067  28.304  1.00  0.00     0.010 A 
ATOM     69  C   UNL A   1      50.651  26.638  28.956  1.00  0.00     0.020 A 
ATOM     70  C   UNL A   1      49.586  25.072  27.468  1.00  0.00     0.020 A 
ATOM     71  C   UNL A   1      50.681  25.859  27.803  1.00  0.00     0.054 A 
BRANCH  71  72
ATOM     72  S   UNL A   1      52.171  25.870  26.773  1.00  0.00     0.124 S 
ATOM     73  O   UNL A   1      51.932  27.005  25.885  1.00  0.00    -0.237 OA
ATOM     74  O   UNL A   1      53.230  26.055  27.761  1.00  0.00    -0.237 OA
ATOM     75  O   UNL A   1      52.153  24.562  26.121  1.00  0.00    -0.744 OA
ENDBRANCH  71  72
ENDBRANCH  52  66
BRANCH  53  76
ATOM     76  C   UNL A   1      40.199  29.265  33.902  1.00  0.00    -0.014 A 
ATOM     77  C   UNL A   1      39.698  30.590  33.925  1.00  0.00     0.010 A 
ATOM     78  C   UNL A   1      39.486  28.315  33.150  1.00  0.00     0.010 A 
ATOM     79  C   UNL A   1      38.612  30.985  33.126  1.00  0.00     0.020 A 
ATOM     80  C   UNL A   1      38.392  28.708  32.344  1.00  0.00     0.020 A 
ATOM     81  C   UNL A   1      37.985  30.050  32.304  1.00  0.00     0.054 A 
BRANCH  81  82
ATOM     82  S   UNL A   1      36.795  30.630  31.033  1.00  0.00     0.124 S 
ATOM     83  O   UNL A   1      35.848  31.402  31.834  1.00  0.00    -0.237 OA
ATOM     84  O   UNL A   1      37.599  31.427  30.109  1.00  0.00    -0.237 OA
ATOM     85  O   UNL A   1      36.253  29.393  30.470  1.00  0.00    -0.744 OA
ENDBRANCH  81  82
ENDBRANCH  53  76
BRANCH  65  86
ATOM     86  C   UNL A   1      45.073  23.932  35.040  1.00  0.00    -0.014 A 
ATOM     87  C   UNL A   1      44.663  22.758  34.390  1.00  0.00     0.010 A 
ATOM     88  C   UNL A   1      45.918  23.780  36.167  1.00  0.00     0.010 A 
ATOM     89  C   UNL A   1      45.004  21.496  34.887  1.00  0.00     0.020 A 
ATOM     90  C   UNL A   1      46.318  22.526  36.633  1.00  0.00     0.020 A 
ATOM     91  C   UNL A   1      45.825  21.387  36.008  1.00  0.00     0.054 A 
BRANCH  91  92
ATOM     92  S   UNL A   1      46.281  19.747  36.616  1.00  0.00     0.124 S 
ATOM     93  O   UNL A   1      45.591  18.878  35.666  1.00  0.00    -0.237 OA
ATOM     94  O   UNL A   1      47.738  19.756  36.513  1.00  0.00    -0.237 OA
ATOM     95  O   UNL A   1      45.759  19.727  37.979  1.00  0.00    -0.744 OA
ENDBRANCH  91  92
ENDBRANCH  65  86
ENDBRANCH  39  40
ENDBRANCH  31  34
ENDBRANCH   1  30
TORSDOF 15
ENDMDL
