MODEL 1
REMARK VINA RESULT:     -10.1      0.000      0.000
REMARK SMILES C#CC[C@]1(C(=O)NCCCNC(=O)c2ccc(-c3c4nc(c(-c5ccc(S(=O)(=O)[O-])cc5)c5ccc([nH]5)c(-c5ccc(S(=O)(=O)[O-])cc5)c5nc(c(-c6ccc(S(=O)(=O)[O-])cc6)c6ccc3[nH]6)C=C5)C=C4)cc2)CC[C@@H](C)C1
REMARK SMILES IDX 9 1 8 2 7 3 5 4 6 5 4 7 74 8 78 9 75 10 76 11 77 12 3 13
REMARK SMILES IDX 2 14 1 15 10 16 11 17 12 18 13 20 14 21 15 22 73 23 16 24
REMARK SMILES IDX 72 25 17 26 18 27 19 28 66 29 20 30 71 31 65 32 67 33 21 34
REMARK SMILES IDX 70 35 64 36 63 37 22 39 52 40 33 41 51 42 34 43 37 44 50 45
REMARK SMILES IDX 68 46 35 47 36 48 49 50 69 51 38 52 23 53 24 54 32 55 25 56
REMARK SMILES IDX 31 57 26 58 27 59 28 60 29 61 30 62 53 63 54 64 62 65 55 66
REMARK SMILES IDX 61 67 56 68 57 69 58 70 59 71 60 72 39 73 40 74 48 75 41 76
REMARK SMILES IDX 47 77 42 78 43 79 44 80 45 81 46 82
REMARK H PARENT 7 6 11 19 67 38 37 49
REMARK Flexibility Score: inf
ROOT
ATOM      1  C   UNL A   1      32.229  28.125  26.709  1.00  0.00     0.042 C 
ENDROOT
BRANCH   1   2
ATOM      2  C   UNL A   1      32.145  26.626  26.547  1.00  0.00     0.117 C 
BRANCH   2   3
ATOM      3  N   UNL A   1      32.992  26.104  25.506  1.00  0.00    -0.356 N 
ATOM      4  C   UNL A   1      32.755  25.848  24.199  1.00  0.00     0.227 C 
ATOM      5  O   UNL A   1      33.775  25.781  23.498  1.00  0.00    -0.274 OA
ATOM      6  H   UNL A   1      33.910  25.895  25.798  1.00  0.00     0.163 HD
BRANCH   4   7
ATOM      7  C   UNL A   1      31.356  25.664  23.548  1.00  0.00     0.060 C 
ATOM      8  C   UNL A   1      30.123  26.220  24.287  1.00  0.00     0.018 C 
ATOM      9  C   UNL A   1      31.320  26.409  22.193  1.00  0.00     0.021 C 
ATOM     10  C   UNL A   1      29.748  27.558  23.623  1.00  0.00     0.004 C 
ATOM     11  C   UNL A   1      30.719  27.791  22.463  1.00  0.00    -0.013 C 
ATOM     12  C   UNL A   1      31.780  28.869  22.697  1.00  0.00     0.007 C 
BRANCH   7  13
ATOM     13  C   UNL A   1      31.308  24.113  23.318  1.00  0.00     0.106 C 
BRANCH  13  14
ATOM     14  C   UNL A   1      31.240  23.265  24.522  1.00  0.00    -0.106 C 
ATOM     15  C   UNL A   1      31.091  22.611  25.515  1.00  0.00     0.004 C 
ENDBRANCH  13  14
ENDBRANCH   7  13
ENDBRANCH   4   7
ENDBRANCH   2   3
ENDBRANCH   1   2
BRANCH   1  16
ATOM     16  C   UNL A   1      33.553  28.528  27.324  1.00  0.00     0.118 C 
BRANCH  16  17
ATOM     17  N   UNL A   1      33.602  29.959  27.644  1.00  0.00    -0.352 N 
ATOM     18  C   UNL A   1      34.614  30.696  28.206  1.00  0.00     0.251 C 
ATOM     19  H   UNL A   1      32.788  30.466  27.420  1.00  0.00     0.163 HD
ATOM     20  O   UNL A   1      34.416  31.845  28.582  1.00  0.00    -0.269 OA
BRANCH  18  21
ATOM     21  C   UNL A   1      35.931  30.060  28.364  1.00  0.00     0.039 A 
ATOM     22  C   UNL A   1      36.868  30.134  27.332  1.00  0.00     0.014 A 
ATOM     23  C   UNL A   1      36.255  29.478  29.589  1.00  0.00     0.014 A 
ATOM     24  C   UNL A   1      38.169  29.695  27.567  1.00  0.00     0.010 A 
ATOM     25  C   UNL A   1      37.575  29.182  29.864  1.00  0.00     0.010 A 
ATOM     26  C   UNL A   1      38.541  29.261  28.849  1.00  0.00    -0.014 A 
BRANCH  26  27
ATOM     27  C   UNL A   1      39.914  28.820  29.178  1.00  0.00     0.031 A 
ATOM     28  C   UNL A   1      40.872  29.823  29.761  1.00  0.00     0.074 A 
ATOM     29  C   UNL A   1      40.332  27.585  28.842  1.00  0.00     0.049 A 
ATOM     30  N   UNL A   1      42.162  29.725  29.944  1.00  0.00    -0.248 NA
ATOM     31  C   UNL A   1      40.308  31.134  30.134  1.00  0.00     0.031 C 
ATOM     32  C   UNL A   1      39.501  26.540  28.239  1.00  0.00     0.029 A 
ATOM     33  N   UNL A   1      41.573  27.010  28.939  1.00  0.00    -0.354 N 
ATOM     34  C   UNL A   1      42.566  30.970  30.410  1.00  0.00     0.074 A 
ATOM     35  C   UNL A   1      41.401  31.825  30.412  1.00  0.00     0.031 C 
ATOM     36  C   UNL A   1      40.252  25.445  28.038  1.00  0.00     0.029 A 
ATOM     37  C   UNL A   1      41.627  25.730  28.439  1.00  0.00     0.049 A 
ATOM     38  H   UNL A   1      42.351  27.470  29.329  1.00  0.00     0.167 HD
ATOM     39  C   UNL A   1      43.794  31.361  30.821  1.00  0.00     0.031 A 
ATOM     40  C   UNL A   1      42.672  24.892  28.296  1.00  0.00     0.031 A 
ATOM     41  C   UNL A   1      44.939  30.494  30.821  1.00  0.00     0.049 A 
ATOM     42  C   UNL A   1      44.034  25.343  28.745  1.00  0.00     0.074 A 
ATOM     43  C   UNL A   1      46.217  30.759  31.274  1.00  0.00     0.029 A 
ATOM     44  N   UNL A   1      44.942  29.192  30.337  1.00  0.00    -0.354 N 
ATOM     45  N   UNL A   1      44.393  26.504  29.240  1.00  0.00    -0.248 NA
ATOM     46  C   UNL A   1      45.130  24.372  28.626  1.00  0.00     0.031 C 
ATOM     47  C   UNL A   1      47.013  29.645  30.995  1.00  0.00     0.029 A 
ATOM     48  C   UNL A   1      46.211  28.652  30.453  1.00  0.00     0.049 A 
ATOM     49  H   UNL A   1      44.160  28.724  29.967  1.00  0.00     0.167 HD
ATOM     50  C   UNL A   1      45.749  26.390  29.532  1.00  0.00     0.074 A 
ATOM     51  C   UNL A   1      46.145  25.049  29.152  1.00  0.00     0.031 C 
ATOM     52  C   UNL A   1      46.584  27.310  30.077  1.00  0.00     0.031 A 
BRANCH  39  53
ATOM     53  C   UNL A   1      43.952  32.791  31.268  1.00  0.00    -0.014 A 
ATOM     54  C   UNL A   1      43.798  33.164  32.617  1.00  0.00     0.010 A 
ATOM     55  C   UNL A   1      44.248  33.785  30.318  1.00  0.00     0.010 A 
ATOM     56  C   UNL A   1      43.862  34.507  32.993  1.00  0.00     0.020 A 
ATOM     57  C   UNL A   1      44.356  35.125  30.696  1.00  0.00     0.020 A 
ATOM     58  C   UNL A   1      44.135  35.480  32.027  1.00  0.00     0.054 A 
BRANCH  58  59
ATOM     59  S   UNL A   1      44.198  37.218  32.542  1.00  0.00     0.124 S 
ATOM     60  O   UNL A   1      45.524  37.303  33.149  1.00  0.00    -0.237 OA
ATOM     61  O   UNL A   1      44.040  37.930  31.277  1.00  0.00    -0.237 OA
ATOM     62  O   UNL A   1      43.078  37.346  33.472  1.00  0.00    -0.744 OA
ENDBRANCH  58  59
ENDBRANCH  39  53
BRANCH  40  63
ATOM     63  C   UNL A   1      42.449  23.540  27.712  1.00  0.00    -0.014 A 
ATOM     64  C   UNL A   1      42.710  23.296  26.353  1.00  0.00     0.010 A 
ATOM     65  C   UNL A   1      42.040  22.471  28.531  1.00  0.00     0.010 A 
ATOM     66  C   UNL A   1      42.570  22.009  25.824  1.00  0.00     0.020 A 
ATOM     67  C   UNL A   1      41.928  21.178  28.014  1.00  0.00     0.020 A 
ATOM     68  C   UNL A   1      42.191  20.955  26.662  1.00  0.00     0.054 A 
BRANCH  68  69
ATOM     69  S   UNL A   1      42.112  19.279  25.972  1.00  0.00     0.124 S 
ATOM     70  O   UNL A   1      42.959  19.395  24.789  1.00  0.00    -0.237 OA
ATOM     71  O   UNL A   1      42.650  18.467  27.060  1.00  0.00    -0.237 OA
ATOM     72  O   UNL A   1      40.687  19.085  25.706  1.00  0.00    -0.744 OA
ENDBRANCH  68  69
ENDBRANCH  40  63
BRANCH  52  73
ATOM     73  C   UNL A   1      48.001  26.892  30.367  1.00  0.00    -0.014 A 
ATOM     74  C   UNL A   1      49.051  27.168  29.476  1.00  0.00     0.010 A 
ATOM     75  C   UNL A   1      48.295  26.318  31.620  1.00  0.00     0.010 A 
ATOM     76  C   UNL A   1      50.371  26.869  29.831  1.00  0.00     0.020 A 
ATOM     77  C   UNL A   1      49.612  26.049  31.989  1.00  0.00     0.020 A 
ATOM     78  C   UNL A   1      50.643  26.322  31.090  1.00  0.00     0.054 A 
BRANCH  78  79
ATOM     79  S   UNL A   1      52.371  26.031  31.560  1.00  0.00     0.124 S 
ATOM     80  O   UNL A   1      52.307  24.694  32.142  1.00  0.00    -0.237 OA
ATOM     81  O   UNL A   1      53.069  26.129  30.280  1.00  0.00    -0.237 OA
ATOM     82  O   UNL A   1      52.660  27.108  32.505  1.00  0.00    -0.744 OA
ENDBRANCH  78  79
ENDBRANCH  52  73
ENDBRANCH  26  27
ENDBRANCH  18  21
ENDBRANCH  16  17
ENDBRANCH   1  16
TORSDOF 15
ENDMDL
MODEL 2
REMARK VINA RESULT:     -10.1      1.094      2.056
REMARK SMILES C#CC[C@]1(C(=O)NCCCNC(=O)c2ccc(-c3c4nc(c(-c5ccc(S(=O)(=O)[O-])cc5)c5ccc([nH]5)c(-c5ccc(S(=O)(=O)[O-])cc5)c5nc(c(-c6ccc(S(=O)(=O)[O-])cc6)c6ccc3[nH]6)C=C5)C=C4)cc2)CC[C@@H](C)C1
REMARK SMILES IDX 9 1 8 2 7 3 5 4 6 5 4 7 74 8 78 9 75 10 76 11 77 12 3 13
REMARK SMILES IDX 2 14 1 15 10 16 11 17 12 18 13 20 14 21 15 22 73 23 16 24
REMARK SMILES IDX 72 25 17 26 18 27 19 28 66 29 20 30 71 31 65 32 67 33 21 34
REMARK SMILES IDX 70 35 64 36 63 37 22 39 52 40 33 41 51 42 34 43 37 44 50 45
REMARK SMILES IDX 68 46 35 47 36 48 49 50 69 51 38 52 23 53 24 54 32 55 25 56
REMARK SMILES IDX 31 57 26 58 27 59 28 60 29 61 30 62 53 63 54 64 62 65 55 66
REMARK SMILES IDX 61 67 56 68 57 69 58 70 59 71 60 72 39 73 40 74 48 75 41 76
REMARK SMILES IDX 47 77 42 78 43 79 44 80 45 81 46 82
REMARK H PARENT 7 6 11 19 67 38 37 49
REMARK Flexibility Score: inf
ROOT
ATOM      1  C   UNL A   1      32.890  28.020  27.301  1.00  0.00     0.042 C 
ENDROOT
BRANCH   1   2
ATOM      2  C   UNL A   1      31.541  27.847  26.644  1.00  0.00     0.117 C 
BRANCH   2   3
ATOM      3  N   UNL A   1      30.961  26.543  26.838  1.00  0.00    -0.356 N 
ATOM      4  C   UNL A   1      31.102  25.387  26.150  1.00  0.00     0.227 C 
ATOM      5  O   UNL A   1      30.791  24.371  26.788  1.00  0.00    -0.274 OA
ATOM      6  H   UNL A   1      30.353  26.482  27.610  1.00  0.00     0.163 HD
BRANCH   4   7
ATOM      7  C   UNL A   1      31.624  25.253  24.692  1.00  0.00     0.060 C 
ATOM      8  C   UNL A   1      32.727  26.219  24.215  1.00  0.00     0.018 C 
ATOM      9  C   UNL A   1      32.271  23.860  24.506  1.00  0.00     0.021 C 
ATOM     10  C   UNL A   1      34.067  25.462  24.277  1.00  0.00     0.004 C 
ATOM     11  C   UNL A   1      33.773  24.034  24.746  1.00  0.00    -0.013 C 
ATOM     12  C   UNL A   1      34.190  23.713  26.183  1.00  0.00     0.007 C 
BRANCH   7  13
ATOM     13  C   UNL A   1      30.297  25.353  23.863  1.00  0.00     0.106 C 
BRANCH  13  14
ATOM     14  C   UNL A   1      29.848  26.705  23.486  1.00  0.00    -0.106 C 
ATOM     15  C   UNL A   1      29.581  27.830  23.171  1.00  0.00     0.004 C 
ENDBRANCH  13  14
ENDBRANCH   7  13
ENDBRANCH   4   7
ENDBRANCH   2   3
ENDBRANCH   1   2
BRANCH   1  16
ATOM     16  C   UNL A   1      33.771  28.946  26.489  1.00  0.00     0.118 C 
BRANCH  16  17
ATOM     17  N   UNL A   1      33.772  30.315  27.019  1.00  0.00    -0.352 N 
ATOM     18  C   UNL A   1      34.673  30.930  27.852  1.00  0.00     0.251 C 
ATOM     19  H   UNL A   1      33.015  30.875  26.733  1.00  0.00     0.163 HD
ATOM     20  O   UNL A   1      34.419  32.019  28.351  1.00  0.00    -0.269 OA
BRANCH  18  21
ATOM     21  C   UNL A   1      35.937  30.235  28.143  1.00  0.00     0.039 A 
ATOM     22  C   UNL A   1      36.974  30.258  27.210  1.00  0.00     0.014 A 
ATOM     23  C   UNL A   1      36.109  29.649  29.395  1.00  0.00     0.014 A 
ATOM     24  C   UNL A   1      38.223  29.761  27.576  1.00  0.00     0.010 A 
ATOM     25  C   UNL A   1      37.379  29.294  29.802  1.00  0.00     0.010 A 
ATOM     26  C   UNL A   1      38.445  29.320  28.890  1.00  0.00    -0.014 A 
BRANCH  26  27
ATOM     27  C   UNL A   1      39.756  28.819  29.356  1.00  0.00     0.031 A 
ATOM     28  C   UNL A   1      40.663  29.760  30.101  1.00  0.00     0.074 A 
ATOM     29  C   UNL A   1      40.178  27.590  29.006  1.00  0.00     0.049 A 
ATOM     30  N   UNL A   1      41.917  29.611  30.431  1.00  0.00    -0.248 NA
ATOM     31  C   UNL A   1      40.093  31.068  30.473  1.00  0.00     0.031 C 
ATOM     32  C   UNL A   1      39.399  26.603  28.255  1.00  0.00     0.029 A 
ATOM     33  N   UNL A   1      41.383  26.970  29.220  1.00  0.00    -0.354 N 
ATOM     34  C   UNL A   1      42.295  30.817  31.007  1.00  0.00     0.074 A 
ATOM     35  C   UNL A   1      41.162  31.709  30.916  1.00  0.00     0.031 C 
ATOM     36  C   UNL A   1      40.139  25.496  28.087  1.00  0.00     0.029 A 
ATOM     37  C   UNL A   1      41.463  25.716  28.663  1.00  0.00     0.049 A 
ATOM     38  H   UNL A   1      42.120  27.384  29.724  1.00  0.00     0.167 HD
ATOM     39  C   UNL A   1      43.475  31.148  31.582  1.00  0.00     0.031 A 
ATOM     40  C   UNL A   1      42.495  24.851  28.601  1.00  0.00     0.031 A 
ATOM     41  C   UNL A   1      44.588  30.244  31.672  1.00  0.00     0.049 A 
ATOM     42  C   UNL A   1      43.805  25.235  29.233  1.00  0.00     0.074 A 
ATOM     43  C   UNL A   1      45.809  30.445  32.287  1.00  0.00     0.029 A 
ATOM     44  N   UNL A   1      44.616  28.969  31.124  1.00  0.00    -0.354 N 
ATOM     45  N   UNL A   1      44.132  26.358  29.828  1.00  0.00    -0.248 NA
ATOM     46  C   UNL A   1      44.881  24.236  29.194  1.00  0.00     0.031 C 
ATOM     47  C   UNL A   1      46.603  29.321  32.047  1.00  0.00     0.029 A 
ATOM     48  C   UNL A   1      45.846  28.382  31.361  1.00  0.00     0.049 A 
ATOM     49  H   UNL A   1      43.872  28.545  30.639  1.00  0.00     0.167 HD
ATOM     50  C   UNL A   1      45.439  26.186  30.273  1.00  0.00     0.074 A 
ATOM     51  C   UNL A   1      45.842  24.853  29.872  1.00  0.00     0.031 C 
ATOM     52  C   UNL A   1      46.226  27.049  30.962  1.00  0.00     0.031 A 
BRANCH  39  53
ATOM     53  C   UNL A   1      43.616  32.548  32.120  1.00  0.00    -0.014 A 
ATOM     54  C   UNL A   1      43.252  32.871  33.441  1.00  0.00     0.010 A 
ATOM     55  C   UNL A   1      44.110  33.564  31.283  1.00  0.00     0.010 A 
ATOM     56  C   UNL A   1      43.308  34.192  33.889  1.00  0.00     0.020 A 
ATOM     57  C   UNL A   1      44.209  34.881  31.740  1.00  0.00     0.020 A 
ATOM     58  C   UNL A   1      43.781  35.190  33.032  1.00  0.00     0.054 A 
BRANCH  58  59
ATOM     59  S   UNL A   1      43.830  36.899  33.636  1.00  0.00     0.124 S 
ATOM     60  O   UNL A   1      42.569  36.996  34.366  1.00  0.00    -0.237 OA
ATOM     61  O   UNL A   1      45.036  36.911  34.460  1.00  0.00    -0.237 OA
ATOM     62  O   UNL A   1      43.904  37.697  32.414  1.00  0.00    -0.744 OA
ENDBRANCH  58  59
ENDBRANCH  39  53
BRANCH  40  63
ATOM     63  C   UNL A   1      42.309  23.538  27.924  1.00  0.00    -0.014 A 
ATOM     64  C   UNL A   1      42.738  23.350  26.599  1.00  0.00     0.010 A 
ATOM     65  C   UNL A   1      41.763  22.448  28.627  1.00  0.00     0.010 A 
ATOM     66  C   UNL A   1      42.628  22.095  25.990  1.00  0.00     0.020 A 
ATOM     67  C   UNL A   1      41.679  21.185  28.033  1.00  0.00     0.020 A 
ATOM     68  C   UNL A   1      42.111  21.017  26.717  1.00  0.00     0.054 A 
BRANCH  68  69
ATOM     69  S   UNL A   1      42.070  19.380  25.936  1.00  0.00     0.124 S 
ATOM     70  O   UNL A   1      42.613  18.527  26.988  1.00  0.00    -0.237 OA
ATOM     71  O   UNL A   1      40.650  19.206  25.648  1.00  0.00    -0.237 OA
ATOM     72  O   UNL A   1      42.922  19.541  24.759  1.00  0.00    -0.744 OA
ENDBRANCH  68  69
ENDBRANCH  40  63
BRANCH  52  73
ATOM     73  C   UNL A   1      47.586  26.572  31.396  1.00  0.00    -0.014 A 
ATOM     74  C   UNL A   1      47.768  25.818  32.567  1.00  0.00     0.010 A 
ATOM     75  C   UNL A   1      48.684  26.788  30.539  1.00  0.00     0.010 A 
ATOM     76  C   UNL A   1      49.027  25.294  32.877  1.00  0.00     0.020 A 
ATOM     77  C   UNL A   1      49.933  26.239  30.830  1.00  0.00     0.020 A 
ATOM     78  C   UNL A   1      50.099  25.498  32.000  1.00  0.00     0.054 A 
BRANCH  78  79
ATOM     79  S   UNL A   1      51.697  24.729  32.381  1.00  0.00     0.124 S 
ATOM     80  O   UNL A   1      51.915  25.150  33.761  1.00  0.00    -0.237 OA
ATOM     81  O   UNL A   1      51.418  23.308  32.191  1.00  0.00    -0.237 OA
ATOM     82  O   UNL A   1      52.607  25.316  31.399  1.00  0.00    -0.744 OA
ENDBRANCH  78  79
ENDBRANCH  52  73
ENDBRANCH  26  27
ENDBRANCH  18  21
ENDBRANCH  16  17
ENDBRANCH   1  16
TORSDOF 15
ENDMDL
MODEL 3
REMARK VINA RESULT:     -10.0      2.913      9.543
REMARK SMILES C#CC[C@]1(C(=O)NCCCNC(=O)c2ccc(-c3c4nc(c(-c5ccc(S(=O)(=O)[O-])cc5)c5ccc([nH]5)c(-c5ccc(S(=O)(=O)[O-])cc5)c5nc(c(-c6ccc(S(=O)(=O)[O-])cc6)c6ccc3[nH]6)C=C5)C=C4)cc2)CC[C@@H](C)C1
REMARK SMILES IDX 9 1 8 2 7 3 5 4 6 5 4 7 74 8 78 9 75 10 76 11 77 12 3 13
REMARK SMILES IDX 2 14 1 15 10 16 11 17 12 18 13 20 14 21 15 22 73 23 16 24
REMARK SMILES IDX 72 25 17 26 18 27 19 28 66 29 20 30 71 31 65 32 67 33 21 34
REMARK SMILES IDX 70 35 64 36 63 37 22 39 52 40 33 41 51 42 34 43 37 44 50 45
REMARK SMILES IDX 68 46 35 47 36 48 49 50 69 51 38 52 23 53 24 54 32 55 25 56
REMARK SMILES IDX 31 57 26 58 27 59 28 60 29 61 30 62 53 63 54 64 62 65 55 66
REMARK SMILES IDX 61 67 56 68 57 69 58 70 59 71 60 72 39 73 40 74 48 75 41 76
REMARK SMILES IDX 47 77 42 78 43 79 44 80 45 81 46 82
REMARK H PARENT 7 6 11 19 67 38 37 49
REMARK Flexibility Score: inf
ROOT
ATOM      1  C   UNL A   1      35.759  23.224  26.038  1.00  0.00     0.042 C 
ENDROOT
BRANCH   1   2
ATOM      2  C   UNL A   1      34.587  23.802  25.281  1.00  0.00     0.117 C 
BRANCH   2   3
ATOM      3  N   UNL A   1      34.616  23.532  23.868  1.00  0.00    -0.356 N 
ATOM      4  C   UNL A   1      33.664  23.073  23.022  1.00  0.00     0.227 C 
ATOM      5  O   UNL A   1      33.879  23.322  21.827  1.00  0.00    -0.274 OA
ATOM      6  H   UNL A   1      35.483  23.715  23.438  1.00  0.00     0.163 HD
BRANCH   4   7
ATOM      7  C   UNL A   1      32.374  22.310  23.433  1.00  0.00     0.060 C 
ATOM      8  C   UNL A   1      31.929  21.107  22.578  1.00  0.00     0.018 C 
ATOM      9  C   UNL A   1      32.569  21.692  24.837  1.00  0.00     0.021 C 
ATOM     10  C   UNL A   1      32.368  19.827  23.313  1.00  0.00     0.004 C 
ATOM     11  C   UNL A   1      33.036  20.249  24.625  1.00  0.00    -0.013 C 
ATOM     12  C   UNL A   1      34.559  20.101  24.667  1.00  0.00     0.007 C 
BRANCH   7  13
ATOM     13  C   UNL A   1      31.318  23.468  23.489  1.00  0.00     0.106 C 
BRANCH  13  14
ATOM     14  C   UNL A   1      30.990  24.004  24.823  1.00  0.00    -0.106 C 
ATOM     15  C   UNL A   1      30.815  24.481  25.908  1.00  0.00     0.004 C 
ENDBRANCH  13  14
ENDBRANCH   7  13
ENDBRANCH   4   7
ENDBRANCH   2   3
ENDBRANCH   1   2
BRANCH   1  16
ATOM     16  C   UNL A   1      37.058  23.485  25.304  1.00  0.00     0.118 C 
BRANCH  16  17
ATOM     17  N   UNL A   1      38.136  22.596  25.751  1.00  0.00    -0.352 N 
ATOM     18  C   UNL A   1      39.303  22.896  26.407  1.00  0.00     0.251 C 
ATOM     19  H   UNL A   1      38.000  21.641  25.552  1.00  0.00     0.163 HD
ATOM     20  O   UNL A   1      40.183  22.053  26.533  1.00  0.00    -0.269 OA
BRANCH  18  21
ATOM     21  C   UNL A   1      39.475  24.260  26.931  1.00  0.00     0.039 A 
ATOM     22  C   UNL A   1      39.076  24.560  28.234  1.00  0.00     0.014 A 
ATOM     23  C   UNL A   1      40.127  25.206  26.143  1.00  0.00     0.014 A 
ATOM     24  C   UNL A   1      39.416  25.797  28.777  1.00  0.00     0.010 A 
ATOM     25  C   UNL A   1      40.588  26.367  26.730  1.00  0.00     0.010 A 
ATOM     26  C   UNL A   1      40.215  26.688  28.044  1.00  0.00    -0.014 A 
BRANCH  26  27
ATOM     27  C   UNL A   1      40.647  27.999  28.576  1.00  0.00     0.031 A 
ATOM     28  C   UNL A   1      42.042  28.131  29.123  1.00  0.00     0.074 A 
ATOM     29  C   UNL A   1      39.767  29.012  28.686  1.00  0.00     0.049 A 
ATOM     30  N   UNL A   1      42.572  29.107  29.809  1.00  0.00    -0.248 NA
ATOM     31  C   UNL A   1      42.942  26.981  28.916  1.00  0.00     0.031 C 
ATOM     32  C   UNL A   1      38.377  28.988  28.222  1.00  0.00     0.029 A 
ATOM     33  N   UNL A   1      39.909  30.256  29.247  1.00  0.00    -0.354 N 
ATOM     34  C   UNL A   1      43.846  28.671  30.151  1.00  0.00     0.074 A 
ATOM     35  C   UNL A   1      43.982  27.319  29.661  1.00  0.00     0.031 C 
ATOM     36  C   UNL A   1      37.801  30.168  28.501  1.00  0.00     0.029 A 
ATOM     37  C   UNL A   1      38.758  31.007  29.216  1.00  0.00     0.049 A 
ATOM     38  H   UNL A   1      40.754  30.579  29.635  1.00  0.00     0.167 HD
ATOM     39  C   UNL A   1      44.825  29.345  30.797  1.00  0.00     0.031 A 
ATOM     40  C   UNL A   1      38.497  32.226  29.730  1.00  0.00     0.031 A 
ATOM     41  C   UNL A   1      44.676  30.693  31.269  1.00  0.00     0.049 A 
ATOM     42  C   UNL A   1      39.590  32.959  30.457  1.00  0.00     0.074 A 
ATOM     43  C   UNL A   1      45.619  31.499  31.879  1.00  0.00     0.029 A 
ATOM     44  N   UNL A   1      43.503  31.432  31.187  1.00  0.00    -0.354 N 
ATOM     45  N   UNL A   1      40.811  32.559  30.723  1.00  0.00    -0.248 NA
ATOM     46  C   UNL A   1      39.277  34.308  30.945  1.00  0.00     0.031 C 
ATOM     47  C   UNL A   1      44.995  32.697  32.235  1.00  0.00     0.029 A 
ATOM     48  C   UNL A   1      43.690  32.675  31.764  1.00  0.00     0.049 A 
ATOM     49  H   UNL A   1      42.664  31.119  30.780  1.00  0.00     0.167 HD
ATOM     50  C   UNL A   1      41.427  33.624  31.373  1.00  0.00     0.074 A 
ATOM     51  C   UNL A   1      40.441  34.682  31.464  1.00  0.00     0.031 C 
ATOM     52  C   UNL A   1      42.698  33.720  31.838  1.00  0.00     0.031 A 
BRANCH  39  53
ATOM     53  C   UNL A   1      46.118  28.614  31.050  1.00  0.00    -0.014 A 
ATOM     54  C   UNL A   1      47.194  28.683  30.145  1.00  0.00     0.010 A 
ATOM     55  C   UNL A   1      46.255  27.832  32.211  1.00  0.00     0.010 A 
ATOM     56  C   UNL A   1      48.349  27.926  30.357  1.00  0.00     0.020 A 
ATOM     57  C   UNL A   1      47.425  27.107  32.450  1.00  0.00     0.020 A 
ATOM     58  C   UNL A   1      48.454  27.138  31.507  1.00  0.00     0.054 A 
BRANCH  58  59
ATOM     59  S   UNL A   1      49.958  26.156  31.750  1.00  0.00     0.124 S 
ATOM     60  O   UNL A   1      51.005  27.130  31.446  1.00  0.00    -0.237 OA
ATOM     61  O   UNL A   1      49.857  25.760  33.152  1.00  0.00    -0.237 OA
ATOM     62  O   UNL A   1      49.823  25.067  30.784  1.00  0.00    -0.744 OA
ENDBRANCH  58  59
ENDBRANCH  39  53
BRANCH  40  63
ATOM     63  C   UNL A   1      37.142  32.818  29.553  1.00  0.00    -0.014 A 
ATOM     64  C   UNL A   1      36.257  32.915  30.640  1.00  0.00     0.010 A 
ATOM     65  C   UNL A   1      36.757  33.351  28.309  1.00  0.00     0.010 A 
ATOM     66  C   UNL A   1      35.013  33.538  30.489  1.00  0.00     0.020 A 
ATOM     67  C   UNL A   1      35.528  34.001  28.160  1.00  0.00     0.020 A 
ATOM     68  C   UNL A   1      34.663  34.088  29.251  1.00  0.00     0.054 A 
BRANCH  68  69
ATOM     69  S   UNL A   1      33.086  34.975  29.108  1.00  0.00     0.124 S 
ATOM     70  O   UNL A   1      33.521  36.306  28.696  1.00  0.00    -0.237 OA
ATOM     71  O   UNL A   1      32.380  34.197  28.095  1.00  0.00    -0.237 OA
ATOM     72  O   UNL A   1      32.522  34.890  30.454  1.00  0.00    -0.744 OA
ENDBRANCH  68  69
ENDBRANCH  40  63
BRANCH  52  73
ATOM     73  C   UNL A   1      43.135  35.032  32.432  1.00  0.00    -0.014 A 
ATOM     74  C   UNL A   1      43.718  36.042  31.650  1.00  0.00     0.010 A 
ATOM     75  C   UNL A   1      42.840  35.294  33.785  1.00  0.00     0.010 A 
ATOM     76  C   UNL A   1      44.005  37.290  32.213  1.00  0.00     0.020 A 
ATOM     77  C   UNL A   1      43.095  36.548  34.340  1.00  0.00     0.020 A 
ATOM     78  C   UNL A   1      43.680  37.538  33.552  1.00  0.00     0.054 A 
BRANCH  78  79
ATOM     79  S   UNL A   1      43.978  39.194  34.229  1.00  0.00     0.124 S 
ATOM     80  O   UNL A   1      44.014  38.933  35.665  1.00  0.00    -0.237 OA
ATOM     81  O   UNL A   1      45.256  39.560  33.623  1.00  0.00    -0.237 OA
ATOM     82  O   UNL A   1      42.830  39.970  33.767  1.00  0.00    -0.744 OA
ENDBRANCH  78  79
ENDBRANCH  52  73
ENDBRANCH  26  27
ENDBRANCH  18  21
ENDBRANCH  16  17
ENDBRANCH   1  16
TORSDOF 15
ENDMDL
