MODEL 1
REMARK VINA RESULT:     -11.5      0.000      0.000
REMARK SMILES Cc1ccc(C#N)cc1Nc1cc(C)c(N)c(C(=O)NCCCNC(=O)c2ccc(-c3c4nc(c(-c5ccc(S(=O)(=O)[O-])cc5)c5ccc([nH]5)c(-c5ccc(S(=O)(=O)[O-])cc5)c5nc(c(-c6ccc(S(=O)(=O)[O-])cc6)c6ccc3[nH]6)C=C5)C=C4)cc2)c1
REMARK SMILES IDX 22 1 21 2 20 3 18 4 19 5 17 7 11 8 12 9 87 10 13 11 14 12
REMARK SMILES IDX 15 13 10 14 9 16 1 17 2 18 3 19 4 20 8 21 5 22 6 23 7 24
REMARK SMILES IDX 16 25 23 28 24 29 25 30 26 32 27 33 28 34 86 35 29 36 85 37
REMARK SMILES IDX 30 38 31 39 32 40 79 41 33 42 84 43 78 44 80 45 34 46 83 47
REMARK SMILES IDX 77 48 76 49 35 51 65 52 46 53 64 54 47 55 50 56 63 57 81 58
REMARK SMILES IDX 48 59 49 60 62 62 82 63 51 64 36 65 37 66 45 67 38 68 44 69
REMARK SMILES IDX 39 70 40 71 41 72 42 73 43 74 66 75 67 76 75 77 68 78 74 79
REMARK SMILES IDX 69 80 70 81 71 82 72 83 73 84 52 85 53 86 61 87 54 88 60 89
REMARK SMILES IDX 55 90 56 91 57 92 58 93 59 94
REMARK H PARENT 20 6 10 15 16 26 16 27 24 31 80 50 50 61
REMARK Flexibility Score: inf
ROOT
ATOM      1  C   UNL A   1      36.626  22.951  23.477  1.00  0.00     0.042 C 
ENDROOT
BRANCH   1   2
ATOM      2  C   UNL A   1      35.129  22.655  23.467  1.00  0.00     0.118 C 
BRANCH   2   3
ATOM      3  N   UNL A   1      34.776  21.789  24.577  1.00  0.00    -0.352 N 
ATOM      4  C   UNL A   1      34.003  21.941  25.701  1.00  0.00     0.253 C 
ATOM      5  O   UNL A   1      33.985  20.972  26.466  1.00  0.00    -0.269 OA
ATOM      6  H   UNL A   1      35.181  20.894  24.509  1.00  0.00     0.163 HD
BRANCH   4   7
ATOM      7  C   UNL A   1      33.173  23.157  26.011  1.00  0.00     0.065 A 
ATOM      8  C   UNL A   1      32.959  25.584  26.217  1.00  0.00     0.040 A 
ATOM      9  C   UNL A   1      31.597  25.436  26.453  1.00  0.00     0.031 A 
ATOM     10  C   UNL A   1      33.736  24.436  26.074  1.00  0.00     0.042 A 
ATOM     11  C   UNL A   1      30.998  24.161  26.505  1.00  0.00    -0.025 A 
ATOM     12  C   UNL A   1      29.519  24.124  26.788  1.00  0.00     0.047 C 
ATOM     13  C   UNL A   1      31.781  23.007  26.274  1.00  0.00     0.047 A 
BRANCH   8  14
ATOM     14  N   UNL A   1      33.517  26.858  26.011  1.00  0.00    -0.355 N 
ATOM     15  H   UNL A   1      34.501  26.891  25.969  1.00  0.00     0.167 HD
BRANCH  14  16
ATOM     16  C   UNL A   1      32.855  28.099  25.857  1.00  0.00     0.043 A 
ATOM     17  C   UNL A   1      34.275  29.143  27.707  1.00  0.00     0.046 C 
ATOM     18  C   UNL A   1      33.220  29.217  26.635  1.00  0.00    -0.027 A 
ATOM     19  C   UNL A   1      32.544  30.441  26.465  1.00  0.00     0.007 A 
ATOM     20  C   UNL A   1      31.528  30.575  25.521  1.00  0.00     0.020 A 
ATOM     21  C   UNL A   1      31.841  28.264  24.894  1.00  0.00     0.045 A 
ATOM     22  C   UNL A   1      31.172  29.484  24.733  1.00  0.00     0.054 A 
BRANCH  22  23
ATOM     23  C   UNL A   1      30.103  29.602  23.782  1.00  0.00     0.099 C 
ATOM     24  N   UNL A   1      29.249  29.706  23.006  1.00  0.00    -0.192 NA
ENDBRANCH  22  23
ENDBRANCH  14  16
ENDBRANCH   8  14
BRANCH  13  25
ATOM     25  N   UNL A   1      31.159  21.758  26.147  1.00  0.00    -0.398 N 
ATOM     26  H   UNL A   1      30.271  21.690  25.729  1.00  0.00     0.156 HD
ATOM     27  H   UNL A   1      31.613  20.947  26.473  1.00  0.00     0.156 HD
ENDBRANCH  13  25
ENDBRANCH   4   7
ENDBRANCH   2   3
ENDBRANCH   1   2
BRANCH   1  28
ATOM     28  C   UNL A   1      37.117  23.396  24.851  1.00  0.00     0.118 C 
BRANCH  28  29
ATOM     29  N   UNL A   1      38.077  22.455  25.421  1.00  0.00    -0.352 N 
ATOM     30  C   UNL A   1      39.195  22.684  26.186  1.00  0.00     0.251 C 
ATOM     31  H   UNL A   1      37.894  21.507  25.227  1.00  0.00     0.163 HD
ATOM     32  O   UNL A   1      40.001  21.779  26.376  1.00  0.00    -0.269 OA
BRANCH  30  33
ATOM     33  C   UNL A   1      39.428  24.027  26.755  1.00  0.00     0.039 A 
ATOM     34  C   UNL A   1      40.147  24.977  26.033  1.00  0.00     0.014 A 
ATOM     35  C   UNL A   1      38.943  24.330  28.029  1.00  0.00     0.014 A 
ATOM     36  C   UNL A   1      40.564  26.141  26.661  1.00  0.00     0.010 A 
ATOM     37  C   UNL A   1      39.261  25.558  28.614  1.00  0.00     0.010 A 
ATOM     38  C   UNL A   1      40.125  26.450  27.959  1.00  0.00    -0.014 A 
BRANCH  38  39
ATOM     39  C   UNL A   1      40.586  27.709  28.599  1.00  0.00     0.031 A 
ATOM     40  C   UNL A   1      42.032  27.900  28.973  1.00  0.00     0.074 A 
ATOM     41  C   UNL A   1      39.702  28.711  28.776  1.00  0.00     0.049 A 
ATOM     42  N   UNL A   1      42.611  28.954  29.490  1.00  0.00    -0.248 NA
ATOM     43  C   UNL A   1      42.948  26.770  28.749  1.00  0.00     0.031 C 
ATOM     44  C   UNL A   1      38.280  28.645  28.430  1.00  0.00     0.029 A 
ATOM     45  N   UNL A   1      39.866  29.988  29.251  1.00  0.00    -0.354 N 
ATOM     46  C   UNL A   1      43.948  28.612  29.661  1.00  0.00     0.074 A 
ATOM     47  C   UNL A   1      44.088  27.236  29.241  1.00  0.00     0.031 C 
ATOM     48  C   UNL A   1      37.721  29.845  28.630  1.00  0.00     0.029 A 
ATOM     49  C   UNL A   1      38.717  30.743  29.206  1.00  0.00     0.049 A 
ATOM     50  H   UNL A   1      40.724  30.332  29.592  1.00  0.00     0.167 HD
ATOM     51  C   UNL A   1      44.968  29.384  30.106  1.00  0.00     0.031 A 
ATOM     52  C   UNL A   1      38.477  32.012  29.592  1.00  0.00     0.031 A 
ATOM     53  C   UNL A   1      44.814  30.760  30.507  1.00  0.00     0.049 A 
ATOM     54  C   UNL A   1      39.613  32.828  30.137  1.00  0.00     0.074 A 
ATOM     55  C   UNL A   1      45.791  31.633  30.952  1.00  0.00     0.029 A 
ATOM     56  N   UNL A   1      43.619  31.467  30.512  1.00  0.00    -0.354 N 
ATOM     57  N   UNL A   1      40.876  32.496  30.261  1.00  0.00    -0.248 NA
ATOM     58  C   UNL A   1      39.299  34.190  30.585  1.00  0.00     0.031 C 
ATOM     59  C   UNL A   1      45.175  32.833  31.311  1.00  0.00     0.029 A 
ATOM     60  C   UNL A   1      43.829  32.750  30.991  1.00  0.00     0.049 A 
ATOM     61  H   UNL A   1      42.750  31.109  30.218  1.00  0.00     0.167 HD
ATOM     62  C   UNL A   1      41.513  33.615  30.784  1.00  0.00     0.074 A 
ATOM     63  C   UNL A   1      40.500  34.643  30.922  1.00  0.00     0.031 C 
ATOM     64  C   UNL A   1      42.816  33.770  31.129  1.00  0.00     0.031 A 
BRANCH  51  65
ATOM     65  C   UNL A   1      46.352  28.781  30.181  1.00  0.00    -0.014 A 
ATOM     66  C   UNL A   1      47.185  28.798  29.045  1.00  0.00     0.010 A 
ATOM     67  C   UNL A   1      46.779  28.081  31.323  1.00  0.00     0.010 A 
ATOM     68  C   UNL A   1      48.388  28.086  29.030  1.00  0.00     0.020 A 
ATOM     69  C   UNL A   1      48.003  27.401  31.328  1.00  0.00     0.020 A 
ATOM     70  C   UNL A   1      48.784  27.383  30.170  1.00  0.00     0.054 A 
BRANCH  70  71
ATOM     71  S   UNL A   1      50.320  26.421  30.114  1.00  0.00     0.124 S 
ATOM     72  O   UNL A   1      50.242  25.788  28.801  1.00  0.00    -0.237 OA
ATOM     73  O   UNL A   1      51.346  27.451  30.260  1.00  0.00    -0.237 OA
ATOM     74  O   UNL A   1      50.198  25.513  31.253  1.00  0.00    -0.744 OA
ENDBRANCH  70  71
ENDBRANCH  51  65
BRANCH  52  75
ATOM     75  C   UNL A   1      37.104  32.572  29.432  1.00  0.00    -0.014 A 
ATOM     76  C   UNL A   1      36.658  33.019  28.172  1.00  0.00     0.010 A 
ATOM     77  C   UNL A   1      36.274  32.762  30.551  1.00  0.00     0.010 A 
ATOM     78  C   UNL A   1      35.457  33.717  28.048  1.00  0.00     0.020 A 
ATOM     79  C   UNL A   1      35.048  33.423  30.424  1.00  0.00     0.020 A 
ATOM     80  C   UNL A   1      34.666  33.930  29.179  1.00  0.00     0.054 A 
BRANCH  80  81
ATOM     81  S   UNL A   1      33.156  34.919  29.007  1.00  0.00     0.124 S 
ATOM     82  O   UNL A   1      32.629  34.899  30.370  1.00  0.00    -0.237 OA
ATOM     83  O   UNL A   1      33.672  36.206  28.550  1.00  0.00    -0.237 OA
ATOM     84  O   UNL A   1      32.370  34.179  28.024  1.00  0.00    -0.744 OA
ENDBRANCH  80  81
ENDBRANCH  52  75
BRANCH  64  85
ATOM     85  C   UNL A   1      43.246  35.101  31.699  1.00  0.00    -0.014 A 
ATOM     86  C   UNL A   1      42.959  35.415  33.041  1.00  0.00     0.010 A 
ATOM     87  C   UNL A   1      43.823  36.088  30.880  1.00  0.00     0.010 A 
ATOM     88  C   UNL A   1      43.198  36.698  33.541  1.00  0.00     0.020 A 
ATOM     89  C   UNL A   1      44.106  37.359  31.387  1.00  0.00     0.020 A 
ATOM     90  C   UNL A   1      43.765  37.665  32.707  1.00  0.00     0.054 A 
BRANCH  90  91
ATOM     91  S   UNL A   1      44.033  39.333  33.364  1.00  0.00     0.124 S 
ATOM     92  O   UNL A   1      44.439  40.071  32.173  1.00  0.00    -0.237 OA
ATOM     93  O   UNL A   1      42.720  39.678  33.903  1.00  0.00    -0.237 OA
ATOM     94  O   UNL A   1      45.079  39.144  34.368  1.00  0.00    -0.744 OA
ENDBRANCH  90  91
ENDBRANCH  64  85
ENDBRANCH  38  39
ENDBRANCH  30  33
ENDBRANCH  28  29
ENDBRANCH   1  28
TORSDOF 17
ENDMDL
MODEL 2
REMARK VINA RESULT:     -11.2      4.100      9.092
REMARK SMILES Cc1ccc(C#N)cc1Nc1cc(C)c(N)c(C(=O)NCCCNC(=O)c2ccc(-c3c4nc(c(-c5ccc(S(=O)(=O)[O-])cc5)c5ccc([nH]5)c(-c5ccc(S(=O)(=O)[O-])cc5)c5nc(c(-c6ccc(S(=O)(=O)[O-])cc6)c6ccc3[nH]6)C=C5)C=C4)cc2)c1
REMARK SMILES IDX 22 1 21 2 20 3 18 4 19 5 17 7 11 8 12 9 87 10 13 11 14 12
REMARK SMILES IDX 15 13 10 14 9 16 1 17 2 18 3 19 4 20 8 21 5 22 6 23 7 24
REMARK SMILES IDX 16 25 23 28 24 29 25 30 26 32 27 33 28 34 86 35 29 36 85 37
REMARK SMILES IDX 30 38 31 39 32 40 79 41 33 42 84 43 78 44 80 45 34 46 83 47
REMARK SMILES IDX 77 48 76 49 35 51 65 52 46 53 64 54 47 55 50 56 63 57 81 58
REMARK SMILES IDX 48 59 49 60 62 62 82 63 51 64 36 65 37 66 45 67 38 68 44 69
REMARK SMILES IDX 39 70 40 71 41 72 42 73 43 74 66 75 67 76 75 77 68 78 74 79
REMARK SMILES IDX 69 80 70 81 71 82 72 83 73 84 52 85 53 86 61 87 54 88 60 89
REMARK SMILES IDX 55 90 56 91 57 92 58 93 59 94
REMARK H PARENT 20 6 10 15 16 26 16 27 24 31 80 50 50 61
REMARK Flexibility Score: inf
ROOT
ATOM      1  C   UNL A   1      37.912  23.785  26.043  1.00  0.00     0.042 C 
ENDROOT
BRANCH   1   2
ATOM      2  C   UNL A   1      37.420  22.411  25.595  1.00  0.00     0.118 C 
BRANCH   2   3
ATOM      3  N   UNL A   1      36.330  21.962  26.441  1.00  0.00    -0.352 N 
ATOM      4  C   UNL A   1      34.965  22.106  26.400  1.00  0.00     0.253 C 
ATOM      5  O   UNL A   1      34.353  21.619  27.356  1.00  0.00    -0.269 OA
ATOM      6  H   UNL A   1      36.636  21.439  27.217  1.00  0.00     0.163 HD
BRANCH   4   7
ATOM      7  C   UNL A   1      34.206  22.758  25.277  1.00  0.00     0.065 A 
ATOM      8  C   UNL A   1      33.576  24.760  24.021  1.00  0.00     0.040 A 
ATOM      9  C   UNL A   1      32.906  23.961  23.101  1.00  0.00     0.031 A 
ATOM     10  C   UNL A   1      34.152  24.149  25.134  1.00  0.00     0.042 A 
ATOM     11  C   UNL A   1      32.840  22.562  23.256  1.00  0.00    -0.025 A 
ATOM     12  C   UNL A   1      32.070  21.804  22.208  1.00  0.00     0.047 C 
ATOM     13  C   UNL A   1      33.500  21.945  24.343  1.00  0.00     0.047 A 
BRANCH   8  14
ATOM     14  N   UNL A   1      33.770  26.130  23.776  1.00  0.00    -0.355 N 
ATOM     15  H   UNL A   1      34.627  26.371  23.354  1.00  0.00     0.167 HD
BRANCH  14  16
ATOM     16  C   UNL A   1      32.898  27.210  24.054  1.00  0.00     0.043 A 
ATOM     17  C   UNL A   1      33.879  27.462  26.401  1.00  0.00     0.046 C 
ATOM     18  C   UNL A   1      32.951  27.884  25.292  1.00  0.00    -0.027 A 
ATOM     19  C   UNL A   1      32.071  28.954  25.546  1.00  0.00     0.007 A 
ATOM     20  C   UNL A   1      31.156  29.376  24.583  1.00  0.00     0.020 A 
ATOM     21  C   UNL A   1      31.981  27.667  23.088  1.00  0.00     0.045 A 
ATOM     22  C   UNL A   1      31.107  28.730  23.350  1.00  0.00     0.054 A 
BRANCH  22  23
ATOM     23  C   UNL A   1      30.145  29.134  22.365  1.00  0.00     0.099 C 
ATOM     24  N   UNL A   1      29.364  29.472  21.578  1.00  0.00    -0.192 NA
ENDBRANCH  22  23
ENDBRANCH  14  16
ENDBRANCH   8  14
BRANCH  13  25
ATOM     25  N   UNL A   1      33.590  20.548  24.402  1.00  0.00    -0.398 N 
ATOM     26  H   UNL A   1      32.784  19.997  24.277  1.00  0.00     0.156 HD
ATOM     27  H   UNL A   1      34.460  20.117  24.566  1.00  0.00     0.156 HD
ENDBRANCH  13  25
ENDBRANCH   4   7
ENDBRANCH   2   3
ENDBRANCH   1   2
BRANCH   1  28
ATOM     28  C   UNL A   1      39.219  23.702  26.826  1.00  0.00     0.118 C 
BRANCH  28  29
ATOM     29  N   UNL A   1      40.360  24.162  26.039  1.00  0.00    -0.352 N 
ATOM     30  C   UNL A   1      41.001  25.377  26.036  1.00  0.00     0.251 C 
ATOM     31  H   UNL A   1      40.726  23.498  25.411  1.00  0.00     0.163 HD
ATOM     32  O   UNL A   1      41.793  25.646  25.139  1.00  0.00    -0.269 OA
BRANCH  30  33
ATOM     33  C   UNL A   1      40.714  26.358  27.102  1.00  0.00     0.039 A 
ATOM     34  C   UNL A   1      41.230  27.649  27.022  1.00  0.00     0.014 A 
ATOM     35  C   UNL A   1      39.940  25.976  28.200  1.00  0.00     0.014 A 
ATOM     36  C   UNL A   1      41.157  28.484  28.127  1.00  0.00     0.010 A 
ATOM     37  C   UNL A   1      39.763  26.866  29.262  1.00  0.00     0.010 A 
ATOM     38  C   UNL A   1      40.421  28.106  29.261  1.00  0.00    -0.014 A 
BRANCH  38  39
ATOM     39  C   UNL A   1      40.358  29.029  30.424  1.00  0.00     0.031 A 
ATOM     40  C   UNL A   1      39.310  30.108  30.498  1.00  0.00     0.074 A 
ATOM     41  C   UNL A   1      41.212  28.842  31.451  1.00  0.00     0.049 A 
ATOM     42  N   UNL A   1      39.083  30.963  31.462  1.00  0.00    -0.248 NA
ATOM     43  C   UNL A   1      38.405  30.257  29.347  1.00  0.00     0.031 C 
ATOM     44  C   UNL A   1      42.254  27.813  31.497  1.00  0.00     0.029 A 
ATOM     45  N   UNL A   1      41.319  29.475  32.663  1.00  0.00    -0.354 N 
ATOM     46  C   UNL A   1      38.022  31.753  31.032  1.00  0.00     0.074 A 
ATOM     47  C   UNL A   1      37.682  31.311  29.699  1.00  0.00     0.031 C 
ATOM     48  C   UNL A   1      42.841  27.834  32.700  1.00  0.00     0.029 A 
ATOM     49  C   UNL A   1      42.286  28.935  33.481  1.00  0.00     0.049 A 
ATOM     50  H   UNL A   1      40.760  30.242  32.924  1.00  0.00     0.167 HD
ATOM     51  C   UNL A   1      37.379  32.740  31.699  1.00  0.00     0.031 A 
ATOM     52  C   UNL A   1      42.695  29.285  34.717  1.00  0.00     0.031 A 
ATOM     53  C   UNL A   1      37.722  33.159  33.035  1.00  0.00     0.049 A 
ATOM     54  C   UNL A   1      42.003  30.421  35.411  1.00  0.00     0.074 A 
ATOM     55  C   UNL A   1      37.115  34.135  33.805  1.00  0.00     0.029 A 
ATOM     56  N   UNL A   1      38.753  32.632  33.802  1.00  0.00    -0.354 N 
ATOM     57  N   UNL A   1      40.981  31.134  35.000  1.00  0.00    -0.248 NA
ATOM     58  C   UNL A   1      42.508  30.797  36.738  1.00  0.00     0.031 C 
ATOM     59  C   UNL A   1      37.833  34.262  34.996  1.00  0.00     0.029 A 
ATOM     60  C   UNL A   1      38.824  33.293  35.019  1.00  0.00     0.049 A 
ATOM     61  H   UNL A   1      39.346  31.898  33.523  1.00  0.00     0.167 HD
ATOM     62  C   UNL A   1      40.708  32.032  36.026  1.00  0.00     0.074 A 
ATOM     63  C   UNL A   1      41.652  31.748  37.088  1.00  0.00     0.031 C 
ATOM     64  C   UNL A   1      39.768  33.009  36.074  1.00  0.00     0.031 A 
BRANCH  51  65
ATOM     65  C   UNL A   1      36.227  33.443  31.017  1.00  0.00    -0.014 A 
ATOM     66  C   UNL A   1      36.413  34.018  29.745  1.00  0.00     0.010 A 
ATOM     67  C   UNL A   1      35.007  33.654  31.685  1.00  0.00     0.010 A 
ATOM     68  C   UNL A   1      35.427  34.830  29.177  1.00  0.00     0.020 A 
ATOM     69  C   UNL A   1      34.000  34.432  31.101  1.00  0.00     0.020 A 
ATOM     70  C   UNL A   1      34.230  35.041  29.866  1.00  0.00     0.054 A 
BRANCH  70  71
ATOM     71  S   UNL A   1      32.985  36.142  29.139  1.00  0.00     0.124 S 
ATOM     72  O   UNL A   1      32.229  35.232  28.284  1.00  0.00    -0.237 OA
ATOM     73  O   UNL A   1      32.278  36.642  30.314  1.00  0.00    -0.237 OA
ATOM     74  O   UNL A   1      33.784  37.142  28.433  1.00  0.00    -0.744 OA
ENDBRANCH  70  71
ENDBRANCH  51  65
BRANCH  52  75
ATOM     75  C   UNL A   1      43.793  28.510  35.364  1.00  0.00    -0.014 A 
ATOM     76  C   UNL A   1      43.497  27.414  36.198  1.00  0.00     0.010 A 
ATOM     77  C   UNL A   1      45.130  28.926  35.239  1.00  0.00     0.010 A 
ATOM     78  C   UNL A   1      44.497  26.807  36.958  1.00  0.00     0.020 A 
ATOM     79  C   UNL A   1      46.144  28.291  35.966  1.00  0.00     0.020 A 
ATOM     80  C   UNL A   1      45.813  27.260  36.849  1.00  0.00     0.054 A 
BRANCH  80  81
ATOM     81  S   UNL A   1      47.078  26.514  37.914  1.00  0.00     0.124 S 
ATOM     82  O   UNL A   1      46.272  25.647  38.771  1.00  0.00    -0.237 OA
ATOM     83  O   UNL A   1      47.936  25.828  36.952  1.00  0.00    -0.237 OA
ATOM     84  O   UNL A   1      47.685  27.661  38.583  1.00  0.00    -0.744 OA
ENDBRANCH  80  81
ENDBRANCH  52  75
BRANCH  64  85
ATOM     85  C   UNL A   1      39.697  33.865  37.317  1.00  0.00    -0.014 A 
ATOM     86  C   UNL A   1      38.925  33.443  38.416  1.00  0.00     0.010 A 
ATOM     87  C   UNL A   1      40.291  35.139  37.354  1.00  0.00     0.010 A 
ATOM     88  C   UNL A   1      38.711  34.292  39.506  1.00  0.00     0.020 A 
ATOM     89  C   UNL A   1      40.118  35.974  38.461  1.00  0.00     0.020 A 
ATOM     90  C   UNL A   1      39.305  35.556  39.518  1.00  0.00     0.054 A 
BRANCH  90  91
ATOM     91  S   UNL A   1      38.986  36.655  40.923  1.00  0.00     0.124 S 
ATOM     92  O   UNL A   1      38.433  37.838  40.270  1.00  0.00    -0.237 OA
ATOM     93  O   UNL A   1      38.044  35.879  41.727  1.00  0.00    -0.237 OA
ATOM     94  O   UNL A   1      40.305  36.835  41.526  1.00  0.00    -0.744 OA
ENDBRANCH  90  91
ENDBRANCH  64  85
ENDBRANCH  38  39
ENDBRANCH  30  33
ENDBRANCH  28  29
ENDBRANCH   1  28
TORSDOF 17
ENDMDL
MODEL 3
REMARK VINA RESULT:     -11.2      3.912      9.664
REMARK SMILES Cc1ccc(C#N)cc1Nc1cc(C)c(N)c(C(=O)NCCCNC(=O)c2ccc(-c3c4nc(c(-c5ccc(S(=O)(=O)[O-])cc5)c5ccc([nH]5)c(-c5ccc(S(=O)(=O)[O-])cc5)c5nc(c(-c6ccc(S(=O)(=O)[O-])cc6)c6ccc3[nH]6)C=C5)C=C4)cc2)c1
REMARK SMILES IDX 22 1 21 2 20 3 18 4 19 5 17 7 11 8 12 9 87 10 13 11 14 12
REMARK SMILES IDX 15 13 10 14 9 16 1 17 2 18 3 19 4 20 8 21 5 22 6 23 7 24
REMARK SMILES IDX 16 25 23 28 24 29 25 30 26 32 27 33 28 34 86 35 29 36 85 37
REMARK SMILES IDX 30 38 31 39 32 40 79 41 33 42 84 43 78 44 80 45 34 46 83 47
REMARK SMILES IDX 77 48 76 49 35 51 65 52 46 53 64 54 47 55 50 56 63 57 81 58
REMARK SMILES IDX 48 59 49 60 62 62 82 63 51 64 36 65 37 66 45 67 38 68 44 69
REMARK SMILES IDX 39 70 40 71 41 72 42 73 43 74 66 75 67 76 75 77 68 78 74 79
REMARK SMILES IDX 69 80 70 81 71 82 72 83 73 84 52 85 53 86 61 87 54 88 60 89
REMARK SMILES IDX 55 90 56 91 57 92 58 93 59 94
REMARK H PARENT 20 6 10 15 16 26 16 27 24 31 80 50 50 61
REMARK Flexibility Score: inf
ROOT
ATOM      1  C   UNL A   1      34.374  28.592  27.108  1.00  0.00     0.042 C 
ENDROOT
BRANCH   1   2
ATOM      2  C   UNL A   1      33.294  29.406  26.401  1.00  0.00     0.118 C 
BRANCH   2   3
ATOM      3  N   UNL A   1      33.617  29.565  24.995  1.00  0.00    -0.352 N 
ATOM      4  C   UNL A   1      33.177  28.970  23.838  1.00  0.00     0.253 C 
ATOM      5  O   UNL A   1      33.744  29.338  22.805  1.00  0.00    -0.269 OA
ATOM      6  H   UNL A   1      34.305  30.250  24.835  1.00  0.00     0.163 HD
BRANCH   4   7
ATOM      7  C   UNL A   1      32.054  27.971  23.764  1.00  0.00     0.065 A 
ATOM      8  C   UNL A   1      31.243  25.672  23.950  1.00  0.00     0.040 A 
ATOM      9  C   UNL A   1      29.942  26.124  23.761  1.00  0.00     0.031 A 
ATOM     10  C   UNL A   1      32.284  26.596  23.873  1.00  0.00     0.042 A 
ATOM     11  C   UNL A   1      29.666  27.488  23.541  1.00  0.00    -0.025 A 
ATOM     12  C   UNL A   1      28.221  27.858  23.330  1.00  0.00     0.047 C 
ATOM     13  C   UNL A   1      30.722  28.428  23.549  1.00  0.00     0.047 A 
BRANCH   8  14
ATOM     14  N   UNL A   1      31.493  24.340  24.324  1.00  0.00    -0.355 N 
ATOM     15  H   UNL A   1      30.987  23.655  23.829  1.00  0.00     0.167 HD
BRANCH  14  16
ATOM     16  C   UNL A   1      32.376  23.851  25.316  1.00  0.00     0.043 A 
ATOM     17  C   UNL A   1      30.410  23.086  26.759  1.00  0.00     0.046 C 
ATOM     18  C   UNL A   1      31.883  23.219  26.477  1.00  0.00    -0.027 A 
ATOM     19  C   UNL A   1      32.783  22.744  27.451  1.00  0.00     0.007 A 
ATOM     20  C   UNL A   1      34.160  22.868  27.280  1.00  0.00     0.020 A 
ATOM     21  C   UNL A   1      33.772  23.945  25.153  1.00  0.00     0.045 A 
ATOM     22  C   UNL A   1      34.659  23.472  26.129  1.00  0.00     0.054 A 
BRANCH  22  23
ATOM     23  C   UNL A   1      36.074  23.636  25.959  1.00  0.00     0.099 C 
ATOM     24  N   UNL A   1      37.219  23.767  25.836  1.00  0.00    -0.192 NA
ENDBRANCH  22  23
ENDBRANCH  14  16
ENDBRANCH   8  14
BRANCH  13  25
ATOM     25  N   UNL A   1      30.434  29.799  23.512  1.00  0.00    -0.398 N 
ATOM     26  H   UNL A   1      30.589  30.312  22.686  1.00  0.00     0.156 HD
ATOM     27  H   UNL A   1      30.076  30.250  24.311  1.00  0.00     0.156 HD
ENDBRANCH  13  25
ENDBRANCH   4   7
ENDBRANCH   2   3
ENDBRANCH   1   2
BRANCH   1  28
ATOM     28  C   UNL A   1      35.523  29.465  27.603  1.00  0.00     0.118 C 
BRANCH  28  29
ATOM     29  N   UNL A   1      35.348  29.864  28.996  1.00  0.00    -0.352 N 
ATOM     30  C   UNL A   1      36.256  29.909  30.025  1.00  0.00     0.251 C 
ATOM     31  H   UNL A   1      34.435  30.144  29.236  1.00  0.00     0.163 HD
ATOM     32  O   UNL A   1      35.864  30.051  31.179  1.00  0.00    -0.269 OA
BRANCH  30  33
ATOM     33  C   UNL A   1      37.696  29.762  29.736  1.00  0.00     0.039 A 
ATOM     34  C   UNL A   1      38.172  29.944  28.440  1.00  0.00     0.014 A 
ATOM     35  C   UNL A   1      38.575  29.418  30.766  1.00  0.00     0.014 A 
ATOM     36  C   UNL A   1      39.473  29.577  28.131  1.00  0.00     0.010 A 
ATOM     37  C   UNL A   1      39.917  29.167  30.474  1.00  0.00     0.010 A 
ATOM     38  C   UNL A   1      40.365  29.185  29.143  1.00  0.00    -0.014 A 
BRANCH  38  39
ATOM     39  C   UNL A   1      41.754  28.804  28.776  1.00  0.00     0.031 A 
ATOM     40  C   UNL A   1      42.072  27.410  28.301  1.00  0.00     0.074 A 
ATOM     41  C   UNL A   1      42.718  29.746  28.807  1.00  0.00     0.049 A 
ATOM     42  N   UNL A   1      43.217  26.927  27.893  1.00  0.00    -0.248 NA
ATOM     43  C   UNL A   1      40.974  26.430  28.286  1.00  0.00     0.031 C 
ATOM     44  C   UNL A   1      42.518  31.135  29.229  1.00  0.00     0.029 A 
ATOM     45  N   UNL A   1      44.040  29.698  28.444  1.00  0.00    -0.354 N 
ATOM     46  C   UNL A   1      42.981  25.592  27.585  1.00  0.00     0.074 A 
ATOM     47  C   UNL A   1      41.596  25.325  27.899  1.00  0.00     0.031 C 
ATOM     48  C   UNL A   1      43.650  31.823  29.030  1.00  0.00     0.029 A 
ATOM     49  C   UNL A   1      44.684  30.909  28.555  1.00  0.00     0.049 A 
ATOM     50  H   UNL A   1      44.486  28.877  28.135  1.00  0.00     0.167 HD
ATOM     51  C   UNL A   1      43.838  24.680  27.065  1.00  0.00     0.031 A 
ATOM     52  C   UNL A   1      45.964  31.255  28.314  1.00  0.00     0.031 A 
ATOM     53  C   UNL A   1      45.214  24.967  26.743  1.00  0.00     0.049 A 
ATOM     54  C   UNL A   1      46.908  30.210  27.793  1.00  0.00     0.074 A 
ATOM     55  C   UNL A   1      46.155  24.117  26.192  1.00  0.00     0.029 A 
ATOM     56  N   UNL A   1      45.845  26.188  26.934  1.00  0.00    -0.354 N 
ATOM     57  N   UNL A   1      46.658  28.961  27.477  1.00  0.00    -0.248 NA
ATOM     58  C   UNL A   1      48.303  30.618  27.585  1.00  0.00     0.031 C 
ATOM     59  C   UNL A   1      47.376  24.793  26.135  1.00  0.00     0.029 A 
ATOM     60  C   UNL A   1      47.175  26.099  26.551  1.00  0.00     0.049 A 
ATOM     61  H   UNL A   1      45.413  26.998  27.290  1.00  0.00     0.167 HD
ATOM     62  C   UNL A   1      47.860  28.438  27.015  1.00  0.00     0.074 A 
ATOM     63  C   UNL A   1      48.827  29.517  27.062  1.00  0.00     0.031 C 
ATOM     64  C   UNL A   1      48.136  27.176  26.602  1.00  0.00     0.031 A 
BRANCH  51  65
ATOM     65  C   UNL A   1      43.330  23.282  26.794  1.00  0.00    -0.014 A 
ATOM     66  C   UNL A   1      42.924  22.465  27.867  1.00  0.00     0.010 A 
ATOM     67  C   UNL A   1      43.382  22.728  25.502  1.00  0.00     0.010 A 
ATOM     68  C   UNL A   1      42.630  21.114  27.665  1.00  0.00     0.020 A 
ATOM     69  C   UNL A   1      43.048  21.385  25.288  1.00  0.00     0.020 A 
ATOM     70  C   UNL A   1      42.705  20.580  26.376  1.00  0.00     0.054 A 
BRANCH  70  71
ATOM     71  S   UNL A   1      42.374  18.812  26.142  1.00  0.00     0.124 S 
ATOM     72  O   UNL A   1      42.637  18.269  27.471  1.00  0.00    -0.237 OA
ATOM     73  O   UNL A   1      40.975  18.804  25.720  1.00  0.00    -0.237 OA
ATOM     74  O   UNL A   1      43.328  18.419  25.106  1.00  0.00    -0.744 OA
ENDBRANCH  70  71
ENDBRANCH  51  65
BRANCH  52  75
ATOM     75  C   UNL A   1      46.389  32.667  28.538  1.00  0.00    -0.014 A 
ATOM     76  C   UNL A   1      46.335  33.603  27.486  1.00  0.00     0.010 A 
ATOM     77  C   UNL A   1      46.949  33.058  29.766  1.00  0.00     0.010 A 
ATOM     78  C   UNL A   1      46.908  34.868  27.629  1.00  0.00     0.020 A 
ATOM     79  C   UNL A   1      47.485  34.341  29.928  1.00  0.00     0.020 A 
ATOM     80  C   UNL A   1      47.494  35.223  28.845  1.00  0.00     0.054 A 
BRANCH  80  81
ATOM     81  S   UNL A   1      48.310  36.837  28.975  1.00  0.00     0.124 S 
ATOM     82  O   UNL A   1      49.351  36.728  27.954  1.00  0.00    -0.237 OA
ATOM     83  O   UNL A   1      47.224  37.765  28.670  1.00  0.00    -0.237 OA
ATOM     84  O   UNL A   1      48.789  36.871  30.353  1.00  0.00    -0.744 OA
ENDBRANCH  80  81
ENDBRANCH  52  75
BRANCH  64  85
ATOM     85  C   UNL A   1      49.547  26.866  26.162  1.00  0.00    -0.014 A 
ATOM     86  C   UNL A   1      49.953  27.159  24.847  1.00  0.00     0.010 A 
ATOM     87  C   UNL A   1      50.435  26.175  27.008  1.00  0.00     0.010 A 
ATOM     88  C   UNL A   1      51.196  26.732  24.371  1.00  0.00     0.020 A 
ATOM     89  C   UNL A   1      51.696  25.785  26.551  1.00  0.00     0.020 A 
ATOM     90  C   UNL A   1      52.057  26.041  25.225  1.00  0.00     0.054 A 
BRANCH  90  91
ATOM     91  S   UNL A   1      53.648  25.463  24.578  1.00  0.00     0.124 S 
ATOM     92  O   UNL A   1      54.601  26.146  25.447  1.00  0.00    -0.237 OA
ATOM     93  O   UNL A   1      53.558  24.016  24.754  1.00  0.00    -0.237 OA
ATOM     94  O   UNL A   1      53.639  25.914  23.187  1.00  0.00    -0.744 OA
ENDBRANCH  90  91
ENDBRANCH  64  85
ENDBRANCH  38  39
ENDBRANCH  30  33
ENDBRANCH  28  29
ENDBRANCH   1  28
TORSDOF 17
ENDMDL
