MODEL 1
REMARK VINA RESULT:     -12.7      0.000      0.000
REMARK SMILES Cc1cc(NC(=O)c2ccc(Br)cc2N)ccc1C(=O)NCCCNC(=O)c1ccc(-c2c3nc(c(-c4ccc(S(=O)(=O)[O-])cc4)c4ccc([nH]4)c(-c4ccc(S(=O)(=O)[O-])cc4)c4nc(c(-c5ccc(S(=O)(=O)[O-])cc5)c5ccc2[nH]5)C=C4)C=C3)cc1
REMARK SMILES IDX 23 1 22 2 21 3 19 4 20 5 18 7 1 8 2 9 3 10 4 11 17 12 16 13
REMARK SMILES IDX 5 14 6 15 7 17 8 18 9 19 14 20 10 21 13 22 11 23 12 24 15 25
REMARK SMILES IDX 24 28 25 29 26 30 27 32 28 33 29 34 87 35 30 36 86 37 31 38
REMARK SMILES IDX 32 39 33 40 80 41 34 42 85 43 79 44 81 45 35 46 84 47 78 48
REMARK SMILES IDX 77 49 36 51 66 52 47 53 65 54 48 55 51 56 64 57 82 58 49 59
REMARK SMILES IDX 50 60 63 62 83 63 52 64 37 65 38 66 46 67 39 68 45 69 40 70
REMARK SMILES IDX 41 71 42 72 43 73 44 74 67 75 68 76 76 77 69 78 75 79 70 80
REMARK SMILES IDX 71 81 72 82 73 83 74 84 53 85 54 86 62 87 55 88 61 89 56 90
REMARK SMILES IDX 57 91 58 92 59 93 60 94
REMARK H PARENT 21 6 5 16 15 26 15 27 25 31 81 50 51 61
REMARK Flexibility Score: inf
ROOT
ATOM      1  C   UNL A   1      37.725  21.139  24.614  1.00  0.00     0.042 C 
ENDROOT
BRANCH   1   2
ATOM      2  C   UNL A   1      36.289  20.418  24.867  1.00  0.00     0.118 C 
BRANCH   2   3
ATOM      3  N   UNL A   1      35.486  20.782  26.061  1.00  0.00    -0.352 N 
ATOM      4  C   UNL A   1      34.363  21.532  26.343  1.00  0.00     0.251 C 
ATOM      5  O   UNL A   1      33.730  21.386  27.391  1.00  0.00    -0.269 OA
ATOM      6  H   UNL A   1      35.857  20.374  26.876  1.00  0.00     0.163 HD
BRANCH   4   7
ATOM      7  C   UNL A   1      33.832  22.532  25.392  1.00  0.00     0.042 A 
ATOM      8  C   UNL A   1      35.813  24.127  25.674  1.00  0.00     0.045 C 
ATOM      9  C   UNL A   1      34.550  23.667  25.021  1.00  0.00    -0.036 A 
ATOM     10  C   UNL A   1      34.088  24.417  23.942  1.00  0.00     0.030 A 
ATOM     11  C   UNL A   1      32.892  24.103  23.305  1.00  0.00     0.041 A 
ATOM     12  C   UNL A   1      32.517  22.361  24.903  1.00  0.00     0.016 A 
ATOM     13  C   UNL A   1      32.029  23.172  23.873  1.00  0.00     0.027 A 
BRANCH  11  14
ATOM     14  N   UNL A   1      32.603  24.658  22.053  1.00  0.00    -0.322 N 
ATOM     15  C   UNL A   1      31.987  25.879  21.816  1.00  0.00     0.257 C 
ATOM     16  H   UNL A   1      32.862  24.131  21.263  1.00  0.00     0.170 HD
ATOM     17  O   UNL A   1      31.430  26.085  20.737  1.00  0.00    -0.269 OA
BRANCH  15  18
ATOM     18  C   UNL A   1      32.044  26.995  22.826  1.00  0.00     0.063 A 
ATOM     19  C   UNL A   1      31.061  26.973  23.833  1.00  0.00     0.017 A 
ATOM     20  C   UNL A   1      32.978  28.059  22.786  1.00  0.00     0.045 A 
ATOM     21  C   UNL A   1      30.982  27.999  24.782  1.00  0.00     0.016 A 
ATOM     22  C   UNL A   1      32.870  29.087  23.740  1.00  0.00     0.042 A 
ATOM     23  C   UNL A   1      31.884  29.055  24.725  1.00  0.00     0.020 A 
ATOM     24  Br  UNL A   1      31.742  30.486  25.953  1.00  0.00    -0.051 Br
BRANCH  20  25
ATOM     25  N   UNL A   1      33.892  28.258  21.748  1.00  0.00    -0.398 N 
ATOM     26  H   UNL A   1      34.619  28.915  21.852  1.00  0.00     0.156 HD
ATOM     27  H   UNL A   1      33.811  27.743  20.914  1.00  0.00     0.156 HD
ENDBRANCH  20  25
ENDBRANCH  15  18
ENDBRANCH  11  14
ENDBRANCH   4   7
ENDBRANCH   2   3
ENDBRANCH   1   2
BRANCH   1  28
ATOM     28  C   UNL A   1      38.669  21.346  25.879  1.00  0.00     0.118 C 
BRANCH  28  29
ATOM     29  N   UNL A   1      39.978  22.232  25.951  1.00  0.00    -0.352 N 
ATOM     30  C   UNL A   1      40.496  23.380  26.700  1.00  0.00     0.251 C 
ATOM     31  H   UNL A   1      40.643  21.919  25.295  1.00  0.00     0.163 HD
ATOM     32  O   UNL A   1      41.527  23.108  27.344  1.00  0.00    -0.269 OA
BRANCH  30  33
ATOM     33  C   UNL A   1      40.099  24.919  26.809  1.00  0.00     0.039 A 
ATOM     34  C   UNL A   1      40.770  25.926  26.033  1.00  0.00     0.014 A 
ATOM     35  C   UNL A   1      39.146  25.471  27.657  1.00  0.00     0.014 A 
ATOM     36  C   UNL A   1      40.893  27.303  26.508  1.00  0.00     0.010 A 
ATOM     37  C   UNL A   1      39.266  26.823  28.133  1.00  0.00     0.010 A 
ATOM     38  C   UNL A   1      40.321  27.666  27.742  1.00  0.00    -0.014 A 
BRANCH  38  39
ATOM     39  C   UNL A   1      40.980  28.604  28.776  1.00  0.00     0.031 A 
ATOM     40  C   UNL A   1      40.164  29.432  29.657  1.00  0.00     0.074 A 
ATOM     41  C   UNL A   1      42.298  28.722  29.146  1.00  0.00     0.049 A 
ATOM     42  N   UNL A   1      40.296  30.711  29.813  1.00  0.00    -0.248 NA
ATOM     43  C   UNL A   1      39.194  28.800  30.531  1.00  0.00     0.031 C 
ATOM     44  C   UNL A   1      43.014  29.473  30.198  1.00  0.00     0.029 A 
ATOM     45  N   UNL A   1      43.384  28.069  28.615  1.00  0.00    -0.354 N 
ATOM     46  C   UNL A   1      39.679  30.985  31.015  1.00  0.00     0.074 A 
ATOM     47  C   UNL A   1      38.826  29.839  31.281  1.00  0.00     0.031 C 
ATOM     48  C   UNL A   1      44.344  29.500  29.921  1.00  0.00     0.029 A 
ATOM     49  C   UNL A   1      44.550  28.818  28.657  1.00  0.00     0.049 A 
ATOM     50  H   UNL A   1      43.340  27.159  28.242  1.00  0.00     0.167 HD
ATOM     51  C   UNL A   1      40.145  31.948  31.869  1.00  0.00     0.031 A 
ATOM     52  C   UNL A   1      45.117  29.254  27.482  1.00  0.00     0.031 A 
ATOM     53  C   UNL A   1      41.474  32.460  31.482  1.00  0.00     0.049 A 
ATOM     54  C   UNL A   1      44.936  30.738  27.363  1.00  0.00     0.074 A 
ATOM     55  C   UNL A   1      42.727  32.355  32.075  1.00  0.00     0.029 A 
ATOM     56  N   UNL A   1      41.714  32.926  30.192  1.00  0.00    -0.354 N 
ATOM     57  N   UNL A   1      44.343  31.450  28.270  1.00  0.00    -0.248 NA
ATOM     58  C   UNL A   1      45.339  31.536  26.215  1.00  0.00     0.031 C 
ATOM     59  C   UNL A   1      43.716  32.728  31.121  1.00  0.00     0.029 A 
ATOM     60  C   UNL A   1      43.071  33.102  29.955  1.00  0.00     0.049 A 
ATOM     61  H   UNL A   1      41.009  33.108  29.530  1.00  0.00     0.167 HD
ATOM     62  C   UNL A   1      44.211  32.738  27.868  1.00  0.00     0.074 A 
ATOM     63  C   UNL A   1      44.888  32.751  26.578  1.00  0.00     0.031 C 
ATOM     64  C   UNL A   1      43.535  33.622  28.660  1.00  0.00     0.031 A 
BRANCH  51  65
ATOM     65  C   UNL A   1      39.524  32.170  33.244  1.00  0.00    -0.014 A 
ATOM     66  C   UNL A   1      38.525  33.141  33.453  1.00  0.00     0.010 A 
ATOM     67  C   UNL A   1      39.865  31.397  34.375  1.00  0.00     0.010 A 
ATOM     68  C   UNL A   1      37.968  33.378  34.724  1.00  0.00     0.020 A 
ATOM     69  C   UNL A   1      39.374  31.665  35.660  1.00  0.00     0.020 A 
ATOM     70  C   UNL A   1      38.414  32.651  35.827  1.00  0.00     0.054 A 
BRANCH  70  71
ATOM     71  S   UNL A   1      37.675  32.938  37.456  1.00  0.00     0.124 S 
ATOM     72  O   UNL A   1      38.477  34.039  37.985  1.00  0.00    -0.237 OA
ATOM     73  O   UNL A   1      36.294  33.270  37.117  1.00  0.00    -0.237 OA
ATOM     74  O   UNL A   1      37.849  31.663  38.149  1.00  0.00    -0.744 OA
ENDBRANCH  70  71
ENDBRANCH  51  65
BRANCH  52  75
ATOM     75  C   UNL A   1      45.064  28.303  26.257  1.00  0.00    -0.014 A 
ATOM     76  C   UNL A   1      46.153  28.424  25.369  1.00  0.00     0.010 A 
ATOM     77  C   UNL A   1      44.765  27.002  26.623  1.00  0.00     0.010 A 
ATOM     78  C   UNL A   1      47.279  27.604  25.544  1.00  0.00     0.020 A 
ATOM     79  C   UNL A   1      45.909  26.217  26.831  1.00  0.00     0.020 A 
ATOM     80  C   UNL A   1      47.185  26.577  26.464  1.00  0.00     0.054 A 
BRANCH  80  81
ATOM     81  S   UNL A   1      48.754  26.043  27.607  1.00  0.00     0.124 S 
ATOM     82  O   UNL A   1      48.579  24.599  27.541  1.00  0.00    -0.237 OA
ATOM     83  O   UNL A   1      49.948  26.485  26.929  1.00  0.00    -0.237 OA
ATOM     84  O   UNL A   1      48.564  26.625  28.926  1.00  0.00    -0.744 OA
ENDBRANCH  80  81
ENDBRANCH  52  75
BRANCH  64  85
ATOM     85  C   UNL A   1      43.254  35.071  28.350  1.00  0.00    -0.014 A 
ATOM     86  C   UNL A   1      43.393  36.131  29.251  1.00  0.00     0.010 A 
ATOM     87  C   UNL A   1      42.813  35.406  27.045  1.00  0.00     0.010 A 
ATOM     88  C   UNL A   1      43.129  37.451  28.873  1.00  0.00     0.020 A 
ATOM     89  C   UNL A   1      42.573  36.719  26.645  1.00  0.00     0.020 A 
ATOM     90  C   UNL A   1      42.729  37.737  27.571  1.00  0.00     0.054 A 
BRANCH  90  91
ATOM     91  S   UNL A   1      42.431  39.453  27.114  1.00  0.00     0.124 S 
ATOM     92  O   UNL A   1      42.239  40.084  28.419  1.00  0.00    -0.237 OA
ATOM     93  O   UNL A   1      43.668  39.809  26.422  1.00  0.00    -0.237 OA
ATOM     94  O   UNL A   1      41.242  39.392  26.270  1.00  0.00    -0.744 OA
ENDBRANCH  90  91
ENDBRANCH  64  85
ENDBRANCH  38  39
ENDBRANCH  30  33
ENDBRANCH  28  29
ENDBRANCH   1  28
TORSDOF 16
ENDMDL
MODEL 2
REMARK VINA RESULT:     -12.5      4.427     10.430
REMARK SMILES Cc1cc(NC(=O)c2ccc(Br)cc2N)ccc1C(=O)NCCCNC(=O)c1ccc(-c2c3nc(c(-c4ccc(S(=O)(=O)[O-])cc4)c4ccc([nH]4)c(-c4ccc(S(=O)(=O)[O-])cc4)c4nc(c(-c5ccc(S(=O)(=O)[O-])cc5)c5ccc2[nH]5)C=C4)C=C3)cc1
REMARK SMILES IDX 23 1 22 2 21 3 19 4 20 5 18 7 1 8 2 9 3 10 4 11 17 12 16 13
REMARK SMILES IDX 5 14 6 15 7 17 8 18 9 19 14 20 10 21 13 22 11 23 12 24 15 25
REMARK SMILES IDX 24 28 25 29 26 30 27 32 28 33 29 34 87 35 30 36 86 37 31 38
REMARK SMILES IDX 32 39 33 40 80 41 34 42 85 43 79 44 81 45 35 46 84 47 78 48
REMARK SMILES IDX 77 49 36 51 66 52 47 53 65 54 48 55 51 56 64 57 82 58 49 59
REMARK SMILES IDX 50 60 63 62 83 63 52 64 37 65 38 66 46 67 39 68 45 69 40 70
REMARK SMILES IDX 41 71 42 72 43 73 44 74 67 75 68 76 76 77 69 78 75 79 70 80
REMARK SMILES IDX 71 81 72 82 73 83 74 84 53 85 54 86 62 87 55 88 61 89 56 90
REMARK SMILES IDX 57 91 58 92 59 93 60 94
REMARK H PARENT 21 6 5 16 15 26 15 27 25 31 81 50 51 61
REMARK Flexibility Score: inf
ROOT
ATOM      1  C   UNL A   1      33.809  32.865  28.332  1.00  0.00     0.042 C 
ENDROOT
BRANCH   1   2
ATOM      2  C   UNL A   1      33.626  31.632  27.288  1.00  0.00     0.118 C 
BRANCH   2   3
ATOM      3  N   UNL A   1      32.582  30.606  27.540  1.00  0.00    -0.352 N 
ATOM      4  C   UNL A   1      32.138  29.440  26.951  1.00  0.00     0.251 C 
ATOM      5  O   UNL A   1      31.461  28.616  27.570  1.00  0.00    -0.269 OA
ATOM      6  H   UNL A   1      32.067  30.815  28.352  1.00  0.00     0.163 HD
BRANCH   4   7
ATOM      7  C   UNL A   1      32.472  29.094  25.553  1.00  0.00     0.042 A 
ATOM      8  C   UNL A   1      34.873  28.398  26.103  1.00  0.00     0.045 C 
ATOM      9  C   UNL A   1      33.694  28.526  25.194  1.00  0.00    -0.036 A 
ATOM     10  C   UNL A   1      33.827  28.006  23.909  1.00  0.00     0.030 A 
ATOM     11  C   UNL A   1      32.807  28.129  22.972  1.00  0.00     0.041 A 
ATOM     12  C   UNL A   1      31.544  29.422  24.540  1.00  0.00     0.016 A 
ATOM     13  C   UNL A   1      31.725  28.964  23.231  1.00  0.00     0.027 A 
BRANCH  11  14
ATOM     14  N   UNL A   1      32.828  27.344  21.812  1.00  0.00    -0.322 N 
ATOM     15  C   UNL A   1      32.880  25.958  21.757  1.00  0.00     0.257 C 
ATOM     16  H   UNL A   1      32.804  27.822  20.952  1.00  0.00     0.170 HD
ATOM     17  O   UNL A   1      33.292  25.401  20.739  1.00  0.00    -0.269 OA
BRANCH  15  18
ATOM     18  C   UNL A   1      32.372  25.110  22.893  1.00  0.00     0.063 A 
ATOM     19  C   UNL A   1      31.012  25.262  23.224  1.00  0.00     0.017 A 
ATOM     20  C   UNL A   1      33.182  24.233  23.656  1.00  0.00     0.045 A 
ATOM     21  C   UNL A   1      30.455  24.571  24.306  1.00  0.00     0.016 A 
ATOM     22  C   UNL A   1      32.604  23.562  24.749  1.00  0.00     0.042 A 
ATOM     23  C   UNL A   1      31.258  23.730  25.067  1.00  0.00     0.020 A 
ATOM     24  Br  UNL A   1      30.538  22.851  26.579  1.00  0.00    -0.051 Br
BRANCH  20  25
ATOM     25  N   UNL A   1      34.568  24.124  23.512  1.00  0.00    -0.398 N 
ATOM     26  H   UNL A   1      35.155  24.252  24.292  1.00  0.00     0.156 HD
ATOM     27  H   UNL A   1      34.957  23.918  22.633  1.00  0.00     0.156 HD
ENDBRANCH  20  25
ENDBRANCH  15  18
ENDBRANCH  11  14
ENDBRANCH   4   7
ENDBRANCH   2   3
ENDBRANCH   1   2
BRANCH   1  28
ATOM     28  C   UNL A   1      35.285  33.174  28.843  1.00  0.00     0.118 C 
BRANCH  28  29
ATOM     29  N   UNL A   1      36.084  32.391  29.961  1.00  0.00    -0.352 N 
ATOM     30  C   UNL A   1      37.241  31.497  30.072  1.00  0.00     0.251 C 
ATOM     31  H   UNL A   1      35.685  32.551  30.848  1.00  0.00     0.163 HD
ATOM     32  O   UNL A   1      38.145  31.968  30.788  1.00  0.00    -0.269 OA
BRANCH  30  33
ATOM     33  C   UNL A   1      37.571  30.023  29.566  1.00  0.00     0.039 A 
ATOM     34  C   UNL A   1      37.721  28.928  30.484  1.00  0.00     0.014 A 
ATOM     35  C   UNL A   1      37.800  29.631  28.252  1.00  0.00     0.014 A 
ATOM     36  C   UNL A   1      38.581  27.786  30.179  1.00  0.00     0.010 A 
ATOM     37  C   UNL A   1      38.651  28.512  27.946  1.00  0.00     0.010 A 
ATOM     38  C   UNL A   1      39.261  27.738  28.947  1.00  0.00    -0.014 A 
BRANCH  38  39
ATOM     39  C   UNL A   1      40.714  27.248  28.763  1.00  0.00     0.031 A 
ATOM     40  C   UNL A   1      40.994  25.857  28.426  1.00  0.00     0.074 A 
ATOM     41  C   UNL A   1      41.888  27.962  28.724  1.00  0.00     0.049 A 
ATOM     42  N   UNL A   1      41.811  25.083  29.067  1.00  0.00    -0.248 NA
ATOM     43  C   UNL A   1      40.422  25.288  27.220  1.00  0.00     0.031 C 
ATOM     44  C   UNL A   1      43.294  27.624  28.424  1.00  0.00     0.029 A 
ATOM     45  N   UNL A   1      42.061  29.311  28.922  1.00  0.00    -0.354 N 
ATOM     46  C   UNL A   1      42.111  24.072  28.179  1.00  0.00     0.074 A 
ATOM     47  C   UNL A   1      41.060  24.118  27.176  1.00  0.00     0.031 C 
ATOM     48  C   UNL A   1      44.110  28.623  28.851  1.00  0.00     0.029 A 
ATOM     49  C   UNL A   1      43.284  29.629  29.492  1.00  0.00     0.049 A 
ATOM     50  H   UNL A   1      41.384  29.984  28.682  1.00  0.00     0.167 HD
ATOM     51  C   UNL A   1      43.349  23.494  28.124  1.00  0.00     0.031 A 
ATOM     52  C   UNL A   1      43.322  30.145  30.767  1.00  0.00     0.031 A 
ATOM     53  C   UNL A   1      44.355  24.223  28.922  1.00  0.00     0.049 A 
ATOM     54  C   UNL A   1      43.886  29.119  31.703  1.00  0.00     0.074 A 
ATOM     55  C   UNL A   1      45.480  24.957  28.565  1.00  0.00     0.029 A 
ATOM     56  N   UNL A   1      44.121  24.532  30.260  1.00  0.00    -0.354 N 
ATOM     57  N   UNL A   1      44.277  27.946  31.308  1.00  0.00    -0.248 NA
ATOM     58  C   UNL A   1      44.005  29.281  33.143  1.00  0.00     0.031 C 
ATOM     59  C   UNL A   1      45.894  25.731  29.687  1.00  0.00     0.029 A 
ATOM     60  C   UNL A   1      45.050  25.442  30.745  1.00  0.00     0.049 A 
ATOM     61  H   UNL A   1      43.387  24.153  30.795  1.00  0.00     0.167 HD
ATOM     62  C   UNL A   1      44.637  27.174  32.364  1.00  0.00     0.074 A 
ATOM     63  C   UNL A   1      44.482  28.074  33.499  1.00  0.00     0.031 C 
ATOM     64  C   UNL A   1      44.999  25.874  32.151  1.00  0.00     0.031 A 
BRANCH  51  65
ATOM     65  C   UNL A   1      43.706  22.455  27.067  1.00  0.00    -0.014 A 
ATOM     66  C   UNL A   1      42.871  21.350  26.810  1.00  0.00     0.010 A 
ATOM     67  C   UNL A   1      44.852  22.553  26.249  1.00  0.00     0.010 A 
ATOM     68  C   UNL A   1      43.204  20.366  25.860  1.00  0.00     0.020 A 
ATOM     69  C   UNL A   1      45.236  21.550  25.349  1.00  0.00     0.020 A 
ATOM     70  C   UNL A   1      44.400  20.462  25.149  1.00  0.00     0.054 A 
BRANCH  70  71
ATOM     71  S   UNL A   1      44.813  19.210  23.906  1.00  0.00     0.124 S 
ATOM     72  O   UNL A   1      44.483  19.880  22.650  1.00  0.00    -0.237 OA
ATOM     73  O   UNL A   1      46.236  18.990  24.147  1.00  0.00    -0.237 OA
ATOM     74  O   UNL A   1      43.949  18.081  24.245  1.00  0.00    -0.744 OA
ENDBRANCH  70  71
ENDBRANCH  51  65
BRANCH  52  75
ATOM     75  C   UNL A   1      42.195  31.129  31.183  1.00  0.00    -0.014 A 
ATOM     76  C   UNL A   1      42.505  31.943  32.292  1.00  0.00     0.010 A 
ATOM     77  C   UNL A   1      41.677  31.813  30.097  1.00  0.00     0.010 A 
ATOM     78  C   UNL A   1      43.081  33.206  32.081  1.00  0.00     0.020 A 
ATOM     79  C   UNL A   1      42.299  33.053  29.885  1.00  0.00     0.020 A 
ATOM     80  C   UNL A   1      43.138  33.674  30.781  1.00  0.00     0.054 A 
BRANCH  80  81
ATOM     81  S   UNL A   1      44.704  34.753  30.120  1.00  0.00     0.124 S 
ATOM     82  O   UNL A   1      43.968  35.919  29.648  1.00  0.00    -0.237 OA
ATOM     83  O   UNL A   1      45.531  35.050  31.263  1.00  0.00    -0.237 OA
ATOM     84  O   UNL A   1      45.369  33.984  29.082  1.00  0.00    -0.744 OA
ENDBRANCH  80  81
ENDBRANCH  52  75
BRANCH  64  85
ATOM     85  C   UNL A   1      45.380  24.865  33.204  1.00  0.00    -0.014 A 
ATOM     86  C   UNL A   1      46.370  25.046  34.175  1.00  0.00     0.010 A 
ATOM     87  C   UNL A   1      44.689  23.627  33.229  1.00  0.00     0.010 A 
ATOM     88  C   UNL A   1      46.646  24.062  35.130  1.00  0.00     0.020 A 
ATOM     89  C   UNL A   1      44.932  22.649  34.191  1.00  0.00     0.020 A 
ATOM     90  C   UNL A   1      45.919  22.874  35.136  1.00  0.00     0.054 A 
BRANCH  90  91
ATOM     91  S   UNL A   1      46.282  21.646  36.403  1.00  0.00     0.124 S 
ATOM     92  O   UNL A   1      45.961  22.373  37.630  1.00  0.00    -0.237 OA
ATOM     93  O   UNL A   1      45.363  20.564  36.057  1.00  0.00    -0.237 OA
ATOM     94  O   UNL A   1      47.697  21.346  36.208  1.00  0.00    -0.744 OA
ENDBRANCH  90  91
ENDBRANCH  64  85
ENDBRANCH  38  39
ENDBRANCH  30  33
ENDBRANCH  28  29
ENDBRANCH   1  28
TORSDOF 16
ENDMDL
MODEL 3
REMARK VINA RESULT:     -12.5      5.067      7.644
REMARK SMILES Cc1cc(NC(=O)c2ccc(Br)cc2N)ccc1C(=O)NCCCNC(=O)c1ccc(-c2c3nc(c(-c4ccc(S(=O)(=O)[O-])cc4)c4ccc([nH]4)c(-c4ccc(S(=O)(=O)[O-])cc4)c4nc(c(-c5ccc(S(=O)(=O)[O-])cc5)c5ccc2[nH]5)C=C4)C=C3)cc1
REMARK SMILES IDX 23 1 22 2 21 3 19 4 20 5 18 7 1 8 2 9 3 10 4 11 17 12 16 13
REMARK SMILES IDX 5 14 6 15 7 17 8 18 9 19 14 20 10 21 13 22 11 23 12 24 15 25
REMARK SMILES IDX 24 28 25 29 26 30 27 32 28 33 29 34 87 35 30 36 86 37 31 38
REMARK SMILES IDX 32 39 33 40 80 41 34 42 85 43 79 44 81 45 35 46 84 47 78 48
REMARK SMILES IDX 77 49 36 51 66 52 47 53 65 54 48 55 51 56 64 57 82 58 49 59
REMARK SMILES IDX 50 60 63 62 83 63 52 64 37 65 38 66 46 67 39 68 45 69 40 70
REMARK SMILES IDX 41 71 42 72 43 73 44 74 67 75 68 76 76 77 69 78 75 79 70 80
REMARK SMILES IDX 71 81 72 82 73 83 74 84 53 85 54 86 62 87 55 88 61 89 56 90
REMARK SMILES IDX 57 91 58 92 59 93 60 94
REMARK H PARENT 21 6 5 16 15 26 15 27 25 31 81 50 51 61
REMARK Flexibility Score: inf
ROOT
ATOM      1  C   UNL A   1      33.903  30.635  27.323  1.00  0.00     0.042 C 
ENDROOT
BRANCH   1   2
ATOM      2  C   UNL A   1      32.912  30.545  26.036  1.00  0.00     0.118 C 
BRANCH   2   3
ATOM      3  N   UNL A   1      33.312  29.734  24.858  1.00  0.00    -0.352 N 
ATOM      4  C   UNL A   1      32.898  28.576  24.232  1.00  0.00     0.251 C 
ATOM      5  O   UNL A   1      33.218  28.317  23.070  1.00  0.00    -0.269 OA
ATOM      6  H   UNL A   1      34.083  30.134  24.397  1.00  0.00     0.163 HD
BRANCH   4   7
ATOM      7  C   UNL A   1      32.021  27.594  24.904  1.00  0.00     0.042 A 
ATOM      8  C   UNL A   1      30.075  27.937  23.278  1.00  0.00     0.045 C 
ATOM      9  C   UNL A   1      30.770  27.239  24.401  1.00  0.00    -0.036 A 
ATOM     10  C   UNL A   1      30.127  26.135  24.954  1.00  0.00     0.030 A 
ATOM     11  C   UNL A   1      30.665  25.455  26.041  1.00  0.00     0.041 A 
ATOM     12  C   UNL A   1      32.442  27.056  26.141  1.00  0.00     0.016 A 
ATOM     13  C   UNL A   1      31.743  25.999  26.733  1.00  0.00     0.027 A 
BRANCH  11  14
ATOM     14  N   UNL A   1      30.179  24.186  26.380  1.00  0.00    -0.322 N 
ATOM     15  C   UNL A   1      30.740  22.968  26.022  1.00  0.00     0.257 C 
ATOM     16  H   UNL A   1      29.361  24.155  26.925  1.00  0.00     0.170 HD
ATOM     17  O   UNL A   1      30.045  21.952  26.018  1.00  0.00    -0.269 OA
BRANCH  15  18
ATOM     18  C   UNL A   1      32.207  22.844  25.703  1.00  0.00     0.063 A 
ATOM     19  C   UNL A   1      32.580  23.118  24.374  1.00  0.00     0.017 A 
ATOM     20  C   UNL A   1      33.191  22.428  26.632  1.00  0.00     0.045 A 
ATOM     21  C   UNL A   1      33.906  22.968  23.955  1.00  0.00     0.016 A 
ATOM     22  C   UNL A   1      34.516  22.268  26.185  1.00  0.00     0.042 A 
ATOM     23  C   UNL A   1      34.866  22.536  24.863  1.00  0.00     0.020 A 
ATOM     24  Br  UNL A   1      36.647  22.254  24.292  1.00  0.00    -0.051 Br
BRANCH  20  25
ATOM     25  N   UNL A   1      32.908  21.985  27.927  1.00  0.00    -0.398 N 
ATOM     26  H   UNL A   1      33.427  22.331  28.690  1.00  0.00     0.156 HD
ATOM     27  H   UNL A   1      32.190  21.330  28.077  1.00  0.00     0.156 HD
ENDBRANCH  20  25
ENDBRANCH  15  18
ENDBRANCH  11  14
ENDBRANCH   4   7
ENDBRANCH   2   3
ENDBRANCH   1   2
BRANCH   1  28
ATOM     28  C   UNL A   1      35.170  29.670  27.336  1.00  0.00     0.118 C 
BRANCH  28  29
ATOM     29  N   UNL A   1      36.415  29.755  28.308  1.00  0.00    -0.352 N 
ATOM     30  C   UNL A   1      37.879  29.724  28.234  1.00  0.00     0.251 C 
ATOM     31  H   UNL A   1      36.119  29.859  29.241  1.00  0.00     0.163 HD
ATOM     32  O   UNL A   1      38.404  30.771  28.658  1.00  0.00    -0.269 OA
BRANCH  30  33
ATOM     33  C   UNL A   1      38.957  28.625  27.824  1.00  0.00     0.039 A 
ATOM     34  C   UNL A   1      38.808  27.247  28.201  1.00  0.00     0.014 A 
ATOM     35  C   UNL A   1      40.144  28.847  27.135  1.00  0.00     0.014 A 
ATOM     36  C   UNL A   1      39.967  26.378  28.400  1.00  0.00     0.010 A 
ATOM     37  C   UNL A   1      41.290  28.000  27.333  1.00  0.00     0.010 A 
ATOM     38  C   UNL A   1      41.263  26.890  28.195  1.00  0.00    -0.014 A 
BRANCH  38  39
ATOM     39  C   UNL A   1      42.484  26.577  29.086  1.00  0.00     0.031 A 
ATOM     40  C   UNL A   1      42.985  27.563  30.037  1.00  0.00     0.074 A 
ATOM     41  C   UNL A   1      43.168  25.398  29.263  1.00  0.00     0.049 A 
ATOM     42  N   UNL A   1      44.213  27.964  30.118  1.00  0.00    -0.248 NA
ATOM     43  C   UNL A   1      42.097  28.076  31.063  1.00  0.00     0.031 C 
ATOM     44  C   UNL A   1      44.244  24.953  30.173  1.00  0.00     0.029 A 
ATOM     45  N   UNL A   1      42.970  24.203  28.614  1.00  0.00    -0.354 N 
ATOM     46  C   UNL A   1      44.325  28.504  31.383  1.00  0.00     0.074 A 
ATOM     47  C   UNL A   1      42.961  28.763  31.812  1.00  0.00     0.031 C 
ATOM     48  C   UNL A   1      44.788  23.796  29.712  1.00  0.00     0.029 A 
ATOM     49  C   UNL A   1      44.132  23.463  28.461  1.00  0.00     0.049 A 
ATOM     50  H   UNL A   1      42.091  23.902  28.289  1.00  0.00     0.167 HD
ATOM     51  C   UNL A   1      45.471  28.395  32.122  1.00  0.00     0.031 A 
ATOM     52  C   UNL A   1      44.647  23.264  27.201  1.00  0.00     0.031 A 
ATOM     53  C   UNL A   1      46.444  27.454  31.532  1.00  0.00     0.049 A 
ATOM     54  C   UNL A   1      45.907  24.062  27.046  1.00  0.00     0.074 A 
ATOM     55  C   UNL A   1      46.920  26.216  31.948  1.00  0.00     0.029 A 
ATOM     56  N   UNL A   1      46.840  27.574  30.203  1.00  0.00    -0.354 N 
ATOM     57  N   UNL A   1      46.396  24.796  27.997  1.00  0.00    -0.248 NA
ATOM     58  C   UNL A   1      46.685  24.159  25.821  1.00  0.00     0.031 C 
ATOM     59  C   UNL A   1      47.572  25.586  30.850  1.00  0.00     0.029 A 
ATOM     60  C   UNL A   1      47.534  26.451  29.771  1.00  0.00     0.049 A 
ATOM     61  H   UNL A   1      46.652  28.358  29.638  1.00  0.00     0.167 HD
ATOM     62  C   UNL A   1      47.472  25.499  27.563  1.00  0.00     0.074 A 
ATOM     63  C   UNL A   1      47.637  25.036  26.192  1.00  0.00     0.031 C 
ATOM     64  C   UNL A   1      48.072  26.393  28.403  1.00  0.00     0.031 A 
BRANCH  51  65
ATOM     65  C   UNL A   1      45.551  28.897  33.560  1.00  0.00    -0.014 A 
ATOM     66  C   UNL A   1      45.444  28.016  34.654  1.00  0.00     0.010 A 
ATOM     67  C   UNL A   1      45.785  30.249  33.889  1.00  0.00     0.010 A 
ATOM     68  C   UNL A   1      45.483  28.472  35.986  1.00  0.00     0.020 A 
ATOM     69  C   UNL A   1      45.757  30.731  35.204  1.00  0.00     0.020 A 
ATOM     70  C   UNL A   1      45.618  29.834  36.252  1.00  0.00     0.054 A 
BRANCH  70  71
ATOM     71  S   UNL A   1      45.697  30.414  37.967  1.00  0.00     0.124 S 
ATOM     72  O   UNL A   1      45.041  29.336  38.703  1.00  0.00    -0.237 OA
ATOM     73  O   UNL A   1      47.135  30.543  38.186  1.00  0.00    -0.237 OA
ATOM     74  O   UNL A   1      44.962  31.678  37.943  1.00  0.00    -0.744 OA
ENDBRANCH  70  71
ENDBRANCH  51  65
BRANCH  52  75
ATOM     75  C   UNL A   1      43.644  23.046  26.036  1.00  0.00    -0.014 A 
ATOM     76  C   UNL A   1      44.220  23.084  24.749  1.00  0.00     0.010 A 
ATOM     77  C   UNL A   1      42.815  21.961  26.262  1.00  0.00     0.010 A 
ATOM     78  C   UNL A   1      44.662  21.890  24.157  1.00  0.00     0.020 A 
ATOM     79  C   UNL A   1      43.303  20.774  25.694  1.00  0.00     0.020 A 
ATOM     80  C   UNL A   1      44.333  20.704  24.786  1.00  0.00     0.054 A 
BRANCH  80  81
ATOM     81  S   UNL A   1      45.607  19.145  24.819  1.00  0.00     0.124 S 
ATOM     82  O   UNL A   1      46.698  19.783  25.542  1.00  0.00    -0.237 OA
ATOM     83  O   UNL A   1      44.979  18.096  25.584  1.00  0.00    -0.237 OA
ATOM     84  O   UNL A   1      45.908  18.785  23.443  1.00  0.00    -0.744 OA
ENDBRANCH  80  81
ENDBRANCH  52  75
BRANCH  64  85
ATOM     85  C   UNL A   1      49.240  27.288  28.075  1.00  0.00    -0.014 A 
ATOM     86  C   UNL A   1      50.548  27.110  28.537  1.00  0.00     0.010 A 
ATOM     87  C   UNL A   1      49.015  28.404  27.231  1.00  0.00     0.010 A 
ATOM     88  C   UNL A   1      51.579  27.980  28.166  1.00  0.00     0.020 A 
ATOM     89  C   UNL A   1      50.036  29.263  26.829  1.00  0.00     0.020 A 
ATOM     90  C   UNL A   1      51.317  29.045  27.308  1.00  0.00     0.054 A 
BRANCH  90  91
ATOM     91  S   UNL A   1      52.678  30.122  26.828  1.00  0.00     0.124 S 
ATOM     92  O   UNL A   1      53.109  30.658  28.117  1.00  0.00    -0.237 OA
ATOM     93  O   UNL A   1      53.606  29.186  26.197  1.00  0.00    -0.237 OA
ATOM     94  O   UNL A   1      52.060  31.089  25.925  1.00  0.00    -0.744 OA
ENDBRANCH  90  91
ENDBRANCH  64  85
ENDBRANCH  38  39
ENDBRANCH  30  33
ENDBRANCH  28  29
ENDBRANCH   1  28
TORSDOF 16
ENDMDL
