MODEL 1
REMARK VINA RESULT:     -10.6      0.000      0.000
REMARK SMILES O=C(Cc1ccc(NC(=O)C2CCCC2)cc1)NCCCNC(=O)c1ccc(-c2c3nc(c(-c4ccc(S(=O)(=O)[O-])cc4)c4ccc([nH]4)c(-c4ccc(S(=O)(=O)[O-])cc4)c4nc(c(-c5ccc(S(=O)(=O)[O-])cc5)c5ccc2[nH]5)C=C4)C=C3)cc1
REMARK SMILES IDX 20 1 19 2 18 3 1 4 2 5 3 7 4 8 5 9 17 10 6 11 16 12 7 13
REMARK SMILES IDX 8 14 9 15 10 17 11 18 12 19 15 20 13 21 14 22 21 23 22 24
REMARK SMILES IDX 23 25 24 27 25 28 26 29 84 30 27 31 83 32 28 33 29 34 30 35
REMARK SMILES IDX 77 36 31 37 82 38 76 39 78 40 32 41 81 42 75 43 74 44 33 46
REMARK SMILES IDX 63 47 44 48 62 49 45 50 48 51 61 52 79 53 46 54 47 55 60 57
REMARK SMILES IDX 80 58 49 59 34 60 35 61 43 62 36 63 42 64 37 65 38 66 39 67
REMARK SMILES IDX 40 68 41 69 64 70 65 71 73 72 66 73 72 74 67 75 68 76 69 77
REMARK SMILES IDX 70 78 71 79 50 80 51 81 59 82 52 83 58 84 53 85 54 86 55 87
REMARK SMILES IDX 56 88 57 89
REMARK H PARENT 18 6 8 16 22 26 78 45 48 56
REMARK Flexibility Score: inf
ROOT
ATOM      1  C   UNL A   1      32.060  27.643  26.892  1.00  0.00     0.042 C 
ENDROOT
BRANCH   1   2
ATOM      2  C   UNL A   1      31.489  28.199  25.590  1.00  0.00     0.117 C 
BRANCH   2   3
ATOM      3  N   UNL A   1      31.549  27.222  24.520  1.00  0.00    -0.356 N 
ATOM      4  O   UNL A   1      29.509  26.240  24.915  1.00  0.00    -0.275 OA
ATOM      5  C   UNL A   1      30.565  26.284  24.291  1.00  0.00     0.224 C 
ATOM      6  H   UNL A   1      32.334  27.227  23.927  1.00  0.00     0.163 HD
BRANCH   5   7
ATOM      7  C   UNL A   1      30.923  25.250  23.230  1.00  0.00     0.135 C 
BRANCH   7   8
ATOM      8  C   UNL A   1      31.993  24.286  23.679  1.00  0.00    -0.039 A 
ATOM      9  C   UNL A   1      31.911  23.695  24.941  1.00  0.00     0.006 A 
ATOM     10  C   UNL A   1      33.049  23.922  22.837  1.00  0.00     0.006 A 
ATOM     11  C   UNL A   1      32.815  22.699  25.317  1.00  0.00     0.026 A 
ATOM     12  C   UNL A   1      33.929  22.897  23.206  1.00  0.00     0.026 A 
ATOM     13  C   UNL A   1      33.763  22.218  24.417  1.00  0.00     0.041 A 
BRANCH  13  14
ATOM     14  N   UNL A   1      34.548  21.068  24.616  1.00  0.00    -0.326 N 
ATOM     15  C   UNL A   1      35.880  20.888  24.876  1.00  0.00     0.227 C 
ATOM     16  H   UNL A   1      34.039  20.228  24.557  1.00  0.00     0.169 HD
ATOM     17  O   UNL A   1      36.291  19.727  24.969  1.00  0.00    -0.274 OA
BRANCH  15  18
ATOM     18  C   UNL A   1      36.819  22.068  25.062  1.00  0.00     0.079 C 
ATOM     19  C   UNL A   1      36.366  23.089  26.107  1.00  0.00     0.013 C 
ATOM     20  C   UNL A   1      38.202  21.708  25.615  1.00  0.00     0.013 C 
ATOM     21  C   UNL A   1      37.585  23.991  26.224  1.00  0.00     0.001 C 
ATOM     22  C   UNL A   1      38.777  23.044  26.097  1.00  0.00     0.001 C 
ENDBRANCH  15  18
ENDBRANCH  13  14
ENDBRANCH   7   8
ENDBRANCH   5   7
ENDBRANCH   2   3
ENDBRANCH   1   2
BRANCH   1  23
ATOM     23  C   UNL A   1      33.406  28.239  27.302  1.00  0.00     0.118 C 
BRANCH  23  24
ATOM     24  N   UNL A   1      33.356  29.676  27.524  1.00  0.00    -0.352 N 
ATOM     25  C   UNL A   1      34.313  30.529  28.022  1.00  0.00     0.251 C 
ATOM     26  H   UNL A   1      32.504  30.105  27.278  1.00  0.00     0.163 HD
ATOM     27  O   UNL A   1      34.014  31.695  28.258  1.00  0.00    -0.269 OA
BRANCH  25  28
ATOM     28  C   UNL A   1      35.686  30.047  28.302  1.00  0.00     0.039 A 
ATOM     29  C   UNL A   1      36.637  30.104  27.279  1.00  0.00     0.014 A 
ATOM     30  C   UNL A   1      36.038  29.524  29.549  1.00  0.00     0.014 A 
ATOM     31  C   UNL A   1      37.953  29.703  27.527  1.00  0.00     0.010 A 
ATOM     32  C   UNL A   1      37.367  29.194  29.816  1.00  0.00     0.010 A 
ATOM     33  C   UNL A   1      38.341  29.281  28.809  1.00  0.00    -0.014 A 
BRANCH  33  34
ATOM     34  C   UNL A   1      39.757  28.943  29.115  1.00  0.00     0.031 A 
ATOM     35  C   UNL A   1      40.673  29.970  29.725  1.00  0.00     0.074 A 
ATOM     36  C   UNL A   1      40.238  27.726  28.787  1.00  0.00     0.049 A 
ATOM     37  N   UNL A   1      41.948  29.875  30.006  1.00  0.00    -0.248 NA
ATOM     38  C   UNL A   1      40.086  31.282  30.041  1.00  0.00     0.031 C 
ATOM     39  C   UNL A   1      39.465  26.650  28.161  1.00  0.00     0.029 A 
ATOM     40  N   UNL A   1      41.495  27.189  28.930  1.00  0.00    -0.354 N 
ATOM     41  C   UNL A   1      42.318  31.114  30.517  1.00  0.00     0.074 A 
ATOM     42  C   UNL A   1      41.145  31.960  30.460  1.00  0.00     0.031 C 
ATOM     43  C   UNL A   1      40.257  25.577  27.999  1.00  0.00     0.029 A 
ATOM     44  C   UNL A   1      41.602  25.901  28.463  1.00  0.00     0.049 A 
ATOM     45  H   UNL A   1      42.248  27.683  29.329  1.00  0.00     0.167 HD
ATOM     46  C   UNL A   1      43.519  31.508  31.006  1.00  0.00     0.031 A 
ATOM     47  C   UNL A   1      42.664  25.072  28.402  1.00  0.00     0.031 A 
ATOM     48  C   UNL A   1      44.684  30.665  31.065  1.00  0.00     0.049 A 
ATOM     49  C   UNL A   1      43.994  25.543  28.924  1.00  0.00     0.074 A 
ATOM     50  C   UNL A   1      45.931  30.957  31.590  1.00  0.00     0.029 A 
ATOM     51  N   UNL A   1      44.751  29.366  30.579  1.00  0.00    -0.354 N 
ATOM     52  N   UNL A   1      44.306  26.696  29.464  1.00  0.00    -0.248 NA
ATOM     53  C   UNL A   1      45.113  24.594  28.839  1.00  0.00     0.031 C 
ATOM     54  C   UNL A   1      46.770  29.861  31.365  1.00  0.00     0.029 A 
ATOM     55  C   UNL A   1      46.026  28.857  30.764  1.00  0.00     0.049 A 
ATOM     56  H   UNL A   1      44.003  28.880  30.165  1.00  0.00     0.167 HD
ATOM     57  C   UNL A   1      45.651  26.603  29.806  1.00  0.00     0.074 A 
ATOM     58  C   UNL A   1      46.086  25.273  29.431  1.00  0.00     0.031 C 
ATOM     59  C   UNL A   1      46.451  27.534  30.382  1.00  0.00     0.031 A 
BRANCH  46  60
ATOM     60  C   UNL A   1      43.639  32.926  31.507  1.00  0.00    -0.014 A 
ATOM     61  C   UNL A   1      43.938  33.985  30.630  1.00  0.00     0.010 A 
ATOM     62  C   UNL A   1      43.405  33.210  32.865  1.00  0.00     0.010 A 
ATOM     63  C   UNL A   1      44.044  35.293  31.109  1.00  0.00     0.020 A 
ATOM     64  C   UNL A   1      43.479  34.522  33.342  1.00  0.00     0.020 A 
ATOM     65  C   UNL A   1      43.816  35.553  32.464  1.00  0.00     0.054 A 
BRANCH  65  66
ATOM     66  S   UNL A   1      43.943  37.264  33.054  1.00  0.00     0.124 S 
ATOM     67  O   UNL A   1      45.242  37.255  33.723  1.00  0.00    -0.237 OA
ATOM     68  O   UNL A   1      43.881  38.033  31.814  1.00  0.00    -0.237 OA
ATOM     69  O   UNL A   1      42.790  37.413  33.937  1.00  0.00    -0.744 OA
ENDBRANCH  65  66
ENDBRANCH  46  60
BRANCH  47  70
ATOM     70  C   UNL A   1      42.510  23.707  27.827  1.00  0.00    -0.014 A 
ATOM     71  C   UNL A   1      42.138  22.623  28.644  1.00  0.00     0.010 A 
ATOM     72  C   UNL A   1      42.728  23.482  26.455  1.00  0.00     0.010 A 
ATOM     73  C   UNL A   1      42.008  21.340  28.104  1.00  0.00     0.020 A 
ATOM     74  C   UNL A   1      42.568  22.207  25.906  1.00  0.00     0.020 A 
ATOM     75  C   UNL A   1      42.221  21.141  26.737  1.00  0.00     0.054 A 
BRANCH  75  76
ATOM     76  S   UNL A   1      41.997  19.476  26.051  1.00  0.00     0.124 S 
ATOM     77  O   UNL A   1      42.792  19.542  24.830  1.00  0.00    -0.237 OA
ATOM     78  O   UNL A   1      42.532  18.625  27.112  1.00  0.00    -0.237 OA
ATOM     79  O   UNL A   1      40.552  19.379  25.854  1.00  0.00    -0.744 OA
ENDBRANCH  75  76
ENDBRANCH  47  70
BRANCH  59  80
ATOM     80  C   UNL A   1      47.877  27.141  30.675  1.00  0.00    -0.014 A 
ATOM     81  C   UNL A   1      48.906  27.379  29.746  1.00  0.00     0.010 A 
ATOM     82  C   UNL A   1      48.197  26.573  31.922  1.00  0.00     0.010 A 
ATOM     83  C   UNL A   1      50.225  27.025  30.048  1.00  0.00     0.020 A 
ATOM     84  C   UNL A   1      49.519  26.248  32.239  1.00  0.00     0.020 A 
ATOM     85  C   UNL A   1      50.522  26.463  31.293  1.00  0.00     0.054 A 
BRANCH  85  86
ATOM     86  S   UNL A   1      52.249  26.055  31.676  1.00  0.00     0.124 S 
ATOM     87  O   UNL A   1      52.891  26.203  30.372  1.00  0.00    -0.237 OA
ATOM     88  O   UNL A   1      52.603  27.065  32.669  1.00  0.00    -0.237 OA
ATOM     89  O   UNL A   1      52.178  24.687  32.183  1.00  0.00    -0.744 OA
ENDBRANCH  85  86
ENDBRANCH  59  80
ENDBRANCH  33  34
ENDBRANCH  25  28
ENDBRANCH  23  24
ENDBRANCH   1  23
TORSDOF 16
ENDMDL
MODEL 2
REMARK VINA RESULT:     -10.4      3.332      6.283
REMARK SMILES O=C(Cc1ccc(NC(=O)C2CCCC2)cc1)NCCCNC(=O)c1ccc(-c2c3nc(c(-c4ccc(S(=O)(=O)[O-])cc4)c4ccc([nH]4)c(-c4ccc(S(=O)(=O)[O-])cc4)c4nc(c(-c5ccc(S(=O)(=O)[O-])cc5)c5ccc2[nH]5)C=C4)C=C3)cc1
REMARK SMILES IDX 20 1 19 2 18 3 1 4 2 5 3 7 4 8 5 9 17 10 6 11 16 12 7 13
REMARK SMILES IDX 8 14 9 15 10 17 11 18 12 19 15 20 13 21 14 22 21 23 22 24
REMARK SMILES IDX 23 25 24 27 25 28 26 29 84 30 27 31 83 32 28 33 29 34 30 35
REMARK SMILES IDX 77 36 31 37 82 38 76 39 78 40 32 41 81 42 75 43 74 44 33 46
REMARK SMILES IDX 63 47 44 48 62 49 45 50 48 51 61 52 79 53 46 54 47 55 60 57
REMARK SMILES IDX 80 58 49 59 34 60 35 61 43 62 36 63 42 64 37 65 38 66 39 67
REMARK SMILES IDX 40 68 41 69 64 70 65 71 73 72 66 73 72 74 67 75 68 76 69 77
REMARK SMILES IDX 70 78 71 79 50 80 51 81 59 82 52 83 58 84 53 85 54 86 55 87
REMARK SMILES IDX 56 88 57 89
REMARK H PARENT 18 6 8 16 22 26 78 45 48 56
REMARK Flexibility Score: inf
ROOT
ATOM      1  C   UNL A   1      34.374  34.450  28.305  1.00  0.00     0.042 C 
ENDROOT
BRANCH   1   2
ATOM      2  C   UNL A   1      33.534  34.568  29.573  1.00  0.00     0.117 C 
BRANCH   2   3
ATOM      3  N   UNL A   1      34.324  35.036  30.696  1.00  0.00    -0.356 N 
ATOM      4  O   UNL A   1      34.343  33.064  31.875  1.00  0.00    -0.275 OA
ATOM      5  C   UNL A   1      34.634  34.253  31.787  1.00  0.00     0.224 C 
ATOM      6  H   UNL A   1      34.656  35.963  30.678  1.00  0.00     0.163 HD
BRANCH   5   7
ATOM      7  C   UNL A   1      35.319  35.006  32.921  1.00  0.00     0.135 C 
BRANCH   7   8
ATOM      8  C   UNL A   1      36.699  34.483  33.233  1.00  0.00    -0.039 A 
ATOM      9  C   UNL A   1      37.023  34.112  34.538  1.00  0.00     0.006 A 
ATOM     10  C   UNL A   1      37.658  34.309  32.229  1.00  0.00     0.006 A 
ATOM     11  C   UNL A   1      38.246  33.499  34.817  1.00  0.00     0.026 A 
ATOM     12  C   UNL A   1      38.867  33.661  32.509  1.00  0.00     0.026 A 
ATOM     13  C   UNL A   1      39.132  33.173  33.792  1.00  0.00     0.041 A 
BRANCH  13  14
ATOM     14  N   UNL A   1      40.263  32.350  33.941  1.00  0.00    -0.326 N 
ATOM     15  C   UNL A   1      40.500  31.036  33.637  1.00  0.00     0.227 C 
ATOM     16  H   UNL A   1      41.036  32.809  34.343  1.00  0.00     0.169 HD
ATOM     17  O   UNL A   1      41.610  30.576  33.923  1.00  0.00    -0.274 OA
BRANCH  15  18
ATOM     18  C   UNL A   1      39.448  30.177  32.955  1.00  0.00     0.079 C 
ATOM     19  C   UNL A   1      39.818  28.701  32.812  1.00  0.00     0.013 C 
ATOM     20  C   UNL A   1      38.126  30.054  33.721  1.00  0.00     0.013 C 
ATOM     21  C   UNL A   1      38.515  28.088  32.325  1.00  0.00     0.001 C 
ATOM     22  C   UNL A   1      37.427  28.852  33.077  1.00  0.00     0.001 C 
ENDBRANCH  15  18
ENDBRANCH  13  14
ENDBRANCH   7   8
ENDBRANCH   5   7
ENDBRANCH   2   3
ENDBRANCH   1   2
BRANCH   1  23
ATOM     23  C   UNL A   1      35.133  33.131  28.164  1.00  0.00     0.118 C 
BRANCH  23  24
ATOM     24  N   UNL A   1      34.268  31.997  27.875  1.00  0.00    -0.352 N 
ATOM     25  C   UNL A   1      34.569  30.660  27.762  1.00  0.00     0.251 C 
ATOM     26  H   UNL A   1      33.319  32.222  27.740  1.00  0.00     0.163 HD
ATOM     27  O   UNL A   1      33.706  29.880  27.373  1.00  0.00    -0.269 OA
BRANCH  25  28
ATOM     28  C   UNL A   1      35.928  30.160  28.077  1.00  0.00     0.039 A 
ATOM     29  C   UNL A   1      36.895  30.167  27.067  1.00  0.00     0.014 A 
ATOM     30  C   UNL A   1      36.252  29.670  29.344  1.00  0.00     0.014 A 
ATOM     31  C   UNL A   1      38.199  29.749  27.346  1.00  0.00     0.010 A 
ATOM     32  C   UNL A   1      37.570  29.322  29.641  1.00  0.00     0.010 A 
ATOM     33  C   UNL A   1      38.560  29.359  28.647  1.00  0.00    -0.014 A 
BRANCH  33  34
ATOM     34  C   UNL A   1      39.964  29.004  28.984  1.00  0.00     0.031 A 
ATOM     35  C   UNL A   1      40.883  30.023  29.603  1.00  0.00     0.074 A 
ATOM     36  C   UNL A   1      40.435  27.777  28.677  1.00  0.00     0.049 A 
ATOM     37  N   UNL A   1      42.151  29.912  29.911  1.00  0.00    -0.248 NA
ATOM     38  C   UNL A   1      40.310  31.346  29.895  1.00  0.00     0.031 C 
ATOM     39  C   UNL A   1      39.658  26.706  28.045  1.00  0.00     0.029 A 
ATOM     40  N   UNL A   1      41.680  27.224  28.849  1.00  0.00    -0.354 N 
ATOM     41  C   UNL A   1      42.529  31.150  30.418  1.00  0.00     0.074 A 
ATOM     42  C   UNL A   1      41.370  32.012  30.330  1.00  0.00     0.031 C 
ATOM     43  C   UNL A   1      40.438  25.621  27.908  1.00  0.00     0.029 A 
ATOM     44  C   UNL A   1      41.778  25.929  28.396  1.00  0.00     0.049 A 
ATOM     45  H   UNL A   1      42.432  27.709  29.259  1.00  0.00     0.167 HD
ATOM     46  C   UNL A   1      43.726  31.532  30.927  1.00  0.00     0.031 A 
ATOM     47  C   UNL A   1      42.828  25.085  28.363  1.00  0.00     0.031 A 
ATOM     48  C   UNL A   1      44.877  30.672  31.017  1.00  0.00     0.049 A 
ATOM     49  C   UNL A   1      44.155  25.541  28.908  1.00  0.00     0.074 A 
ATOM     50  C   UNL A   1      46.118  30.951  31.564  1.00  0.00     0.029 A 
ATOM     51  N   UNL A   1      44.935  29.368  30.544  1.00  0.00    -0.354 N 
ATOM     52  N   UNL A   1      44.473  26.695  29.444  1.00  0.00    -0.248 NA
ATOM     53  C   UNL A   1      45.261  24.576  28.854  1.00  0.00     0.031 C 
ATOM     54  C   UNL A   1      46.944  29.841  31.366  1.00  0.00     0.029 A 
ATOM     55  C   UNL A   1      46.198  28.843  30.759  1.00  0.00     0.049 A 
ATOM     56  H   UNL A   1      44.187  28.889  30.119  1.00  0.00     0.167 HD
ATOM     57  C   UNL A   1      45.809  26.585  29.814  1.00  0.00     0.074 A 
ATOM     58  C   UNL A   1      46.232  25.246  29.459  1.00  0.00     0.031 C 
ATOM     59  C   UNL A   1      46.611  27.510  30.398  1.00  0.00     0.031 A 
BRANCH  46  60
ATOM     60  C   UNL A   1      43.856  32.952  31.418  1.00  0.00    -0.014 A 
ATOM     61  C   UNL A   1      44.359  33.967  30.583  1.00  0.00     0.010 A 
ATOM     62  C   UNL A   1      43.428  33.286  32.715  1.00  0.00     0.010 A 
ATOM     63  C   UNL A   1      44.473  35.278  31.052  1.00  0.00     0.020 A 
ATOM     64  C   UNL A   1      43.510  34.603  33.178  1.00  0.00     0.020 A 
ATOM     65  C   UNL A   1      44.049  35.588  32.348  1.00  0.00     0.054 A 
BRANCH  65  66
ATOM     66  S   UNL A   1      44.191  37.302  32.923  1.00  0.00     0.124 S 
ATOM     67  O   UNL A   1      43.253  37.321  34.044  1.00  0.00    -0.237 OA
ATOM     68  O   UNL A   1      45.603  37.401  33.284  1.00  0.00    -0.237 OA
ATOM     69  O   UNL A   1      43.790  38.093  31.763  1.00  0.00    -0.744 OA
ENDBRANCH  65  66
ENDBRANCH  46  60
BRANCH  47  70
ATOM     70  C   UNL A   1      42.666  23.717  27.798  1.00  0.00    -0.014 A 
ATOM     71  C   UNL A   1      42.305  22.638  28.625  1.00  0.00     0.010 A 
ATOM     72  C   UNL A   1      42.865  23.485  26.424  1.00  0.00     0.010 A 
ATOM     73  C   UNL A   1      42.167  21.352  28.094  1.00  0.00     0.020 A 
ATOM     74  C   UNL A   1      42.696  22.207  25.884  1.00  0.00     0.020 A 
ATOM     75  C   UNL A   1      42.361  21.146  26.725  1.00  0.00     0.054 A 
BRANCH  75  76
ATOM     76  S   UNL A   1      42.127  19.477  26.050  1.00  0.00     0.124 S 
ATOM     77  O   UNL A   1      40.685  19.437  25.835  1.00  0.00    -0.237 OA
ATOM     78  O   UNL A   1      42.947  19.510  24.841  1.00  0.00    -0.237 OA
ATOM     79  O   UNL A   1      42.628  18.607  27.111  1.00  0.00    -0.744 OA
ENDBRANCH  75  76
ENDBRANCH  47  70
BRANCH  59  80
ATOM     80  C   UNL A   1      48.025  27.099  30.722  1.00  0.00    -0.014 A 
ATOM     81  C   UNL A   1      48.324  26.358  31.879  1.00  0.00     0.010 A 
ATOM     82  C   UNL A   1      49.061  27.413  29.823  1.00  0.00     0.010 A 
ATOM     83  C   UNL A   1      49.640  25.970  32.149  1.00  0.00     0.020 A 
ATOM     84  C   UNL A   1      50.372  26.999  30.073  1.00  0.00     0.020 A 
ATOM     85  C   UNL A   1      50.655  26.292  31.243  1.00  0.00     0.054 A 
BRANCH  85  86
ATOM     86  S   UNL A   1      52.346  25.736  31.594  1.00  0.00     0.124 S 
ATOM     87  O   UNL A   1      52.984  25.859  30.285  1.00  0.00    -0.237 OA
ATOM     88  O   UNL A   1      52.793  26.691  32.603  1.00  0.00    -0.237 OA
ATOM     89  O   UNL A   1      52.170  24.368  32.074  1.00  0.00    -0.744 OA
ENDBRANCH  85  86
ENDBRANCH  59  80
ENDBRANCH  33  34
ENDBRANCH  25  28
ENDBRANCH  23  24
ENDBRANCH   1  23
TORSDOF 16
ENDMDL
MODEL 3
REMARK VINA RESULT:     -10.4      4.491     10.372
REMARK SMILES O=C(Cc1ccc(NC(=O)C2CCCC2)cc1)NCCCNC(=O)c1ccc(-c2c3nc(c(-c4ccc(S(=O)(=O)[O-])cc4)c4ccc([nH]4)c(-c4ccc(S(=O)(=O)[O-])cc4)c4nc(c(-c5ccc(S(=O)(=O)[O-])cc5)c5ccc2[nH]5)C=C4)C=C3)cc1
REMARK SMILES IDX 20 1 19 2 18 3 1 4 2 5 3 7 4 8 5 9 17 10 6 11 16 12 7 13
REMARK SMILES IDX 8 14 9 15 10 17 11 18 12 19 15 20 13 21 14 22 21 23 22 24
REMARK SMILES IDX 23 25 24 27 25 28 26 29 84 30 27 31 83 32 28 33 29 34 30 35
REMARK SMILES IDX 77 36 31 37 82 38 76 39 78 40 32 41 81 42 75 43 74 44 33 46
REMARK SMILES IDX 63 47 44 48 62 49 45 50 48 51 61 52 79 53 46 54 47 55 60 57
REMARK SMILES IDX 80 58 49 59 34 60 35 61 43 62 36 63 42 64 37 65 38 66 39 67
REMARK SMILES IDX 40 68 41 69 64 70 65 71 73 72 66 73 72 74 67 75 68 76 69 77
REMARK SMILES IDX 70 78 71 79 50 80 51 81 59 82 52 83 58 84 53 85 54 86 55 87
REMARK SMILES IDX 56 88 57 89
REMARK H PARENT 18 6 8 16 22 26 78 45 48 56
REMARK Flexibility Score: inf
ROOT
ATOM      1  C   UNL A   1      40.430  22.015  26.902  1.00  0.00     0.042 C 
ENDROOT
BRANCH   1   2
ATOM      2  C   UNL A   1      39.128  22.733  26.558  1.00  0.00     0.117 C 
BRANCH   2   3
ATOM      3  N   UNL A   1      38.176  21.840  25.926  1.00  0.00    -0.356 N 
ATOM      4  O   UNL A   1      37.117  23.419  24.635  1.00  0.00    -0.275 OA
ATOM      5  C   UNL A   1      37.211  22.263  25.038  1.00  0.00     0.224 C 
ATOM      6  H   UNL A   1      38.222  20.881  26.144  1.00  0.00     0.163 HD
BRANCH   5   7
ATOM      7  C   UNL A   1      36.212  21.182  24.641  1.00  0.00     0.135 C 
BRANCH   7   8
ATOM      8  C   UNL A   1      34.876  21.329  25.325  1.00  0.00    -0.039 A 
ATOM      9  C   UNL A   1      34.819  21.730  26.660  1.00  0.00     0.006 A 
ATOM     10  C   UNL A   1      33.675  21.122  24.636  1.00  0.00     0.006 A 
ATOM     11  C   UNL A   1      33.590  22.002  27.266  1.00  0.00     0.026 A 
ATOM     12  C   UNL A   1      32.450  21.433  25.238  1.00  0.00     0.026 A 
ATOM     13  C   UNL A   1      32.407  21.958  26.533  1.00  0.00     0.041 A 
BRANCH  13  14
ATOM     14  N   UNL A   1      31.165  22.443  26.983  1.00  0.00    -0.326 N 
ATOM     15  C   UNL A   1      30.497  23.619  26.769  1.00  0.00     0.227 C 
ATOM     16  H   UNL A   1      30.683  21.814  27.566  1.00  0.00     0.169 HD
ATOM     17  O   UNL A   1      29.413  23.771  27.341  1.00  0.00    -0.274 OA
BRANCH  15  18
ATOM     18  C   UNL A   1      31.053  24.692  25.847  1.00  0.00     0.079 C 
ATOM     19  C   UNL A   1      30.123  25.883  25.614  1.00  0.00     0.013 C 
ATOM     20  C   UNL A   1      32.295  25.416  26.381  1.00  0.00     0.013 C 
ATOM     21  C   UNL A   1      31.026  26.855  24.869  1.00  0.00     0.001 C 
ATOM     22  C   UNL A   1      32.397  26.677  25.517  1.00  0.00     0.001 C 
ENDBRANCH  15  18
ENDBRANCH  13  14
ENDBRANCH   7   8
ENDBRANCH   5   7
ENDBRANCH   2   3
ENDBRANCH   1   2
BRANCH   1  23
ATOM     23  C   UNL A   1      41.616  22.940  27.170  1.00  0.00     0.118 C 
BRANCH  23  24
ATOM     24  N   UNL A   1      41.921  23.823  26.054  1.00  0.00    -0.352 N 
ATOM     25  C   UNL A   1      41.962  25.197  25.998  1.00  0.00     0.251 C 
ATOM     26  H   UNL A   1      42.130  23.366  25.208  1.00  0.00     0.163 HD
ATOM     27  O   UNL A   1      42.108  25.749  24.913  1.00  0.00    -0.269 OA
BRANCH  25  28
ATOM     28  C   UNL A   1      41.806  26.010  27.226  1.00  0.00     0.039 A 
ATOM     29  C   UNL A   1      42.793  26.949  27.538  1.00  0.00     0.014 A 
ATOM     30  C   UNL A   1      40.712  25.845  28.079  1.00  0.00     0.014 A 
ATOM     31  C   UNL A   1      42.649  27.766  28.664  1.00  0.00     0.010 A 
ATOM     32  C   UNL A   1      40.532  26.709  29.160  1.00  0.00     0.010 A 
ATOM     33  C   UNL A   1      41.498  27.681  29.464  1.00  0.00    -0.014 A 
BRANCH  33  34
ATOM     34  C   UNL A   1      41.283  28.608  30.607  1.00  0.00     0.031 A 
ATOM     35  C   UNL A   1      42.126  28.496  31.850  1.00  0.00     0.074 A 
ATOM     36  C   UNL A   1      40.285  29.514  30.554  1.00  0.00     0.049 A 
ATOM     37  N   UNL A   1      42.044  29.176  32.966  1.00  0.00    -0.248 NA
ATOM     38  C   UNL A   1      43.184  27.474  31.848  1.00  0.00     0.031 C 
ATOM     39  C   UNL A   1      39.374  29.704  29.422  1.00  0.00     0.029 A 
ATOM     40  N   UNL A   1      39.865  30.443  31.474  1.00  0.00    -0.354 N 
ATOM     41  C   UNL A   1      43.027  28.657  33.800  1.00  0.00     0.074 A 
ATOM     42  C   UNL A   1      43.659  27.571  33.081  1.00  0.00     0.031 C 
ATOM     43  C   UNL A   1      38.523  30.703  29.706  1.00  0.00     0.029 A 
ATOM     44  C   UNL A   1      38.793  31.194  31.053  1.00  0.00     0.049 A 
ATOM     45  H   UNL A   1      40.293  30.560  32.354  1.00  0.00     0.167 HD
ATOM     46  C   UNL A   1      43.385  29.056  35.045  1.00  0.00     0.031 A 
ATOM     47  C   UNL A   1      38.095  32.161  31.681  1.00  0.00     0.031 A 
ATOM     48  C   UNL A   1      42.757  30.138  35.758  1.00  0.00     0.049 A 
ATOM     49  C   UNL A   1      38.493  32.568  33.074  1.00  0.00     0.074 A 
ATOM     50  C   UNL A   1      43.083  30.651  37.002  1.00  0.00     0.029 A 
ATOM     51  N   UNL A   1      41.673  30.871  35.298  1.00  0.00    -0.354 N 
ATOM     52  N   UNL A   1      39.468  32.108  33.821  1.00  0.00    -0.248 NA
ATOM     53  C   UNL A   1      37.701  33.632  33.706  1.00  0.00     0.031 C 
ATOM     54  C   UNL A   1      42.158  31.650  37.321  1.00  0.00     0.029 A 
ATOM     55  C   UNL A   1      41.299  31.809  36.245  1.00  0.00     0.049 A 
ATOM     56  H   UNL A   1      41.235  30.743  34.425  1.00  0.00     0.167 HD
ATOM     57  C   UNL A   1      39.424  32.845  34.999  1.00  0.00     0.074 A 
ATOM     58  C   UNL A   1      38.338  33.794  34.857  1.00  0.00     0.031 C 
ATOM     59  C   UNL A   1      40.214  32.746  36.097  1.00  0.00     0.031 A 
BRANCH  46  60
ATOM     60  C   UNL A   1      44.504  28.308  35.726  1.00  0.00    -0.014 A 
ATOM     61  C   UNL A   1      45.842  28.725  35.599  1.00  0.00     0.010 A 
ATOM     62  C   UNL A   1      44.210  27.198  36.539  1.00  0.00     0.010 A 
ATOM     63  C   UNL A   1      46.867  28.022  36.237  1.00  0.00     0.020 A 
ATOM     64  C   UNL A   1      45.229  26.511  37.204  1.00  0.00     0.020 A 
ATOM     65  C   UNL A   1      46.554  26.917  37.034  1.00  0.00     0.054 A 
BRANCH  65  66
ATOM     66  S   UNL A   1      47.904  26.034  37.864  1.00  0.00     0.124 S 
ATOM     67  O   UNL A   1      47.176  25.018  38.622  1.00  0.00    -0.237 OA
ATOM     68  O   UNL A   1      48.695  25.534  36.742  1.00  0.00    -0.237 OA
ATOM     69  O   UNL A   1      48.551  27.066  38.670  1.00  0.00    -0.744 OA
ENDBRANCH  65  66
ENDBRANCH  46  60
BRANCH  47  70
ATOM     70  C   UNL A   1      36.949  32.818  30.993  1.00  0.00    -0.014 A 
ATOM     71  C   UNL A   1      37.168  33.840  30.052  1.00  0.00     0.010 A 
ATOM     72  C   UNL A   1      35.628  32.419  31.272  1.00  0.00     0.010 A 
ATOM     73  C   UNL A   1      36.089  34.463  29.418  1.00  0.00     0.020 A 
ATOM     74  C   UNL A   1      34.549  33.018  30.616  1.00  0.00     0.020 A 
ATOM     75  C   UNL A   1      34.786  34.046  29.702  1.00  0.00     0.054 A 
BRANCH  75  76
ATOM     76  S   UNL A   1      33.405  34.836  28.830  1.00  0.00     0.124 S 
ATOM     77  O   UNL A   1      33.052  33.824  27.840  1.00  0.00    -0.237 OA
ATOM     78  O   UNL A   1      32.432  35.041  29.901  1.00  0.00    -0.237 OA
ATOM     79  O   UNL A   1      33.995  36.060  28.293  1.00  0.00    -0.744 OA
ENDBRANCH  75  76
ENDBRANCH  47  70
BRANCH  59  80
ATOM     80  C   UNL A   1      39.957  33.710  37.228  1.00  0.00    -0.014 A 
ATOM     81  C   UNL A   1      40.545  34.987  37.248  1.00  0.00     0.010 A 
ATOM     82  C   UNL A   1      39.068  33.349  38.257  1.00  0.00     0.010 A 
ATOM     83  C   UNL A   1      40.275  35.873  38.296  1.00  0.00     0.020 A 
ATOM     84  C   UNL A   1      38.771  34.244  39.289  1.00  0.00     0.020 A 
ATOM     85  C   UNL A   1      39.389  35.495  39.309  1.00  0.00     0.054 A 
BRANCH  85  86
ATOM     86  S   UNL A   1      39.021  36.680  40.633  1.00  0.00     0.124 S 
ATOM     87  O   UNL A   1      38.259  35.860  41.571  1.00  0.00    -0.237 OA
ATOM     88  O   UNL A   1      40.352  37.078  41.084  1.00  0.00    -0.237 OA
ATOM     89  O   UNL A   1      38.258  37.728  39.959  1.00  0.00    -0.744 OA
ENDBRANCH  85  86
ENDBRANCH  59  80
ENDBRANCH  33  34
ENDBRANCH  25  28
ENDBRANCH  23  24
ENDBRANCH   1  23
TORSDOF 16
ENDMDL
