MODEL 1
REMARK VINA RESULT:     -12.2      0.000      0.000
REMARK SMILES COC(=O)[C@@H]1C[C@@H](C(=O)NCCCNC(=O)c2ccc(-c3c4nc(c(-c5ccc(S(=O)(=O)[O-])cc5)c5ccc([nH]5)c(-c5ccc(S(=O)(=O)[O-])cc5)c5nc(c(-c6ccc(S(=O)(=O)[O-])cc6)c6ccc3[nH]6)C=C5)C=C4)cc2)[C@@H](c2cccc(F)c2F)[N@H+]1C
REMARK SMILES IDX 12 1 11 2 10 3 8 4 9 5 7 7 5 8 6 9 86 10 77 11 87 12 3 14
REMARK SMILES IDX 4 15 2 16 1 17 78 18 79 19 84 20 80 21 82 22 85 23 81 24
REMARK SMILES IDX 83 25 13 26 14 27 15 28 16 30 17 31 18 32 76 33 19 34 75 35
REMARK SMILES IDX 20 36 21 37 22 38 69 39 23 40 74 41 68 42 70 43 24 44 73 45
REMARK SMILES IDX 67 46 66 47 25 49 55 50 36 51 54 52 37 53 40 54 53 55 71 56
REMARK SMILES IDX 38 57 39 58 52 60 72 61 41 62 26 63 27 64 35 65 28 66 34 67
REMARK SMILES IDX 29 68 30 69 31 70 32 71 33 72 56 73 57 74 65 75 58 76 64 77
REMARK SMILES IDX 59 78 60 79 61 80 62 81 63 82 42 83 43 84 51 85 44 86 50 87
REMARK SMILES IDX 45 88 46 89 47 90 48 91 49 92
REMARK H PARENT 10 6 86 13 14 29 70 48 40 59
REMARK Flexibility Score: inf
ROOT
ATOM      1  C   UNL A   1      39.085  22.650  26.599  1.00  0.00     0.042 C 
ENDROOT
BRANCH   1   2
ATOM      2  C   UNL A   1      38.011  23.622  26.131  1.00  0.00     0.117 C 
BRANCH   2   3
ATOM      3  N   UNL A   1      37.536  23.376  24.780  1.00  0.00    -0.356 N 
ATOM      4  C   UNL A   1      36.382  22.910  24.245  1.00  0.00     0.229 C 
ATOM      5  O   UNL A   1      36.333  22.905  23.008  1.00  0.00    -0.275 OA
ATOM      6  H   UNL A   1      38.208  23.599  24.095  1.00  0.00     0.163 HD
BRANCH   4   7
ATOM      7  C   UNL A   1      35.181  22.397  25.029  1.00  0.00     0.148 C 
ATOM      8  C   UNL A   1      33.276  21.154  24.218  1.00  0.00     0.296 C 
ATOM      9  C   UNL A   1      34.743  21.004  24.584  1.00  0.00     0.097 C 
ATOM     10  N   UNL A   1      32.873  22.168  25.198  1.00  0.00    -0.319 N 
ATOM     11  C   UNL A   1      33.883  23.249  25.269  1.00  0.00     0.231 C 
ATOM     12  C   UNL A   1      31.462  22.408  25.354  1.00  0.00     0.333 C 
ATOM     13  H   UNL A   1      32.916  21.788  26.145  1.00  0.00     0.349 HD
BRANCH   8  14
ATOM     14  C   UNL A   1      32.558  19.803  24.350  1.00  0.00     0.364 C 
ATOM     15  O   UNL A   1      32.406  19.179  25.390  1.00  0.00    -0.245 OA
BRANCH  14  16
ATOM     16  O   UNL A   1      32.155  19.356  23.123  1.00  0.00    -0.465 OA
ATOM     17  C   UNL A   1      32.536  18.012  22.827  1.00  0.00     0.282 C 
ENDBRANCH  14  16
ENDBRANCH   8  14
BRANCH  11  18
ATOM     18  C   UNL A   1      33.747  24.589  24.532  1.00  0.00     0.049 A 
ATOM     19  C   UNL A   1      33.745  25.785  25.294  1.00  0.00     0.013 A 
ATOM     20  C   UNL A   1      33.476  24.781  23.167  1.00  0.00     0.167 A 
ATOM     21  C   UNL A   1      33.689  27.066  24.720  1.00  0.00     0.004 A 
ATOM     22  C   UNL A   1      33.389  26.056  22.592  1.00  0.00     0.159 A 
ATOM     23  F   UNL A   1      33.244  23.767  22.334  1.00  0.00    -0.203 F 
ATOM     24  C   UNL A   1      33.535  27.203  23.351  1.00  0.00     0.042 A 
ATOM     25  F   UNL A   1      33.154  26.174  21.278  1.00  0.00    -0.204 F 
ENDBRANCH  11  18
ENDBRANCH   4   7
ENDBRANCH   2   3
ENDBRANCH   1   2
BRANCH   1  26
ATOM     26  C   UNL A   1      40.336  23.317  27.159  1.00  0.00     0.118 C 
BRANCH  26  27
ATOM     27  N   UNL A   1      41.069  24.027  26.125  1.00  0.00    -0.352 N 
ATOM     28  C   UNL A   1      41.368  25.365  26.043  1.00  0.00     0.251 C 
ATOM     29  H   UNL A   1      41.398  23.472  25.381  1.00  0.00     0.163 HD
ATOM     30  O   UNL A   1      41.743  25.829  24.968  1.00  0.00    -0.269 OA
BRANCH  28  31
ATOM     31  C   UNL A   1      41.241  26.249  27.227  1.00  0.00     0.039 A 
ATOM     32  C   UNL A   1      40.153  26.068  28.085  1.00  0.00     0.014 A 
ATOM     33  C   UNL A   1      42.139  27.298  27.455  1.00  0.00     0.014 A 
ATOM     34  C   UNL A   1      39.978  26.919  29.180  1.00  0.00     0.010 A 
ATOM     35  C   UNL A   1      41.996  28.108  28.584  1.00  0.00     0.010 A 
ATOM     36  C   UNL A   1      40.904  27.941  29.449  1.00  0.00    -0.014 A 
BRANCH  36  37
ATOM     37  C   UNL A   1      40.719  28.846  30.616  1.00  0.00     0.031 A 
ATOM     38  C   UNL A   1      41.589  28.711  31.839  1.00  0.00     0.074 A 
ATOM     39  C   UNL A   1      39.755  29.787  30.587  1.00  0.00     0.049 A 
ATOM     40  N   UNL A   1      41.583  29.420  32.939  1.00  0.00    -0.248 NA
ATOM     41  C   UNL A   1      42.587  27.629  31.829  1.00  0.00     0.031 C 
ATOM     42  C   UNL A   1      38.828  30.013  29.476  1.00  0.00     0.029 A 
ATOM     43  N   UNL A   1      39.398  30.735  31.515  1.00  0.00    -0.354 N 
ATOM     44  C   UNL A   1      42.563  28.866  33.756  1.00  0.00     0.074 A 
ATOM     45  C   UNL A   1      43.108  27.731  33.044  1.00  0.00     0.031 C 
ATOM     46  C   UNL A   1      38.035  31.056  29.772  1.00  0.00     0.029 A 
ATOM     47  C   UNL A   1      38.366  31.546  31.107  1.00  0.00     0.049 A 
ATOM     48  H   UNL A   1      39.840  30.824  32.390  1.00  0.00     0.167 HD
ATOM     49  C   UNL A   1      42.986  29.273  34.978  1.00  0.00     0.031 A 
ATOM     50  C   UNL A   1      37.751  32.569  31.732  1.00  0.00     0.031 A 
ATOM     51  C   UNL A   1      42.440  30.400  35.691  1.00  0.00     0.049 A 
ATOM     52  C   UNL A   1      38.211  32.983  33.103  1.00  0.00     0.074 A 
ATOM     53  C   UNL A   1      42.834  30.916  36.913  1.00  0.00     0.029 A 
ATOM     54  N   UNL A   1      41.379  31.177  35.253  1.00  0.00    -0.354 N 
ATOM     55  N   UNL A   1      39.183  32.485  33.831  1.00  0.00    -0.248 NA
ATOM     56  C   UNL A   1      37.500  34.105  33.731  1.00  0.00     0.031 C 
ATOM     57  C   UNL A   1      41.970  31.966  37.244  1.00  0.00     0.029 A 
ATOM     58  C   UNL A   1      41.082  32.149  36.195  1.00  0.00     0.049 A 
ATOM     59  H   UNL A   1      40.906  31.057  34.398  1.00  0.00     0.167 HD
ATOM     60  C   UNL A   1      39.216  33.251  34.992  1.00  0.00     0.074 A 
ATOM     61  C   UNL A   1      38.177  34.253  34.863  1.00  0.00     0.031 C 
ATOM     62  C   UNL A   1      40.038  33.136  36.065  1.00  0.00     0.031 A 
BRANCH  49  63
ATOM     63  C   UNL A   1      44.084  28.472  35.633  1.00  0.00    -0.014 A 
ATOM     64  C   UNL A   1      45.440  28.710  35.339  1.00  0.00     0.010 A 
ATOM     65  C   UNL A   1      43.756  27.477  36.574  1.00  0.00     0.010 A 
ATOM     66  C   UNL A   1      46.440  27.929  35.923  1.00  0.00     0.020 A 
ATOM     67  C   UNL A   1      44.757  26.715  37.185  1.00  0.00     0.020 A 
ATOM     68  C   UNL A   1      46.092  26.931  36.836  1.00  0.00     0.054 A 
BRANCH  68  69
ATOM     69  S   UNL A   1      47.410  25.924  37.570  1.00  0.00     0.124 S 
ATOM     70  O   UNL A   1      47.570  26.547  38.882  1.00  0.00    -0.237 OA
ATOM     71  O   UNL A   1      46.825  24.586  37.579  1.00  0.00    -0.237 OA
ATOM     72  O   UNL A   1      48.535  26.103  36.656  1.00  0.00    -0.744 OA
ENDBRANCH  68  69
ENDBRANCH  49  63
BRANCH  50  73
ATOM     73  C   UNL A   1      36.643  33.292  31.046  1.00  0.00    -0.014 A 
ATOM     74  C   UNL A   1      35.402  33.462  31.682  1.00  0.00     0.010 A 
ATOM     75  C   UNL A   1      36.838  33.845  29.767  1.00  0.00     0.010 A 
ATOM     76  C   UNL A   1      34.374  34.170  31.053  1.00  0.00     0.020 A 
ATOM     77  C   UNL A   1      35.822  34.578  29.146  1.00  0.00     0.020 A 
ATOM     78  C   UNL A   1      34.594  34.730  29.791  1.00  0.00     0.054 A 
BRANCH  78  79
ATOM     79  S   UNL A   1      33.270  35.710  29.028  1.00  0.00     0.124 S 
ATOM     80  O   UNL A   1      34.024  36.672  28.231  1.00  0.00    -0.237 OA
ATOM     81  O   UNL A   1      32.530  34.703  28.273  1.00  0.00    -0.237 OA
ATOM     82  O   UNL A   1      32.554  36.269  30.173  1.00  0.00    -0.744 OA
ENDBRANCH  78  79
ENDBRANCH  50  73
BRANCH  62  83
ATOM     83  C   UNL A   1      39.870  34.136  37.182  1.00  0.00    -0.014 A 
ATOM     84  C   UNL A   1      40.672  35.289  37.259  1.00  0.00     0.010 A 
ATOM     85  C   UNL A   1      38.856  33.942  38.138  1.00  0.00     0.010 A 
ATOM     86  C   UNL A   1      40.483  36.213  38.291  1.00  0.00     0.020 A 
ATOM     87  C   UNL A   1      38.644  34.880  39.153  1.00  0.00     0.020 A 
ATOM     88  C   UNL A   1      39.469  36.003  39.232  1.00  0.00     0.054 A 
BRANCH  88  89
ATOM     89  S   UNL A   1      39.216  37.239  40.534  1.00  0.00     0.124 S 
ATOM     90  O   UNL A   1      38.830  36.408  41.672  1.00  0.00    -0.237 OA
ATOM     91  O   UNL A   1      40.530  37.871  40.636  1.00  0.00    -0.237 OA
ATOM     92  O   UNL A   1      38.160  38.095  40.001  1.00  0.00    -0.744 OA
ENDBRANCH  88  89
ENDBRANCH  62  83
ENDBRANCH  36  37
ENDBRANCH  28  31
ENDBRANCH  26  27
ENDBRANCH   1  26
TORSDOF 16
ENDMDL
MODEL 2
REMARK VINA RESULT:     -12.1      0.544      8.135
REMARK SMILES COC(=O)[C@@H]1C[C@@H](C(=O)NCCCNC(=O)c2ccc(-c3c4nc(c(-c5ccc(S(=O)(=O)[O-])cc5)c5ccc([nH]5)c(-c5ccc(S(=O)(=O)[O-])cc5)c5nc(c(-c6ccc(S(=O)(=O)[O-])cc6)c6ccc3[nH]6)C=C5)C=C4)cc2)[C@@H](c2cccc(F)c2F)[N@H+]1C
REMARK SMILES IDX 12 1 11 2 10 3 8 4 9 5 7 7 5 8 6 9 86 10 77 11 87 12 3 14
REMARK SMILES IDX 4 15 2 16 1 17 78 18 79 19 84 20 80 21 82 22 85 23 81 24
REMARK SMILES IDX 83 25 13 26 14 27 15 28 16 30 17 31 18 32 76 33 19 34 75 35
REMARK SMILES IDX 20 36 21 37 22 38 69 39 23 40 74 41 68 42 70 43 24 44 73 45
REMARK SMILES IDX 67 46 66 47 25 49 55 50 36 51 54 52 37 53 40 54 53 55 71 56
REMARK SMILES IDX 38 57 39 58 52 60 72 61 41 62 26 63 27 64 35 65 28 66 34 67
REMARK SMILES IDX 29 68 30 69 31 70 32 71 33 72 56 73 57 74 65 75 58 76 64 77
REMARK SMILES IDX 59 78 60 79 61 80 62 81 63 82 42 83 43 84 51 85 44 86 50 87
REMARK SMILES IDX 45 88 46 89 47 90 48 91 49 92
REMARK H PARENT 10 6 86 13 14 29 70 48 40 59
REMARK Flexibility Score: inf
ROOT
ATOM      1  C   UNL A   1      39.323  22.625  26.440  1.00  0.00     0.042 C 
ENDROOT
BRANCH   1   2
ATOM      2  C   UNL A   1      38.096  23.464  26.115  1.00  0.00     0.117 C 
BRANCH   2   3
ATOM      3  N   UNL A   1      37.601  23.290  24.759  1.00  0.00    -0.356 N 
ATOM      4  C   UNL A   1      36.420  22.910  24.216  1.00  0.00     0.229 C 
ATOM      5  O   UNL A   1      36.366  22.948  22.980  1.00  0.00    -0.275 OA
ATOM      6  H   UNL A   1      38.283  23.495  24.078  1.00  0.00     0.163 HD
BRANCH   4   7
ATOM      7  C   UNL A   1      35.193  22.445  24.990  1.00  0.00     0.148 C 
ATOM      8  C   UNL A   1      33.304  21.171  24.189  1.00  0.00     0.296 C 
ATOM      9  C   UNL A   1      34.759  21.032  24.605  1.00  0.00     0.097 C 
ATOM     10  N   UNL A   1      32.880  22.236  25.105  1.00  0.00    -0.319 N 
ATOM     11  C   UNL A   1      33.895  23.314  25.149  1.00  0.00     0.231 C 
ATOM     12  C   UNL A   1      31.466  22.491  25.207  1.00  0.00     0.333 C 
ATOM     13  H   UNL A   1      32.894  21.905  26.070  1.00  0.00     0.349 HD
BRANCH   8  14
ATOM     14  C   UNL A   1      32.573  19.832  24.369  1.00  0.00     0.364 C 
ATOM     15  O   UNL A   1      32.421  19.245  25.430  1.00  0.00    -0.245 OA
BRANCH  14  16
ATOM     16  O   UNL A   1      32.160  19.349  23.159  1.00  0.00    -0.465 OA
ATOM     17  C   UNL A   1      32.642  18.042  22.847  1.00  0.00     0.282 C 
ENDBRANCH  14  16
ENDBRANCH   8  14
BRANCH  11  18
ATOM     18  C   UNL A   1      33.789  24.616  24.341  1.00  0.00     0.049 A 
ATOM     19  C   UNL A   1      33.854  25.851  25.034  1.00  0.00     0.013 A 
ATOM     20  C   UNL A   1      33.486  24.742  22.976  1.00  0.00     0.167 A 
ATOM     21  C   UNL A   1      33.830  27.099  24.390  1.00  0.00     0.004 A 
ATOM     22  C   UNL A   1      33.431  25.986  22.332  1.00  0.00     0.159 A 
ATOM     23  F   UNL A   1      33.192  23.693  22.208  1.00  0.00    -0.203 F 
ATOM     24  C   UNL A   1      33.643  27.166  23.020  1.00  0.00     0.042 A 
ATOM     25  F   UNL A   1      33.163  26.039  21.020  1.00  0.00    -0.204 F 
ENDBRANCH  11  18
ENDBRANCH   4   7
ENDBRANCH   2   3
ENDBRANCH   1   2
BRANCH   1  26
ATOM     26  C   UNL A   1      40.486  23.415  27.030  1.00  0.00     0.118 C 
BRANCH  26  27
ATOM     27  N   UNL A   1      41.189  24.171  26.008  1.00  0.00    -0.352 N 
ATOM     28  C   UNL A   1      41.473  25.514  25.969  1.00  0.00     0.251 C 
ATOM     29  H   UNL A   1      41.507  23.648  25.237  1.00  0.00     0.163 HD
ATOM     30  O   UNL A   1      41.819  26.022  24.905  1.00  0.00    -0.269 OA
BRANCH  28  31
ATOM     31  C   UNL A   1      41.364  26.352  27.188  1.00  0.00     0.039 A 
ATOM     32  C   UNL A   1      40.238  26.207  28.003  1.00  0.00     0.014 A 
ATOM     33  C   UNL A   1      42.320  27.328  27.492  1.00  0.00     0.014 A 
ATOM     34  C   UNL A   1      40.082  27.019  29.130  1.00  0.00     0.010 A 
ATOM     35  C   UNL A   1      42.192  28.096  28.653  1.00  0.00     0.010 A 
ATOM     36  C   UNL A   1      41.063  27.964  29.474  1.00  0.00    -0.014 A 
BRANCH  36  37
ATOM     37  C   UNL A   1      40.898  28.828  30.675  1.00  0.00     0.031 A 
ATOM     38  C   UNL A   1      39.817  29.877  30.723  1.00  0.00     0.074 A 
ATOM     39  C   UNL A   1      41.729  28.682  31.726  1.00  0.00     0.049 A 
ATOM     40  N   UNL A   1      39.514  30.707  31.689  1.00  0.00    -0.248 NA
ATOM     41  C   UNL A   1      38.978  30.023  29.523  1.00  0.00     0.031 C 
ATOM     42  C   UNL A   1      42.831  27.720  31.804  1.00  0.00     0.029 A 
ATOM     43  N   UNL A   1      41.774  29.336  32.933  1.00  0.00    -0.354 N 
ATOM     44  C   UNL A   1      38.459  31.479  31.212  1.00  0.00     0.074 A 
ATOM     45  C   UNL A   1      38.210  31.052  29.853  1.00  0.00     0.031 C 
ATOM     46  C   UNL A   1      43.417  27.823  33.007  1.00  0.00     0.029 A 
ATOM     47  C   UNL A   1      42.765  28.882  33.770  1.00  0.00     0.049 A 
ATOM     48  H   UNL A   1      41.155  30.062  33.174  1.00  0.00     0.167 HD
ATOM     49  C   UNL A   1      37.750  32.442  31.851  1.00  0.00     0.031 A 
ATOM     50  C   UNL A   1      43.113  29.271  35.012  1.00  0.00     0.031 A 
ATOM     51  C   UNL A   1      38.001  32.872  33.202  1.00  0.00     0.049 A 
ATOM     52  C   UNL A   1      42.336  30.366  35.690  1.00  0.00     0.074 A 
ATOM     53  C   UNL A   1      37.307  33.808  33.950  1.00  0.00     0.029 A 
ATOM     54  N   UNL A   1      39.031  32.405  34.005  1.00  0.00    -0.354 N 
ATOM     55  N   UNL A   1      41.301  31.039  35.245  1.00  0.00    -0.248 NA
ATOM     56  C   UNL A   1      42.765  30.745  37.043  1.00  0.00     0.031 C 
ATOM     57  C   UNL A   1      37.955  33.952  35.182  1.00  0.00     0.029 A 
ATOM     58  C   UNL A   1      39.011  33.055  35.229  1.00  0.00     0.049 A 
ATOM     59  H   UNL A   1      39.680  31.711  33.745  1.00  0.00     0.167 HD
ATOM     60  C   UNL A   1      40.941  31.903  36.274  1.00  0.00     0.074 A 
ATOM     61  C   UNL A   1      41.859  31.657  37.368  1.00  0.00     0.031 C 
ATOM     62  C   UNL A   1      39.935  32.814  36.309  1.00  0.00     0.031 A 
BRANCH  49  63
ATOM     63  C   UNL A   1      36.644  33.115  31.078  1.00  0.00    -0.014 A 
ATOM     64  C   UNL A   1      36.917  33.899  29.941  1.00  0.00     0.010 A 
ATOM     65  C   UNL A   1      35.306  32.948  31.483  1.00  0.00     0.010 A 
ATOM     66  C   UNL A   1      35.883  34.550  29.262  1.00  0.00     0.020 A 
ATOM     67  C   UNL A   1      34.266  33.572  30.787  1.00  0.00     0.020 A 
ATOM     68  C   UNL A   1      34.564  34.389  29.695  1.00  0.00     0.054 A 
BRANCH  68  69
ATOM     69  S   UNL A   1      33.244  35.256  28.804  1.00  0.00     0.124 S 
ATOM     70  O   UNL A   1      33.995  36.265  28.061  1.00  0.00    -0.237 OA
ATOM     71  O   UNL A   1      32.651  34.194  27.996  1.00  0.00    -0.237 OA
ATOM     72  O   UNL A   1      32.389  35.777  29.868  1.00  0.00    -0.744 OA
ENDBRANCH  68  69
ENDBRANCH  49  63
BRANCH  50  73
ATOM     73  C   UNL A   1      44.244  28.594  35.705  1.00  0.00    -0.014 A 
ATOM     74  C   UNL A   1      45.555  29.083  35.575  1.00  0.00     0.010 A 
ATOM     75  C   UNL A   1      44.009  27.477  36.530  1.00  0.00     0.010 A 
ATOM     76  C   UNL A   1      46.612  28.468  36.252  1.00  0.00     0.020 A 
ATOM     77  C   UNL A   1      45.059  26.877  37.231  1.00  0.00     0.020 A 
ATOM     78  C   UNL A   1      46.355  27.373  37.083  1.00  0.00     0.054 A 
BRANCH  78  79
ATOM     79  S   UNL A   1      47.731  26.641  38.013  1.00  0.00     0.124 S 
ATOM     80  O   UNL A   1      47.122  26.394  39.316  1.00  0.00    -0.237 OA
ATOM     81  O   UNL A   1      48.044  25.452  37.225  1.00  0.00    -0.237 OA
ATOM     82  O   UNL A   1      48.755  27.682  37.987  1.00  0.00    -0.744 OA
ENDBRANCH  78  79
ENDBRANCH  50  73
BRANCH  62  83
ATOM     83  C   UNL A   1      39.752  33.599  37.584  1.00  0.00    -0.014 A 
ATOM     84  C   UNL A   1      40.383  34.842  37.776  1.00  0.00     0.010 A 
ATOM     85  C   UNL A   1      38.890  33.108  38.582  1.00  0.00     0.010 A 
ATOM     86  C   UNL A   1      40.180  35.563  38.957  1.00  0.00     0.020 A 
ATOM     87  C   UNL A   1      38.661  33.841  39.751  1.00  0.00     0.020 A 
ATOM     88  C   UNL A   1      39.319  35.057  39.937  1.00  0.00     0.054 A 
BRANCH  88  89
ATOM     89  S   UNL A   1      39.039  36.033  41.440  1.00  0.00     0.124 S 
ATOM     90  O   UNL A   1      40.255  35.770  42.204  1.00  0.00    -0.237 OA
ATOM     91  O   UNL A   1      38.906  37.392  40.920  1.00  0.00    -0.237 OA
ATOM     92  O   UNL A   1      37.816  35.464  42.001  1.00  0.00    -0.744 OA
ENDBRANCH  88  89
ENDBRANCH  62  83
ENDBRANCH  36  37
ENDBRANCH  28  31
ENDBRANCH  26  27
ENDBRANCH   1  26
TORSDOF 16
ENDMDL
MODEL 3
REMARK VINA RESULT:     -11.9      6.505     12.069
REMARK SMILES COC(=O)[C@@H]1C[C@@H](C(=O)NCCCNC(=O)c2ccc(-c3c4nc(c(-c5ccc(S(=O)(=O)[O-])cc5)c5ccc([nH]5)c(-c5ccc(S(=O)(=O)[O-])cc5)c5nc(c(-c6ccc(S(=O)(=O)[O-])cc6)c6ccc3[nH]6)C=C5)C=C4)cc2)[C@@H](c2cccc(F)c2F)[N@H+]1C
REMARK SMILES IDX 12 1 11 2 10 3 8 4 9 5 7 7 5 8 6 9 86 10 77 11 87 12 3 14
REMARK SMILES IDX 4 15 2 16 1 17 78 18 79 19 84 20 80 21 82 22 85 23 81 24
REMARK SMILES IDX 83 25 13 26 14 27 15 28 16 30 17 31 18 32 76 33 19 34 75 35
REMARK SMILES IDX 20 36 21 37 22 38 69 39 23 40 74 41 68 42 70 43 24 44 73 45
REMARK SMILES IDX 67 46 66 47 25 49 55 50 36 51 54 52 37 53 40 54 53 55 71 56
REMARK SMILES IDX 38 57 39 58 52 60 72 61 41 62 26 63 27 64 35 65 28 66 34 67
REMARK SMILES IDX 29 68 30 69 31 70 32 71 33 72 56 73 57 74 65 75 58 76 64 77
REMARK SMILES IDX 59 78 60 79 61 80 62 81 63 82 42 83 43 84 51 85 44 86 50 87
REMARK SMILES IDX 45 88 46 89 47 90 48 91 49 92
REMARK H PARENT 10 6 86 13 14 29 70 48 40 59
REMARK Flexibility Score: inf
ROOT
ATOM      1  C   UNL A   1      34.490  31.286  27.680  1.00  0.00     0.042 C 
ENDROOT
BRANCH   1   2
ATOM      2  C   UNL A   1      34.435  29.779  27.469  1.00  0.00     0.117 C 
BRANCH   2   3
ATOM      3  N   UNL A   1      33.114  29.202  27.658  1.00  0.00    -0.356 N 
ATOM      4  C   UNL A   1      32.194  28.640  26.839  1.00  0.00     0.229 C 
ATOM      5  O   UNL A   1      31.185  28.192  27.401  1.00  0.00    -0.275 OA
ATOM      6  H   UNL A   1      32.821  29.225  28.598  1.00  0.00     0.163 HD
BRANCH   4   7
ATOM      7  C   UNL A   1      32.299  28.530  25.323  1.00  0.00     0.148 C 
ATOM      8  C   UNL A   1      30.523  28.271  23.707  1.00  0.00     0.296 C 
ATOM      9  C   UNL A   1      31.195  29.299  24.602  1.00  0.00     0.097 C 
ATOM     10  N   UNL A   1      31.681  27.439  23.364  1.00  0.00    -0.319 N 
ATOM     11  C   UNL A   1      32.496  27.165  24.571  1.00  0.00     0.231 C 
ATOM     12  C   UNL A   1      31.511  26.479  22.304  1.00  0.00     0.333 C 
ATOM     13  H   UNL A   1      32.341  27.963  22.789  1.00  0.00     0.349 HD
BRANCH   8  14
ATOM     14  C   UNL A   1      29.850  28.968  22.515  1.00  0.00     0.364 C 
ATOM     15  O   UNL A   1      30.329  29.890  21.870  1.00  0.00    -0.245 OA
BRANCH  14  16
ATOM     16  O   UNL A   1      28.602  28.453  22.305  1.00  0.00    -0.465 OA
ATOM     17  C   UNL A   1      27.567  29.080  23.065  1.00  0.00     0.282 C 
ENDBRANCH  14  16
ENDBRANCH   8  14
BRANCH  11  18
ATOM     18  C   UNL A   1      32.399  25.867  25.385  1.00  0.00     0.049 A 
ATOM     19  C   UNL A   1      33.581  25.114  25.602  1.00  0.00     0.013 A 
ATOM     20  C   UNL A   1      31.229  25.237  25.839  1.00  0.00     0.167 A 
ATOM     21  C   UNL A   1      33.620  23.946  26.383  1.00  0.00     0.004 A 
ATOM     22  C   UNL A   1      31.257  24.056  26.593  1.00  0.00     0.159 A 
ATOM     23  F   UNL A   1      30.012  25.696  25.550  1.00  0.00    -0.203 F 
ATOM     24  C   UNL A   1      32.448  23.426  26.906  1.00  0.00     0.042 A 
ATOM     25  F   UNL A   1      30.107  23.516  27.019  1.00  0.00    -0.204 F 
ENDBRANCH  11  18
ENDBRANCH   4   7
ENDBRANCH   2   3
ENDBRANCH   1   2
BRANCH   1  26
ATOM     26  C   UNL A   1      35.681  31.762  28.504  1.00  0.00     0.118 C 
BRANCH  26  27
ATOM     27  N   UNL A   1      35.549  31.382  29.900  1.00  0.00    -0.352 N 
ATOM     28  C   UNL A   1      36.374  30.589  30.660  1.00  0.00     0.251 C 
ATOM     29  H   UNL A   1      34.761  31.743  30.365  1.00  0.00     0.163 HD
ATOM     30  O   UNL A   1      35.959  30.147  31.729  1.00  0.00    -0.269 OA
BRANCH  28  31
ATOM     31  C   UNL A   1      37.747  30.261  30.206  1.00  0.00     0.039 A 
ATOM     32  C   UNL A   1      37.981  30.102  28.838  1.00  0.00     0.014 A 
ATOM     33  C   UNL A   1      38.784  30.034  31.119  1.00  0.00     0.014 A 
ATOM     34  C   UNL A   1      39.253  29.742  28.383  1.00  0.00     0.010 A 
ATOM     35  C   UNL A   1      40.068  29.734  30.658  1.00  0.00     0.010 A 
ATOM     36  C   UNL A   1      40.313  29.566  29.288  1.00  0.00    -0.014 A 
BRANCH  36  37
ATOM     37  C   UNL A   1      41.668  29.183  28.804  1.00  0.00     0.031 A 
ATOM     38  C   UNL A   1      42.778  30.201  28.744  1.00  0.00     0.074 A 
ATOM     39  C   UNL A   1      41.904  27.919  28.401  1.00  0.00     0.049 A 
ATOM     40  N   UNL A   1      44.023  30.045  28.368  1.00  0.00    -0.248 NA
ATOM     41  C   UNL A   1      42.442  31.576  29.146  1.00  0.00     0.031 C 
ATOM     42  C   UNL A   1      40.915  26.839  28.386  1.00  0.00     0.029 A 
ATOM     43  N   UNL A   1      43.050  27.324  27.933  1.00  0.00    -0.354 N 
ATOM     44  C   UNL A   1      44.614  31.299  28.477  1.00  0.00     0.074 A 
ATOM     45  C   UNL A   1      43.579  32.214  28.905  1.00  0.00     0.031 C 
ATOM     46  C   UNL A   1      41.506  25.709  27.967  1.00  0.00     0.029 A 
ATOM     47  C   UNL A   1      42.902  25.989  27.645  1.00  0.00     0.049 A 
ATOM     48  H   UNL A   1      43.898  27.810  27.815  1.00  0.00     0.167 HD
ATOM     49  C   UNL A   1      45.904  31.656  28.258  1.00  0.00     0.031 A 
ATOM     50  C   UNL A   1      43.785  25.087  27.173  1.00  0.00     0.031 A 
ATOM     51  C   UNL A   1      46.934  30.747  27.826  1.00  0.00     0.049 A 
ATOM     52  C   UNL A   1      45.203  25.511  26.904  1.00  0.00     0.074 A 
ATOM     53  C   UNL A   1      48.279  31.005  27.622  1.00  0.00     0.029 A 
ATOM     54  N   UNL A   1      46.735  29.409  27.520  1.00  0.00    -0.354 N 
ATOM     55  N   UNL A   1      45.758  26.688  27.074  1.00  0.00    -0.248 NA
ATOM     56  C   UNL A   1      46.118  24.482  26.390  1.00  0.00     0.031 C 
ATOM     57  C   UNL A   1      48.880  29.840  27.133  1.00  0.00     0.029 A 
ATOM     58  C   UNL A   1      47.925  28.836  27.099  1.00  0.00     0.049 A 
ATOM     59  H   UNL A   1      45.875  28.935  27.593  1.00  0.00     0.167 HD
ATOM     60  C   UNL A   1      47.092  26.534  26.713  1.00  0.00     0.074 A 
ATOM     61  C   UNL A   1      47.264  25.147  26.329  1.00  0.00     0.031 C 
ATOM     62  C   UNL A   1      48.086  27.458  26.706  1.00  0.00     0.031 A 
BRANCH  49  63
ATOM     63  C   UNL A   1      46.266  33.106  28.463  1.00  0.00    -0.014 A 
ATOM     64  C   UNL A   1      46.703  33.582  29.714  1.00  0.00     0.010 A 
ATOM     65  C   UNL A   1      46.185  34.005  27.383  1.00  0.00     0.010 A 
ATOM     66  C   UNL A   1      46.992  34.937  29.895  1.00  0.00     0.020 A 
ATOM     67  C   UNL A   1      46.504  35.356  27.553  1.00  0.00     0.020 A 
ATOM     68  C   UNL A   1      46.883  35.817  28.816  1.00  0.00     0.054 A 
BRANCH  68  69
ATOM     69  S   UNL A   1      47.252  37.573  29.083  1.00  0.00     0.124 S 
ATOM     70  O   UNL A   1      46.183  38.223  28.327  1.00  0.00    -0.237 OA
ATOM     71  O   UNL A   1      47.161  37.703  30.535  1.00  0.00    -0.237 OA
ATOM     72  O   UNL A   1      48.593  37.735  28.528  1.00  0.00    -0.744 OA
ENDBRANCH  68  69
ENDBRANCH  49  63
BRANCH  50  73
ATOM     73  C   UNL A   1      43.352  23.679  26.951  1.00  0.00    -0.014 A 
ATOM     74  C   UNL A   1      43.114  22.826  28.042  1.00  0.00     0.010 A 
ATOM     75  C   UNL A   1      43.141  23.197  25.646  1.00  0.00     0.010 A 
ATOM     76  C   UNL A   1      42.675  21.516  27.835  1.00  0.00     0.020 A 
ATOM     77  C   UNL A   1      42.674  21.896  25.436  1.00  0.00     0.020 A 
ATOM     78  C   UNL A   1      42.450  21.062  26.532  1.00  0.00     0.054 A 
BRANCH  78  79
ATOM     79  S   UNL A   1      41.805  19.382  26.292  1.00  0.00     0.124 S 
ATOM     80  O   UNL A   1      42.211  18.720  27.528  1.00  0.00    -0.237 OA
ATOM     81  O   UNL A   1      40.372  19.615  26.139  1.00  0.00    -0.237 OA
ATOM     82  O   UNL A   1      42.486  18.923  25.083  1.00  0.00    -0.744 OA
ENDBRANCH  78  79
ENDBRANCH  50  73
BRANCH  62  83
ATOM     83  C   UNL A   1      49.462  26.998  26.296  1.00  0.00    -0.014 A 
ATOM     84  C   UNL A   1      50.310  26.329  27.197  1.00  0.00     0.010 A 
ATOM     85  C   UNL A   1      49.891  27.192  24.969  1.00  0.00     0.010 A 
ATOM     86  C   UNL A   1      51.574  25.892  26.787  1.00  0.00     0.020 A 
ATOM     87  C   UNL A   1      51.141  26.729  24.548  1.00  0.00     0.020 A 
ATOM     88  C   UNL A   1      51.981  26.094  25.464  1.00  0.00     0.054 A 
BRANCH  88  89
ATOM     89  S   UNL A   1      53.606  25.479  24.946  1.00  0.00     0.124 S 
ATOM     90  O   UNL A   1      53.618  25.809  23.523  1.00  0.00    -0.237 OA
ATOM     91  O   UNL A   1      54.523  26.256  25.778  1.00  0.00    -0.237 OA
ATOM     92  O   UNL A   1      53.552  24.052  25.254  1.00  0.00    -0.744 OA
ENDBRANCH  88  89
ENDBRANCH  62  83
ENDBRANCH  36  37
ENDBRANCH  28  31
ENDBRANCH  26  27
ENDBRANCH   1  26
TORSDOF 16
ENDMDL
