MODEL 1
REMARK VINA RESULT:      -9.2      0.000      0.000
REMARK SMILES O=C(COCCNc1nncs1)NCCCNC(=O)c1ccc(-c2c3nc(c(-c4ccc(S(=O)(=O)[O-])cc4)c4ccc([nH]4)c(-c4ccc(S(=O)(=O)[O-])cc4)c4nc(c(-c5ccc(S(=O)(=O)[O-])cc5)c5ccc2[nH]5)C=C4)C=C3)cc1
REMARK SMILES IDX 14 1 13 2 1 3 2 4 3 6 4 7 5 8 6 9 7 10 8 12 9 13 12 14 10 15
REMARK SMILES IDX 11 16 15 17 16 18 17 19 18 20 19 22 20 23 21 24 79 25 22 26
REMARK SMILES IDX 78 27 23 28 24 29 25 30 72 31 26 32 77 33 71 34 73 35 27 36
REMARK SMILES IDX 76 37 70 38 69 39 28 41 58 42 39 43 57 44 40 45 43 46 56 47
REMARK SMILES IDX 74 48 41 49 42 50 55 52 75 53 44 54 29 55 30 56 38 57 31 58
REMARK SMILES IDX 37 59 32 60 33 61 34 62 35 63 36 64 59 65 60 66 68 67 61 68
REMARK SMILES IDX 67 69 62 70 63 71 64 72 65 73 66 74 45 75 46 76 54 77 47 78
REMARK SMILES IDX 53 79 48 80 49 81 50 82 51 83 52 84
REMARK H PARENT 13 5 7 11 17 21 73 40 43 51
REMARK Flexibility Score: inf
ROOT
ATOM      1  C   UNL A   1      33.205  28.348  24.874  1.00  0.00     0.117 C 
ENDROOT
BRANCH   1   2
ATOM      2  N   UNL A   1      32.030  27.520  24.700  1.00  0.00    -0.354 N 
ATOM      3  O   UNL A   1      32.986  25.996  23.261  1.00  0.00    -0.272 OA
ATOM      4  C   UNL A   1      32.032  26.379  23.929  1.00  0.00     0.245 C 
ATOM      5  H   UNL A   1      31.196  27.784  25.153  1.00  0.00     0.163 HD
BRANCH   4   6
ATOM      6  C   UNL A   1      30.706  25.613  23.977  1.00  0.00     0.260 C 
BRANCH   6   7
ATOM      7  O   UNL A   1      30.787  24.208  23.779  1.00  0.00    -0.370 OA
BRANCH   7   8
ATOM      8  C   UNL A   1      30.985  23.419  24.961  1.00  0.00     0.182 C 
BRANCH   8   9
ATOM      9  C   UNL A   1      32.302  22.622  25.001  1.00  0.00     0.143 C 
BRANCH   9  10
ATOM     10  N   UNL A   1      33.106  22.855  23.819  1.00  0.00    -0.358 N 
ATOM     11  H   UNL A   1      32.623  23.125  23.006  1.00  0.00     0.163 HD
BRANCH  10  12
ATOM     12  C   UNL A   1      34.450  22.741  23.714  1.00  0.00     0.205 A 
ATOM     13  N   UNL A   1      35.114  23.331  22.740  1.00  0.00    -0.121 NA
ATOM     14  S   UNL A   1      35.477  21.828  24.756  1.00  0.00    -0.083 S 
ATOM     15  N   UNL A   1      36.473  23.106  22.783  1.00  0.00    -0.145 NA
ATOM     16  C   UNL A   1      36.796  22.329  23.789  1.00  0.00     0.204 A 
ENDBRANCH  10  12
ENDBRANCH   9  10
ENDBRANCH   8   9
ENDBRANCH   7   8
ENDBRANCH   6   7
ENDBRANCH   4   6
ENDBRANCH   1   2
BRANCH   1  17
ATOM     17  C   UNL A   1      34.019  27.983  26.109  1.00  0.00     0.042 C 
BRANCH  17  18
ATOM     18  C   UNL A   1      33.391  28.411  27.432  1.00  0.00     0.118 C 
BRANCH  18  19
ATOM     19  N   UNL A   1      33.427  29.850  27.653  1.00  0.00    -0.352 N 
ATOM     20  C   UNL A   1      34.448  30.655  28.109  1.00  0.00     0.251 C 
ATOM     21  H   UNL A   1      32.590  30.323  27.442  1.00  0.00     0.163 HD
ATOM     22  O   UNL A   1      34.229  31.836  28.334  1.00  0.00    -0.269 OA
BRANCH  20  23
ATOM     23  C   UNL A   1      35.792  30.086  28.360  1.00  0.00     0.039 A 
ATOM     24  C   UNL A   1      36.724  30.086  27.318  1.00  0.00     0.014 A 
ATOM     25  C   UNL A   1      36.137  29.559  29.606  1.00  0.00     0.014 A 
ATOM     26  C   UNL A   1      38.029  29.644  27.554  1.00  0.00     0.010 A 
ATOM     27  C   UNL A   1      37.455  29.181  29.858  1.00  0.00     0.010 A 
ATOM     28  C   UNL A   1      38.418  29.235  28.839  1.00  0.00    -0.014 A 
BRANCH  28  29
ATOM     29  C   UNL A   1      39.834  28.905  29.151  1.00  0.00     0.031 A 
ATOM     30  C   UNL A   1      40.750  29.943  29.737  1.00  0.00     0.074 A 
ATOM     31  C   UNL A   1      40.315  27.687  28.828  1.00  0.00     0.049 A 
ATOM     32  N   UNL A   1      42.031  29.862  29.991  1.00  0.00    -0.248 NA
ATOM     33  C   UNL A   1      40.155  31.249  30.061  1.00  0.00     0.031 C 
ATOM     34  C   UNL A   1      39.540  26.602  28.221  1.00  0.00     0.029 A 
ATOM     35  N   UNL A   1      41.579  27.162  28.951  1.00  0.00    -0.354 N 
ATOM     36  C   UNL A   1      42.399  31.106  30.488  1.00  0.00     0.074 A 
ATOM     37  C   UNL A   1      41.215  31.937  30.462  1.00  0.00     0.031 C 
ATOM     38  C   UNL A   1      40.337  25.536  28.044  1.00  0.00     0.029 A 
ATOM     39  C   UNL A   1      41.689  25.875  28.479  1.00  0.00     0.049 A 
ATOM     40  H   UNL A   1      42.333  27.658  29.341  1.00  0.00     0.167 HD
ATOM     41  C   UNL A   1      43.611  31.517  30.937  1.00  0.00     0.031 A 
ATOM     42  C   UNL A   1      42.758  25.060  28.388  1.00  0.00     0.031 A 
ATOM     43  C   UNL A   1      44.786  30.688  30.965  1.00  0.00     0.049 A 
ATOM     44  C   UNL A   1      44.097  25.547  28.868  1.00  0.00     0.074 A 
ATOM     45  C   UNL A   1      46.045  30.998  31.455  1.00  0.00     0.029 A 
ATOM     46  N   UNL A   1      44.857  29.391  30.480  1.00  0.00    -0.354 N 
ATOM     47  N   UNL A   1      44.409  26.708  29.395  1.00  0.00    -0.248 NA
ATOM     48  C   UNL A   1      45.227  24.616  28.745  1.00  0.00     0.031 C 
ATOM     49  C   UNL A   1      46.888  29.907  31.216  1.00  0.00     0.029 A 
ATOM     50  C   UNL A   1      46.142  28.897  30.630  1.00  0.00     0.049 A 
ATOM     51  H   UNL A   1      44.103  28.895  30.086  1.00  0.00     0.167 HD
ATOM     52  C   UNL A   1      45.768  26.636  29.686  1.00  0.00     0.074 A 
ATOM     53  C   UNL A   1      46.212  25.315  29.293  1.00  0.00     0.031 C 
ATOM     54  C   UNL A   1      46.574  27.582  30.229  1.00  0.00     0.031 A 
BRANCH  41  55
ATOM     55  C   UNL A   1      43.725  32.936  31.428  1.00  0.00    -0.014 A 
ATOM     56  C   UNL A   1      44.153  33.968  30.575  1.00  0.00     0.010 A 
ATOM     57  C   UNL A   1      43.357  33.250  32.750  1.00  0.00     0.010 A 
ATOM     58  C   UNL A   1      44.254  35.281  31.044  1.00  0.00     0.020 A 
ATOM     59  C   UNL A   1      43.430  34.567  33.216  1.00  0.00     0.020 A 
ATOM     60  C   UNL A   1      43.895  35.570  32.364  1.00  0.00     0.054 A 
BRANCH  60  61
ATOM     61  S   UNL A   1      44.021  37.286  32.942  1.00  0.00     0.124 S 
ATOM     62  O   UNL A   1      43.827  38.035  31.703  1.00  0.00    -0.237 OA
ATOM     63  O   UNL A   1      42.931  37.380  33.909  1.00  0.00    -0.237 OA
ATOM     64  O   UNL A   1      45.364  37.362  33.512  1.00  0.00    -0.744 OA
ENDBRANCH  60  61
ENDBRANCH  41  55
BRANCH  42  65
ATOM     65  C   UNL A   1      42.605  23.693  27.818  1.00  0.00    -0.014 A 
ATOM     66  C   UNL A   1      42.167  22.630  28.626  1.00  0.00     0.010 A 
ATOM     67  C   UNL A   1      42.884  23.450  26.460  1.00  0.00     0.010 A 
ATOM     68  C   UNL A   1      42.027  21.345  28.093  1.00  0.00     0.020 A 
ATOM     69  C   UNL A   1      42.719  22.174  25.915  1.00  0.00     0.020 A 
ATOM     70  C   UNL A   1      42.301  21.127  26.739  1.00  0.00     0.054 A 
BRANCH  70  71
ATOM     71  S   UNL A   1      42.062  19.462  26.057  1.00  0.00     0.124 S 
ATOM     72  O   UNL A   1      42.570  18.616  27.133  1.00  0.00    -0.237 OA
ATOM     73  O   UNL A   1      40.618  19.414  25.842  1.00  0.00    -0.237 OA
ATOM     74  O   UNL A   1      42.866  19.475  24.836  1.00  0.00    -0.744 OA
ENDBRANCH  70  71
ENDBRANCH  42  65
BRANCH  54  75
ATOM     75  C   UNL A   1      48.017  27.216  30.454  1.00  0.00    -0.014 A 
ATOM     76  C   UNL A   1      49.017  27.618  29.551  1.00  0.00     0.010 A 
ATOM     77  C   UNL A   1      48.384  26.512  31.615  1.00  0.00     0.010 A 
ATOM     78  C   UNL A   1      50.356  27.298  29.792  1.00  0.00     0.020 A 
ATOM     79  C   UNL A   1      49.724  26.213  31.873  1.00  0.00     0.020 A 
ATOM     80  C   UNL A   1      50.701  26.598  30.953  1.00  0.00     0.054 A 
BRANCH  80  81
ATOM     81  S   UNL A   1      52.451  26.241  31.268  1.00  0.00     0.124 S 
ATOM     82  O   UNL A   1      52.378  24.976  31.995  1.00  0.00    -0.237 OA
ATOM     83  O   UNL A   1      53.011  26.161  29.922  1.00  0.00    -0.237 OA
ATOM     84  O   UNL A   1      52.902  27.386  32.057  1.00  0.00    -0.744 OA
ENDBRANCH  80  81
ENDBRANCH  54  75
ENDBRANCH  28  29
ENDBRANCH  20  23
ENDBRANCH  18  19
ENDBRANCH  17  18
ENDBRANCH   1  17
TORSDOF 18
ENDMDL
MODEL 2
REMARK VINA RESULT:      -9.2      3.289      5.551
REMARK SMILES O=C(COCCNc1nncs1)NCCCNC(=O)c1ccc(-c2c3nc(c(-c4ccc(S(=O)(=O)[O-])cc4)c4ccc([nH]4)c(-c4ccc(S(=O)(=O)[O-])cc4)c4nc(c(-c5ccc(S(=O)(=O)[O-])cc5)c5ccc2[nH]5)C=C4)C=C3)cc1
REMARK SMILES IDX 14 1 13 2 1 3 2 4 3 6 4 7 5 8 6 9 7 10 8 12 9 13 12 14 10 15
REMARK SMILES IDX 11 16 15 17 16 18 17 19 18 20 19 22 20 23 21 24 79 25 22 26
REMARK SMILES IDX 78 27 23 28 24 29 25 30 72 31 26 32 77 33 71 34 73 35 27 36
REMARK SMILES IDX 76 37 70 38 69 39 28 41 58 42 39 43 57 44 40 45 43 46 56 47
REMARK SMILES IDX 74 48 41 49 42 50 55 52 75 53 44 54 29 55 30 56 38 57 31 58
REMARK SMILES IDX 37 59 32 60 33 61 34 62 35 63 36 64 59 65 60 66 68 67 61 68
REMARK SMILES IDX 67 69 62 70 63 71 64 72 65 73 66 74 45 75 46 76 54 77 47 78
REMARK SMILES IDX 53 79 48 80 49 81 50 82 51 83 52 84
REMARK H PARENT 13 5 7 11 17 21 73 40 43 51
REMARK Flexibility Score: inf
ROOT
ATOM      1  C   UNL A   1      33.665  35.404  28.829  1.00  0.00     0.117 C 
ENDROOT
BRANCH   1   2
ATOM      2  N   UNL A   1      33.717  35.144  30.252  1.00  0.00    -0.354 N 
ATOM      3  O   UNL A   1      32.170  36.736  30.872  1.00  0.00    -0.272 OA
ATOM      4  C   UNL A   1      32.927  35.816  31.159  1.00  0.00     0.245 C 
ATOM      5  H   UNL A   1      34.341  34.459  30.585  1.00  0.00     0.163 HD
BRANCH   4   6
ATOM      6  C   UNL A   1      33.080  35.300  32.594  1.00  0.00     0.260 C 
BRANCH   6   7
ATOM      7  O   UNL A   1      33.432  33.930  32.733  1.00  0.00    -0.370 OA
BRANCH   7   8
ATOM      8  C   UNL A   1      34.641  33.665  33.460  1.00  0.00     0.182 C 
BRANCH   8   9
ATOM      9  C   UNL A   1      35.878  33.382  32.589  1.00  0.00     0.143 C 
BRANCH   9  10
ATOM     10  N   UNL A   1      36.210  31.972  32.571  1.00  0.00    -0.358 N 
ATOM     11  H   UNL A   1      35.666  31.400  31.984  1.00  0.00     0.163 HD
BRANCH  10  12
ATOM     12  C   UNL A   1      37.188  31.357  33.275  1.00  0.00     0.205 A 
ATOM     13  N   UNL A   1      37.382  30.056  33.188  1.00  0.00    -0.121 NA
ATOM     14  S   UNL A   1      38.278  32.116  34.377  1.00  0.00    -0.083 S 
ATOM     15  N   UNL A   1      38.416  29.598  33.975  1.00  0.00    -0.145 NA
ATOM     16  C   UNL A   1      38.968  30.575  34.654  1.00  0.00     0.204 A 
ENDBRANCH  10  12
ENDBRANCH   9  10
ENDBRANCH   8   9
ENDBRANCH   7   8
ENDBRANCH   6   7
ENDBRANCH   4   6
ENDBRANCH   1   2
BRANCH   1  17
ATOM     17  C   UNL A   1      34.654  34.565  28.030  1.00  0.00     0.042 C 
BRANCH  17  18
ATOM     18  C   UNL A   1      34.964  33.199  28.636  1.00  0.00     0.118 C 
BRANCH  18  19
ATOM     19  N   UNL A   1      34.066  32.146  28.181  1.00  0.00    -0.352 N 
ATOM     20  C   UNL A   1      34.310  30.811  27.946  1.00  0.00     0.251 C 
ATOM     21  H   UNL A   1      33.140  32.433  28.018  1.00  0.00     0.163 HD
ATOM     22  O   UNL A   1      33.433  30.117  27.452  1.00  0.00    -0.269 OA
BRANCH  20  23
ATOM     23  C   UNL A   1      35.635  30.227  28.255  1.00  0.00     0.039 A 
ATOM     24  C   UNL A   1      36.605  30.196  27.249  1.00  0.00     0.014 A 
ATOM     25  C   UNL A   1      35.927  29.718  29.523  1.00  0.00     0.014 A 
ATOM     26  C   UNL A   1      37.893  29.740  27.539  1.00  0.00     0.010 A 
ATOM     27  C   UNL A   1      37.229  29.327  29.829  1.00  0.00     0.010 A 
ATOM     28  C   UNL A   1      38.229  29.349  28.845  1.00  0.00    -0.014 A 
BRANCH  28  29
ATOM     29  C   UNL A   1      39.628  29.004  29.214  1.00  0.00     0.031 A 
ATOM     30  C   UNL A   1      40.522  30.026  29.860  1.00  0.00     0.074 A 
ATOM     31  C   UNL A   1      40.117  27.790  28.890  1.00  0.00     0.049 A 
ATOM     32  N   UNL A   1      41.790  29.932  30.170  1.00  0.00    -0.248 NA
ATOM     33  C   UNL A   1      39.920  31.329  30.181  1.00  0.00     0.031 C 
ATOM     34  C   UNL A   1      39.364  26.721  28.230  1.00  0.00     0.029 A 
ATOM     35  N   UNL A   1      41.371  27.255  29.061  1.00  0.00    -0.354 N 
ATOM     36  C   UNL A   1      42.142  31.166  30.706  1.00  0.00     0.074 A 
ATOM     37  C   UNL A   1      40.964  32.004  30.642  1.00  0.00     0.031 C 
ATOM     38  C   UNL A   1      40.163  25.654  28.069  1.00  0.00     0.029 A 
ATOM     39  C   UNL A   1      41.496  25.976  28.570  1.00  0.00     0.049 A 
ATOM     40  H   UNL A   1      42.109  27.740  29.493  1.00  0.00     0.167 HD
ATOM     41  C   UNL A   1      43.334  31.560  31.217  1.00  0.00     0.031 A 
ATOM     42  C   UNL A   1      42.564  25.157  28.512  1.00  0.00     0.031 A 
ATOM     43  C   UNL A   1      44.503  30.724  31.282  1.00  0.00     0.049 A 
ATOM     44  C   UNL A   1      43.882  25.627  29.061  1.00  0.00     0.074 A 
ATOM     45  C   UNL A   1      45.739  31.017  31.834  1.00  0.00     0.029 A 
ATOM     46  N   UNL A   1      44.588  29.436  30.777  1.00  0.00    -0.354 N 
ATOM     47  N   UNL A   1      44.176  26.776  29.623  1.00  0.00    -0.248 NA
ATOM     48  C   UNL A   1      45.011  24.691  28.972  1.00  0.00     0.031 C 
ATOM     49  C   UNL A   1      46.587  29.926  31.613  1.00  0.00     0.029 A 
ATOM     50  C   UNL A   1      45.863  28.932  30.976  1.00  0.00     0.049 A 
ATOM     51  H   UNL A   1      43.850  28.952  30.340  1.00  0.00     0.167 HD
ATOM     52  C   UNL A   1      45.520  26.691  29.973  1.00  0.00     0.074 A 
ATOM     53  C   UNL A   1      45.975  25.374  29.577  1.00  0.00     0.031 C 
ATOM     54  C   UNL A   1      46.305  27.621  30.569  1.00  0.00     0.031 A 
BRANCH  41  55
ATOM     55  C   UNL A   1      43.433  32.969  31.739  1.00  0.00    -0.014 A 
ATOM     56  C   UNL A   1      43.191  33.262  33.093  1.00  0.00     0.010 A 
ATOM     57  C   UNL A   1      43.818  34.010  30.873  1.00  0.00     0.010 A 
ATOM     58  C   UNL A   1      43.287  34.575  33.563  1.00  0.00     0.020 A 
ATOM     59  C   UNL A   1      43.943  35.321  31.345  1.00  0.00     0.020 A 
ATOM     60  C   UNL A   1      43.658  35.596  32.684  1.00  0.00     0.054 A 
BRANCH  60  61
ATOM     61  S   UNL A   1      43.791  37.288  33.326  1.00  0.00     0.124 S 
ATOM     62  O   UNL A   1      42.599  37.386  34.164  1.00  0.00    -0.237 OA
ATOM     63  O   UNL A   1      45.062  37.261  34.044  1.00  0.00    -0.237 OA
ATOM     64  O   UNL A   1      43.776  38.118  32.123  1.00  0.00    -0.744 OA
ENDBRANCH  60  61
ENDBRANCH  41  55
BRANCH  42  65
ATOM     65  C   UNL A   1      42.430  23.802  27.911  1.00  0.00    -0.014 A 
ATOM     66  C   UNL A   1      42.452  22.656  28.725  1.00  0.00     0.010 A 
ATOM     67  C   UNL A   1      42.265  23.650  26.522  1.00  0.00     0.010 A 
ATOM     68  C   UNL A   1      42.330  21.383  28.160  1.00  0.00     0.020 A 
ATOM     69  C   UNL A   1      42.114  22.381  25.956  1.00  0.00     0.020 A 
ATOM     70  C   UNL A   1      42.159  21.254  26.779  1.00  0.00     0.054 A 
BRANCH  70  71
ATOM     71  S   UNL A   1      41.950  19.594  26.075  1.00  0.00     0.124 S 
ATOM     72  O   UNL A   1      42.344  18.739  27.191  1.00  0.00    -0.237 OA
ATOM     73  O   UNL A   1      40.530  19.574  25.733  1.00  0.00    -0.237 OA
ATOM     74  O   UNL A   1      42.859  19.592  24.931  1.00  0.00    -0.744 OA
ENDBRANCH  70  71
ENDBRANCH  42  65
BRANCH  54  75
ATOM     75  C   UNL A   1      47.736  27.243  30.852  1.00  0.00    -0.014 A 
ATOM     76  C   UNL A   1      48.110  26.694  32.091  1.00  0.00     0.010 A 
ATOM     77  C   UNL A   1      48.705  27.385  29.844  1.00  0.00     0.010 A 
ATOM     78  C   UNL A   1      49.435  26.319  32.325  1.00  0.00     0.020 A 
ATOM     79  C   UNL A   1      50.026  26.987  30.065  1.00  0.00     0.020 A 
ATOM     80  C   UNL A   1      50.385  26.467  31.309  1.00  0.00     0.054 A 
BRANCH  80  81
ATOM     81  S   UNL A   1      52.087  25.924  31.621  1.00  0.00     0.124 S 
ATOM     82  O   UNL A   1      51.901  24.516  31.962  1.00  0.00    -0.237 OA
ATOM     83  O   UNL A   1      52.747  26.179  30.343  1.00  0.00    -0.237 OA
ATOM     84  O   UNL A   1      52.528  26.777  32.723  1.00  0.00    -0.744 OA
ENDBRANCH  80  81
ENDBRANCH  54  75
ENDBRANCH  28  29
ENDBRANCH  20  23
ENDBRANCH  18  19
ENDBRANCH  17  18
ENDBRANCH   1  17
TORSDOF 18
ENDMDL
MODEL 3
REMARK VINA RESULT:      -8.9      3.289      4.497
REMARK SMILES O=C(COCCNc1nncs1)NCCCNC(=O)c1ccc(-c2c3nc(c(-c4ccc(S(=O)(=O)[O-])cc4)c4ccc([nH]4)c(-c4ccc(S(=O)(=O)[O-])cc4)c4nc(c(-c5ccc(S(=O)(=O)[O-])cc5)c5ccc2[nH]5)C=C4)C=C3)cc1
REMARK SMILES IDX 14 1 13 2 1 3 2 4 3 6 4 7 5 8 6 9 7 10 8 12 9 13 12 14 10 15
REMARK SMILES IDX 11 16 15 17 16 18 17 19 18 20 19 22 20 23 21 24 79 25 22 26
REMARK SMILES IDX 78 27 23 28 24 29 25 30 72 31 26 32 77 33 71 34 73 35 27 36
REMARK SMILES IDX 76 37 70 38 69 39 28 41 58 42 39 43 57 44 40 45 43 46 56 47
REMARK SMILES IDX 74 48 41 49 42 50 55 52 75 53 44 54 29 55 30 56 38 57 31 58
REMARK SMILES IDX 37 59 32 60 33 61 34 62 35 63 36 64 59 65 60 66 68 67 61 68
REMARK SMILES IDX 67 69 62 70 63 71 64 72 65 73 66 74 45 75 46 76 54 77 47 78
REMARK SMILES IDX 53 79 48 80 49 81 50 82 51 83 52 84
REMARK H PARENT 13 5 7 11 17 21 73 40 43 51
REMARK Flexibility Score: inf
ROOT
ATOM      1  C   UNL A   1      32.802  29.884  26.828  1.00  0.00     0.117 C 
ENDROOT
BRANCH   1   2
ATOM      2  N   UNL A   1      32.402  28.609  26.271  1.00  0.00    -0.354 N 
ATOM      3  O   UNL A   1      31.264  27.851  28.126  1.00  0.00    -0.272 OA
ATOM      4  C   UNL A   1      31.625  27.706  26.964  1.00  0.00     0.245 C 
ATOM      5  H   UNL A   1      32.696  28.379  25.360  1.00  0.00     0.163 HD
BRANCH   4   6
ATOM      6  C   UNL A   1      31.244  26.476  26.135  1.00  0.00     0.260 C 
BRANCH   6   7
ATOM      7  O   UNL A   1      31.613  26.504  24.763  1.00  0.00    -0.370 OA
BRANCH   7   8
ATOM      8  C   UNL A   1      30.646  25.976  23.843  1.00  0.00     0.182 C 
BRANCH   8   9
ATOM      9  C   UNL A   1      29.415  26.870  23.604  1.00  0.00     0.143 C 
BRANCH   9  10
ATOM     10  N   UNL A   1      29.779  28.132  22.994  1.00  0.00    -0.358 N 
ATOM     11  H   UNL A   1      30.551  28.118  22.384  1.00  0.00     0.163 HD
BRANCH  10  12
ATOM     12  C   UNL A   1      29.171  29.327  23.172  1.00  0.00     0.205 A 
ATOM     13  N   UNL A   1      29.782  30.323  23.783  1.00  0.00    -0.121 NA
ATOM     14  S   UNL A   1      27.566  29.733  22.688  1.00  0.00    -0.083 S 
ATOM     15  N   UNL A   1      29.015  31.464  23.881  1.00  0.00    -0.145 NA
ATOM     16  C   UNL A   1      27.828  31.288  23.350  1.00  0.00     0.204 A 
ENDBRANCH  10  12
ENDBRANCH   9  10
ENDBRANCH   8   9
ENDBRANCH   7   8
ENDBRANCH   6   7
ENDBRANCH   4   6
ENDBRANCH   1   2
BRANCH   1  17
ATOM     17  C   UNL A   1      34.307  30.118  26.771  1.00  0.00     0.042 C 
BRANCH  17  18
ATOM     18  C   UNL A   1      35.091  29.487  27.917  1.00  0.00     0.118 C 
BRANCH  18  19
ATOM     19  N   UNL A   1      35.243  30.365  29.069  1.00  0.00    -0.352 N 
ATOM     20  C   UNL A   1      36.338  30.598  29.871  1.00  0.00     0.251 C 
ATOM     21  H   UNL A   1      34.436  30.872  29.312  1.00  0.00     0.163 HD
ATOM     22  O   UNL A   1      36.217  31.295  30.868  1.00  0.00    -0.269 OA
BRANCH  20  23
ATOM     23  C   UNL A   1      37.645  29.981  29.549  1.00  0.00     0.039 A 
ATOM     24  C   UNL A   1      38.089  30.007  28.224  1.00  0.00     0.014 A 
ATOM     25  C   UNL A   1      38.430  29.384  30.538  1.00  0.00     0.014 A 
ATOM     26  C   UNL A   1      39.360  29.519  27.908  1.00  0.00     0.010 A 
ATOM     27  C   UNL A   1      39.722  28.959  30.234  1.00  0.00     0.010 A 
ATOM     28  C   UNL A   1      40.206  29.036  28.919  1.00  0.00    -0.014 A 
BRANCH  28  29
ATOM     29  C   UNL A   1      41.613  28.652  28.632  1.00  0.00     0.031 A 
ATOM     30  C   UNL A   1      42.703  29.689  28.626  1.00  0.00     0.074 A 
ATOM     31  C   UNL A   1      41.896  27.377  28.297  1.00  0.00     0.049 A 
ATOM     32  N   UNL A   1      43.966  29.554  28.314  1.00  0.00    -0.248 NA
ATOM     33  C   UNL A   1      42.319  31.059  29.000  1.00  0.00     0.031 C 
ATOM     34  C   UNL A   1      40.924  26.283  28.230  1.00  0.00     0.029 A 
ATOM     35  N   UNL A   1      43.083  26.788  27.933  1.00  0.00    -0.354 N 
ATOM     36  C   UNL A   1      44.525  30.821  28.436  1.00  0.00     0.074 A 
ATOM     37  C   UNL A   1      43.454  31.718  28.813  1.00  0.00     0.031 C 
ATOM     38  C   UNL A   1      41.556  25.154  27.869  1.00  0.00     0.029 A 
ATOM     39  C   UNL A   1      42.965  25.451  27.632  1.00  0.00     0.049 A 
ATOM     40  H   UNL A   1      43.936  27.276  27.892  1.00  0.00     0.167 HD
ATOM     41  C   UNL A   1      45.815  31.200  28.264  1.00  0.00     0.031 A 
ATOM     42  C   UNL A   1      43.881  24.564  27.198  1.00  0.00     0.031 A 
ATOM     43  C   UNL A   1      46.879  30.305  27.892  1.00  0.00     0.049 A 
ATOM     44  C   UNL A   1      45.300  25.014  26.988  1.00  0.00     0.074 A 
ATOM     45  C   UNL A   1      48.227  30.586  27.749  1.00  0.00     0.029 A 
ATOM     46  N   UNL A   1      46.719  28.960  27.598  1.00  0.00    -0.354 N 
ATOM     47  N   UNL A   1      45.821  26.205  27.173  1.00  0.00    -0.248 NA
ATOM     48  C   UNL A   1      46.256  24.003  26.516  1.00  0.00     0.031 C 
ATOM     49  C   UNL A   1      48.873  29.423  27.316  1.00  0.00     0.029 A 
ATOM     50  C   UNL A   1      47.938  28.404  27.245  1.00  0.00     0.049 A 
ATOM     51  H   UNL A   1      45.865  28.472  27.635  1.00  0.00     0.167 HD
ATOM     52  C   UNL A   1      47.170  26.079  26.859  1.00  0.00     0.074 A 
ATOM     53  C   UNL A   1      47.388  24.695  26.490  1.00  0.00     0.031 C 
ATOM     54  C   UNL A   1      48.140  27.025  26.873  1.00  0.00     0.031 A 
BRANCH  41  55
ATOM     55  C   UNL A   1      46.144  32.655  28.467  1.00  0.00    -0.014 A 
ATOM     56  C   UNL A   1      46.598  33.131  29.710  1.00  0.00     0.010 A 
ATOM     57  C   UNL A   1      46.041  33.553  27.388  1.00  0.00     0.010 A 
ATOM     58  C   UNL A   1      46.900  34.485  29.884  1.00  0.00     0.020 A 
ATOM     59  C   UNL A   1      46.368  34.903  27.550  1.00  0.00     0.020 A 
ATOM     60  C   UNL A   1      46.779  35.362  28.803  1.00  0.00     0.054 A 
BRANCH  60  61
ATOM     61  S   UNL A   1      47.192  37.111  29.054  1.00  0.00     0.124 S 
ATOM     62  O   UNL A   1      45.869  37.720  29.166  1.00  0.00    -0.237 OA
ATOM     63  O   UNL A   1      47.975  37.082  30.287  1.00  0.00    -0.237 OA
ATOM     64  O   UNL A   1      47.943  37.467  27.852  1.00  0.00    -0.744 OA
ENDBRANCH  60  61
ENDBRANCH  41  55
BRANCH  42  65
ATOM     65  C   UNL A   1      43.484  23.154  26.934  1.00  0.00    -0.014 A 
ATOM     66  C   UNL A   1      43.768  22.553  25.696  1.00  0.00     0.010 A 
ATOM     67  C   UNL A   1      42.831  22.398  27.927  1.00  0.00     0.010 A 
ATOM     68  C   UNL A   1      43.392  21.230  25.447  1.00  0.00     0.020 A 
ATOM     69  C   UNL A   1      42.478  21.066  27.692  1.00  0.00     0.020 A 
ATOM     70  C   UNL A   1      42.752  20.494  26.448  1.00  0.00     0.054 A 
BRANCH  70  71
ATOM     71  S   UNL A   1      42.320  18.762  26.120  1.00  0.00     0.124 S 
ATOM     72  O   UNL A   1      43.243  18.418  25.042  1.00  0.00    -0.237 OA
ATOM     73  O   UNL A   1      42.582  18.123  27.407  1.00  0.00    -0.237 OA
ATOM     74  O   UNL A   1      40.910  18.828  25.742  1.00  0.00    -0.744 OA
ENDBRANCH  70  71
ENDBRANCH  42  65
BRANCH  54  75
ATOM     75  C   UNL A   1      49.535  26.595  26.502  1.00  0.00    -0.014 A 
ATOM     76  C   UNL A   1      50.383  25.991  27.446  1.00  0.00     0.010 A 
ATOM     77  C   UNL A   1      49.979  26.744  25.176  1.00  0.00     0.010 A 
ATOM     78  C   UNL A   1      51.663  25.568  27.076  1.00  0.00     0.020 A 
ATOM     79  C   UNL A   1      51.248  26.299  24.796  1.00  0.00     0.020 A 
ATOM     80  C   UNL A   1      52.087  25.724  25.752  1.00  0.00     0.054 A 
BRANCH  80  81
ATOM     81  S   UNL A   1      53.732  25.120  25.286  1.00  0.00     0.124 S 
ATOM     82  O   UNL A   1      53.887  25.664  23.939  1.00  0.00    -0.237 OA
ATOM     83  O   UNL A   1      54.594  25.713  26.306  1.00  0.00    -0.237 OA
ATOM     84  O   UNL A   1      53.602  23.666  25.359  1.00  0.00    -0.744 OA
ENDBRANCH  80  81
ENDBRANCH  54  75
ENDBRANCH  28  29
ENDBRANCH  20  23
ENDBRANCH  18  19
ENDBRANCH  17  18
ENDBRANCH   1  17
TORSDOF 18
ENDMDL
