MODEL 1
REMARK VINA RESULT:     -11.2      0.000      0.000
REMARK SMILES CCc1ccsc1Cn1cccc1C(=O)NCCCNC(=O)c1ccc(-c2c3nc(c(-c4ccc(S(=O)(=O)[O-])cc4)c4ccc([nH]4)c(-c4ccc(S(=O)(=O)[O-])cc4)c4nc(c(-c5ccc(S(=O)(=O)[O-])cc5)c5ccc2[nH]5)C=C4)C=C3)cc1
REMARK SMILES IDX 18 1 17 2 16 3 14 4 15 5 13 7 9 8 10 9 11 10 12 11 8 12 7 13
REMARK SMILES IDX 3 14 4 15 5 16 6 17 2 18 1 19 19 20 20 21 21 22 22 24 23 25
REMARK SMILES IDX 24 26 82 27 25 28 81 29 26 30 27 31 28 32 75 33 29 34 80 35
REMARK SMILES IDX 74 36 76 37 30 38 79 39 73 40 72 41 31 43 61 44 42 45 60 46
REMARK SMILES IDX 43 47 46 48 59 49 77 50 44 51 45 52 58 54 78 55 47 56 32 57
REMARK SMILES IDX 33 58 41 59 34 60 40 61 35 62 36 63 37 64 38 65 39 66 62 67
REMARK SMILES IDX 63 68 71 69 64 70 70 71 65 72 66 73 67 74 68 75 69 76 48 77
REMARK SMILES IDX 49 78 57 79 50 80 56 81 51 82 52 83 53 84 54 85 55 86
REMARK H PARENT 16 6 20 23 76 42 46 53
REMARK Flexibility Score: inf
ROOT
ATOM      1  C   UNL A   1      33.853  27.893  26.088  1.00  0.00     0.042 C 
ENDROOT
BRANCH   1   2
ATOM      2  C   UNL A   1      32.379  27.912  26.523  1.00  0.00     0.118 C 
BRANCH   2   3
ATOM      3  N   UNL A   1      31.891  26.605  26.916  1.00  0.00    -0.351 N 
ATOM      4  C   UNL A   1      31.775  25.366  26.347  1.00  0.00     0.267 C 
ATOM      5  O   UNL A   1      31.427  24.501  27.160  1.00  0.00    -0.268 OA
ATOM      6  H   UNL A   1      31.550  26.609  27.839  1.00  0.00     0.163 HD
BRANCH   4   7
ATOM      7  C   UNL A   1      32.055  24.991  24.966  1.00  0.00     0.107 A 
ATOM      8  N   UNL A   1      33.206  24.712  24.240  1.00  0.00    -0.338 N 
ATOM      9  C   UNL A   1      32.867  24.398  22.932  1.00  0.00     0.087 A 
ATOM     10  C   UNL A   1      31.531  24.623  22.755  1.00  0.00     0.020 A 
ATOM     11  C   UNL A   1      31.034  25.020  24.007  1.00  0.00     0.033 A 
BRANCH   8  12
ATOM     12  C   UNL A   1      34.575  24.516  24.685  1.00  0.00     0.169 C 
BRANCH  12  13
ATOM     13  C   UNL A   1      35.029  23.106  24.990  1.00  0.00     0.027 A 
ATOM     14  C   UNL A   1      34.498  21.816  24.832  1.00  0.00    -0.033 A 
ATOM     15  C   UNL A   1      35.546  20.828  24.999  1.00  0.00     0.016 A 
ATOM     16  C   UNL A   1      36.765  21.346  25.341  1.00  0.00     0.065 A 
ATOM     17  S   UNL A   1      36.690  23.023  25.523  1.00  0.00    -0.147 S 
BRANCH  14  18
ATOM     18  C   UNL A   1      33.145  21.261  24.427  1.00  0.00     0.033 C 
ATOM     19  C   UNL A   1      31.960  21.391  25.345  1.00  0.00     0.009 C 
ENDBRANCH  14  18
ENDBRANCH  12  13
ENDBRANCH   8  12
ENDBRANCH   4   7
ENDBRANCH   2   3
ENDBRANCH   1   2
BRANCH   1  20
ATOM     20  C   UNL A   1      34.820  28.365  27.151  1.00  0.00     0.118 C 
BRANCH  20  21
ATOM     21  N   UNL A   1      35.165  29.752  26.951  1.00  0.00    -0.352 N 
ATOM     22  C   UNL A   1      36.058  30.481  27.680  1.00  0.00     0.251 C 
ATOM     23  H   UNL A   1      34.708  30.219  26.214  1.00  0.00     0.163 HD
ATOM     24  O   UNL A   1      35.840  31.695  27.824  1.00  0.00    -0.269 OA
BRANCH  22  25
ATOM     25  C   UNL A   1      37.299  29.881  28.218  1.00  0.00     0.039 A 
ATOM     26  C   UNL A   1      38.460  29.980  27.439  1.00  0.00     0.014 A 
ATOM     27  C   UNL A   1      37.302  29.083  29.371  1.00  0.00     0.014 A 
ATOM     28  C   UNL A   1      39.582  29.236  27.776  1.00  0.00     0.010 A 
ATOM     29  C   UNL A   1      38.421  28.358  29.726  1.00  0.00     0.010 A 
ATOM     30  C   UNL A   1      39.542  28.414  28.909  1.00  0.00    -0.014 A 
BRANCH  30  31
ATOM     31  C   UNL A   1      40.756  27.721  29.354  1.00  0.00     0.031 A 
ATOM     32  C   UNL A   1      40.985  26.462  28.473  1.00  0.00     0.074 A 
ATOM     33  C   UNL A   1      41.398  28.302  30.424  1.00  0.00     0.049 A 
ATOM     34  N   UNL A   1      41.710  25.420  28.705  1.00  0.00    -0.248 NA
ATOM     35  C   UNL A   1      40.287  26.309  27.154  1.00  0.00     0.031 C 
ATOM     36  C   UNL A   1      41.039  29.613  31.038  1.00  0.00     0.029 A 
ATOM     37  N   UNL A   1      42.473  27.953  31.214  1.00  0.00    -0.354 N 
ATOM     38  C   UNL A   1      41.711  24.597  27.551  1.00  0.00     0.074 A 
ATOM     39  C   UNL A   1      40.757  25.162  26.651  1.00  0.00     0.031 C 
ATOM     40  C   UNL A   1      41.787  29.871  32.140  1.00  0.00     0.029 A 
ATOM     41  C   UNL A   1      42.717  28.783  32.355  1.00  0.00     0.049 A 
ATOM     42  H   UNL A   1      43.042  27.178  31.004  1.00  0.00     0.167 HD
ATOM     43  C   UNL A   1      42.582  23.553  27.406  1.00  0.00     0.031 A 
ATOM     44  C   UNL A   1      43.581  28.565  33.403  1.00  0.00     0.031 A 
ATOM     45  C   UNL A   1      43.323  23.403  28.614  1.00  0.00     0.049 A 
ATOM     46  C   UNL A   1      44.360  27.401  32.971  1.00  0.00     0.074 A 
ATOM     47  C   UNL A   1      42.927  22.946  29.843  1.00  0.00     0.029 A 
ATOM     48  N   UNL A   1      44.452  24.178  28.741  1.00  0.00    -0.354 N 
ATOM     49  N   UNL A   1      45.282  27.438  32.061  1.00  0.00    -0.248 NA
ATOM     50  C   UNL A   1      44.045  26.083  33.530  1.00  0.00     0.031 C 
ATOM     51  C   UNL A   1      43.476  23.911  30.704  1.00  0.00     0.029 A 
ATOM     52  C   UNL A   1      44.439  24.666  30.023  1.00  0.00     0.049 A 
ATOM     53  H   UNL A   1      45.133  24.348  28.051  1.00  0.00     0.167 HD
ATOM     54  C   UNL A   1      45.325  26.136  31.650  1.00  0.00     0.074 A 
ATOM     55  C   UNL A   1      44.843  25.340  32.765  1.00  0.00     0.031 C 
ATOM     56  C   UNL A   1      45.198  25.852  30.326  1.00  0.00     0.031 A 
BRANCH  43  57
ATOM     57  C   UNL A   1      43.010  22.690  26.251  1.00  0.00    -0.014 A 
ATOM     58  C   UNL A   1      42.566  21.340  26.276  1.00  0.00     0.010 A 
ATOM     59  C   UNL A   1      44.059  23.010  25.382  1.00  0.00     0.010 A 
ATOM     60  C   UNL A   1      43.229  20.327  25.583  1.00  0.00     0.020 A 
ATOM     61  C   UNL A   1      44.711  21.995  24.649  1.00  0.00     0.020 A 
ATOM     62  C   UNL A   1      44.323  20.659  24.794  1.00  0.00     0.054 A 
BRANCH  62  63
ATOM     63  S   UNL A   1      45.252  19.299  24.031  1.00  0.00     0.124 S 
ATOM     64  O   UNL A   1      46.630  19.769  24.131  1.00  0.00    -0.237 OA
ATOM     65  O   UNL A   1      44.914  18.167  24.893  1.00  0.00    -0.237 OA
ATOM     66  O   UNL A   1      44.707  19.228  22.678  1.00  0.00    -0.744 OA
ENDBRANCH  62  63
ENDBRANCH  43  57
BRANCH  44  67
ATOM     67  C   UNL A   1      43.928  29.038  34.809  1.00  0.00    -0.014 A 
ATOM     68  C   UNL A   1      45.198  29.326  35.324  1.00  0.00     0.010 A 
ATOM     69  C   UNL A   1      42.836  29.402  35.662  1.00  0.00     0.010 A 
ATOM     70  C   UNL A   1      45.344  30.088  36.519  1.00  0.00     0.020 A 
ATOM     71  C   UNL A   1      42.961  30.202  36.800  1.00  0.00     0.020 A 
ATOM     72  C   UNL A   1      44.225  30.581  37.207  1.00  0.00     0.054 A 
BRANCH  72  73
ATOM     73  S   UNL A   1      44.390  31.839  38.514  1.00  0.00     0.124 S 
ATOM     74  O   UNL A   1      44.147  33.083  37.791  1.00  0.00    -0.237 OA
ATOM     75  O   UNL A   1      43.352  31.446  39.465  1.00  0.00    -0.237 OA
ATOM     76  O   UNL A   1      45.758  31.658  38.999  1.00  0.00    -0.744 OA
ENDBRANCH  72  73
ENDBRANCH  44  67
BRANCH  56  77
ATOM     77  C   UNL A   1      45.545  26.993  29.362  1.00  0.00    -0.014 A 
ATOM     78  C   UNL A   1      44.504  27.609  28.637  1.00  0.00     0.010 A 
ATOM     79  C   UNL A   1      46.859  27.416  29.062  1.00  0.00     0.010 A 
ATOM     80  C   UNL A   1      44.748  28.580  27.655  1.00  0.00     0.020 A 
ATOM     81  C   UNL A   1      47.116  28.400  28.079  1.00  0.00     0.020 A 
ATOM     82  C   UNL A   1      46.054  28.978  27.381  1.00  0.00     0.054 A 
BRANCH  82  83
ATOM     83  S   UNL A   1      46.318  30.261  26.119  1.00  0.00     0.124 S 
ATOM     84  O   UNL A   1      45.111  31.077  26.226  1.00  0.00    -0.237 OA
ATOM     85  O   UNL A   1      47.548  30.906  26.576  1.00  0.00    -0.237 OA
ATOM     86  O   UNL A   1      46.443  29.508  24.871  1.00  0.00    -0.744 OA
ENDBRANCH  82  83
ENDBRANCH  56  77
ENDBRANCH  30  31
ENDBRANCH  22  25
ENDBRANCH  20  21
ENDBRANCH   1  20
TORSDOF 16
ENDMDL
MODEL 2
REMARK VINA RESULT:     -11.2      3.723      9.308
REMARK SMILES CCc1ccsc1Cn1cccc1C(=O)NCCCNC(=O)c1ccc(-c2c3nc(c(-c4ccc(S(=O)(=O)[O-])cc4)c4ccc([nH]4)c(-c4ccc(S(=O)(=O)[O-])cc4)c4nc(c(-c5ccc(S(=O)(=O)[O-])cc5)c5ccc2[nH]5)C=C4)C=C3)cc1
REMARK SMILES IDX 18 1 17 2 16 3 14 4 15 5 13 7 9 8 10 9 11 10 12 11 8 12 7 13
REMARK SMILES IDX 3 14 4 15 5 16 6 17 2 18 1 19 19 20 20 21 21 22 22 24 23 25
REMARK SMILES IDX 24 26 82 27 25 28 81 29 26 30 27 31 28 32 75 33 29 34 80 35
REMARK SMILES IDX 74 36 76 37 30 38 79 39 73 40 72 41 31 43 61 44 42 45 60 46
REMARK SMILES IDX 43 47 46 48 59 49 77 50 44 51 45 52 58 54 78 55 47 56 32 57
REMARK SMILES IDX 33 58 41 59 34 60 40 61 35 62 36 63 37 64 38 65 39 66 62 67
REMARK SMILES IDX 63 68 71 69 64 70 70 71 65 72 66 73 67 74 68 75 69 76 48 77
REMARK SMILES IDX 49 78 57 79 50 80 56 81 51 82 52 83 53 84 54 85 55 86
REMARK H PARENT 16 6 20 23 76 42 46 53
REMARK Flexibility Score: inf
ROOT
ATOM      1  C   UNL A   1      37.874  19.639  25.008  1.00  0.00     0.042 C 
ENDROOT
BRANCH   1   2
ATOM      2  C   UNL A   1      36.614  20.517  25.041  1.00  0.00     0.118 C 
BRANCH   2   3
ATOM      3  N   UNL A   1      36.903  21.908  25.327  1.00  0.00    -0.351 N 
ATOM      4  C   UNL A   1      36.275  22.958  25.939  1.00  0.00     0.267 C 
ATOM      5  O   UNL A   1      37.015  23.940  26.076  1.00  0.00    -0.268 OA
ATOM      6  H   UNL A   1      37.790  22.169  24.988  1.00  0.00     0.163 HD
BRANCH   4   7
ATOM      7  C   UNL A   1      34.912  23.001  26.454  1.00  0.00     0.107 A 
ATOM      8  N   UNL A   1      33.832  23.861  26.299  1.00  0.00    -0.338 N 
ATOM      9  C   UNL A   1      32.755  23.395  27.037  1.00  0.00     0.087 A 
ATOM     10  C   UNL A   1      33.164  22.333  27.795  1.00  0.00     0.020 A 
ATOM     11  C   UNL A   1      34.509  22.109  27.456  1.00  0.00     0.033 A 
BRANCH   8  12
ATOM     12  C   UNL A   1      33.636  24.969  25.379  1.00  0.00     0.169 C 
BRANCH  12  13
ATOM     13  C   UNL A   1      32.430  24.932  24.467  1.00  0.00     0.027 A 
ATOM     14  C   UNL A   1      31.932  24.061  23.484  1.00  0.00    -0.033 A 
ATOM     15  C   UNL A   1      30.548  24.385  23.195  1.00  0.00     0.016 A 
ATOM     16  C   UNL A   1      30.071  25.480  23.860  1.00  0.00     0.065 A 
ATOM     17  S   UNL A   1      31.270  26.189  24.815  1.00  0.00    -0.147 S 
BRANCH  14  18
ATOM     18  C   UNL A   1      32.471  22.833  22.774  1.00  0.00     0.033 C 
ATOM     19  C   UNL A   1      32.762  21.572  23.543  1.00  0.00     0.009 C 
ENDBRANCH  14  18
ENDBRANCH  12  13
ENDBRANCH   8  12
ENDBRANCH   4   7
ENDBRANCH   2   3
ENDBRANCH   1   2
BRANCH   1  20
ATOM     20  C   UNL A   1      39.115  20.313  25.550  1.00  0.00     0.118 C 
BRANCH  20  21
ATOM     21  N   UNL A   1      40.069  19.334  26.015  1.00  0.00    -0.352 N 
ATOM     22  C   UNL A   1      41.425  19.475  26.054  1.00  0.00     0.251 C 
ATOM     23  H   UNL A   1      39.702  18.478  26.336  1.00  0.00     0.163 HD
ATOM     24  O   UNL A   1      42.122  18.461  25.888  1.00  0.00    -0.269 OA
BRANCH  22  25
ATOM     25  C   UNL A   1      42.065  20.771  26.369  1.00  0.00     0.039 A 
ATOM     26  C   UNL A   1      42.087  21.177  27.710  1.00  0.00     0.014 A 
ATOM     27  C   UNL A   1      42.478  21.662  25.367  1.00  0.00     0.014 A 
ATOM     28  C   UNL A   1      42.453  22.476  28.031  1.00  0.00     0.010 A 
ATOM     29  C   UNL A   1      42.865  22.948  25.680  1.00  0.00     0.010 A 
ATOM     30  C   UNL A   1      42.820  23.357  27.007  1.00  0.00    -0.014 A 
BRANCH  30  31
ATOM     31  C   UNL A   1      43.332  24.691  27.336  1.00  0.00     0.031 A 
ATOM     32  C   UNL A   1      42.142  25.679  27.485  1.00  0.00     0.074 A 
ATOM     33  C   UNL A   1      44.703  24.783  27.422  1.00  0.00     0.049 A 
ATOM     34  N   UNL A   1      42.138  26.969  27.444  1.00  0.00    -0.248 NA
ATOM     35  C   UNL A   1      40.742  25.174  27.675  1.00  0.00     0.031 C 
ATOM     36  C   UNL A   1      45.651  23.634  27.354  1.00  0.00     0.029 A 
ATOM     37  N   UNL A   1      45.594  25.819  27.597  1.00  0.00    -0.354 N 
ATOM     38  C   UNL A   1      40.838  27.433  27.764  1.00  0.00     0.074 A 
ATOM     39  C   UNL A   1      40.001  26.278  27.828  1.00  0.00     0.031 C 
ATOM     40  C   UNL A   1      46.942  24.048  27.365  1.00  0.00     0.029 A 
ATOM     41  C   UNL A   1      46.982  25.493  27.461  1.00  0.00     0.049 A 
ATOM     42  H   UNL A   1      45.295  26.734  27.804  1.00  0.00     0.167 HD
ATOM     43  C   UNL A   1      40.585  28.748  28.041  1.00  0.00     0.031 A 
ATOM     44  C   UNL A   1      48.060  26.344  27.391  1.00  0.00     0.031 A 
ATOM     45  C   UNL A   1      41.775  29.500  27.821  1.00  0.00     0.049 A 
ATOM     46  C   UNL A   1      47.486  27.653  27.717  1.00  0.00     0.074 A 
ATOM     47  C   UNL A   1      42.407  29.833  26.651  1.00  0.00     0.029 A 
ATOM     48  N   UNL A   1      42.661  29.568  28.871  1.00  0.00    -0.354 N 
ATOM     49  N   UNL A   1      47.124  28.015  28.908  1.00  0.00    -0.248 NA
ATOM     50  C   UNL A   1      47.221  28.606  26.634  1.00  0.00     0.031 C 
ATOM     51  C   UNL A   1      43.747  29.531  26.949  1.00  0.00     0.029 A 
ATOM     52  C   UNL A   1      43.908  29.384  28.332  1.00  0.00     0.049 A 
ATOM     53  H   UNL A   1      42.443  29.719  29.818  1.00  0.00     0.167 HD
ATOM     54  C   UNL A   1      46.222  29.005  28.639  1.00  0.00     0.074 A 
ATOM     55  C   UNL A   1      46.576  29.537  27.335  1.00  0.00     0.031 C 
ATOM     56  C   UNL A   1      44.978  28.938  29.186  1.00  0.00     0.031 A 
BRANCH  43  57
ATOM     57  C   UNL A   1      39.429  29.493  28.650  1.00  0.00    -0.014 A 
ATOM     58  C   UNL A   1      38.190  29.409  27.958  1.00  0.00     0.010 A 
ATOM     59  C   UNL A   1      39.568  30.506  29.606  1.00  0.00     0.010 A 
ATOM     60  C   UNL A   1      37.193  30.373  28.100  1.00  0.00     0.020 A 
ATOM     61  C   UNL A   1      38.547  31.465  29.782  1.00  0.00     0.020 A 
ATOM     62  C   UNL A   1      37.392  31.418  28.992  1.00  0.00     0.054 A 
BRANCH  62  63
ATOM     63  S   UNL A   1      36.143  32.734  29.039  1.00  0.00     0.124 S 
ATOM     64  O   UNL A   1      36.796  33.754  29.854  1.00  0.00    -0.237 OA
ATOM     65  O   UNL A   1      35.990  33.069  27.624  1.00  0.00    -0.237 OA
ATOM     66  O   UNL A   1      34.984  32.087  29.648  1.00  0.00    -0.744 OA
ENDBRANCH  62  63
ENDBRANCH  43  57
BRANCH  44  67
ATOM     67  C   UNL A   1      49.540  26.404  27.033  1.00  0.00    -0.014 A 
ATOM     68  C   UNL A   1      50.633  26.213  27.885  1.00  0.00     0.010 A 
ATOM     69  C   UNL A   1      49.869  26.490  25.641  1.00  0.00     0.010 A 
ATOM     70  C   UNL A   1      51.930  25.946  27.358  1.00  0.00     0.020 A 
ATOM     71  C   UNL A   1      51.120  26.169  25.108  1.00  0.00     0.020 A 
ATOM     72  C   UNL A   1      52.147  25.855  25.975  1.00  0.00     0.054 A 
BRANCH  72  73
ATOM     73  S   UNL A   1      53.693  25.170  25.298  1.00  0.00     0.124 S 
ATOM     74  O   UNL A   1      54.695  25.648  26.245  1.00  0.00    -0.237 OA
ATOM     75  O   UNL A   1      53.438  23.732  25.317  1.00  0.00    -0.237 OA
ATOM     76  O   UNL A   1      53.775  25.755  23.959  1.00  0.00    -0.744 OA
ENDBRANCH  72  73
ENDBRANCH  44  67
BRANCH  56  77
ATOM     77  C   UNL A   1      44.850  28.078  30.449  1.00  0.00    -0.014 A 
ATOM     78  C   UNL A   1      45.407  28.554  31.654  1.00  0.00     0.010 A 
ATOM     79  C   UNL A   1      44.297  26.778  30.479  1.00  0.00     0.010 A 
ATOM     80  C   UNL A   1      45.432  27.781  32.823  1.00  0.00     0.020 A 
ATOM     81  C   UNL A   1      44.310  25.993  31.655  1.00  0.00     0.020 A 
ATOM     82  C   UNL A   1      44.879  26.503  32.824  1.00  0.00     0.054 A 
BRANCH  82  83
ATOM     83  S   UNL A   1      44.910  25.550  34.374  1.00  0.00     0.124 S 
ATOM     84  O   UNL A   1      44.130  24.361  34.041  1.00  0.00    -0.237 OA
ATOM     85  O   UNL A   1      46.340  25.321  34.574  1.00  0.00    -0.237 OA
ATOM     86  O   UNL A   1      44.285  26.442  35.349  1.00  0.00    -0.744 OA
ENDBRANCH  82  83
ENDBRANCH  56  77
ENDBRANCH  30  31
ENDBRANCH  22  25
ENDBRANCH  20  21
ENDBRANCH   1  20
TORSDOF 16
ENDMDL
MODEL 3
REMARK VINA RESULT:     -11.1      3.772      9.271
REMARK SMILES CCc1ccsc1Cn1cccc1C(=O)NCCCNC(=O)c1ccc(-c2c3nc(c(-c4ccc(S(=O)(=O)[O-])cc4)c4ccc([nH]4)c(-c4ccc(S(=O)(=O)[O-])cc4)c4nc(c(-c5ccc(S(=O)(=O)[O-])cc5)c5ccc2[nH]5)C=C4)C=C3)cc1
REMARK SMILES IDX 18 1 17 2 16 3 14 4 15 5 13 7 9 8 10 9 11 10 12 11 8 12 7 13
REMARK SMILES IDX 3 14 4 15 5 16 6 17 2 18 1 19 19 20 20 21 21 22 22 24 23 25
REMARK SMILES IDX 24 26 82 27 25 28 81 29 26 30 27 31 28 32 75 33 29 34 80 35
REMARK SMILES IDX 74 36 76 37 30 38 79 39 73 40 72 41 31 43 61 44 42 45 60 46
REMARK SMILES IDX 43 47 46 48 59 49 77 50 44 51 45 52 58 54 78 55 47 56 32 57
REMARK SMILES IDX 33 58 41 59 34 60 40 61 35 62 36 63 37 64 38 65 39 66 62 67
REMARK SMILES IDX 63 68 71 69 64 70 70 71 65 72 66 73 67 74 68 75 69 76 48 77
REMARK SMILES IDX 49 78 57 79 50 80 56 81 51 82 52 83 53 84 54 85 55 86
REMARK H PARENT 16 6 20 23 76 42 46 53
REMARK Flexibility Score: inf
ROOT
ATOM      1  C   UNL A   1      37.936  19.569  24.985  1.00  0.00     0.042 C 
ENDROOT
BRANCH   1   2
ATOM      2  C   UNL A   1      36.651  20.412  24.970  1.00  0.00     0.118 C 
BRANCH   2   3
ATOM      3  N   UNL A   1      36.903  21.821  24.745  1.00  0.00    -0.351 N 
ATOM      4  C   UNL A   1      36.280  23.007  25.020  1.00  0.00     0.267 C 
ATOM      5  O   UNL A   1      36.986  23.988  24.755  1.00  0.00    -0.268 OA
ATOM      6  H   UNL A   1      37.750  21.963  24.265  1.00  0.00     0.163 HD
BRANCH   4   7
ATOM      7  C   UNL A   1      34.959  23.204  25.604  1.00  0.00     0.107 A 
ATOM      8  N   UNL A   1      33.913  22.364  25.971  1.00  0.00    -0.338 N 
ATOM      9  C   UNL A   1      32.874  23.116  26.497  1.00  0.00     0.087 A 
ATOM     10  C   UNL A   1      33.160  24.442  26.332  1.00  0.00     0.020 A 
ATOM     11  C   UNL A   1      34.438  24.496  25.752  1.00  0.00     0.033 A 
BRANCH   8  12
ATOM     12  C   UNL A   1      33.859  20.915  26.063  1.00  0.00     0.169 C 
BRANCH  12  13
ATOM     13  C   UNL A   1      33.078  20.164  25.008  1.00  0.00     0.027 A 
ATOM     14  C   UNL A   1      32.592  20.442  23.720  1.00  0.00    -0.033 A 
ATOM     15  C   UNL A   1      32.212  19.208  23.060  1.00  0.00     0.016 A 
ATOM     16  C   UNL A   1      32.329  18.090  23.838  1.00  0.00     0.065 A 
ATOM     17  S   UNL A   1      32.850  18.477  25.396  1.00  0.00    -0.147 S 
BRANCH  14  18
ATOM     18  C   UNL A   1      32.493  21.691  22.863  1.00  0.00     0.033 C 
ATOM     19  C   UNL A   1      31.549  22.801  23.237  1.00  0.00     0.009 C 
ENDBRANCH  14  18
ENDBRANCH  12  13
ENDBRANCH   8  12
ENDBRANCH   4   7
ENDBRANCH   2   3
ENDBRANCH   1   2
BRANCH   1  20
ATOM     20  C   UNL A   1      39.112  20.243  25.655  1.00  0.00     0.118 C 
BRANCH  20  21
ATOM     21  N   UNL A   1      40.094  19.269  26.067  1.00  0.00    -0.352 N 
ATOM     22  C   UNL A   1      41.449  19.425  26.055  1.00  0.00     0.251 C 
ATOM     23  H   UNL A   1      39.750  18.403  26.389  1.00  0.00     0.163 HD
ATOM     24  O   UNL A   1      42.150  18.422  25.846  1.00  0.00    -0.269 OA
BRANCH  22  25
ATOM     25  C   UNL A   1      42.087  20.724  26.364  1.00  0.00     0.039 A 
ATOM     26  C   UNL A   1      42.092  21.144  27.701  1.00  0.00     0.014 A 
ATOM     27  C   UNL A   1      42.513  21.603  25.357  1.00  0.00     0.014 A 
ATOM     28  C   UNL A   1      42.456  22.446  28.013  1.00  0.00     0.010 A 
ATOM     29  C   UNL A   1      42.898  22.892  25.662  1.00  0.00     0.010 A 
ATOM     30  C   UNL A   1      42.836  23.315  26.983  1.00  0.00    -0.014 A 
BRANCH  30  31
ATOM     31  C   UNL A   1      43.346  24.653  27.304  1.00  0.00     0.031 A 
ATOM     32  C   UNL A   1      42.154  25.637  27.456  1.00  0.00     0.074 A 
ATOM     33  C   UNL A   1      44.717  24.749  27.383  1.00  0.00     0.049 A 
ATOM     34  N   UNL A   1      42.145  26.927  27.410  1.00  0.00    -0.248 NA
ATOM     35  C   UNL A   1      40.757  25.128  27.656  1.00  0.00     0.031 C 
ATOM     36  C   UNL A   1      45.668  23.603  27.314  1.00  0.00     0.029 A 
ATOM     37  N   UNL A   1      45.606  25.789  27.549  1.00  0.00    -0.354 N 
ATOM     38  C   UNL A   1      40.845  27.388  27.736  1.00  0.00     0.074 A 
ATOM     39  C   UNL A   1      40.013  26.230  27.808  1.00  0.00     0.031 C 
ATOM     40  C   UNL A   1      46.958  24.022  27.318  1.00  0.00     0.029 A 
ATOM     41  C   UNL A   1      46.994  25.467  27.407  1.00  0.00     0.049 A 
ATOM     42  H   UNL A   1      45.304  26.703  27.755  1.00  0.00     0.167 HD
ATOM     43  C   UNL A   1      40.589  28.703  28.008  1.00  0.00     0.031 A 
ATOM     44  C   UNL A   1      48.069  26.321  27.329  1.00  0.00     0.031 A 
ATOM     45  C   UNL A   1      41.775  29.458  27.779  1.00  0.00     0.049 A 
ATOM     46  C   UNL A   1      47.493  27.629  27.652  1.00  0.00     0.074 A 
ATOM     47  C   UNL A   1      42.400  29.788  26.605  1.00  0.00     0.029 A 
ATOM     48  N   UNL A   1      42.666  29.533  28.824  1.00  0.00    -0.354 N 
ATOM     49  N   UNL A   1      47.136  27.994  28.844  1.00  0.00    -0.248 NA
ATOM     50  C   UNL A   1      47.218  28.577  26.568  1.00  0.00     0.031 C 
ATOM     51  C   UNL A   1      43.743  29.492  26.897  1.00  0.00     0.029 A 
ATOM     52  C   UNL A   1      43.912  29.351  28.280  1.00  0.00     0.049 A 
ATOM     53  H   UNL A   1      42.453  29.687  29.772  1.00  0.00     0.167 HD
ATOM     54  C   UNL A   1      46.228  28.981  28.576  1.00  0.00     0.074 A 
ATOM     55  C   UNL A   1      46.574  29.509  27.268  1.00  0.00     0.031 C 
ATOM     56  C   UNL A   1      44.988  28.912  29.129  1.00  0.00     0.031 A 
BRANCH  43  57
ATOM     57  C   UNL A   1      39.434  29.447  28.621  1.00  0.00    -0.014 A 
ATOM     58  C   UNL A   1      38.187  29.338  27.948  1.00  0.00     0.010 A 
ATOM     59  C   UNL A   1      39.575  30.478  29.557  1.00  0.00     0.010 A 
ATOM     60  C   UNL A   1      37.182  30.294  28.087  1.00  0.00     0.020 A 
ATOM     61  C   UNL A   1      38.547  31.428  29.731  1.00  0.00     0.020 A 
ATOM     62  C   UNL A   1      37.382  31.356  28.958  1.00  0.00     0.054 A 
BRANCH  62  63
ATOM     63  S   UNL A   1      36.119  32.660  29.000  1.00  0.00     0.124 S 
ATOM     64  O   UNL A   1      35.706  32.736  27.602  1.00  0.00    -0.237 OA
ATOM     65  O   UNL A   1      35.125  32.103  29.915  1.00  0.00    -0.237 OA
ATOM     66  O   UNL A   1      36.843  33.823  29.507  1.00  0.00    -0.744 OA
ENDBRANCH  62  63
ENDBRANCH  43  57
BRANCH  44  67
ATOM     67  C   UNL A   1      49.547  26.384  26.962  1.00  0.00    -0.014 A 
ATOM     68  C   UNL A   1      50.644  26.155  27.800  1.00  0.00     0.010 A 
ATOM     69  C   UNL A   1      49.867  26.521  25.573  1.00  0.00     0.010 A 
ATOM     70  C   UNL A   1      51.936  25.898  27.253  1.00  0.00     0.020 A 
ATOM     71  C   UNL A   1      51.111  26.211  25.019  1.00  0.00     0.020 A 
ATOM     72  C   UNL A   1      52.142  25.858  25.866  1.00  0.00     0.054 A 
BRANCH  72  73
ATOM     73  S   UNL A   1      53.679  25.189  25.153  1.00  0.00     0.124 S 
ATOM     74  O   UNL A   1      54.712  25.843  25.950  1.00  0.00    -0.237 OA
ATOM     75  O   UNL A   1      53.529  23.751  25.368  1.00  0.00    -0.237 OA
ATOM     76  O   UNL A   1      53.620  25.602  23.751  1.00  0.00    -0.744 OA
ENDBRANCH  72  73
ENDBRANCH  44  67
BRANCH  56  77
ATOM     77  C   UNL A   1      44.869  28.056  30.397  1.00  0.00    -0.014 A 
ATOM     78  C   UNL A   1      44.355  26.747  30.286  1.00  0.00     0.010 A 
ATOM     79  C   UNL A   1      45.142  28.518  31.703  1.00  0.00     0.010 A 
ATOM     80  C   UNL A   1      44.109  25.942  31.407  1.00  0.00     0.020 A 
ATOM     81  C   UNL A   1      44.905  27.711  32.841  1.00  0.00     0.020 A 
ATOM     82  C   UNL A   1      44.389  26.424  32.683  1.00  0.00     0.054 A 
BRANCH  82  83
ATOM     83  S   UNL A   1      44.080  25.331  34.105  1.00  0.00     0.124 S 
ATOM     84  O   UNL A   1      43.919  24.021  33.479  1.00  0.00    -0.237 OA
ATOM     85  O   UNL A   1      45.294  25.497  34.900  1.00  0.00    -0.237 OA
ATOM     86  O   UNL A   1      42.865  25.876  34.710  1.00  0.00    -0.744 OA
ENDBRANCH  82  83
ENDBRANCH  56  77
ENDBRANCH  30  31
ENDBRANCH  22  25
ENDBRANCH  20  21
ENDBRANCH   1  20
TORSDOF 16
ENDMDL
