MODEL 1
REMARK VINA RESULT:     -10.6      0.000      0.000
REMARK SMILES CC[C@](C)([NH3+])C(=O)N1CC[NH+]([C@H](C)C(=O)NCCCNC(=O)c2ccc(-c3c4nc(c(-c5ccc(S(=O)(=O)[O-])cc5)c5ccc([nH]5)c(-c5ccc(S(=O)(=O)[O-])cc5)c5nc(c(-c6ccc(S(=O)(=O)[O-])cc6)c6ccc3[nH]6)C=C5)C=C4)cc2)CC1
REMARK SMILES IDX 18 1 17 2 16 3 14 4 15 5 12 7 13 8 11 9 6 10 7 11 8 12 9 13
REMARK SMILES IDX 84 14 10 15 83 16 3 18 4 19 2 20 1 21 5 22 19 26 20 27 21 28
REMARK SMILES IDX 22 30 23 31 24 32 82 33 25 34 81 35 26 36 27 37 28 38 75 39
REMARK SMILES IDX 29 40 80 41 74 42 76 43 30 44 79 45 73 46 72 47 31 49 61 50
REMARK SMILES IDX 42 51 60 52 43 53 46 54 59 55 77 56 44 57 45 58 58 60 78 61
REMARK SMILES IDX 47 62 32 63 33 64 41 65 34 66 40 67 35 68 36 69 37 70 38 71
REMARK SMILES IDX 39 72 62 73 63 74 71 75 64 76 70 77 65 78 66 79 67 80 68 81
REMARK SMILES IDX 69 82 48 83 49 84 57 85 50 86 56 87 51 88 52 89 53 90 54 91
REMARK SMILES IDX 55 92
REMARK H PARENT 16 6 11 17 5 23 5 24 5 25 20 29 76 48 46 59
REMARK Flexibility Score: inf
ROOT
ATOM      1  C   UNL A   1      33.616  28.241  24.912  1.00  0.00     0.042 C 
ENDROOT
BRANCH   1   2
ATOM      2  C   UNL A   1      33.353  26.807  24.529  1.00  0.00     0.118 C 
BRANCH   2   3
ATOM      3  N   UNL A   1      31.971  26.505  24.221  1.00  0.00    -0.351 N 
ATOM      4  C   UNL A   1      31.420  25.331  23.790  1.00  0.00     0.278 C 
ATOM      5  O   UNL A   1      30.187  25.248  23.821  1.00  0.00    -0.268 OA
ATOM      6  H   UNL A   1      31.340  27.251  24.337  1.00  0.00     0.163 HD
BRANCH   4   7
ATOM      7  C   UNL A   1      32.281  24.166  23.245  1.00  0.00     0.271 C 
ATOM      8  C   UNL A   1      32.924  24.500  21.890  1.00  0.00     0.086 C 
BRANCH   7   9
ATOM      9  N   UNL A   1      33.113  23.475  24.277  1.00  0.00    -0.322 N 
ATOM     10  C   UNL A   1      34.649  19.817  25.074  1.00  0.00     0.283 C 
ATOM     11  O   UNL A   1      35.795  19.550  24.676  1.00  0.00    -0.268 OA
ATOM     12  N   UNL A   1      34.361  21.124  25.430  1.00  0.00    -0.326 N 
ATOM     13  C   UNL A   1      35.217  22.183  24.902  1.00  0.00     0.181 C 
ATOM     14  C   UNL A   1      33.172  21.689  26.058  1.00  0.00     0.181 C 
ATOM     15  C   UNL A   1      34.414  22.943  23.826  1.00  0.00     0.284 C 
ATOM     16  C   UNL A   1      32.335  22.450  25.013  1.00  0.00     0.284 C 
ATOM     17  H   UNL A   1      33.368  24.228  24.915  1.00  0.00     0.348 HD
BRANCH  10  18
ATOM     18  C   UNL A   1      33.545  18.702  24.927  1.00  0.00     0.171 C 
ATOM     19  C   UNL A   1      34.285  17.387  24.592  1.00  0.00     0.090 C 
BRANCH  18  20
ATOM     20  C   UNL A   1      32.559  19.156  23.804  1.00  0.00     0.075 C 
ATOM     21  C   UNL A   1      32.393  18.213  22.617  1.00  0.00     0.011 C 
ENDBRANCH  18  20
BRANCH  18  22
ATOM     22  N   UNL A   1      32.796  18.422  26.175  1.00  0.00    -0.345 N 
ATOM     23  H   UNL A   1      32.307  19.267  26.474  1.00  0.00     0.345 HD
ATOM     24  H   UNL A   1      33.446  18.130  26.904  1.00  0.00     0.345 HD
ATOM     25  H   UNL A   1      32.118  17.679  26.006  1.00  0.00     0.345 HD
ENDBRANCH  18  22
ENDBRANCH  10  18
ENDBRANCH   7   9
ENDBRANCH   4   7
ENDBRANCH   2   3
ENDBRANCH   1   2
BRANCH   1  26
ATOM     26  C   UNL A   1      34.055  28.402  26.352  1.00  0.00     0.118 C 
BRANCH  26  27
ATOM     27  N   UNL A   1      33.710  29.703  26.919  1.00  0.00    -0.352 N 
ATOM     28  C   UNL A   1      34.391  30.507  27.806  1.00  0.00     0.251 C 
ATOM     29  H   UNL A   1      32.846  30.066  26.617  1.00  0.00     0.163 HD
ATOM     30  O   UNL A   1      33.840  31.492  28.278  1.00  0.00    -0.269 OA
BRANCH  28  31
ATOM     31  C   UNL A   1      35.774  30.163  28.199  1.00  0.00     0.039 A 
ATOM     32  C   UNL A   1      36.019  29.593  29.450  1.00  0.00     0.014 A 
ATOM     33  C   UNL A   1      36.835  30.396  27.325  1.00  0.00     0.014 A 
ATOM     34  C   UNL A   1      37.317  29.204  29.786  1.00  0.00     0.010 A 
ATOM     35  C   UNL A   1      38.081  29.856  27.589  1.00  0.00     0.010 A 
ATOM     36  C   UNL A   1      38.354  29.303  28.844  1.00  0.00    -0.014 A 
BRANCH  36  37
ATOM     37  C   UNL A   1      39.752  28.925  29.165  1.00  0.00     0.031 A 
ATOM     38  C   UNL A   1      40.643  29.916  29.874  1.00  0.00     0.074 A 
ATOM     39  C   UNL A   1      40.233  27.728  28.776  1.00  0.00     0.049 A 
ATOM     40  N   UNL A   1      41.905  29.806  30.201  1.00  0.00    -0.248 NA
ATOM     41  C   UNL A   1      40.053  31.222  30.223  1.00  0.00     0.031 C 
ATOM     42  C   UNL A   1      39.488  26.711  28.029  1.00  0.00     0.029 A 
ATOM     43  N   UNL A   1      41.468  27.162  28.963  1.00  0.00    -0.354 N 
ATOM     44  C   UNL A   1      42.257  31.029  30.762  1.00  0.00     0.074 A 
ATOM     45  C   UNL A   1      41.108  31.895  30.653  1.00  0.00     0.031 C 
ATOM     46  C   UNL A   1      40.264  25.627  27.869  1.00  0.00     0.029 A 
ATOM     47  C   UNL A   1      41.571  25.886  28.463  1.00  0.00     0.049 A 
ATOM     48  H   UNL A   1      42.210  27.626  29.414  1.00  0.00     0.167 HD
ATOM     49  C   UNL A   1      43.417  31.391  31.358  1.00  0.00     0.031 A 
ATOM     50  C   UNL A   1      42.602  25.019  28.492  1.00  0.00     0.031 A 
ATOM     51  C   UNL A   1      44.543  30.511  31.499  1.00  0.00     0.049 A 
ATOM     52  C   UNL A   1      43.874  25.433  29.182  1.00  0.00     0.074 A 
ATOM     53  C   UNL A   1      45.747  30.748  32.138  1.00  0.00     0.029 A 
ATOM     54  N   UNL A   1      44.599  29.219  31.001  1.00  0.00    -0.354 N 
ATOM     55  N   UNL A   1      44.165  26.572  29.766  1.00  0.00    -0.248 NA
ATOM     56  C   UNL A   1      44.950  24.435  29.235  1.00  0.00     0.031 C 
ATOM     57  C   UNL A   1      46.550  29.614  31.982  1.00  0.00     0.029 A 
ATOM     58  C   UNL A   1      45.822  28.648  31.304  1.00  0.00     0.049 A 
ATOM     59  H   UNL A   1      43.874  28.772  30.506  1.00  0.00     0.167 HD
ATOM     60  C   UNL A   1      45.446  26.415  30.284  1.00  0.00     0.074 A 
ATOM     61  C   UNL A   1      45.860  25.064  29.963  1.00  0.00     0.031 C 
ATOM     62  C   UNL A   1      46.213  27.303  30.967  1.00  0.00     0.031 A 
BRANCH  49  63
ATOM     63  C   UNL A   1      43.510  32.792  31.907  1.00  0.00    -0.014 A 
ATOM     64  C   UNL A   1      43.048  33.100  33.200  1.00  0.00     0.010 A 
ATOM     65  C   UNL A   1      44.081  33.813  31.127  1.00  0.00     0.010 A 
ATOM     66  C   UNL A   1      43.110  34.409  33.684  1.00  0.00     0.020 A 
ATOM     67  C   UNL A   1      44.178  35.118  31.620  1.00  0.00     0.020 A 
ATOM     68  C   UNL A   1      43.675  35.411  32.889  1.00  0.00     0.054 A 
BRANCH  68  69
ATOM     69  S   UNL A   1      43.767  37.096  33.553  1.00  0.00     0.124 S 
ATOM     70  O   UNL A   1      43.714  37.903  32.336  1.00  0.00    -0.237 OA
ATOM     71  O   UNL A   1      42.584  37.168  34.407  1.00  0.00    -0.237 OA
ATOM     72  O   UNL A   1      45.045  37.121  34.260  1.00  0.00    -0.744 OA
ENDBRANCH  68  69
ENDBRANCH  49  63
BRANCH  50  73
ATOM     73  C   UNL A   1      42.459  23.665  27.891  1.00  0.00    -0.014 A 
ATOM     74  C   UNL A   1      42.113  22.559  28.689  1.00  0.00     0.010 A 
ATOM     75  C   UNL A   1      42.665  23.472  26.513  1.00  0.00     0.010 A 
ATOM     76  C   UNL A   1      42.004  21.284  28.128  1.00  0.00     0.020 A 
ATOM     77  C   UNL A   1      42.526  22.202  25.942  1.00  0.00     0.020 A 
ATOM     78  C   UNL A   1      42.211  21.114  26.757  1.00  0.00     0.054 A 
BRANCH  78  79
ATOM     79  S   UNL A   1      42.026  19.456  26.043  1.00  0.00     0.124 S 
ATOM     80  O   UNL A   1      42.495  18.603  27.130  1.00  0.00    -0.237 OA
ATOM     81  O   UNL A   1      40.594  19.393  25.760  1.00  0.00    -0.237 OA
ATOM     82  O   UNL A   1      42.885  19.495  24.862  1.00  0.00    -0.744 OA
ENDBRANCH  78  79
ENDBRANCH  50  73
BRANCH  62  83
ATOM     83  C   UNL A   1      47.558  26.823  31.442  1.00  0.00    -0.014 A 
ATOM     84  C   UNL A   1      47.714  26.197  32.692  1.00  0.00     0.010 A 
ATOM     85  C   UNL A   1      48.682  26.989  30.611  1.00  0.00     0.010 A 
ATOM     86  C   UNL A   1      48.980  25.803  33.129  1.00  0.00     0.020 A 
ATOM     87  C   UNL A   1      49.944  26.562  31.029  1.00  0.00     0.020 A 
ATOM     88  C   UNL A   1      50.088  25.995  32.297  1.00  0.00     0.054 A 
BRANCH  88  89
ATOM     89  S   UNL A   1      51.722  25.477  32.888  1.00  0.00     0.124 S 
ATOM     90  O   UNL A   1      51.988  24.309  32.050  1.00  0.00    -0.237 OA
ATOM     91  O   UNL A   1      52.550  26.649  32.614  1.00  0.00    -0.237 OA
ATOM     92  O   UNL A   1      51.503  25.190  34.304  1.00  0.00    -0.744 OA
ENDBRANCH  88  89
ENDBRANCH  62  83
ENDBRANCH  36  37
ENDBRANCH  28  31
ENDBRANCH  26  27
ENDBRANCH   1  26
TORSDOF 17
ENDMDL
MODEL 2
REMARK VINA RESULT:     -10.5      3.382      4.079
REMARK SMILES CC[C@](C)([NH3+])C(=O)N1CC[NH+]([C@H](C)C(=O)NCCCNC(=O)c2ccc(-c3c4nc(c(-c5ccc(S(=O)(=O)[O-])cc5)c5ccc([nH]5)c(-c5ccc(S(=O)(=O)[O-])cc5)c5nc(c(-c6ccc(S(=O)(=O)[O-])cc6)c6ccc3[nH]6)C=C5)C=C4)cc2)CC1
REMARK SMILES IDX 18 1 17 2 16 3 14 4 15 5 12 7 13 8 11 9 6 10 7 11 8 12 9 13
REMARK SMILES IDX 84 14 10 15 83 16 3 18 4 19 2 20 1 21 5 22 19 26 20 27 21 28
REMARK SMILES IDX 22 30 23 31 24 32 82 33 25 34 81 35 26 36 27 37 28 38 75 39
REMARK SMILES IDX 29 40 80 41 74 42 76 43 30 44 79 45 73 46 72 47 31 49 61 50
REMARK SMILES IDX 42 51 60 52 43 53 46 54 59 55 77 56 44 57 45 58 58 60 78 61
REMARK SMILES IDX 47 62 32 63 33 64 41 65 34 66 40 67 35 68 36 69 37 70 38 71
REMARK SMILES IDX 39 72 62 73 63 74 71 75 64 76 70 77 65 78 66 79 67 80 68 81
REMARK SMILES IDX 69 82 48 83 49 84 57 85 50 86 56 87 51 88 52 89 53 90 54 91
REMARK SMILES IDX 55 92
REMARK H PARENT 16 6 11 17 5 23 5 24 5 25 20 29 76 48 46 59
REMARK Flexibility Score: inf
ROOT
ATOM      1  C   UNL A   1      33.899  29.417  27.315  1.00  0.00     0.042 C 
ENDROOT
BRANCH   1   2
ATOM      2  C   UNL A   1      33.581  28.100  26.654  1.00  0.00     0.118 C 
BRANCH   2   3
ATOM      3  N   UNL A   1      32.203  27.674  26.782  1.00  0.00    -0.351 N 
ATOM      4  C   UNL A   1      31.624  26.497  26.399  1.00  0.00     0.278 C 
ATOM      5  O   UNL A   1      30.486  26.270  26.825  1.00  0.00    -0.268 OA
ATOM      6  H   UNL A   1      31.598  28.326  27.203  1.00  0.00     0.163 HD
BRANCH   4   7
ATOM      7  C   UNL A   1      32.328  25.505  25.443  1.00  0.00     0.271 C 
ATOM      8  C   UNL A   1      32.796  26.178  24.144  1.00  0.00     0.086 C 
BRANCH   7   9
ATOM      9  N   UNL A   1      33.250  24.542  26.118  1.00  0.00    -0.322 N 
ATOM     10  C   UNL A   1      34.637  20.764  25.693  1.00  0.00     0.283 C 
ATOM     11  O   UNL A   1      35.694  20.582  25.066  1.00  0.00    -0.268 OA
ATOM     12  N   UNL A   1      34.491  21.936  26.416  1.00  0.00    -0.326 N 
ATOM     13  C   UNL A   1      35.332  23.075  26.053  1.00  0.00     0.181 C 
ATOM     14  C   UNL A   1      33.444  22.345  27.345  1.00  0.00     0.181 C 
ATOM     15  C   UNL A   1      34.435  24.115  25.348  1.00  0.00     0.284 C 
ATOM     16  C   UNL A   1      32.519  23.379  26.676  1.00  0.00     0.284 C 
ATOM     17  H   UNL A   1      33.644  25.091  26.882  1.00  0.00     0.348 HD
BRANCH  10  18
ATOM     18  C   UNL A   1      33.452  19.758  25.436  1.00  0.00     0.171 C 
ATOM     19  C   UNL A   1      34.000  18.657  24.499  1.00  0.00     0.090 C 
BRANCH  18  20
ATOM     20  C   UNL A   1      32.271  20.566  24.810  1.00  0.00     0.075 C 
ATOM     21  C   UNL A   1      32.406  20.944  23.338  1.00  0.00     0.011 C 
ENDBRANCH  18  20
BRANCH  18  22
ATOM     22  N   UNL A   1      32.988  19.044  26.649  1.00  0.00    -0.345 N 
ATOM     23  H   UNL A   1      33.118  19.643  27.465  1.00  0.00     0.345 HD
ATOM     24  H   UNL A   1      33.529  18.187  26.767  1.00  0.00     0.345 HD
ATOM     25  H   UNL A   1      32.000  18.812  26.551  1.00  0.00     0.345 HD
ENDBRANCH  18  22
ENDBRANCH  10  18
ENDBRANCH   7   9
ENDBRANCH   4   7
ENDBRANCH   2   3
ENDBRANCH   1   2
BRANCH   1  26
ATOM     26  C   UNL A   1      35.334  29.514  27.788  1.00  0.00     0.118 C 
BRANCH  26  27
ATOM     27  N   UNL A   1      35.464  30.077  29.129  1.00  0.00    -0.352 N 
ATOM     28  C   UNL A   1      36.540  30.118  29.987  1.00  0.00     0.251 C 
ATOM     29  H   UNL A   1      34.645  30.499  29.477  1.00  0.00     0.163 HD
ATOM     30  O   UNL A   1      36.383  30.500  31.139  1.00  0.00    -0.269 OA
BRANCH  28  31
ATOM     31  C   UNL A   1      37.873  29.680  29.519  1.00  0.00     0.039 A 
ATOM     32  C   UNL A   1      38.181  29.732  28.159  1.00  0.00     0.014 A 
ATOM     33  C   UNL A   1      38.826  29.226  30.429  1.00  0.00     0.014 A 
ATOM     34  C   UNL A   1      39.464  29.385  27.731  1.00  0.00     0.010 A 
ATOM     35  C   UNL A   1      40.138  29.051  30.027  1.00  0.00     0.010 A 
ATOM     36  C   UNL A   1      40.464  29.074  28.667  1.00  0.00    -0.014 A 
BRANCH  36  37
ATOM     37  C   UNL A   1      41.834  28.678  28.258  1.00  0.00     0.031 A 
ATOM     38  C   UNL A   1      42.924  29.720  28.215  1.00  0.00     0.074 A 
ATOM     39  C   UNL A   1      42.083  27.410  27.875  1.00  0.00     0.049 A 
ATOM     40  N   UNL A   1      44.171  29.596  27.837  1.00  0.00    -0.248 NA
ATOM     41  C   UNL A   1      42.558  31.095  28.603  1.00  0.00     0.031 C 
ATOM     42  C   UNL A   1      41.096  26.328  27.814  1.00  0.00     0.029 A 
ATOM     43  N   UNL A   1      43.251  26.816  27.470  1.00  0.00    -0.354 N 
ATOM     44  C   UNL A   1      44.718  30.873  27.918  1.00  0.00     0.074 A 
ATOM     45  C   UNL A   1      43.653  31.771  28.293  1.00  0.00     0.031 C 
ATOM     46  C   UNL A   1      41.712  25.192  27.447  1.00  0.00     0.029 A 
ATOM     47  C   UNL A   1      43.124  25.472  27.209  1.00  0.00     0.049 A 
ATOM     48  H   UNL A   1      44.099  27.306  27.377  1.00  0.00     0.167 HD
ATOM     49  C   UNL A   1      46.002  31.262  27.740  1.00  0.00     0.031 A 
ATOM     50  C   UNL A   1      44.047  24.568  26.829  1.00  0.00     0.031 A 
ATOM     51  C   UNL A   1      47.066  30.358  27.407  1.00  0.00     0.049 A 
ATOM     52  C   UNL A   1      45.473  25.018  26.662  1.00  0.00     0.074 A 
ATOM     53  C   UNL A   1      48.414  30.629  27.263  1.00  0.00     0.029 A 
ATOM     54  N   UNL A   1      46.900  29.001  27.174  1.00  0.00    -0.354 N 
ATOM     55  N   UNL A   1      45.984  26.218  26.808  1.00  0.00    -0.248 NA
ATOM     56  C   UNL A   1      46.452  23.985  26.301  1.00  0.00     0.031 C 
ATOM     57  C   UNL A   1      49.057  29.443  26.894  1.00  0.00     0.029 A 
ATOM     58  C   UNL A   1      48.120  28.422  26.873  1.00  0.00     0.049 A 
ATOM     59  H   UNL A   1      46.042  28.520  27.219  1.00  0.00     0.167 HD
ATOM     60  C   UNL A   1      47.350  26.077  26.588  1.00  0.00     0.074 A 
ATOM     61  C   UNL A   1      47.584  24.672  26.323  1.00  0.00     0.031 C 
ATOM     62  C   UNL A   1      48.326  27.021  26.605  1.00  0.00     0.031 A 
BRANCH  49  63
ATOM     63  C   UNL A   1      46.315  32.727  27.919  1.00  0.00    -0.014 A 
ATOM     64  C   UNL A   1      46.259  33.621  26.833  1.00  0.00     0.010 A 
ATOM     65  C   UNL A   1      46.655  33.220  29.191  1.00  0.00     0.010 A 
ATOM     66  C   UNL A   1      46.584  34.969  27.006  1.00  0.00     0.020 A 
ATOM     67  C   UNL A   1      46.947  34.575  29.376  1.00  0.00     0.020 A 
ATOM     68  C   UNL A   1      46.926  35.438  28.277  1.00  0.00     0.054 A 
BRANCH  68  69
ATOM     69  S   UNL A   1      47.317  37.197  28.477  1.00  0.00     0.124 S 
ATOM     70  O   UNL A   1      46.726  37.491  29.780  1.00  0.00    -0.237 OA
ATOM     71  O   UNL A   1      48.777  37.207  28.433  1.00  0.00    -0.237 OA
ATOM     72  O   UNL A   1      46.658  37.831  27.338  1.00  0.00    -0.744 OA
ENDBRANCH  68  69
ENDBRANCH  49  63
BRANCH  50  73
ATOM     73  C   UNL A   1      43.661  23.145  26.625  1.00  0.00    -0.014 A 
ATOM     74  C   UNL A   1      42.989  22.433  27.636  1.00  0.00     0.010 A 
ATOM     75  C   UNL A   1      43.960  22.491  25.416  1.00  0.00     0.010 A 
ATOM     76  C   UNL A   1      42.649  21.089  27.454  1.00  0.00     0.020 A 
ATOM     77  C   UNL A   1      43.593  21.156  25.218  1.00  0.00     0.020 A 
ATOM     78  C   UNL A   1      42.953  20.460  26.245  1.00  0.00     0.054 A 
BRANCH  78  79
ATOM     79  S   UNL A   1      42.469  18.726  26.015  1.00  0.00     0.124 S 
ATOM     80  O   UNL A   1      43.359  18.302  24.939  1.00  0.00    -0.237 OA
ATOM     81  O   UNL A   1      42.741  18.147  27.328  1.00  0.00    -0.237 OA
ATOM     82  O   UNL A   1      41.054  18.810  25.661  1.00  0.00    -0.744 OA
ENDBRANCH  78  79
ENDBRANCH  50  73
BRANCH  62  83
ATOM     83  C   UNL A   1      49.736  26.552  26.368  1.00  0.00    -0.014 A 
ATOM     84  C   UNL A   1      50.363  26.712  25.120  1.00  0.00     0.010 A 
ATOM     85  C   UNL A   1      50.449  25.954  27.425  1.00  0.00     0.010 A 
ATOM     86  C   UNL A   1      51.656  26.226  24.914  1.00  0.00     0.020 A 
ATOM     87  C   UNL A   1      51.756  25.500  27.233  1.00  0.00     0.020 A 
ATOM     88  C   UNL A   1      52.341  25.616  25.970  1.00  0.00     0.054 A 
BRANCH  88  89
ATOM     89  S   UNL A   1      54.017  24.991  25.678  1.00  0.00     0.124 S 
ATOM     90  O   UNL A   1      54.318  25.540  24.358  1.00  0.00    -0.237 OA
ATOM     91  O   UNL A   1      54.773  25.569  26.786  1.00  0.00    -0.237 OA
ATOM     92  O   UNL A   1      53.859  23.539  25.727  1.00  0.00    -0.744 OA
ENDBRANCH  88  89
ENDBRANCH  62  83
ENDBRANCH  36  37
ENDBRANCH  28  31
ENDBRANCH  26  27
ENDBRANCH   1  26
TORSDOF 17
ENDMDL
MODEL 3
REMARK VINA RESULT:     -10.5      1.545      2.335
REMARK SMILES CC[C@](C)([NH3+])C(=O)N1CC[NH+]([C@H](C)C(=O)NCCCNC(=O)c2ccc(-c3c4nc(c(-c5ccc(S(=O)(=O)[O-])cc5)c5ccc([nH]5)c(-c5ccc(S(=O)(=O)[O-])cc5)c5nc(c(-c6ccc(S(=O)(=O)[O-])cc6)c6ccc3[nH]6)C=C5)C=C4)cc2)CC1
REMARK SMILES IDX 18 1 17 2 16 3 14 4 15 5 12 7 13 8 11 9 6 10 7 11 8 12 9 13
REMARK SMILES IDX 84 14 10 15 83 16 3 18 4 19 2 20 1 21 5 22 19 26 20 27 21 28
REMARK SMILES IDX 22 30 23 31 24 32 82 33 25 34 81 35 26 36 27 37 28 38 75 39
REMARK SMILES IDX 29 40 80 41 74 42 76 43 30 44 79 45 73 46 72 47 31 49 61 50
REMARK SMILES IDX 42 51 60 52 43 53 46 54 59 55 77 56 44 57 45 58 58 60 78 61
REMARK SMILES IDX 47 62 32 63 33 64 41 65 34 66 40 67 35 68 36 69 37 70 38 71
REMARK SMILES IDX 39 72 62 73 63 74 71 75 64 76 70 77 65 78 66 79 67 80 68 81
REMARK SMILES IDX 69 82 48 83 49 84 57 85 50 86 56 87 51 88 52 89 53 90 54 91
REMARK SMILES IDX 55 92
REMARK H PARENT 16 6 11 17 5 23 5 24 5 25 20 29 76 48 46 59
REMARK Flexibility Score: inf
ROOT
ATOM      1  C   UNL A   1      32.926  27.488  26.032  1.00  0.00     0.042 C 
ENDROOT
BRANCH   1   2
ATOM      2  C   UNL A   1      31.835  28.340  25.436  1.00  0.00     0.118 C 
BRANCH   2   3
ATOM      3  N   UNL A   1      31.579  28.102  24.031  1.00  0.00    -0.351 N 
ATOM      4  C   UNL A   1      30.490  27.527  23.437  1.00  0.00     0.278 C 
ATOM      5  O   UNL A   1      30.394  27.647  22.211  1.00  0.00    -0.268 OA
ATOM      6  H   UNL A   1      32.290  28.396  23.417  1.00  0.00     0.163 HD
BRANCH   4   7
ATOM      7  C   UNL A   1      29.442  26.721  24.242  1.00  0.00     0.271 C 
ATOM      8  C   UNL A   1      28.011  26.950  23.731  1.00  0.00     0.086 C 
BRANCH   7   9
ATOM      9  N   UNL A   1      29.861  25.328  24.584  1.00  0.00    -0.322 N 
ATOM     10  C   UNL A   1      33.157  23.281  25.735  1.00  0.00     0.283 C 
ATOM     11  O   UNL A   1      33.369  23.121  26.948  1.00  0.00    -0.268 OA
ATOM     12  N   UNL A   1      31.846  23.334  25.294  1.00  0.00    -0.326 N 
ATOM     13  C   UNL A   1      30.808  23.666  26.267  1.00  0.00     0.181 C 
ATOM     14  C   UNL A   1      31.309  23.364  23.938  1.00  0.00     0.181 C 
ATOM     15  C   UNL A   1      30.325  25.101  25.967  1.00  0.00     0.284 C 
ATOM     16  C   UNL A   1      30.823  24.785  23.595  1.00  0.00     0.284 C 
ATOM     17  H   UNL A   1      28.990  24.801  24.532  1.00  0.00     0.348 HD
BRANCH  10  18
ATOM     18  C   UNL A   1      34.388  23.642  24.820  1.00  0.00     0.171 C 
ATOM     19  C   UNL A   1      34.428  22.585  23.692  1.00  0.00     0.090 C 
BRANCH  18  20
ATOM     20  C   UNL A   1      35.666  23.631  25.717  1.00  0.00     0.075 C 
ATOM     21  C   UNL A   1      36.562  22.401  25.616  1.00  0.00     0.011 C 
ENDBRANCH  18  20
BRANCH  18  22
ATOM     22  N   UNL A   1      34.268  24.947  24.128  1.00  0.00    -0.345 N 
ATOM     23  H   UNL A   1      34.791  24.918  23.253  1.00  0.00     0.345 HD
ATOM     24  H   UNL A   1      34.644  25.684  24.724  1.00  0.00     0.345 HD
ATOM     25  H   UNL A   1      33.285  25.138  23.930  1.00  0.00     0.345 HD
ENDBRANCH  18  22
ENDBRANCH  10  18
ENDBRANCH   7   9
ENDBRANCH   4   7
ENDBRANCH   2   3
ENDBRANCH   1   2
BRANCH   1  26
ATOM     26  C   UNL A   1      34.142  28.286  26.451  1.00  0.00     0.118 C 
BRANCH  26  27
ATOM     27  N   UNL A   1      33.812  29.597  27.002  1.00  0.00    -0.352 N 
ATOM     28  C   UNL A   1      34.517  30.420  27.852  1.00  0.00     0.251 C 
ATOM     29  H   UNL A   1      32.939  29.953  26.717  1.00  0.00     0.163 HD
ATOM     30  O   UNL A   1      33.978  31.414  28.318  1.00  0.00    -0.269 OA
BRANCH  28  31
ATOM     31  C   UNL A   1      35.911  30.086  28.212  1.00  0.00     0.039 A 
ATOM     32  C   UNL A   1      36.194  29.556  29.472  1.00  0.00     0.014 A 
ATOM     33  C   UNL A   1      36.944  30.290  27.298  1.00  0.00     0.014 A 
ATOM     34  C   UNL A   1      37.502  29.175  29.780  1.00  0.00     0.010 A 
ATOM     35  C   UNL A   1      38.197  29.756  27.540  1.00  0.00     0.010 A 
ATOM     36  C   UNL A   1      38.509  29.242  28.802  1.00  0.00    -0.014 A 
BRANCH  36  37
ATOM     37  C   UNL A   1      39.916  28.871  29.092  1.00  0.00     0.031 A 
ATOM     38  C   UNL A   1      40.820  29.872  29.770  1.00  0.00     0.074 A 
ATOM     39  C   UNL A   1      40.392  27.673  28.701  1.00  0.00     0.049 A 
ATOM     40  N   UNL A   1      42.091  29.769  30.066  1.00  0.00    -0.248 NA
ATOM     41  C   UNL A   1      40.235  31.179  30.123  1.00  0.00     0.031 C 
ATOM     42  C   UNL A   1      39.632  26.647  27.981  1.00  0.00     0.029 A 
ATOM     43  N   UNL A   1      41.633  27.113  28.862  1.00  0.00    -0.354 N 
ATOM     44  C   UNL A   1      42.452  30.998  30.608  1.00  0.00     0.074 A 
ATOM     45  C   UNL A   1      41.298  31.859  30.521  1.00  0.00     0.031 C 
ATOM     46  C   UNL A   1      40.407  25.565  27.810  1.00  0.00     0.029 A 
ATOM     47  C   UNL A   1      41.728  25.833  28.370  1.00  0.00     0.049 A 
ATOM     48  H   UNL A   1      42.384  27.584  29.289  1.00  0.00     0.167 HD
ATOM     49  C   UNL A   1      43.625  31.369  31.171  1.00  0.00     0.031 A 
ATOM     50  C   UNL A   1      42.762  24.971  28.380  1.00  0.00     0.031 A 
ATOM     51  C   UNL A   1      44.758  30.494  31.292  1.00  0.00     0.049 A 
ATOM     52  C   UNL A   1      44.050  25.395  29.034  1.00  0.00     0.074 A 
ATOM     53  C   UNL A   1      45.976  30.741  31.898  1.00  0.00     0.029 A 
ATOM     54  N   UNL A   1      44.806  29.198  30.803  1.00  0.00    -0.354 N 
ATOM     55  N   UNL A   1      44.351  26.539  29.601  1.00  0.00    -0.248 NA
ATOM     56  C   UNL A   1      45.130  24.400  29.068  1.00  0.00     0.031 C 
ATOM     57  C   UNL A   1      46.780  29.608  31.731  1.00  0.00     0.029 A 
ATOM     58  C   UNL A   1      46.038  28.634  31.080  1.00  0.00     0.049 A 
ATOM     59  H   UNL A   1      44.070  28.744  30.330  1.00  0.00     0.167 HD
ATOM     60  C   UNL A   1      45.645  26.391  30.088  1.00  0.00     0.074 A 
ATOM     61  C   UNL A   1      46.056  25.039  29.768  1.00  0.00     0.031 C 
ATOM     62  C   UNL A   1      46.426  27.288  30.744  1.00  0.00     0.031 A 
BRANCH  49  63
ATOM     63  C   UNL A   1      43.727  32.775  31.706  1.00  0.00    -0.014 A 
ATOM     64  C   UNL A   1      44.126  33.842  30.879  1.00  0.00     0.010 A 
ATOM     65  C   UNL A   1      43.403  33.039  33.049  1.00  0.00     0.010 A 
ATOM     66  C   UNL A   1      44.248  35.134  31.395  1.00  0.00     0.020 A 
ATOM     67  C   UNL A   1      43.489  34.337  33.561  1.00  0.00     0.020 A 
ATOM     68  C   UNL A   1      43.928  35.374  32.735  1.00  0.00     0.054 A 
BRANCH  68  69
ATOM     69  S   UNL A   1      44.069  37.065  33.371  1.00  0.00     0.124 S 
ATOM     70  O   UNL A   1      45.182  36.943  34.309  1.00  0.00    -0.237 OA
ATOM     71  O   UNL A   1      44.347  37.839  32.163  1.00  0.00    -0.237 OA
ATOM     72  O   UNL A   1      42.766  37.316  33.982  1.00  0.00    -0.744 OA
ENDBRANCH  68  69
ENDBRANCH  49  63
BRANCH  50  73
ATOM     73  C   UNL A   1      42.610  23.611  27.793  1.00  0.00    -0.014 A 
ATOM     74  C   UNL A   1      42.017  22.573  28.536  1.00  0.00     0.010 A 
ATOM     75  C   UNL A   1      43.052  23.345  26.485  1.00  0.00     0.010 A 
ATOM     76  C   UNL A   1      41.897  21.290  27.994  1.00  0.00     0.020 A 
ATOM     77  C   UNL A   1      42.905  22.071  25.928  1.00  0.00     0.020 A 
ATOM     78  C   UNL A   1      42.341  21.048  26.692  1.00  0.00     0.054 A 
BRANCH  78  79
ATOM     79  S   UNL A   1      42.141  19.385  25.994  1.00  0.00     0.124 S 
ATOM     80  O   UNL A   1      40.700  19.321  25.770  1.00  0.00    -0.237 OA
ATOM     81  O   UNL A   1      42.966  19.447  24.790  1.00  0.00    -0.237 OA
ATOM     82  O   UNL A   1      42.651  18.508  27.045  1.00  0.00    -0.744 OA
ENDBRANCH  78  79
ENDBRANCH  50  73
BRANCH  62  83
ATOM     83  C   UNL A   1      47.784  26.816  31.190  1.00  0.00    -0.014 A 
ATOM     84  C   UNL A   1      47.964  26.150  32.415  1.00  0.00     0.010 A 
ATOM     85  C   UNL A   1      48.897  27.032  30.355  1.00  0.00     0.010 A 
ATOM     86  C   UNL A   1      49.242  25.764  32.825  1.00  0.00     0.020 A 
ATOM     87  C   UNL A   1      50.170  26.615  30.745  1.00  0.00     0.020 A 
ATOM     88  C   UNL A   1      50.338  26.006  31.991  1.00  0.00     0.054 A 
BRANCH  88  89
ATOM     89  S   UNL A   1      51.986  25.498  32.547  1.00  0.00     0.124 S 
ATOM     90  O   UNL A   1      51.783  24.081  32.838  1.00  0.00    -0.237 OA
ATOM     91  O   UNL A   1      52.821  25.787  31.384  1.00  0.00    -0.237 OA
ATOM     92  O   UNL A   1      52.235  26.343  33.713  1.00  0.00    -0.744 OA
ENDBRANCH  88  89
ENDBRANCH  62  83
ENDBRANCH  36  37
ENDBRANCH  28  31
ENDBRANCH  26  27
ENDBRANCH   1  26
TORSDOF 17
ENDMDL
