MODEL 1
REMARK VINA RESULT:     -10.5      0.000      0.000
REMARK SMILES O=C(C[C@@H]1CN(C(=O)N2CCC[C@H]2CO)CCO1)NCCCNC(=O)c1ccc(-c2c3nc(c(-c4ccc(S(=O)(=O)[O-])cc4)c4ccc([nH]4)c(-c4ccc(S(=O)(=O)[O-])cc4)c4nc(c(-c5ccc(S(=O)(=O)[O-])cc5)c5ccc2[nH]5)C=C4)C=C3)cc1
REMARK SMILES IDX 20 1 19 2 1 3 2 4 3 6 4 7 5 8 18 9 6 10 17 11 16 12 7 13
REMARK SMILES IDX 8 14 9 15 10 16 13 17 11 18 12 19 14 20 15 21 21 23 22 24
REMARK SMILES IDX 23 25 24 26 25 28 26 29 27 30 85 31 28 32 84 33 29 34 30 35
REMARK SMILES IDX 31 36 78 37 32 38 83 39 77 40 79 41 33 42 82 43 76 44 75 45
REMARK SMILES IDX 34 47 64 48 45 49 63 50 46 51 49 52 62 53 80 54 47 55 48 56
REMARK SMILES IDX 61 58 81 59 50 60 35 61 36 62 44 63 37 64 43 65 38 66 39 67
REMARK SMILES IDX 40 68 41 69 42 70 65 71 66 72 74 73 67 74 73 75 68 76 69 77
REMARK SMILES IDX 70 78 71 79 72 80 51 81 52 82 60 83 53 84 59 85 54 86 55 87
REMARK SMILES IDX 56 88 57 89 58 90
REMARK H PARENT 19 5 15 22 23 27 79 46 49 57
REMARK Flexibility Score: inf
ROOT
ATOM      1  C   UNL A   1      31.659  29.315  25.059  1.00  0.00     0.117 C 
ENDROOT
BRANCH   1   2
ATOM      2  N   UNL A   1      31.020  28.016  24.918  1.00  0.00    -0.356 N 
ATOM      3  O   UNL A   1      30.555  28.295  22.684  1.00  0.00    -0.275 OA
ATOM      4  C   UNL A   1      30.547  27.592  23.690  1.00  0.00     0.222 C 
ATOM      5  H   UNL A   1      30.925  27.433  25.704  1.00  0.00     0.163 HD
BRANCH   4   6
ATOM      6  C   UNL A   1      30.115  26.142  23.644  1.00  0.00     0.133 C 
BRANCH   6   7
ATOM      7  C   UNL A   1      31.059  25.195  24.402  1.00  0.00     0.147 C 
ATOM      8  C   UNL A   1      31.294  23.831  23.734  1.00  0.00     0.154 C 
ATOM      9  O   UNL A   1      30.540  24.981  25.738  1.00  0.00    -0.374 OA
ATOM     10  N   UNL A   1      32.229  23.033  24.530  1.00  0.00    -0.320 N 
ATOM     11  C   UNL A   1      31.452  24.204  26.540  1.00  0.00     0.182 C 
ATOM     12  C   UNL A   1      31.782  22.847  25.904  1.00  0.00     0.150 C 
BRANCH  10  13
ATOM     13  C   UNL A   1      33.068  22.110  23.943  1.00  0.00     0.320 C 
ATOM     14  O   UNL A   1      32.636  21.124  23.350  1.00  0.00    -0.248 OA
BRANCH  13  15
ATOM     15  N   UNL A   1      34.412  22.363  24.045  1.00  0.00    -0.319 N 
ATOM     16  C   UNL A   1      35.136  23.502  23.510  1.00  0.00     0.122 C 
ATOM     17  C   UNL A   1      35.327  21.455  24.744  1.00  0.00     0.112 C 
ATOM     18  C   UNL A   1      36.476  22.902  23.153  1.00  0.00     0.024 C 
ATOM     19  C   UNL A   1      36.726  21.913  24.290  1.00  0.00     0.029 C 
BRANCH  17  20
ATOM     20  C   UNL A   1      35.183  21.475  26.272  1.00  0.00     0.181 C 
BRANCH  20  21
ATOM     21  O   UNL A   1      35.632  22.715  26.816  1.00  0.00    -0.394 OA
ATOM     22  H   UNL A   1      35.364  22.777  27.746  1.00  0.00     0.210 HD
ENDBRANCH  20  21
ENDBRANCH  17  20
ENDBRANCH  13  15
ENDBRANCH  10  13
ENDBRANCH   6   7
ENDBRANCH   4   6
ENDBRANCH   1   2
BRANCH   1  23
ATOM     23  C   UNL A   1      33.135  29.248  25.439  1.00  0.00     0.042 C 
BRANCH  23  24
ATOM     24  C   UNL A   1      33.431  29.144  26.932  1.00  0.00     0.118 C 
BRANCH  24  25
ATOM     25  N   UNL A   1      33.517  30.427  27.612  1.00  0.00    -0.352 N 
ATOM     26  C   UNL A   1      34.566  30.992  28.307  1.00  0.00     0.251 C 
ATOM     27  H   UNL A   1      32.703  30.978  27.569  1.00  0.00     0.163 HD
ATOM     28  O   UNL A   1      34.427  32.101  28.808  1.00  0.00    -0.269 OA
BRANCH  26  29
ATOM     29  C   UNL A   1      35.823  30.239  28.523  1.00  0.00     0.039 A 
ATOM     30  C   UNL A   1      36.746  30.212  27.472  1.00  0.00     0.014 A 
ATOM     31  C   UNL A   1      36.128  29.623  29.738  1.00  0.00     0.014 A 
ATOM     32  C   UNL A   1      38.021  29.689  27.681  1.00  0.00     0.010 A 
ATOM     33  C   UNL A   1      37.420  29.151  29.965  1.00  0.00     0.010 A 
ATOM     34  C   UNL A   1      38.387  29.222  28.952  1.00  0.00    -0.014 A 
BRANCH  34  35
ATOM     35  C   UNL A   1      39.807  28.929  29.266  1.00  0.00     0.031 A 
ATOM     36  C   UNL A   1      40.690  29.962  29.897  1.00  0.00     0.074 A 
ATOM     37  C   UNL A   1      40.312  27.734  28.897  1.00  0.00     0.049 A 
ATOM     38  N   UNL A   1      41.963  29.886  30.185  1.00  0.00    -0.248 NA
ATOM     39  C   UNL A   1      40.069  31.251  30.234  1.00  0.00     0.031 C 
ATOM     40  C   UNL A   1      39.559  26.665  28.233  1.00  0.00     0.029 A 
ATOM     41  N   UNL A   1      41.578  27.219  29.019  1.00  0.00    -0.354 N 
ATOM     42  C   UNL A   1      42.302  31.118  30.728  1.00  0.00     0.074 A 
ATOM     43  C   UNL A   1      41.107  31.935  30.698  1.00  0.00     0.031 C 
ATOM     44  C   UNL A   1      40.371  25.617  28.026  1.00  0.00     0.029 A 
ATOM     45  C   UNL A   1      41.707  25.950  28.507  1.00  0.00     0.049 A 
ATOM     46  H   UNL A   1      42.323  27.712  29.433  1.00  0.00     0.167 HD
ATOM     47  C   UNL A   1      43.499  31.526  31.215  1.00  0.00     0.031 A 
ATOM     48  C   UNL A   1      42.782  25.143  28.425  1.00  0.00     0.031 A 
ATOM     49  C   UNL A   1      44.684  30.710  31.239  1.00  0.00     0.049 A 
ATOM     50  C   UNL A   1      44.098  25.621  28.967  1.00  0.00     0.074 A 
ATOM     51  C   UNL A   1      45.931  31.020  31.754  1.00  0.00     0.029 A 
ATOM     52  N   UNL A   1      44.772  29.427  30.723  1.00  0.00    -0.354 N 
ATOM     53  N   UNL A   1      44.383  26.770  29.532  1.00  0.00    -0.248 NA
ATOM     54  C   UNL A   1      45.234  24.695  28.866  1.00  0.00     0.031 C 
ATOM     55  C   UNL A   1      46.784  29.936  31.516  1.00  0.00     0.029 A 
ATOM     56  C   UNL A   1      46.057  28.937  30.888  1.00  0.00     0.049 A 
ATOM     57  H   UNL A   1      44.030  28.936  30.302  1.00  0.00     0.167 HD
ATOM     58  C   UNL A   1      45.729  26.700  29.868  1.00  0.00     0.074 A 
ATOM     59  C   UNL A   1      46.197  25.391  29.455  1.00  0.00     0.031 C 
ATOM     60  C   UNL A   1      46.505  27.635  30.466  1.00  0.00     0.031 A 
BRANCH  47  61
ATOM     61  C   UNL A   1      43.580  32.928  31.751  1.00  0.00    -0.014 A 
ATOM     62  C   UNL A   1      44.035  33.986  30.942  1.00  0.00     0.010 A 
ATOM     63  C   UNL A   1      43.177  33.198  33.071  1.00  0.00     0.010 A 
ATOM     64  C   UNL A   1      44.130  35.280  31.459  1.00  0.00     0.020 A 
ATOM     65  C   UNL A   1      43.249  34.496  33.584  1.00  0.00     0.020 A 
ATOM     66  C   UNL A   1      43.745  35.525  32.780  1.00  0.00     0.054 A 
BRANCH  66  67
ATOM     67  S   UNL A   1      43.878  37.213  33.430  1.00  0.00     0.124 S 
ATOM     68  O   UNL A   1      45.200  37.191  34.050  1.00  0.00    -0.237 OA
ATOM     69  O   UNL A   1      43.762  38.034  32.227  1.00  0.00    -0.237 OA
ATOM     70  O   UNL A   1      42.755  37.314  34.360  1.00  0.00    -0.744 OA
ENDBRANCH  66  67
ENDBRANCH  47  61
BRANCH  48  71
ATOM     71  C   UNL A   1      42.648  23.795  27.814  1.00  0.00    -0.014 A 
ATOM     72  C   UNL A   1      42.940  23.599  26.453  1.00  0.00     0.010 A 
ATOM     73  C   UNL A   1      42.258  22.693  28.598  1.00  0.00     0.010 A 
ATOM     74  C   UNL A   1      42.834  22.327  25.884  1.00  0.00     0.020 A 
ATOM     75  C   UNL A   1      42.172  21.418  28.036  1.00  0.00     0.020 A 
ATOM     76  C   UNL A   1      42.451  21.245  26.679  1.00  0.00     0.054 A 
BRANCH  76  77
ATOM     77  S   UNL A   1      42.381  19.589  25.938  1.00  0.00     0.124 S 
ATOM     78  O   UNL A   1      42.723  18.736  27.071  1.00  0.00    -0.237 OA
ATOM     79  O   UNL A   1      40.997  19.505  25.476  1.00  0.00    -0.237 OA
ATOM     80  O   UNL A   1      43.380  19.652  24.874  1.00  0.00    -0.744 OA
ENDBRANCH  76  77
ENDBRANCH  48  71
BRANCH  60  81
ATOM     81  C   UNL A   1      47.941  27.271  30.724  1.00  0.00    -0.014 A 
ATOM     82  C   UNL A   1      48.314  26.601  31.902  1.00  0.00     0.010 A 
ATOM     83  C   UNL A   1      48.915  27.551  29.750  1.00  0.00     0.010 A 
ATOM     84  C   UNL A   1      49.645  26.234  32.110  1.00  0.00     0.020 A 
ATOM     85  C   UNL A   1      50.243  27.168  29.946  1.00  0.00     0.020 A 
ATOM     86  C   UNL A   1      50.602  26.519  31.130  1.00  0.00     0.054 A 
BRANCH  86  87
ATOM     87  S   UNL A   1      52.314  25.980  31.393  1.00  0.00     0.124 S 
ATOM     88  O   UNL A   1      52.805  26.979  32.339  1.00  0.00    -0.237 OA
ATOM     89  O   UNL A   1      52.149  24.632  31.933  1.00  0.00    -0.237 OA
ATOM     90  O   UNL A   1      52.904  26.040  30.058  1.00  0.00    -0.744 OA
ENDBRANCH  86  87
ENDBRANCH  60  81
ENDBRANCH  34  35
ENDBRANCH  26  29
ENDBRANCH  24  25
ENDBRANCH  23  24
ENDBRANCH   1  23
TORSDOF 18
ENDMDL
MODEL 2
REMARK VINA RESULT:     -10.1      3.329      8.235
REMARK SMILES O=C(C[C@@H]1CN(C(=O)N2CCC[C@H]2CO)CCO1)NCCCNC(=O)c1ccc(-c2c3nc(c(-c4ccc(S(=O)(=O)[O-])cc4)c4ccc([nH]4)c(-c4ccc(S(=O)(=O)[O-])cc4)c4nc(c(-c5ccc(S(=O)(=O)[O-])cc5)c5ccc2[nH]5)C=C4)C=C3)cc1
REMARK SMILES IDX 20 1 19 2 1 3 2 4 3 6 4 7 5 8 18 9 6 10 17 11 16 12 7 13
REMARK SMILES IDX 8 14 9 15 10 16 13 17 11 18 12 19 14 20 15 21 21 23 22 24
REMARK SMILES IDX 23 25 24 26 25 28 26 29 27 30 85 31 28 32 84 33 29 34 30 35
REMARK SMILES IDX 31 36 78 37 32 38 83 39 77 40 79 41 33 42 82 43 76 44 75 45
REMARK SMILES IDX 34 47 64 48 45 49 63 50 46 51 49 52 62 53 80 54 47 55 48 56
REMARK SMILES IDX 61 58 81 59 50 60 35 61 36 62 44 63 37 64 43 65 38 66 39 67
REMARK SMILES IDX 40 68 41 69 42 70 65 71 66 72 74 73 67 74 73 75 68 76 69 77
REMARK SMILES IDX 70 78 71 79 72 80 51 81 52 82 60 83 53 84 59 85 54 86 55 87
REMARK SMILES IDX 56 88 57 89 58 90
REMARK H PARENT 19 5 15 22 23 27 79 46 49 57
REMARK Flexibility Score: inf
ROOT
ATOM      1  C   UNL A   1      36.529  20.889  25.340  1.00  0.00     0.117 C 
ENDROOT
BRANCH   1   2
ATOM      2  N   UNL A   1      35.369  21.675  25.728  1.00  0.00    -0.356 N 
ATOM      3  O   UNL A   1      33.876  20.353  24.585  1.00  0.00    -0.275 OA
ATOM      4  C   UNL A   1      34.098  21.298  25.336  1.00  0.00     0.222 C 
ATOM      5  H   UNL A   1      35.490  22.483  26.276  1.00  0.00     0.163 HD
BRANCH   4   6
ATOM      6  C   UNL A   1      32.976  22.073  25.994  1.00  0.00     0.133 C 
BRANCH   6   7
ATOM      7  C   UNL A   1      32.921  23.551  25.574  1.00  0.00     0.147 C 
ATOM      8  C   UNL A   1      32.642  23.800  24.084  1.00  0.00     0.154 C 
ATOM      9  O   UNL A   1      34.173  24.189  25.931  1.00  0.00    -0.374 OA
ATOM     10  N   UNL A   1      32.583  25.237  23.814  1.00  0.00    -0.320 N 
ATOM     11  C   UNL A   1      34.131  25.608  25.679  1.00  0.00     0.182 C 
ATOM     12  C   UNL A   1      33.797  25.936  24.218  1.00  0.00     0.150 C 
BRANCH  10  13
ATOM     13  C   UNL A   1      31.792  25.750  22.808  1.00  0.00     0.320 C 
ATOM     14  O   UNL A   1      32.005  25.501  21.624  1.00  0.00    -0.248 OA
BRANCH  13  15
ATOM     15  N   UNL A   1      30.744  26.540  23.205  1.00  0.00    -0.319 N 
ATOM     16  C   UNL A   1      29.888  26.350  24.362  1.00  0.00     0.122 C 
ATOM     17  C   UNL A   1      30.342  27.736  22.459  1.00  0.00     0.112 C 
ATOM     18  C   UNL A   1      28.556  26.870  23.874  1.00  0.00     0.024 C 
ATOM     19  C   UNL A   1      28.946  28.073  23.018  1.00  0.00     0.029 C 
BRANCH  17  20
ATOM     20  C   UNL A   1      31.315  28.916  22.595  1.00  0.00     0.181 C 
BRANCH  20  21
ATOM     21  O   UNL A   1      30.945  29.993  21.736  1.00  0.00    -0.394 OA
ATOM     22  H   UNL A   1      30.984  30.828  22.227  1.00  0.00     0.210 HD
ENDBRANCH  20  21
ENDBRANCH  17  20
ENDBRANCH  13  15
ENDBRANCH  10  13
ENDBRANCH   6   7
ENDBRANCH   4   6
ENDBRANCH   1   2
BRANCH   1  23
ATOM     23  C   UNL A   1      37.785  21.714  25.079  1.00  0.00     0.042 C 
BRANCH  23  24
ATOM     24  C   UNL A   1      38.921  21.528  26.080  1.00  0.00     0.118 C 
BRANCH  24  25
ATOM     25  N   UNL A   1      39.650  20.278  25.926  1.00  0.00    -0.352 N 
ATOM     26  C   UNL A   1      40.990  20.007  26.105  1.00  0.00     0.251 C 
ATOM     27  H   UNL A   1      39.103  19.508  25.651  1.00  0.00     0.163 HD
ATOM     28  O   UNL A   1      41.403  18.869  25.921  1.00  0.00    -0.269 OA
BRANCH  26  29
ATOM     29  C   UNL A   1      41.944  21.091  26.434  1.00  0.00     0.039 A 
ATOM     30  C   UNL A   1      42.410  21.881  25.377  1.00  0.00     0.014 A 
ATOM     31  C   UNL A   1      42.334  21.376  27.743  1.00  0.00     0.014 A 
ATOM     32  C   UNL A   1      43.152  23.030  25.643  1.00  0.00     0.010 A 
ATOM     33  C   UNL A   1      43.027  22.555  28.015  1.00  0.00     0.010 A 
ATOM     34  C   UNL A   1      43.401  23.412  26.970  1.00  0.00    -0.014 A 
BRANCH  34  35
ATOM     35  C   UNL A   1      43.935  24.760  27.278  1.00  0.00     0.031 A 
ATOM     36  C   UNL A   1      43.031  25.867  27.729  1.00  0.00     0.074 A 
ATOM     37  C   UNL A   1      45.246  24.996  27.067  1.00  0.00     0.049 A 
ATOM     38  N   UNL A   1      43.327  27.115  27.985  1.00  0.00    -0.248 NA
ATOM     39  C   UNL A   1      41.608  25.536  27.899  1.00  0.00     0.031 C 
ATOM     40  C   UNL A   1      46.217  24.007  26.585  1.00  0.00     0.029 A 
ATOM     41  N   UNL A   1      45.989  26.138  27.221  1.00  0.00    -0.354 N 
ATOM     42  C   UNL A   1      42.130  27.723  28.337  1.00  0.00     0.074 A 
ATOM     43  C   UNL A   1      41.097  26.714  28.229  1.00  0.00     0.031 C 
ATOM     44  C   UNL A   1      47.427  24.581  26.503  1.00  0.00     0.029 A 
ATOM     45  C   UNL A   1      47.314  25.982  26.891  1.00  0.00     0.049 A 
ATOM     46  H   UNL A   1      45.609  26.990  27.538  1.00  0.00     0.167 HD
ATOM     47  C   UNL A   1      41.916  29.004  28.724  1.00  0.00     0.031 A 
ATOM     48  C   UNL A   1      48.328  26.869  26.891  1.00  0.00     0.031 A 
ATOM     49  C   UNL A   1      42.946  30.002  28.827  1.00  0.00     0.049 A 
ATOM     50  C   UNL A   1      48.062  28.283  27.318  1.00  0.00     0.074 A 
ATOM     51  C   UNL A   1      42.833  31.314  29.254  1.00  0.00     0.029 A 
ATOM     52  N   UNL A   1      44.277  29.803  28.496  1.00  0.00    -0.354 N 
ATOM     53  N   UNL A   1      46.932  28.824  27.706  1.00  0.00    -0.248 NA
ATOM     54  C   UNL A   1      49.207  29.204  27.315  1.00  0.00     0.031 C 
ATOM     55  C   UNL A   1      44.091  31.919  29.146  1.00  0.00     0.029 A 
ATOM     56  C   UNL A   1      44.993  30.972  28.688  1.00  0.00     0.049 A 
ATOM     57  H   UNL A   1      44.657  28.955  28.172  1.00  0.00     0.167 HD
ATOM     58  C   UNL A   1      47.231  30.146  28.007  1.00  0.00     0.074 A 
ATOM     59  C   UNL A   1      48.651  30.319  27.769  1.00  0.00     0.031 C 
ATOM     60  C   UNL A   1      46.405  31.127  28.441  1.00  0.00     0.031 A 
BRANCH  47  61
ATOM     61  C   UNL A   1      40.501  29.394  29.053  1.00  0.00    -0.014 A 
ATOM     62  C   UNL A   1      40.078  29.518  30.389  1.00  0.00     0.010 A 
ATOM     63  C   UNL A   1      39.589  29.661  28.016  1.00  0.00     0.010 A 
ATOM     64  C   UNL A   1      38.755  29.856  30.682  1.00  0.00     0.020 A 
ATOM     65  C   UNL A   1      38.270  30.022  28.307  1.00  0.00     0.020 A 
ATOM     66  C   UNL A   1      37.857  30.096  29.639  1.00  0.00     0.054 A 
BRANCH  66  67
ATOM     67  S   UNL A   1      36.144  30.533  30.044  1.00  0.00     0.124 S 
ATOM     68  O   UNL A   1      36.170  31.988  29.925  1.00  0.00    -0.237 OA
ATOM     69  O   UNL A   1      35.378  29.833  29.015  1.00  0.00    -0.237 OA
ATOM     70  O   UNL A   1      35.970  30.022  31.402  1.00  0.00    -0.744 OA
ENDBRANCH  66  67
ENDBRANCH  47  61
BRANCH  48  71
ATOM     71  C   UNL A   1      49.689  26.434  26.481  1.00  0.00    -0.014 A 
ATOM     72  C   UNL A   1      50.542  25.807  27.404  1.00  0.00     0.010 A 
ATOM     73  C   UNL A   1      50.125  26.617  25.156  1.00  0.00     0.010 A 
ATOM     74  C   UNL A   1      51.814  25.379  27.013  1.00  0.00     0.020 A 
ATOM     75  C   UNL A   1      51.388  26.172  24.757  1.00  0.00     0.020 A 
ATOM     76  C   UNL A   1      52.229  25.564  25.692  1.00  0.00     0.054 A 
BRANCH  76  77
ATOM     77  S   UNL A   1      53.858  24.945  25.185  1.00  0.00     0.124 S 
ATOM     78  O   UNL A   1      54.040  25.596  23.892  1.00  0.00    -0.237 OA
ATOM     79  O   UNL A   1      54.727  25.417  26.261  1.00  0.00    -0.237 OA
ATOM     80  O   UNL A   1      53.670  23.497  25.138  1.00  0.00    -0.744 OA
ENDBRANCH  76  77
ENDBRANCH  48  71
BRANCH  60  81
ATOM     81  C   UNL A   1      47.017  32.474  28.703  1.00  0.00    -0.014 A 
ATOM     82  C   UNL A   1      47.053  33.457  27.699  1.00  0.00     0.010 A 
ATOM     83  C   UNL A   1      47.508  32.778  29.985  1.00  0.00     0.010 A 
ATOM     84  C   UNL A   1      47.588  34.719  27.969  1.00  0.00     0.020 A 
ATOM     85  C   UNL A   1      48.027  34.045  30.263  1.00  0.00     0.020 A 
ATOM     86  C   UNL A   1      48.072  35.005  29.249  1.00  0.00     0.054 A 
BRANCH  86  87
ATOM     87  S   UNL A   1      48.708  36.668  29.595  1.00  0.00     0.124 S 
ATOM     88  O   UNL A   1      47.490  37.473  29.554  1.00  0.00    -0.237 OA
ATOM     89  O   UNL A   1      49.315  36.514  30.915  1.00  0.00    -0.237 OA
ATOM     90  O   UNL A   1      49.653  36.909  28.507  1.00  0.00    -0.744 OA
ENDBRANCH  86  87
ENDBRANCH  60  81
ENDBRANCH  34  35
ENDBRANCH  26  29
ENDBRANCH  24  25
ENDBRANCH  23  24
ENDBRANCH   1  23
TORSDOF 18
ENDMDL
MODEL 3
REMARK VINA RESULT:     -10.0      2.942      3.953
REMARK SMILES O=C(C[C@@H]1CN(C(=O)N2CCC[C@H]2CO)CCO1)NCCCNC(=O)c1ccc(-c2c3nc(c(-c4ccc(S(=O)(=O)[O-])cc4)c4ccc([nH]4)c(-c4ccc(S(=O)(=O)[O-])cc4)c4nc(c(-c5ccc(S(=O)(=O)[O-])cc5)c5ccc2[nH]5)C=C4)C=C3)cc1
REMARK SMILES IDX 20 1 19 2 1 3 2 4 3 6 4 7 5 8 18 9 6 10 17 11 16 12 7 13
REMARK SMILES IDX 8 14 9 15 10 16 13 17 11 18 12 19 14 20 15 21 21 23 22 24
REMARK SMILES IDX 23 25 24 26 25 28 26 29 27 30 85 31 28 32 84 33 29 34 30 35
REMARK SMILES IDX 31 36 78 37 32 38 83 39 77 40 79 41 33 42 82 43 76 44 75 45
REMARK SMILES IDX 34 47 64 48 45 49 63 50 46 51 49 52 62 53 80 54 47 55 48 56
REMARK SMILES IDX 61 58 81 59 50 60 35 61 36 62 44 63 37 64 43 65 38 66 39 67
REMARK SMILES IDX 40 68 41 69 42 70 65 71 66 72 74 73 67 74 73 75 68 76 69 77
REMARK SMILES IDX 70 78 71 79 72 80 51 81 52 82 60 83 53 84 59 85 54 86 55 87
REMARK SMILES IDX 56 88 57 89 58 90
REMARK H PARENT 19 5 15 22 23 27 79 46 49 57
REMARK Flexibility Score: inf
ROOT
ATOM      1  C   UNL A   1      34.004  30.653  27.771  1.00  0.00     0.117 C 
ENDROOT
BRANCH   1   2
ATOM      2  N   UNL A   1      34.300  30.022  26.495  1.00  0.00    -0.356 N 
ATOM      3  O   UNL A   1      32.816  28.295  26.808  1.00  0.00    -0.275 OA
ATOM      4  C   UNL A   1      33.625  28.883  26.097  1.00  0.00     0.222 C 
ATOM      5  H   UNL A   1      34.989  30.410  25.908  1.00  0.00     0.163 HD
BRANCH   4   6
ATOM      6  C   UNL A   1      33.873  28.469  24.662  1.00  0.00     0.133 C 
BRANCH   6   7
ATOM      7  C   UNL A   1      32.943  27.345  24.177  1.00  0.00     0.147 C 
ATOM      8  C   UNL A   1      33.637  26.011  23.860  1.00  0.00     0.154 C 
ATOM      9  O   UNL A   1      32.232  27.798  22.997  1.00  0.00    -0.374 OA
ATOM     10  N   UNL A   1      32.648  25.016  23.438  1.00  0.00    -0.320 N 
ATOM     11  C   UNL A   1      31.248  26.834  22.573  1.00  0.00     0.182 C 
ATOM     12  C   UNL A   1      31.860  25.455  22.293  1.00  0.00     0.150 C 
BRANCH  10  13
ATOM     13  C   UNL A   1      32.834  23.671  23.676  1.00  0.00     0.320 C 
ATOM     14  O   UNL A   1      33.332  22.925  22.836  1.00  0.00    -0.248 OA
BRANCH  13  15
ATOM     15  N   UNL A   1      32.447  23.216  24.911  1.00  0.00    -0.319 N 
ATOM     16  C   UNL A   1      31.125  22.763  25.306  1.00  0.00     0.122 C 
ATOM     17  C   UNL A   1      33.378  23.133  26.040  1.00  0.00     0.112 C 
ATOM     18  C   UNL A   1      31.047  23.201  26.750  1.00  0.00     0.024 C 
ATOM     19  C   UNL A   1      32.463  22.950  27.266  1.00  0.00     0.029 C 
BRANCH  17  20
ATOM     20  C   UNL A   1      34.410  22.002  25.919  1.00  0.00     0.181 C 
BRANCH  20  21
ATOM     21  O   UNL A   1      34.089  20.916  26.788  1.00  0.00    -0.394 OA
ATOM     22  H   UNL A   1      34.264  21.174  27.706  1.00  0.00     0.210 HD
ENDBRANCH  20  21
ENDBRANCH  17  20
ENDBRANCH  13  15
ENDBRANCH  10  13
ENDBRANCH   6   7
ENDBRANCH   4   6
ENDBRANCH   1   2
BRANCH   1  23
ATOM     23  C   UNL A   1      34.655  32.020  27.959  1.00  0.00     0.042 C 
BRANCH  23  24
ATOM     24  C   UNL A   1      35.653  32.126  29.108  1.00  0.00     0.118 C 
BRANCH  24  25
ATOM     25  N   UNL A   1      35.543  31.061  30.092  1.00  0.00    -0.352 N 
ATOM     26  C   UNL A   1      36.505  30.201  30.578  1.00  0.00     0.251 C 
ATOM     27  H   UNL A   1      34.643  30.933  30.469  1.00  0.00     0.163 HD
ATOM     28  O   UNL A   1      36.196  29.365  31.417  1.00  0.00    -0.269 OA
BRANCH  26  29
ATOM     29  C   UNL A   1      37.883  30.224  30.035  1.00  0.00     0.039 A 
ATOM     30  C   UNL A   1      38.926  30.462  30.937  1.00  0.00     0.014 A 
ATOM     31  C   UNL A   1      38.166  29.961  28.694  1.00  0.00     0.014 A 
ATOM     32  C   UNL A   1      40.249  30.304  30.527  1.00  0.00     0.010 A 
ATOM     33  C   UNL A   1      39.485  29.748  28.297  1.00  0.00     0.010 A 
ATOM     34  C   UNL A   1      40.531  29.874  29.222  1.00  0.00    -0.014 A 
BRANCH  34  35
ATOM     35  C   UNL A   1      41.898  29.432  28.854  1.00  0.00     0.031 A 
ATOM     36  C   UNL A   1      43.038  30.403  28.801  1.00  0.00     0.074 A 
ATOM     37  C   UNL A   1      42.081  28.147  28.489  1.00  0.00     0.049 A 
ATOM     38  N   UNL A   1      44.279  30.191  28.446  1.00  0.00    -0.248 NA
ATOM     39  C   UNL A   1      42.746  31.793  29.180  1.00  0.00     0.031 C 
ATOM     40  C   UNL A   1      41.034  27.119  28.456  1.00  0.00     0.029 A 
ATOM     41  N   UNL A   1      43.205  27.485  28.066  1.00  0.00    -0.354 N 
ATOM     42  C   UNL A   1      44.916  31.421  28.547  1.00  0.00     0.074 A 
ATOM     43  C   UNL A   1      43.915  32.381  28.966  1.00  0.00     0.031 C 
ATOM     44  C   UNL A   1      41.571  25.956  28.058  1.00  0.00     0.029 A 
ATOM     45  C   UNL A   1      42.987  26.160  27.771  1.00  0.00     0.049 A 
ATOM     46  H   UNL A   1      44.086  27.917  27.982  1.00  0.00     0.167 HD
ATOM     47  C   UNL A   1      46.219  31.718  28.321  1.00  0.00     0.031 A 
ATOM     48  C   UNL A   1      43.828  25.214  27.314  1.00  0.00     0.031 A 
ATOM     49  C   UNL A   1      47.207  30.760  27.904  1.00  0.00     0.049 A 
ATOM     50  C   UNL A   1      45.265  25.570  27.066  1.00  0.00     0.074 A 
ATOM     51  C   UNL A   1      48.561  30.957  27.694  1.00  0.00     0.029 A 
ATOM     52  N   UNL A   1      46.950  29.426  27.628  1.00  0.00    -0.354 N 
ATOM     53  N   UNL A   1      45.862  26.727  27.226  1.00  0.00    -0.248 NA
ATOM     54  C   UNL A   1      46.143  24.496  26.582  1.00  0.00     0.031 C 
ATOM     55  C   UNL A   1      49.116  29.749  27.254  1.00  0.00     0.029 A 
ATOM     56  C   UNL A   1      48.114  28.792  27.229  1.00  0.00     0.049 A 
ATOM     57  H   UNL A   1      46.069  28.994  27.704  1.00  0.00     0.167 HD
ATOM     58  C   UNL A   1      47.189  26.517  26.877  1.00  0.00     0.074 A 
ATOM     59  C   UNL A   1      47.310  25.120  26.510  1.00  0.00     0.031 C 
ATOM     60  C   UNL A   1      48.214  27.402  26.863  1.00  0.00     0.031 A 
BRANCH  47  61
ATOM     61  C   UNL A   1      46.639  33.149  28.513  1.00  0.00    -0.014 A 
ATOM     62  C   UNL A   1      47.089  33.607  29.765  1.00  0.00     0.010 A 
ATOM     63  C   UNL A   1      46.606  34.040  27.426  1.00  0.00     0.010 A 
ATOM     64  C   UNL A   1      47.454  34.944  29.937  1.00  0.00     0.020 A 
ATOM     65  C   UNL A   1      46.992  35.374  27.590  1.00  0.00     0.020 A 
ATOM     66  C   UNL A   1      47.393  35.822  28.851  1.00  0.00     0.054 A 
BRANCH  66  67
ATOM     67  S   UNL A   1      47.871  37.554  29.099  1.00  0.00     0.124 S 
ATOM     68  O   UNL A   1      48.727  37.462  30.279  1.00  0.00    -0.237 OA
ATOM     69  O   UNL A   1      48.555  37.884  27.851  1.00  0.00    -0.237 OA
ATOM     70  O   UNL A   1      46.596  38.237  29.307  1.00  0.00    -0.744 OA
ENDBRANCH  66  67
ENDBRANCH  47  61
BRANCH  48  71
ATOM     71  C   UNL A   1      43.327  23.834  27.074  1.00  0.00    -0.014 A 
ATOM     72  C   UNL A   1      43.045  23.399  25.768  1.00  0.00     0.010 A 
ATOM     73  C   UNL A   1      43.161  22.941  28.148  1.00  0.00     0.010 A 
ATOM     74  C   UNL A   1      42.594  22.096  25.541  1.00  0.00     0.020 A 
ATOM     75  C   UNL A   1      42.731  21.632  27.921  1.00  0.00     0.020 A 
ATOM     76  C   UNL A   1      42.440  21.220  26.618  1.00  0.00     0.054 A 
BRANCH  76  77
ATOM     77  S   UNL A   1      41.915  19.512  26.298  1.00  0.00     0.124 S 
ATOM     78  O   UNL A   1      42.638  19.200  25.069  1.00  0.00    -0.237 OA
ATOM     79  O   UNL A   1      42.369  18.809  27.496  1.00  0.00    -0.237 OA
ATOM     80  O   UNL A   1      40.465  19.624  26.163  1.00  0.00    -0.744 OA
ENDBRANCH  76  77
ENDBRANCH  48  71
BRANCH  60  81
ATOM     81  C   UNL A   1      49.563  26.882  26.450  1.00  0.00    -0.014 A 
ATOM     82  C   UNL A   1      50.384  26.202  27.367  1.00  0.00     0.010 A 
ATOM     83  C   UNL A   1      49.987  27.025  25.118  1.00  0.00     0.010 A 
ATOM     84  C   UNL A   1      51.618  25.689  26.959  1.00  0.00     0.020 A 
ATOM     85  C   UNL A   1      51.211  26.497  24.703  1.00  0.00     0.020 A 
ATOM     86  C   UNL A   1      52.024  25.839  25.629  1.00  0.00     0.054 A 
BRANCH  86  87
ATOM     87  S   UNL A   1      53.602  25.114  25.107  1.00  0.00     0.124 S 
ATOM     88  O   UNL A   1      54.537  25.700  26.063  1.00  0.00    -0.237 OA
ATOM     89  O   UNL A   1      53.364  23.680  25.259  1.00  0.00    -0.237 OA
ATOM     90  O   UNL A   1      53.751  25.569  23.727  1.00  0.00    -0.744 OA
ENDBRANCH  86  87
ENDBRANCH  60  81
ENDBRANCH  34  35
ENDBRANCH  26  29
ENDBRANCH  24  25
ENDBRANCH  23  24
ENDBRANCH   1  23
TORSDOF 18
ENDMDL
