MODEL 1
REMARK VINA RESULT:     -11.3      0.000      0.000
REMARK SMILES NC(=O)COc1ccc(/C=C2\SC(=S)N(CCC(=O)NCCCNC(=O)c3ccc(-c4c5nc(c(-c6ccc(S(=O)(=O)[O-])cc6)c6ccc([nH]6)c(-c6ccc(S(=O)(=O)[O-])cc6)c6nc(c(-c7ccc(S(=O)(=O)[O-])cc7)c7ccc4[nH]7)C=C6)C=C5)cc3)C2=O)cc1
REMARK SMILES IDX 18 1 19 2 20 3 17 5 16 6 15 7 10 8 11 9 12 10 87 11 13 12
REMARK SMILES IDX 88 13 14 14 9 15 6 16 7 17 90 18 8 19 89 20 5 21 4 22 2 23
REMARK SMILES IDX 1 24 3 27 21 28 22 29 23 30 24 31 25 32 26 34 27 35 28 36
REMARK SMILES IDX 86 37 29 38 85 39 30 40 31 41 32 42 79 43 33 44 84 45 78 46
REMARK SMILES IDX 80 47 34 48 83 49 77 50 76 51 35 53 65 54 46 55 64 56 47 57
REMARK SMILES IDX 50 58 63 59 81 60 48 61 49 62 62 64 82 65 51 66 36 67 37 68
REMARK SMILES IDX 45 69 38 70 44 71 39 72 40 73 41 74 42 75 43 76 66 77 67 78
REMARK SMILES IDX 75 79 68 80 74 81 69 82 70 83 71 84 72 85 73 86 52 87 53 88
REMARK SMILES IDX 61 89 54 90 60 91 55 92 56 93 57 94 58 95 59 96
REMARK H PARENT 20 4 1 25 1 26 24 33 80 52 50 63
REMARK Flexibility Score: inf
ROOT
ATOM      1  C   UNL A   1      33.382  27.120  25.042  1.00  0.00     0.221 C 
ATOM      2  O   UNL A   1      32.665  27.750  25.822  1.00  0.00    -0.275 OA
ATOM      3  N   UNL A   1      33.971  25.977  25.493  1.00  0.00    -0.356 N 
ATOM      4  H   UNL A   1      33.692  25.709  26.399  1.00  0.00     0.163 HD
ENDROOT
BRANCH   1   5
ATOM      5  C   UNL A   1      33.546  27.587  23.611  1.00  0.00     0.122 C 
BRANCH   5   6
ATOM      6  C   UNL A   1      32.304  27.319  22.752  1.00  0.00     0.137 C 
BRANCH   6   7
ATOM      7  N   UNL A   1      31.889  25.914  22.829  1.00  0.00    -0.292 N 
ATOM      8  C   UNL A   1      33.130  22.577  22.627  1.00  0.00     0.029 C 
ATOM      9  C   UNL A   1      32.285  23.607  22.722  1.00  0.00     0.081 C 
ATOM     10  S   UNL A   1      30.779  23.690  23.530  1.00  0.00    -0.054 SA
ATOM     11  C   UNL A   1      32.685  24.953  22.235  1.00  0.00     0.266 C 
ATOM     12  C   UNL A   1      30.770  25.452  23.496  1.00  0.00     0.148 C 
ATOM     13  O   UNL A   1      33.633  25.158  21.498  1.00  0.00    -0.268 OA
ATOM     14  S   UNL A   1      29.575  26.350  24.238  1.00  0.00    -0.052 S 
BRANCH   8  15
ATOM     15  C   UNL A   1      32.926  21.223  23.131  1.00  0.00    -0.024 A 
ATOM     16  C   UNL A   1      32.276  18.787  24.356  1.00  0.00     0.120 A 
ATOM     17  C   UNL A   1      31.955  19.003  23.015  1.00  0.00     0.047 A 
ATOM     18  C   UNL A   1      32.980  19.765  25.052  1.00  0.00     0.047 A 
ATOM     19  C   UNL A   1      32.264  20.227  22.405  1.00  0.00     0.012 A 
ATOM     20  C   UNL A   1      33.322  20.965  24.436  1.00  0.00     0.012 A 
BRANCH  16  21
ATOM     21  O   UNL A   1      31.930  17.576  24.892  1.00  0.00    -0.484 OA
BRANCH  21  22
ATOM     22  C   UNL A   1      32.937  16.950  25.686  1.00  0.00     0.329 C 
BRANCH  22  23
ATOM     23  C   UNL A   1      33.226  15.467  25.434  1.00  0.00     0.255 C 
ATOM     24  N   UNL A   1      32.146  14.632  25.473  1.00  0.00    -0.367 N 
ATOM     25  H   UNL A   1      32.265  13.667  25.318  1.00  0.00     0.159 HD
ATOM     26  H   UNL A   1      31.249  14.995  25.654  1.00  0.00     0.159 HD
ATOM     27  O   UNL A   1      34.352  15.032  25.225  1.00  0.00    -0.271 OA
ENDBRANCH  22  23
ENDBRANCH  21  22
ENDBRANCH  16  21
ENDBRANCH   8  15
ENDBRANCH   6   7
ENDBRANCH   5   6
ENDBRANCH   1   5
BRANCH   3  28
ATOM     28  C   UNL A   1      34.940  25.084  24.876  1.00  0.00     0.117 C 
BRANCH  28  29
ATOM     29  C   UNL A   1      34.895  23.690  25.495  1.00  0.00     0.042 C 
BRANCH  29  30
ATOM     30  C   UNL A   1      35.852  23.434  26.656  1.00  0.00     0.118 C 
BRANCH  30  31
ATOM     31  N   UNL A   1      37.020  22.678  26.239  1.00  0.00    -0.352 N 
ATOM     32  C   UNL A   1      38.368  22.934  26.193  1.00  0.00     0.251 C 
ATOM     33  H   UNL A   1      36.794  21.776  25.917  1.00  0.00     0.163 HD
ATOM     34  O   UNL A   1      39.049  22.100  25.590  1.00  0.00    -0.269 OA
BRANCH  32  35
ATOM     35  C   UNL A   1      39.057  24.125  26.781  1.00  0.00     0.039 A 
ATOM     36  C   UNL A   1      38.777  24.411  28.130  1.00  0.00     0.014 A 
ATOM     37  C   UNL A   1      39.845  25.039  26.076  1.00  0.00     0.014 A 
ATOM     38  C   UNL A   1      39.290  25.553  28.762  1.00  0.00     0.010 A 
ATOM     39  C   UNL A   1      40.389  26.170  26.716  1.00  0.00     0.010 A 
ATOM     40  C   UNL A   1      40.103  26.446  28.061  1.00  0.00    -0.014 A 
BRANCH  40  41
ATOM     41  C   UNL A   1      40.521  27.729  28.696  1.00  0.00     0.031 A 
ATOM     42  C   UNL A   1      41.947  27.893  29.136  1.00  0.00     0.074 A 
ATOM     43  C   UNL A   1      39.666  28.760  28.841  1.00  0.00     0.049 A 
ATOM     44  N   UNL A   1      42.511  28.912  29.728  1.00  0.00    -0.248 NA
ATOM     45  C   UNL A   1      42.848  26.759  28.885  1.00  0.00     0.031 C 
ATOM     46  C   UNL A   1      38.269  28.728  28.440  1.00  0.00     0.029 A 
ATOM     47  N   UNL A   1      39.833  30.029  29.338  1.00  0.00    -0.354 N 
ATOM     48  C   UNL A   1      43.829  28.536  29.943  1.00  0.00     0.074 A 
ATOM     49  C   UNL A   1      43.978  27.194  29.423  1.00  0.00     0.031 C 
ATOM     50  C   UNL A   1      37.712  29.933  28.641  1.00  0.00     0.029 A 
ATOM     51  C   UNL A   1      38.700  30.813  29.258  1.00  0.00     0.049 A 
ATOM     52  H   UNL A   1      40.682  30.351  29.718  1.00  0.00     0.167 HD
ATOM     53  C   UNL A   1      44.822  29.242  30.535  1.00  0.00     0.031 A 
ATOM     54  C   UNL A   1      38.478  32.083  29.657  1.00  0.00     0.031 A 
ATOM     55  C   UNL A   1      44.664  30.564  31.079  1.00  0.00     0.049 A 
ATOM     56  C   UNL A   1      39.595  32.834  30.339  1.00  0.00     0.074 A 
ATOM     57  C   UNL A   1      45.595  31.330  31.758  1.00  0.00     0.029 A 
ATOM     58  N   UNL A   1      43.503  31.319  31.001  1.00  0.00    -0.354 N 
ATOM     59  N   UNL A   1      40.826  32.444  30.571  1.00  0.00    -0.248 NA
ATOM     60  C   UNL A   1      39.291  34.186  30.833  1.00  0.00     0.031 C 
ATOM     61  C   UNL A   1      44.984  32.533  32.126  1.00  0.00     0.029 A 
ATOM     62  C   UNL A   1      43.692  32.540  31.624  1.00  0.00     0.049 A 
ATOM     63  H   UNL A   1      42.669  31.029  30.565  1.00  0.00     0.167 HD
ATOM     64  C   UNL A   1      41.444  33.505  31.225  1.00  0.00     0.074 A 
ATOM     65  C   UNL A   1      40.462  34.564  31.329  1.00  0.00     0.031 C 
ATOM     66  C   UNL A   1      42.707  33.588  31.708  1.00  0.00     0.031 A 
BRANCH  53  67
ATOM     67  C   UNL A   1      46.155  28.562  30.670  1.00  0.00    -0.014 A 
ATOM     68  C   UNL A   1      46.377  27.589  31.660  1.00  0.00     0.010 A 
ATOM     69  C   UNL A   1      47.194  28.892  29.782  1.00  0.00     0.010 A 
ATOM     70  C   UNL A   1      47.629  26.982  31.781  1.00  0.00     0.020 A 
ATOM     71  C   UNL A   1      48.439  28.268  29.884  1.00  0.00     0.020 A 
ATOM     72  C   UNL A   1      48.653  27.328  30.894  1.00  0.00     0.054 A 
BRANCH  72  73
ATOM     73  S   UNL A   1      50.263  26.510  31.063  1.00  0.00     0.124 S 
ATOM     74  O   UNL A   1      50.900  27.312  32.105  1.00  0.00    -0.237 OA
ATOM     75  O   UNL A   1      49.894  25.153  31.452  1.00  0.00    -0.237 OA
ATOM     76  O   UNL A   1      50.856  26.634  29.733  1.00  0.00    -0.744 OA
ENDBRANCH  72  73
ENDBRANCH  53  67
BRANCH  54  77
ATOM     77  C   UNL A   1      37.140  32.725  29.481  1.00  0.00    -0.014 A 
ATOM     78  C   UNL A   1      36.720  33.182  28.218  1.00  0.00     0.010 A 
ATOM     79  C   UNL A   1      36.296  32.931  30.588  1.00  0.00     0.010 A 
ATOM     80  C   UNL A   1      35.505  33.864  28.073  1.00  0.00     0.020 A 
ATOM     81  C   UNL A   1      35.066  33.580  30.442  1.00  0.00     0.020 A 
ATOM     82  C   UNL A   1      34.686  34.061  29.188  1.00  0.00     0.054 A 
BRANCH  82  83
ATOM     83  S   UNL A   1      33.103  34.925  28.982  1.00  0.00     0.124 S 
ATOM     84  O   UNL A   1      33.526  36.216  28.451  1.00  0.00    -0.237 OA
ATOM     85  O   UNL A   1      32.386  34.060  28.048  1.00  0.00    -0.237 OA
ATOM     86  O   UNL A   1      32.553  34.952  30.336  1.00  0.00    -0.744 OA
ENDBRANCH  82  83
ENDBRANCH  54  77
BRANCH  66  87
ATOM     87  C   UNL A   1      43.121  34.878  32.366  1.00  0.00    -0.014 A 
ATOM     88  C   UNL A   1      43.751  35.900  31.636  1.00  0.00     0.010 A 
ATOM     89  C   UNL A   1      42.794  35.099  33.717  1.00  0.00     0.010 A 
ATOM     90  C   UNL A   1      44.065  37.116  32.250  1.00  0.00     0.020 A 
ATOM     91  C   UNL A   1      43.084  36.322  34.328  1.00  0.00     0.020 A 
ATOM     92  C   UNL A   1      43.726  37.320  33.592  1.00  0.00     0.054 A 
BRANCH  92  93
ATOM     93  S   UNL A   1      44.080  38.932  34.346  1.00  0.00     0.124 S 
ATOM     94  O   UNL A   1      45.413  39.225  33.828  1.00  0.00    -0.237 OA
ATOM     95  O   UNL A   1      43.004  39.773  33.827  1.00  0.00    -0.237 OA
ATOM     96  O   UNL A   1      44.015  38.664  35.782  1.00  0.00    -0.744 OA
ENDBRANCH  92  93
ENDBRANCH  66  87
ENDBRANCH  40  41
ENDBRANCH  32  35
ENDBRANCH  30  31
ENDBRANCH  29  30
ENDBRANCH  28  29
ENDBRANCH   3  28
TORSDOF 19
ENDMDL
MODEL 2
REMARK VINA RESULT:     -11.2      3.928      9.050
REMARK SMILES NC(=O)COc1ccc(/C=C2\SC(=S)N(CCC(=O)NCCCNC(=O)c3ccc(-c4c5nc(c(-c6ccc(S(=O)(=O)[O-])cc6)c6ccc([nH]6)c(-c6ccc(S(=O)(=O)[O-])cc6)c6nc(c(-c7ccc(S(=O)(=O)[O-])cc7)c7ccc4[nH]7)C=C6)C=C5)cc3)C2=O)cc1
REMARK SMILES IDX 18 1 19 2 20 3 17 5 16 6 15 7 10 8 11 9 12 10 87 11 13 12
REMARK SMILES IDX 88 13 14 14 9 15 6 16 7 17 90 18 8 19 89 20 5 21 4 22 2 23
REMARK SMILES IDX 1 24 3 27 21 28 22 29 23 30 24 31 25 32 26 34 27 35 28 36
REMARK SMILES IDX 86 37 29 38 85 39 30 40 31 41 32 42 79 43 33 44 84 45 78 46
REMARK SMILES IDX 80 47 34 48 83 49 77 50 76 51 35 53 65 54 46 55 64 56 47 57
REMARK SMILES IDX 50 58 63 59 81 60 48 61 49 62 62 64 82 65 51 66 36 67 37 68
REMARK SMILES IDX 45 69 38 70 44 71 39 72 40 73 41 74 42 75 43 76 66 77 67 78
REMARK SMILES IDX 75 79 68 80 74 81 69 82 70 83 71 84 72 85 73 86 52 87 53 88
REMARK SMILES IDX 61 89 54 90 60 91 55 92 56 93 57 94 58 95 59 96
REMARK H PARENT 20 4 1 25 1 26 24 33 80 52 50 63
REMARK Flexibility Score: inf
ROOT
ATOM      1  C   UNL A   1      32.609  29.117  24.586  1.00  0.00     0.221 C 
ATOM      2  O   UNL A   1      31.506  29.629  24.380  1.00  0.00    -0.275 OA
ATOM      3  N   UNL A   1      33.144  29.230  25.833  1.00  0.00    -0.356 N 
ATOM      4  H   UNL A   1      32.545  29.647  26.495  1.00  0.00     0.163 HD
ENDROOT
BRANCH   1   5
ATOM      5  C   UNL A   1      33.306  28.340  23.489  1.00  0.00     0.122 C 
BRANCH   5   6
ATOM      6  C   UNL A   1      32.333  27.796  22.436  1.00  0.00     0.137 C 
BRANCH   6   7
ATOM      7  N   UNL A   1      31.968  26.401  22.711  1.00  0.00    -0.292 N 
ATOM      8  C   UNL A   1      33.359  23.176  23.325  1.00  0.00     0.029 C 
ATOM      9  C   UNL A   1      32.468  24.145  23.098  1.00  0.00     0.081 C 
ATOM     10  S   UNL A   1      30.850  24.267  23.641  1.00  0.00    -0.054 SA
ATOM     11  C   UNL A   1      32.888  25.407  22.434  1.00  0.00     0.266 C 
ATOM     12  C   UNL A   1      30.776  25.990  23.277  1.00  0.00     0.148 C 
ATOM     13  O   UNL A   1      33.932  25.542  21.823  1.00  0.00    -0.268 OA
ATOM     14  S   UNL A   1      29.443  26.920  23.650  1.00  0.00    -0.052 S 
BRANCH   8  15
ATOM     15  C   UNL A   1      33.131  21.922  24.037  1.00  0.00    -0.024 A 
ATOM     16  C   UNL A   1      32.967  19.358  25.157  1.00  0.00     0.120 A 
ATOM     17  C   UNL A   1      33.439  20.426  25.921  1.00  0.00     0.047 A 
ATOM     18  C   UNL A   1      32.516  19.596  23.862  1.00  0.00     0.047 A 
ATOM     19  C   UNL A   1      33.538  21.706  25.357  1.00  0.00     0.012 A 
ATOM     20  C   UNL A   1      32.577  20.874  23.314  1.00  0.00     0.012 A 
BRANCH  16  21
ATOM     21  O   UNL A   1      32.912  18.133  25.766  1.00  0.00    -0.484 OA
BRANCH  21  22
ATOM     22  C   UNL A   1      33.011  17.011  24.889  1.00  0.00     0.329 C 
BRANCH  22  23
ATOM     23  C   UNL A   1      33.945  15.867  25.296  1.00  0.00     0.255 C 
ATOM     24  N   UNL A   1      35.243  16.212  25.541  1.00  0.00    -0.367 N 
ATOM     25  H   UNL A   1      35.892  15.522  25.807  1.00  0.00     0.159 HD
ATOM     26  H   UNL A   1      35.528  17.150  25.453  1.00  0.00     0.159 HD
ATOM     27  O   UNL A   1      33.574  14.702  25.385  1.00  0.00    -0.271 OA
ENDBRANCH  22  23
ENDBRANCH  21  22
ENDBRANCH  16  21
ENDBRANCH   8  15
ENDBRANCH   6   7
ENDBRANCH   5   6
ENDBRANCH   1   5
BRANCH   3  28
ATOM     28  C   UNL A   1      34.444  28.845  26.362  1.00  0.00     0.117 C 
BRANCH  28  29
ATOM     29  C   UNL A   1      34.619  29.296  27.810  1.00  0.00     0.042 C 
BRANCH  29  30
ATOM     30  C   UNL A   1      35.105  30.728  28.018  1.00  0.00     0.118 C 
BRANCH  30  31
ATOM     31  N   UNL A   1      35.500  30.971  29.395  1.00  0.00    -0.352 N 
ATOM     32  C   UNL A   1      36.616  30.687  30.142  1.00  0.00     0.251 C 
ATOM     33  H   UNL A   1      34.811  31.449  29.909  1.00  0.00     0.163 HD
ATOM     34  O   UNL A   1      36.512  30.889  31.355  1.00  0.00    -0.269 OA
BRANCH  32  35
ATOM     35  C   UNL A   1      37.910  30.144  29.619  1.00  0.00     0.039 A 
ATOM     36  C   UNL A   1      38.905  29.863  30.573  1.00  0.00     0.014 A 
ATOM     37  C   UNL A   1      38.250  30.015  28.270  1.00  0.00     0.014 A 
ATOM     38  C   UNL A   1      40.187  29.439  30.195  1.00  0.00     0.010 A 
ATOM     39  C   UNL A   1      39.528  29.559  27.888  1.00  0.00     0.010 A 
ATOM     40  C   UNL A   1      40.513  29.281  28.847  1.00  0.00    -0.014 A 
BRANCH  40  41
ATOM     41  C   UNL A   1      41.917  28.974  28.450  1.00  0.00     0.031 A 
ATOM     42  C   UNL A   1      42.263  27.579  28.018  1.00  0.00     0.074 A 
ATOM     43  C   UNL A   1      42.870  29.925  28.424  1.00  0.00     0.049 A 
ATOM     44  N   UNL A   1      43.422  27.094  27.658  1.00  0.00    -0.248 NA
ATOM     45  C   UNL A   1      41.163  26.604  28.000  1.00  0.00     0.031 C 
ATOM     46  C   UNL A   1      42.654  31.313  28.802  1.00  0.00     0.029 A 
ATOM     47  N   UNL A   1      44.192  29.892  28.052  1.00  0.00    -0.354 N 
ATOM     48  C   UNL A   1      43.199  25.752  27.392  1.00  0.00     0.074 A 
ATOM     49  C   UNL A   1      41.795  25.497  27.637  1.00  0.00     0.031 C 
ATOM     50  C   UNL A   1      43.775  32.021  28.588  1.00  0.00     0.029 A 
ATOM     51  C   UNL A   1      44.822  31.118  28.120  1.00  0.00     0.049 A 
ATOM     52  H   UNL A   1      44.649  29.068  27.765  1.00  0.00     0.167 HD
ATOM     53  C   UNL A   1      44.088  24.811  26.993  1.00  0.00     0.031 A 
ATOM     54  C   UNL A   1      46.099  31.467  27.859  1.00  0.00     0.031 A 
ATOM     55  C   UNL A   1      45.489  25.059  26.779  1.00  0.00     0.049 A 
ATOM     56  C   UNL A   1      47.074  30.392  27.443  1.00  0.00     0.074 A 
ATOM     57  C   UNL A   1      46.479  24.155  26.441  1.00  0.00     0.029 A 
ATOM     58  N   UNL A   1      46.097  26.302  26.876  1.00  0.00    -0.354 N 
ATOM     59  N   UNL A   1      46.851  29.116  27.237  1.00  0.00    -0.248 NA
ATOM     60  C   UNL A   1      48.474  30.796  27.246  1.00  0.00     0.031 C 
ATOM     61  C   UNL A   1      47.694  24.843  26.373  1.00  0.00     0.029 A 
ATOM     62  C   UNL A   1      47.450  26.187  26.610  1.00  0.00     0.049 A 
ATOM     63  H   UNL A   1      45.634  27.142  27.101  1.00  0.00     0.167 HD
ATOM     64  C   UNL A   1      48.078  28.570  26.875  1.00  0.00     0.074 A 
ATOM     65  C   UNL A   1      49.035  29.657  26.863  1.00  0.00     0.031 C 
ATOM     66  C   UNL A   1      48.387  27.282  26.591  1.00  0.00     0.031 A 
BRANCH  53  67
ATOM     67  C   UNL A   1      43.569  23.413  26.818  1.00  0.00    -0.014 A 
ATOM     68  C   UNL A   1      43.031  22.696  27.901  1.00  0.00     0.010 A 
ATOM     69  C   UNL A   1      43.609  22.813  25.547  1.00  0.00     0.010 A 
ATOM     70  C   UNL A   1      42.571  21.390  27.722  1.00  0.00     0.020 A 
ATOM     71  C   UNL A   1      43.126  21.516  25.358  1.00  0.00     0.020 A 
ATOM     72  C   UNL A   1      42.625  20.807  26.452  1.00  0.00     0.054 A 
BRANCH  72  73
ATOM     73  S   UNL A   1      42.003  19.116  26.245  1.00  0.00     0.124 S 
ATOM     74  O   UNL A   1      40.589  19.348  25.959  1.00  0.00    -0.237 OA
ATOM     75  O   UNL A   1      42.797  18.617  25.127  1.00  0.00    -0.237 OA
ATOM     76  O   UNL A   1      42.280  18.484  27.533  1.00  0.00    -0.744 OA
ENDBRANCH  72  73
ENDBRANCH  53  67
BRANCH  54  77
ATOM     77  C   UNL A   1      46.564  32.878  28.026  1.00  0.00    -0.014 A 
ATOM     78  C   UNL A   1      46.671  33.737  26.917  1.00  0.00     0.010 A 
ATOM     79  C   UNL A   1      46.953  33.356  29.290  1.00  0.00     0.010 A 
ATOM     80  C   UNL A   1      47.192  35.030  27.063  1.00  0.00     0.020 A 
ATOM     81  C   UNL A   1      47.440  34.657  29.447  1.00  0.00     0.020 A 
ATOM     82  C   UNL A   1      47.577  35.480  28.329  1.00  0.00     0.054 A 
BRANCH  82  83
ATOM     83  S   UNL A   1      48.227  37.166  28.509  1.00  0.00     0.124 S 
ATOM     84  O   UNL A   1      47.026  37.976  28.337  1.00  0.00    -0.237 OA
ATOM     85  O   UNL A   1      48.792  37.147  29.856  1.00  0.00    -0.237 OA
ATOM     86  O   UNL A   1      49.212  37.265  27.434  1.00  0.00    -0.744 OA
ENDBRANCH  82  83
ENDBRANCH  54  77
BRANCH  66  87
ATOM     87  C   UNL A   1      49.810  26.970  26.210  1.00  0.00    -0.014 A 
ATOM     88  C   UNL A   1      50.737  26.515  27.164  1.00  0.00     0.010 A 
ATOM     89  C   UNL A   1      50.198  27.053  24.860  1.00  0.00     0.010 A 
ATOM     90  C   UNL A   1      52.034  26.165  26.777  1.00  0.00     0.020 A 
ATOM     91  C   UNL A   1      51.486  26.682  24.466  1.00  0.00     0.020 A 
ATOM     92  C   UNL A   1      52.399  26.248  25.429  1.00  0.00     0.054 A 
BRANCH  92  93
ATOM     93  S   UNL A   1      54.066  25.723  24.942  1.00  0.00     0.124 S 
ATOM     94  O   UNL A   1      54.071  24.317  25.339  1.00  0.00    -0.237 OA
ATOM     95  O   UNL A   1      54.073  25.970  23.502  1.00  0.00    -0.237 OA
ATOM     96  O   UNL A   1      54.945  26.593  25.721  1.00  0.00    -0.744 OA
ENDBRANCH  92  93
ENDBRANCH  66  87
ENDBRANCH  40  41
ENDBRANCH  32  35
ENDBRANCH  30  31
ENDBRANCH  29  30
ENDBRANCH  28  29
ENDBRANCH   3  28
TORSDOF 19
ENDMDL
MODEL 3
REMARK VINA RESULT:     -11.1      3.844      9.442
REMARK SMILES NC(=O)COc1ccc(/C=C2\SC(=S)N(CCC(=O)NCCCNC(=O)c3ccc(-c4c5nc(c(-c6ccc(S(=O)(=O)[O-])cc6)c6ccc([nH]6)c(-c6ccc(S(=O)(=O)[O-])cc6)c6nc(c(-c7ccc(S(=O)(=O)[O-])cc7)c7ccc4[nH]7)C=C6)C=C5)cc3)C2=O)cc1
REMARK SMILES IDX 18 1 19 2 20 3 17 5 16 6 15 7 10 8 11 9 12 10 87 11 13 12
REMARK SMILES IDX 88 13 14 14 9 15 6 16 7 17 90 18 8 19 89 20 5 21 4 22 2 23
REMARK SMILES IDX 1 24 3 27 21 28 22 29 23 30 24 31 25 32 26 34 27 35 28 36
REMARK SMILES IDX 86 37 29 38 85 39 30 40 31 41 32 42 79 43 33 44 84 45 78 46
REMARK SMILES IDX 80 47 34 48 83 49 77 50 76 51 35 53 65 54 46 55 64 56 47 57
REMARK SMILES IDX 50 58 63 59 81 60 48 61 49 62 62 64 82 65 51 66 36 67 37 68
REMARK SMILES IDX 45 69 38 70 44 71 39 72 40 73 41 74 42 75 43 76 66 77 67 78
REMARK SMILES IDX 75 79 68 80 74 81 69 82 70 83 71 84 72 85 73 86 52 87 53 88
REMARK SMILES IDX 61 89 54 90 60 91 55 92 56 93 57 94 58 95 59 96
REMARK H PARENT 20 4 1 25 1 26 24 33 80 52 50 63
REMARK Flexibility Score: inf
ROOT
ATOM      1  C   UNL A   1      31.607  29.553  24.655  1.00  0.00     0.221 C 
ATOM      2  O   UNL A   1      30.445  29.660  24.256  1.00  0.00    -0.275 OA
ATOM      3  N   UNL A   1      31.982  30.288  25.738  1.00  0.00    -0.356 N 
ATOM      4  H   UNL A   1      31.245  30.784  26.165  1.00  0.00     0.163 HD
ENDROOT
BRANCH   1   5
ATOM      5  C   UNL A   1      32.559  28.585  23.983  1.00  0.00     0.122 C 
BRANCH   5   6
ATOM      6  C   UNL A   1      31.981  27.978  22.699  1.00  0.00     0.137 C 
BRANCH   6   7
ATOM      7  N   UNL A   1      31.764  26.534  22.836  1.00  0.00    -0.292 N 
ATOM      8  C   UNL A   1      33.485  23.422  23.101  1.00  0.00     0.029 C 
ATOM      9  C   UNL A   1      32.497  24.313  22.986  1.00  0.00     0.081 C 
ATOM     10  S   UNL A   1      30.889  24.215  23.562  1.00  0.00    -0.054 SA
ATOM     11  C   UNL A   1      32.771  25.671  22.447  1.00  0.00     0.266 C 
ATOM     12  C   UNL A   1      30.634  25.948  23.375  1.00  0.00     0.148 C 
ATOM     13  O   UNL A   1      33.782  25.972  21.838  1.00  0.00    -0.268 OA
ATOM     14  S   UNL A   1      29.223  26.696  23.859  1.00  0.00    -0.052 S 
BRANCH   8  15
ATOM     15  C   UNL A   1      33.402  22.088  23.685  1.00  0.00    -0.024 A 
ATOM     16  C   UNL A   1      33.327  19.390  24.441  1.00  0.00     0.120 A 
ATOM     17  C   UNL A   1      34.299  20.238  24.972  1.00  0.00     0.047 A 
ATOM     18  C   UNL A   1      32.359  19.914  23.590  1.00  0.00     0.047 A 
ATOM     19  C   UNL A   1      34.350  21.583  24.582  1.00  0.00     0.012 A 
ATOM     20  C   UNL A   1      32.383  21.259  23.233  1.00  0.00     0.012 A 
BRANCH  16  21
ATOM     21  O   UNL A   1      33.347  18.084  24.853  1.00  0.00    -0.484 OA
BRANCH  21  22
ATOM     22  C   UNL A   1      34.471  17.323  24.411  1.00  0.00     0.329 C 
BRANCH  22  23
ATOM     23  C   UNL A   1      34.802  16.034  25.169  1.00  0.00     0.255 C 
ATOM     24  N   UNL A   1      33.773  15.149  25.325  1.00  0.00    -0.367 N 
ATOM     25  H   UNL A   1      33.922  14.302  25.803  1.00  0.00     0.159 HD
ATOM     26  H   UNL A   1      32.884  15.359  24.958  1.00  0.00     0.159 HD
ATOM     27  O   UNL A   1      35.912  15.797  25.631  1.00  0.00    -0.271 OA
ENDBRANCH  22  23
ENDBRANCH  21  22
ENDBRANCH  16  21
ENDBRANCH   8  15
ENDBRANCH   6   7
ENDBRANCH   5   6
ENDBRANCH   1   5
BRANCH   3  28
ATOM     28  C   UNL A   1      33.276  30.472  26.377  1.00  0.00     0.117 C 
BRANCH  28  29
ATOM     29  C   UNL A   1      33.693  29.238  27.173  1.00  0.00     0.042 C 
BRANCH  29  30
ATOM     30  C   UNL A   1      35.115  29.240  27.728  1.00  0.00     0.118 C 
BRANCH  30  31
ATOM     31  N   UNL A   1      35.221  30.030  28.943  1.00  0.00    -0.352 N 
ATOM     32  C   UNL A   1      36.249  30.366  29.788  1.00  0.00     0.251 C 
ATOM     33  H   UNL A   1      34.358  30.411  29.225  1.00  0.00     0.163 HD
ATOM     34  O   UNL A   1      35.916  30.910  30.844  1.00  0.00    -0.269 OA
BRANCH  32  35
ATOM     35  C   UNL A   1      37.704  30.110  29.546  1.00  0.00     0.039 A 
ATOM     36  C   UNL A   1      38.122  30.079  28.203  1.00  0.00     0.014 A 
ATOM     37  C   UNL A   1      38.645  29.777  30.525  1.00  0.00     0.014 A 
ATOM     38  C   UNL A   1      39.441  29.757  27.850  1.00  0.00     0.010 A 
ATOM     39  C   UNL A   1      39.978  29.484  30.176  1.00  0.00     0.010 A 
ATOM     40  C   UNL A   1      40.385  29.456  28.834  1.00  0.00    -0.014 A 
BRANCH  40  41
ATOM     41  C   UNL A   1      41.740  28.973  28.444  1.00  0.00     0.031 A 
ATOM     42  C   UNL A   1      42.897  29.927  28.495  1.00  0.00     0.074 A 
ATOM     43  C   UNL A   1      41.961  27.691  28.093  1.00  0.00     0.049 A 
ATOM     44  N   UNL A   1      44.147  29.721  28.176  1.00  0.00    -0.248 NA
ATOM     45  C   UNL A   1      42.603  31.293  28.955  1.00  0.00     0.031 C 
ATOM     46  C   UNL A   1      40.927  26.671  28.023  1.00  0.00     0.029 A 
ATOM     47  N   UNL A   1      43.108  27.016  27.752  1.00  0.00    -0.354 N 
ATOM     48  C   UNL A   1      44.788  30.935  28.374  1.00  0.00     0.074 A 
ATOM     49  C   UNL A   1      43.788  31.874  28.835  1.00  0.00     0.031 C 
ATOM     50  C   UNL A   1      41.482  25.484  27.725  1.00  0.00     0.029 A 
ATOM     51  C   UNL A   1      42.914  25.672  27.510  1.00  0.00     0.049 A 
ATOM     52  H   UNL A   1      43.989  27.452  27.684  1.00  0.00     0.167 HD
ATOM     53  C   UNL A   1      46.092  31.243  28.175  1.00  0.00     0.031 A 
ATOM     54  C   UNL A   1      43.783  24.710  27.137  1.00  0.00     0.031 A 
ATOM     55  C   UNL A   1      47.078  30.316  27.688  1.00  0.00     0.049 A 
ATOM     56  C   UNL A   1      45.223  25.089  26.895  1.00  0.00     0.074 A 
ATOM     57  C   UNL A   1      48.408  30.555  27.390  1.00  0.00     0.029 A 
ATOM     58  N   UNL A   1      46.846  28.973  27.434  1.00  0.00    -0.354 N 
ATOM     59  N   UNL A   1      45.803  26.256  27.048  1.00  0.00    -0.248 NA
ATOM     60  C   UNL A   1      46.123  24.031  26.410  1.00  0.00     0.031 C 
ATOM     61  C   UNL A   1      48.970  29.365  26.917  1.00  0.00     0.029 A 
ATOM     62  C   UNL A   1      48.006  28.372  26.977  1.00  0.00     0.049 A 
ATOM     63  H   UNL A   1      45.983  28.515  27.560  1.00  0.00     0.167 HD
ATOM     64  C   UNL A   1      47.134  26.069  26.690  1.00  0.00     0.074 A 
ATOM     65  C   UNL A   1      47.283  24.672  26.340  1.00  0.00     0.031 C 
ATOM     66  C   UNL A   1      48.139  26.976  26.644  1.00  0.00     0.031 A 
BRANCH  53  67
ATOM     67  C   UNL A   1      46.505  32.664  28.435  1.00  0.00    -0.014 A 
ATOM     68  C   UNL A   1      47.044  33.049  29.674  1.00  0.00     0.010 A 
ATOM     69  C   UNL A   1      46.363  33.623  27.416  1.00  0.00     0.010 A 
ATOM     70  C   UNL A   1      47.404  34.379  29.902  1.00  0.00     0.020 A 
ATOM     71  C   UNL A   1      46.746  34.948  27.632  1.00  0.00     0.020 A 
ATOM     72  C   UNL A   1      47.250  35.321  28.880  1.00  0.00     0.054 A 
BRANCH  72  73
ATOM     73  S   UNL A   1      47.743  37.037  29.198  1.00  0.00     0.124 S 
ATOM     74  O   UNL A   1      49.188  36.907  29.371  1.00  0.00    -0.237 OA
ATOM     75  O   UNL A   1      47.315  37.723  27.983  1.00  0.00    -0.237 OA
ATOM     76  O   UNL A   1      47.002  37.393  30.405  1.00  0.00    -0.744 OA
ENDBRANCH  72  73
ENDBRANCH  53  67
BRANCH  54  77
ATOM     77  C   UNL A   1      43.329  23.304  26.912  1.00  0.00    -0.014 A 
ATOM     78  C   UNL A   1      43.033  22.459  27.998  1.00  0.00     0.010 A 
ATOM     79  C   UNL A   1      43.240  22.783  25.608  1.00  0.00     0.010 A 
ATOM     80  C   UNL A   1      42.695  21.116  27.786  1.00  0.00     0.020 A 
ATOM     81  C   UNL A   1      42.869  21.452  25.390  1.00  0.00     0.020 A 
ATOM     82  C   UNL A   1      42.618  20.620  26.482  1.00  0.00     0.054 A 
BRANCH  82  83
ATOM     83  S   UNL A   1      42.155  18.884  26.221  1.00  0.00     0.124 S 
ATOM     84  O   UNL A   1      42.291  18.327  27.563  1.00  0.00    -0.237 OA
ATOM     85  O   UNL A   1      40.789  18.990  25.714  1.00  0.00    -0.237 OA
ATOM     86  O   UNL A   1      43.136  18.415  25.244  1.00  0.00    -0.744 OA
ENDBRANCH  82  83
ENDBRANCH  54  77
BRANCH  66  87
ATOM     87  C   UNL A   1      49.503  26.489  26.230  1.00  0.00    -0.014 A 
ATOM     88  C   UNL A   1      49.941  26.593  24.898  1.00  0.00     0.010 A 
ATOM     89  C   UNL A   1      50.388  26.001  27.208  1.00  0.00     0.010 A 
ATOM     90  C   UNL A   1      51.236  26.199  24.548  1.00  0.00     0.020 A 
ATOM     91  C   UNL A   1      51.691  25.628  26.867  1.00  0.00     0.020 A 
ATOM     92  C   UNL A   1      52.104  25.723  25.536  1.00  0.00     0.054 A 
BRANCH  92  93
ATOM     93  S   UNL A   1      53.801  25.284  25.069  1.00  0.00     0.124 S 
ATOM     94  O   UNL A   1      53.987  26.049  23.839  1.00  0.00    -0.237 OA
ATOM     95  O   UNL A   1      54.579  25.741  26.218  1.00  0.00    -0.237 OA
ATOM     96  O   UNL A   1      53.750  23.833  24.898  1.00  0.00    -0.744 OA
ENDBRANCH  92  93
ENDBRANCH  66  87
ENDBRANCH  40  41
ENDBRANCH  32  35
ENDBRANCH  30  31
ENDBRANCH  29  30
ENDBRANCH  28  29
ENDBRANCH   3  28
TORSDOF 19
ENDMDL
