MODEL 1
REMARK VINA RESULT:     -11.1      0.000      0.000
REMARK SMILES N#Cc1ccc(/C=C/C(=O)N2C[C@@H](O)C[C@H]2C(=O)NCCCNC(=O)c2ccc(-c3c4nc(c(-c5ccc(S(=O)(=O)[O-])cc5)c5ccc([nH]5)c(-c5ccc(S(=O)(=O)[O-])cc5)c5nc(c(-c6ccc(S(=O)(=O)[O-])cc6)c6ccc3[nH]6)C=C5)C=C4)cc2)cc1
REMARK SMILES IDX 20 1 19 2 17 3 18 4 16 6 11 7 12 8 13 9 15 10 9 11 10 12
REMARK SMILES IDX 8 13 7 14 6 15 3 16 4 17 87 18 5 19 86 20 2 21 1 22 14 23
REMARK SMILES IDX 21 25 22 26 23 27 24 28 25 30 26 31 27 32 85 33 28 34 84 35
REMARK SMILES IDX 29 36 30 37 31 38 78 39 32 40 83 41 77 42 79 43 33 44 82 45
REMARK SMILES IDX 76 46 75 47 34 49 64 50 45 51 63 52 46 53 49 54 62 55 80 56
REMARK SMILES IDX 47 57 48 58 61 60 81 61 50 62 35 63 36 64 44 65 37 66 43 67
REMARK SMILES IDX 38 68 39 69 40 70 41 71 42 72 65 73 66 74 74 75 67 76 73 77
REMARK SMILES IDX 68 78 69 79 70 80 71 81 72 82 51 83 52 84 60 85 53 86 59 87
REMARK SMILES IDX 54 88 55 89 56 90 57 91 58 92
REMARK H PARENT 19 5 14 24 23 29 79 48 49 59
REMARK Flexibility Score: inf
ROOT
ATOM      1  C   UNL A   1      36.610  22.464  25.130  1.00  0.00     0.117 C 
ENDROOT
BRANCH   1   2
ATOM      2  N   UNL A   1      35.791  22.405  26.319  1.00  0.00    -0.354 N 
ATOM      3  C   UNL A   1      34.569  22.948  26.580  1.00  0.00     0.242 C 
ATOM      4  O   UNL A   1      33.976  22.517  27.576  1.00  0.00    -0.273 OA
ATOM      5  H   UNL A   1      36.179  21.889  27.061  1.00  0.00     0.163 HD
BRANCH   3   6
ATOM      6  C   UNL A   1      33.853  23.896  25.594  1.00  0.00     0.177 C 
ATOM      7  N   UNL A   1      32.813  23.317  24.737  1.00  0.00    -0.324 N 
ATOM      8  C   UNL A   1      31.518  23.933  24.969  1.00  0.00     0.152 C 
ATOM      9  C   UNL A   1      31.851  25.279  25.606  1.00  0.00     0.136 C 
ATOM     10  C   UNL A   1      33.182  25.063  26.328  1.00  0.00     0.069 C 
BRANCH   7  11
ATOM     11  C   UNL A   1      33.203  22.503  23.696  1.00  0.00     0.247 C 
ATOM     12  O   UNL A   1      33.795  22.931  22.708  1.00  0.00    -0.270 OA
BRANCH  11  13
ATOM     13  C   UNL A   1      32.847  21.063  23.732  1.00  0.00     0.072 C 
ATOM     14  C   UNL A   1      33.692  20.173  24.279  1.00  0.00     0.014 C 
BRANCH  14  15
ATOM     15  C   UNL A   1      33.423  18.749  24.506  1.00  0.00    -0.025 A 
ATOM     16  C   UNL A   1      33.197  15.999  25.063  1.00  0.00     0.052 A 
ATOM     17  C   UNL A   1      32.441  16.931  25.783  1.00  0.00     0.020 A 
ATOM     18  C   UNL A   1      34.044  16.440  24.044  1.00  0.00     0.020 A 
ATOM     19  C   UNL A   1      32.555  18.298  25.506  1.00  0.00     0.009 A 
ATOM     20  C   UNL A   1      34.158  17.806  23.771  1.00  0.00     0.009 A 
BRANCH  16  21
ATOM     21  C   UNL A   1      33.149  14.606  25.405  1.00  0.00     0.099 C 
ATOM     22  N   UNL A   1      33.163  13.477  25.668  1.00  0.00    -0.192 NA
ENDBRANCH  16  21
ENDBRANCH  14  15
ENDBRANCH  11  13
ENDBRANCH   7  11
BRANCH   9  23
ATOM     23  O   UNL A   1      30.850  25.730  26.502  1.00  0.00    -0.391 OA
ATOM     24  H   UNL A   1      30.807  26.699  26.476  1.00  0.00     0.211 HD
ENDBRANCH   9  23
ENDBRANCH   3   6
ENDBRANCH   1   2
BRANCH   1  25
ATOM     25  C   UNL A   1      37.575  21.298  25.019  1.00  0.00     0.042 C 
BRANCH  25  26
ATOM     26  C   UNL A   1      38.859  21.521  25.809  1.00  0.00     0.118 C 
BRANCH  26  27
ATOM     27  N   UNL A   1      39.608  20.281  26.003  1.00  0.00    -0.352 N 
ATOM     28  C   UNL A   1      40.949  20.078  26.210  1.00  0.00     0.251 C 
ATOM     29  H   UNL A   1      39.064  19.461  25.982  1.00  0.00     0.163 HD
ATOM     30  O   UNL A   1      41.417  18.949  26.098  1.00  0.00    -0.269 OA
BRANCH  28  31
ATOM     31  C   UNL A   1      41.824  21.217  26.548  1.00  0.00     0.039 A 
ATOM     32  C   UNL A   1      42.285  22.049  25.525  1.00  0.00     0.014 A 
ATOM     33  C   UNL A   1      42.178  21.470  27.876  1.00  0.00     0.014 A 
ATOM     34  C   UNL A   1      43.017  23.192  25.847  1.00  0.00     0.010 A 
ATOM     35  C   UNL A   1      42.831  22.652  28.202  1.00  0.00     0.010 A 
ATOM     36  C   UNL A   1      43.241  23.534  27.192  1.00  0.00    -0.014 A 
BRANCH  36  37
ATOM     37  C   UNL A   1      43.838  24.840  27.566  1.00  0.00     0.031 A 
ATOM     38  C   UNL A   1      42.972  25.962  28.064  1.00  0.00     0.074 A 
ATOM     39  C   UNL A   1      45.158  25.034  27.368  1.00  0.00     0.049 A 
ATOM     40  N   UNL A   1      43.311  27.190  28.360  1.00  0.00    -0.248 NA
ATOM     41  C   UNL A   1      41.539  25.673  28.234  1.00  0.00     0.031 C 
ATOM     42  C   UNL A   1      46.094  24.030  26.855  1.00  0.00     0.029 A 
ATOM     43  N   UNL A   1      45.941  26.145  27.564  1.00  0.00    -0.354 N 
ATOM     44  C   UNL A   1      42.135  27.824  28.741  1.00  0.00     0.074 A 
ATOM     45  C   UNL A   1      41.067  26.859  28.593  1.00  0.00     0.031 C 
ATOM     46  C   UNL A   1      47.326  24.561  26.804  1.00  0.00     0.029 A 
ATOM     47  C   UNL A   1      47.259  25.957  27.219  1.00  0.00     0.049 A 
ATOM     48  H   UNL A   1      45.592  26.994  27.918  1.00  0.00     0.167 HD
ATOM     49  C   UNL A   1      41.965  29.093  29.185  1.00  0.00     0.031 A 
ATOM     50  C   UNL A   1      48.296  26.817  27.213  1.00  0.00     0.031 A 
ATOM     51  C   UNL A   1      43.033  30.050  29.315  1.00  0.00     0.049 A 
ATOM     52  C   UNL A   1      48.069  28.236  27.657  1.00  0.00     0.074 A 
ATOM     53  C   UNL A   1      42.971  31.343  29.802  1.00  0.00     0.029 A 
ATOM     54  N   UNL A   1      44.350  29.826  28.941  1.00  0.00    -0.354 N 
ATOM     55  N   UNL A   1      46.965  28.793  28.094  1.00  0.00    -0.248 NA
ATOM     56  C   UNL A   1      49.226  29.139  27.610  1.00  0.00     0.031 C 
ATOM     57  C   UNL A   1      44.232  31.927  29.649  1.00  0.00     0.029 A 
ATOM     58  C   UNL A   1      45.101  30.974  29.142  1.00  0.00     0.049 A 
ATOM     59  H   UNL A   1      44.701  28.978  28.586  1.00  0.00     0.167 HD
ATOM     60  C   UNL A   1      47.300  30.109  28.393  1.00  0.00     0.074 A 
ATOM     61  C   UNL A   1      48.714  30.255  28.113  1.00  0.00     0.031 C 
ATOM     62  C   UNL A   1      46.506  31.108  28.852  1.00  0.00     0.031 A 
BRANCH  49  63
ATOM     63  C   UNL A   1      40.567  29.530  29.544  1.00  0.00    -0.014 A 
ATOM     64  C   UNL A   1      40.156  29.634  30.886  1.00  0.00     0.010 A 
ATOM     65  C   UNL A   1      39.669  29.901  28.526  1.00  0.00     0.010 A 
ATOM     66  C   UNL A   1      38.863  30.062  31.200  1.00  0.00     0.020 A 
ATOM     67  C   UNL A   1      38.387  30.362  28.837  1.00  0.00     0.020 A 
ATOM     68  C   UNL A   1      37.988  30.425  30.172  1.00  0.00     0.054 A 
BRANCH  68  69
ATOM     69  S   UNL A   1      36.328  31.007  30.614  1.00  0.00     0.124 S 
ATOM     70  O   UNL A   1      36.565  32.426  30.870  1.00  0.00    -0.237 OA
ATOM     71  O   UNL A   1      35.555  30.707  29.413  1.00  0.00    -0.237 OA
ATOM     72  O   UNL A   1      35.982  30.213  31.791  1.00  0.00    -0.744 OA
ENDBRANCH  68  69
ENDBRANCH  49  63
BRANCH  50  73
ATOM     73  C   UNL A   1      49.639  26.362  26.755  1.00  0.00    -0.014 A 
ATOM     74  C   UNL A   1      50.582  25.869  27.673  1.00  0.00     0.010 A 
ATOM     75  C   UNL A   1      49.977  26.410  25.388  1.00  0.00     0.010 A 
ATOM     76  C   UNL A   1      51.842  25.449  27.236  1.00  0.00     0.020 A 
ATOM     77  C   UNL A   1      51.221  25.956  24.945  1.00  0.00     0.020 A 
ATOM     78  C   UNL A   1      52.150  25.489  25.874  1.00  0.00     0.054 A 
BRANCH  78  79
ATOM     79  S   UNL A   1      53.770  24.884  25.326  1.00  0.00     0.124 S 
ATOM     80  O   UNL A   1      54.042  25.742  24.178  1.00  0.00    -0.237 OA
ATOM     81  O   UNL A   1      54.603  25.114  26.503  1.00  0.00    -0.237 OA
ATOM     82  O   UNL A   1      53.522  23.478  25.014  1.00  0.00    -0.744 OA
ENDBRANCH  78  79
ENDBRANCH  50  73
BRANCH  62  83
ATOM     83  C   UNL A   1      47.148  32.450  29.097  1.00  0.00    -0.014 A 
ATOM     84  C   UNL A   1      47.770  32.744  30.323  1.00  0.00     0.010 A 
ATOM     85  C   UNL A   1      47.191  33.401  28.062  1.00  0.00     0.010 A 
ATOM     86  C   UNL A   1      48.406  33.974  30.516  1.00  0.00     0.020 A 
ATOM     87  C   UNL A   1      47.856  34.617  28.238  1.00  0.00     0.020 A 
ATOM     88  C   UNL A   1      48.452  34.899  29.468  1.00  0.00     0.054 A 
BRANCH  88  89
ATOM     89  S   UNL A   1      49.345  36.456  29.725  1.00  0.00     0.124 S 
ATOM     90  O   UNL A   1      50.492  36.023  30.518  1.00  0.00    -0.237 OA
ATOM     91  O   UNL A   1      49.648  36.876  28.358  1.00  0.00    -0.237 OA
ATOM     92  O   UNL A   1      48.382  37.297  30.431  1.00  0.00    -0.744 OA
ENDBRANCH  88  89
ENDBRANCH  62  83
ENDBRANCH  36  37
ENDBRANCH  28  31
ENDBRANCH  26  27
ENDBRANCH  25  26
ENDBRANCH   1  25
TORSDOF 18
ENDMDL
MODEL 2
REMARK VINA RESULT:     -10.8      6.829     10.597
REMARK SMILES N#Cc1ccc(/C=C/C(=O)N2C[C@@H](O)C[C@H]2C(=O)NCCCNC(=O)c2ccc(-c3c4nc(c(-c5ccc(S(=O)(=O)[O-])cc5)c5ccc([nH]5)c(-c5ccc(S(=O)(=O)[O-])cc5)c5nc(c(-c6ccc(S(=O)(=O)[O-])cc6)c6ccc3[nH]6)C=C5)C=C4)cc2)cc1
REMARK SMILES IDX 20 1 19 2 17 3 18 4 16 6 11 7 12 8 13 9 15 10 9 11 10 12
REMARK SMILES IDX 8 13 7 14 6 15 3 16 4 17 87 18 5 19 86 20 2 21 1 22 14 23
REMARK SMILES IDX 21 25 22 26 23 27 24 28 25 30 26 31 27 32 85 33 28 34 84 35
REMARK SMILES IDX 29 36 30 37 31 38 78 39 32 40 83 41 77 42 79 43 33 44 82 45
REMARK SMILES IDX 76 46 75 47 34 49 64 50 45 51 63 52 46 53 49 54 62 55 80 56
REMARK SMILES IDX 47 57 48 58 61 60 81 61 50 62 35 63 36 64 44 65 37 66 43 67
REMARK SMILES IDX 38 68 39 69 40 70 41 71 42 72 65 73 66 74 74 75 67 76 73 77
REMARK SMILES IDX 68 78 69 79 70 80 71 81 72 82 51 83 52 84 60 85 53 86 59 87
REMARK SMILES IDX 54 88 55 89 56 90 57 91 58 92
REMARK H PARENT 19 5 14 24 23 29 79 48 49 59
REMARK Flexibility Score: inf
ROOT
ATOM      1  C   UNL A   1      45.986  24.388  25.734  1.00  0.00     0.117 C 
ENDROOT
BRANCH   1   2
ATOM      2  N   UNL A   1      45.255  23.870  24.601  1.00  0.00    -0.354 N 
ATOM      3  C   UNL A   1      44.548  22.713  24.457  1.00  0.00     0.242 C 
ATOM      4  O   UNL A   1      43.797  22.645  23.477  1.00  0.00    -0.273 OA
ATOM      5  H   UNL A   1      45.269  24.446  23.803  1.00  0.00     0.163 HD
BRANCH   3   6
ATOM      6  C   UNL A   1      44.513  21.620  25.547  1.00  0.00     0.177 C 
ATOM      7  N   UNL A   1      43.196  21.150  25.988  1.00  0.00    -0.324 N 
ATOM      8  C   UNL A   1      43.017  19.730  25.735  1.00  0.00     0.152 C 
ATOM      9  C   UNL A   1      44.439  19.189  25.613  1.00  0.00     0.136 C 
ATOM     10  C   UNL A   1      45.274  20.365  25.104  1.00  0.00     0.069 C 
BRANCH   7  11
ATOM     11  C   UNL A   1      42.436  21.984  26.778  1.00  0.00     0.247 C 
ATOM     12  O   UNL A   1      41.209  22.009  26.724  1.00  0.00    -0.270 OA
BRANCH  11  13
ATOM     13  C   UNL A   1      43.118  22.936  27.690  1.00  0.00     0.072 C 
ATOM     14  C   UNL A   1      43.031  22.775  29.020  1.00  0.00     0.014 C 
BRANCH  14  15
ATOM     15  C   UNL A   1      43.754  23.548  30.037  1.00  0.00    -0.025 A 
ATOM     16  C   UNL A   1      45.335  24.787  32.008  1.00  0.00     0.052 A 
ATOM     17  C   UNL A   1      45.333  25.272  30.696  1.00  0.00     0.020 A 
ATOM     18  C   UNL A   1      44.522  23.701  32.342  1.00  0.00     0.020 A 
ATOM     19  C   UNL A   1      44.548  24.655  29.716  1.00  0.00     0.009 A 
ATOM     20  C   UNL A   1      43.741  23.084  31.360  1.00  0.00     0.009 A 
BRANCH  16  21
ATOM     21  C   UNL A   1      46.206  25.361  32.993  1.00  0.00     0.099 C 
ATOM     22  N   UNL A   1      46.867  25.839  33.817  1.00  0.00    -0.192 NA
ENDBRANCH  16  21
ENDBRANCH  14  15
ENDBRANCH  11  13
ENDBRANCH   7  11
BRANCH   9  23
ATOM     23  O   UNL A   1      44.534  18.077  24.739  1.00  0.00    -0.391 OA
ATOM     24  H   UNL A   1      43.935  18.205  23.987  1.00  0.00     0.211 HD
ENDBRANCH   9  23
ENDBRANCH   3   6
ENDBRANCH   1   2
BRANCH   1  25
ATOM     25  C   UNL A   1      45.302  25.577  26.386  1.00  0.00     0.042 C 
BRANCH  25  26
ATOM     26  C   UNL A   1      44.861  26.627  25.374  1.00  0.00     0.118 C 
BRANCH  26  27
ATOM     27  N   UNL A   1      43.504  26.386  24.887  1.00  0.00    -0.352 N 
ATOM     28  C   UNL A   1      42.303  26.424  25.550  1.00  0.00     0.251 C 
ATOM     29  H   UNL A   1      43.442  26.162  23.931  1.00  0.00     0.163 HD
ATOM     30  O   UNL A   1      41.303  25.945  25.023  1.00  0.00    -0.269 OA
BRANCH  28  31
ATOM     31  C   UNL A   1      42.223  27.020  26.897  1.00  0.00     0.039 A 
ATOM     32  C   UNL A   1      42.713  28.313  27.100  1.00  0.00     0.014 A 
ATOM     33  C   UNL A   1      41.654  26.308  27.955  1.00  0.00     0.014 A 
ATOM     34  C   UNL A   1      42.538  28.927  28.340  1.00  0.00     0.010 A 
ATOM     35  C   UNL A   1      41.404  26.950  29.162  1.00  0.00     0.010 A 
ATOM     36  C   UNL A   1      41.827  28.272  29.360  1.00  0.00    -0.014 A 
BRANCH  36  37
ATOM     37  C   UNL A   1      41.454  28.975  30.613  1.00  0.00     0.031 A 
ATOM     38  C   UNL A   1      40.278  29.910  30.643  1.00  0.00     0.074 A 
ATOM     39  C   UNL A   1      42.237  28.829  31.700  1.00  0.00     0.049 A 
ATOM     40  N   UNL A   1      39.858  30.666  31.624  1.00  0.00    -0.248 NA
ATOM     41  C   UNL A   1      39.486  30.026  29.409  1.00  0.00     0.031 C 
ATOM     42  C   UNL A   1      43.426  27.975  31.779  1.00  0.00     0.029 A 
ATOM     43  N   UNL A   1      42.160  29.403  32.945  1.00  0.00    -0.354 N 
ATOM     44  C   UNL A   1      38.760  31.355  31.125  1.00  0.00     0.074 A 
ATOM     45  C   UNL A   1      38.608  30.963  29.741  1.00  0.00     0.031 C 
ATOM     46  C   UNL A   1      43.948  28.059  33.013  1.00  0.00     0.029 A 
ATOM     47  C   UNL A   1      43.173  29.018  33.793  1.00  0.00     0.049 A 
ATOM     48  H   UNL A   1      41.448  30.029  33.207  1.00  0.00     0.167 HD
ATOM     49  C   UNL A   1      37.944  32.225  31.768  1.00  0.00     0.031 A 
ATOM     50  C   UNL A   1      43.463  29.408  35.049  1.00  0.00     0.031 A 
ATOM     51  C   UNL A   1      38.113  32.619  33.143  1.00  0.00     0.049 A 
ATOM     52  C   UNL A   1      42.575  30.419  35.721  1.00  0.00     0.074 A 
ATOM     53  C   UNL A   1      37.312  33.456  33.899  1.00  0.00     0.029 A 
ATOM     54  N   UNL A   1      39.159  32.219  33.962  1.00  0.00    -0.354 N 
ATOM     55  N   UNL A   1      41.491  30.996  35.260  1.00  0.00    -0.248 NA
ATOM     56  C   UNL A   1      42.947  30.829  37.082  1.00  0.00     0.031 C 
ATOM     57  C   UNL A   1      37.916  33.625  35.149  1.00  0.00     0.029 A 
ATOM     58  C   UNL A   1      39.050  32.831  35.201  1.00  0.00     0.049 A 
ATOM     59  H   UNL A   1      39.873  31.594  33.703  1.00  0.00     0.167 HD
ATOM     60  C   UNL A   1      41.040  31.823  36.283  1.00  0.00     0.074 A 
ATOM     61  C   UNL A   1      41.953  31.650  37.394  1.00  0.00     0.031 C 
ATOM     62  C   UNL A   1      39.970  32.655  36.297  1.00  0.00     0.031 A 
BRANCH  49  63
ATOM     63  C   UNL A   1      36.806  32.831  30.986  1.00  0.00    -0.014 A 
ATOM     64  C   UNL A   1      35.498  32.323  31.086  1.00  0.00     0.010 A 
ATOM     65  C   UNL A   1      37.037  33.965  30.184  1.00  0.00     0.010 A 
ATOM     66  C   UNL A   1      34.452  32.911  30.371  1.00  0.00     0.020 A 
ATOM     67  C   UNL A   1      35.988  34.577  29.494  1.00  0.00     0.020 A 
ATOM     68  C   UNL A   1      34.704  34.037  29.580  1.00  0.00     0.054 A 
BRANCH  68  69
ATOM     69  S   UNL A   1      33.320  34.797  28.690  1.00  0.00     0.124 S 
ATOM     70  O   UNL A   1      34.009  35.713  27.785  1.00  0.00    -0.237 OA
ATOM     71  O   UNL A   1      32.683  33.647  28.053  1.00  0.00    -0.237 OA
ATOM     72  O   UNL A   1      32.535  35.436  29.744  1.00  0.00    -0.744 OA
ENDBRANCH  68  69
ENDBRANCH  49  63
BRANCH  50  73
ATOM     73  C   UNL A   1      44.657  28.852  35.745  1.00  0.00    -0.014 A 
ATOM     74  C   UNL A   1      44.557  27.688  36.525  1.00  0.00     0.010 A 
ATOM     75  C   UNL A   1      45.910  29.485  35.620  1.00  0.00     0.010 A 
ATOM     76  C   UNL A   1      45.681  27.175  37.180  1.00  0.00     0.020 A 
ATOM     77  C   UNL A   1      47.042  28.955  36.243  1.00  0.00     0.020 A 
ATOM     78  C   UNL A   1      46.917  27.809  37.029  1.00  0.00     0.054 A 
BRANCH  78  79
ATOM     79  S   UNL A   1      48.372  27.091  37.841  1.00  0.00     0.124 S 
ATOM     80  O   UNL A   1      49.314  26.978  36.733  1.00  0.00    -0.237 OA
ATOM     81  O   UNL A   1      48.695  28.098  38.849  1.00  0.00    -0.237 OA
ATOM     82  O   UNL A   1      47.875  25.824  38.374  1.00  0.00    -0.744 OA
ENDBRANCH  78  79
ENDBRANCH  50  73
BRANCH  62  83
ATOM     83  C   UNL A   1      39.713  33.436  37.560  1.00  0.00    -0.014 A 
ATOM     84  C   UNL A   1      40.317  34.687  37.776  1.00  0.00     0.010 A 
ATOM     85  C   UNL A   1      38.799  32.944  38.510  1.00  0.00     0.010 A 
ATOM     86  C   UNL A   1      40.027  35.423  38.929  1.00  0.00     0.020 A 
ATOM     87  C   UNL A   1      38.480  33.692  39.646  1.00  0.00     0.020 A 
ATOM     88  C   UNL A   1      39.103  34.924  39.853  1.00  0.00     0.054 A 
BRANCH  88  89
ATOM     89  S   UNL A   1      38.695  35.932  41.303  1.00  0.00     0.124 S 
ATOM     90  O   UNL A   1      38.492  37.251  40.710  1.00  0.00    -0.237 OA
ATOM     91  O   UNL A   1      37.491  35.280  41.813  1.00  0.00    -0.237 OA
ATOM     92  O   UNL A   1      39.874  35.809  42.156  1.00  0.00    -0.744 OA
ENDBRANCH  88  89
ENDBRANCH  62  83
ENDBRANCH  36  37
ENDBRANCH  28  31
ENDBRANCH  26  27
ENDBRANCH  25  26
ENDBRANCH   1  25
TORSDOF 18
ENDMDL
MODEL 3
REMARK VINA RESULT:     -10.8      6.158      8.267
REMARK SMILES N#Cc1ccc(/C=C/C(=O)N2C[C@@H](O)C[C@H]2C(=O)NCCCNC(=O)c2ccc(-c3c4nc(c(-c5ccc(S(=O)(=O)[O-])cc5)c5ccc([nH]5)c(-c5ccc(S(=O)(=O)[O-])cc5)c5nc(c(-c6ccc(S(=O)(=O)[O-])cc6)c6ccc3[nH]6)C=C5)C=C4)cc2)cc1
REMARK SMILES IDX 20 1 19 2 17 3 18 4 16 6 11 7 12 8 13 9 15 10 9 11 10 12
REMARK SMILES IDX 8 13 7 14 6 15 3 16 4 17 87 18 5 19 86 20 2 21 1 22 14 23
REMARK SMILES IDX 21 25 22 26 23 27 24 28 25 30 26 31 27 32 85 33 28 34 84 35
REMARK SMILES IDX 29 36 30 37 31 38 78 39 32 40 83 41 77 42 79 43 33 44 82 45
REMARK SMILES IDX 76 46 75 47 34 49 64 50 45 51 63 52 46 53 49 54 62 55 80 56
REMARK SMILES IDX 47 57 48 58 61 60 81 61 50 62 35 63 36 64 44 65 37 66 43 67
REMARK SMILES IDX 38 68 39 69 40 70 41 71 42 72 65 73 66 74 74 75 67 76 73 77
REMARK SMILES IDX 68 78 69 79 70 80 71 81 72 82 51 83 52 84 60 85 53 86 59 87
REMARK SMILES IDX 54 88 55 89 56 90 57 91 58 92
REMARK H PARENT 19 5 14 24 23 29 79 48 49 59
REMARK Flexibility Score: inf
ROOT
ATOM      1  C   UNL A   1      36.710  23.507  25.784  1.00  0.00     0.117 C 
ENDROOT
BRANCH   1   2
ATOM      2  N   UNL A   1      35.726  23.082  26.753  1.00  0.00    -0.354 N 
ATOM      3  C   UNL A   1      34.378  23.278  26.791  1.00  0.00     0.242 C 
ATOM      4  O   UNL A   1      33.741  22.578  27.586  1.00  0.00    -0.273 OA
ATOM      5  H   UNL A   1      36.089  22.568  27.510  1.00  0.00     0.163 HD
BRANCH   3   6
ATOM      6  C   UNL A   1      33.639  24.166  25.766  1.00  0.00     0.177 C 
ATOM      7  N   UNL A   1      32.671  23.511  24.880  1.00  0.00    -0.324 N 
ATOM      8  C   UNL A   1      31.331  24.045  25.058  1.00  0.00     0.152 C 
ATOM      9  C   UNL A   1      31.554  25.417  25.688  1.00  0.00     0.136 C 
ATOM     10  C   UNL A   1      32.869  25.296  26.459  1.00  0.00     0.069 C 
BRANCH   7  11
ATOM     11  C   UNL A   1      33.150  22.713  23.866  1.00  0.00     0.247 C 
ATOM     12  O   UNL A   1      33.800  23.159  22.924  1.00  0.00    -0.270 OA
BRANCH  11  13
ATOM     13  C   UNL A   1      32.824  21.265  23.870  1.00  0.00     0.072 C 
ATOM     14  C   UNL A   1      33.758  20.364  24.217  1.00  0.00     0.014 C 
BRANCH  14  15
ATOM     15  C   UNL A   1      33.550  18.923  24.397  1.00  0.00    -0.025 A 
ATOM     16  C   UNL A   1      33.332  16.181  24.996  1.00  0.00     0.052 A 
ATOM     17  C   UNL A   1      32.224  17.025  25.133  1.00  0.00     0.020 A 
ATOM     18  C   UNL A   1      34.541  16.703  24.530  1.00  0.00     0.020 A 
ATOM     19  C   UNL A   1      32.334  18.389  24.836  1.00  0.00     0.009 A 
ATOM     20  C   UNL A   1      34.649  18.066  24.237  1.00  0.00     0.009 A 
BRANCH  16  21
ATOM     21  C   UNL A   1      33.247  14.803  25.385  1.00  0.00     0.099 C 
ATOM     22  N   UNL A   1      33.229  13.692  25.717  1.00  0.00    -0.192 NA
ENDBRANCH  16  21
ENDBRANCH  14  15
ENDBRANCH  11  13
ENDBRANCH   7  11
BRANCH   9  23
ATOM     23  O   UNL A   1      30.494  25.812  26.542  1.00  0.00    -0.391 OA
ATOM     24  H   UNL A   1      30.769  25.709  27.467  1.00  0.00     0.211 HD
ENDBRANCH   9  23
ENDBRANCH   3   6
ENDBRANCH   1   2
BRANCH   1  25
ATOM     25  C   UNL A   1      38.136  23.337  26.277  1.00  0.00     0.042 C 
BRANCH  25  26
ATOM     26  C   UNL A   1      38.672  24.585  26.967  1.00  0.00     0.118 C 
BRANCH  26  27
ATOM     27  N   UNL A   1      39.789  25.182  26.237  1.00  0.00    -0.352 N 
ATOM     28  C   UNL A   1      40.427  26.383  26.418  1.00  0.00     0.251 C 
ATOM     29  H   UNL A   1      40.138  24.635  25.497  1.00  0.00     0.163 HD
ATOM     30  O   UNL A   1      41.174  26.812  25.544  1.00  0.00    -0.269 OA
BRANCH  28  31
ATOM     31  C   UNL A   1      40.200  27.160  27.652  1.00  0.00     0.039 A 
ATOM     32  C   UNL A   1      39.612  26.533  28.753  1.00  0.00     0.014 A 
ATOM     33  C   UNL A   1      40.579  28.502  27.724  1.00  0.00     0.014 A 
ATOM     34  C   UNL A   1      39.499  27.226  29.958  1.00  0.00     0.010 A 
ATOM     35  C   UNL A   1      40.545  29.163  28.946  1.00  0.00     0.010 A 
ATOM     36  C   UNL A   1      40.021  28.525  30.079  1.00  0.00    -0.014 A 
BRANCH  36  37
ATOM     37  C   UNL A   1      40.094  29.207  31.396  1.00  0.00     0.031 A 
ATOM     38  C   UNL A   1      39.087  30.257  31.770  1.00  0.00     0.074 A 
ATOM     39  C   UNL A   1      41.129  28.932  32.215  1.00  0.00     0.049 A 
ATOM     40  N   UNL A   1      39.045  31.008  32.840  1.00  0.00    -0.248 NA
ATOM     41  C   UNL A   1      37.999  30.510  30.812  1.00  0.00     0.031 C 
ATOM     42  C   UNL A   1      42.189  27.957  31.943  1.00  0.00     0.029 A 
ATOM     43  N   UNL A   1      41.468  29.454  33.439  1.00  0.00    -0.354 N 
ATOM     44  C   UNL A   1      37.936  31.829  32.681  1.00  0.00     0.074 A 
ATOM     45  C   UNL A   1      37.360  31.517  31.391  1.00  0.00     0.031 C 
ATOM     46  C   UNL A   1      43.041  27.931  32.980  1.00  0.00     0.029 A 
ATOM     47  C   UNL A   1      42.627  28.929  33.960  1.00  0.00     0.049 A 
ATOM     48  H   UNL A   1      40.932  30.139  33.899  1.00  0.00     0.167 HD
ATOM     49  C   UNL A   1      37.436  32.749  33.541  1.00  0.00     0.031 A 
ATOM     50  C   UNL A   1      43.299  29.231  35.088  1.00  0.00     0.031 A 
ATOM     51  C   UNL A   1      38.026  33.062  34.817  1.00  0.00     0.049 A 
ATOM     52  C   UNL A   1      42.753  30.297  35.997  1.00  0.00     0.074 A 
ATOM     53  C   UNL A   1      37.568  33.943  35.780  1.00  0.00     0.029 A 
ATOM     54  N   UNL A   1      39.207  32.519  35.301  1.00  0.00    -0.354 N 
ATOM     55  N   UNL A   1      41.656  31.004  35.869  1.00  0.00    -0.248 NA
ATOM     56  C   UNL A   1      43.535  30.605  37.203  1.00  0.00     0.031 C 
ATOM     57  C   UNL A   1      38.512  33.993  36.810  1.00  0.00     0.029 A 
ATOM     58  C   UNL A   1      39.518  33.083  36.528  1.00  0.00     0.049 A 
ATOM     59  H   UNL A   1      39.745  31.836  34.842  1.00  0.00     0.167 HD
ATOM     60  C   UNL A   1      41.605  31.826  36.989  1.00  0.00     0.074 A 
ATOM     61  C   UNL A   1      42.767  31.510  37.794  1.00  0.00     0.031 C 
ATOM     62  C   UNL A   1      40.682  32.764  37.317  1.00  0.00     0.031 A 
BRANCH  49  63
ATOM     63  C   UNL A   1      36.201  33.505  33.120  1.00  0.00    -0.014 A 
ATOM     64  C   UNL A   1      34.914  32.969  33.316  1.00  0.00     0.010 A 
ATOM     65  C   UNL A   1      36.324  34.797  32.577  1.00  0.00     0.010 A 
ATOM     66  C   UNL A   1      33.780  33.693  32.940  1.00  0.00     0.020 A 
ATOM     67  C   UNL A   1      35.192  35.539  32.231  1.00  0.00     0.020 A 
ATOM     68  C   UNL A   1      33.926  34.975  32.402  1.00  0.00     0.054 A 
BRANCH  68  69
ATOM     69  S   UNL A   1      32.433  35.902  31.954  1.00  0.00     0.124 S 
ATOM     70  O   UNL A   1      32.745  37.237  32.458  1.00  0.00    -0.237 OA
ATOM     71  O   UNL A   1      32.402  35.772  30.500  1.00  0.00    -0.237 OA
ATOM     72  O   UNL A   1      31.363  35.203  32.663  1.00  0.00    -0.744 OA
ENDBRANCH  68  69
ENDBRANCH  49  63
BRANCH  50  73
ATOM     73  C   UNL A   1      44.570  28.523  35.410  1.00  0.00    -0.014 A 
ATOM     74  C   UNL A   1      44.560  27.333  36.158  1.00  0.00     0.010 A 
ATOM     75  C   UNL A   1      45.802  29.035  34.958  1.00  0.00     0.010 A 
ATOM     76  C   UNL A   1      45.758  26.678  36.461  1.00  0.00     0.020 A 
ATOM     77  C   UNL A   1      46.996  28.363  35.228  1.00  0.00     0.020 A 
ATOM     78  C   UNL A   1      46.967  27.194  35.988  1.00  0.00     0.054 A 
BRANCH  78  79
ATOM     79  S   UNL A   1      48.501  26.294  36.346  1.00  0.00     0.124 S 
ATOM     80  O   UNL A   1      48.947  26.933  37.579  1.00  0.00    -0.237 OA
ATOM     81  O   UNL A   1      48.031  24.917  36.476  1.00  0.00    -0.237 OA
ATOM     82  O   UNL A   1      49.330  26.552  35.170  1.00  0.00    -0.744 OA
ENDBRANCH  78  79
ENDBRANCH  50  73
BRANCH  62  83
ATOM     83  C   UNL A   1      40.878  33.510  38.611  1.00  0.00    -0.014 A 
ATOM     84  C   UNL A   1      41.562  34.739  38.645  1.00  0.00     0.010 A 
ATOM     85  C   UNL A   1      40.308  33.011  39.797  1.00  0.00     0.010 A 
ATOM     86  C   UNL A   1      41.689  35.444  39.846  1.00  0.00     0.020 A 
ATOM     87  C   UNL A   1      40.403  33.730  40.991  1.00  0.00     0.020 A 
ATOM     88  C   UNL A   1      41.101  34.939  41.010  1.00  0.00     0.054 A 
BRANCH  88  89
ATOM     89  S   UNL A   1      41.222  35.910  42.536  1.00  0.00     0.124 S 
ATOM     90  O   UNL A   1      39.822  36.217  42.814  1.00  0.00    -0.237 OA
ATOM     91  O   UNL A   1      41.856  34.971  43.459  1.00  0.00    -0.237 OA
ATOM     92  O   UNL A   1      42.046  37.054  42.155  1.00  0.00    -0.744 OA
ENDBRANCH  88  89
ENDBRANCH  62  83
ENDBRANCH  36  37
ENDBRANCH  28  31
ENDBRANCH  26  27
ENDBRANCH  25  26
ENDBRANCH   1  25
TORSDOF 18
ENDMDL
