MODEL 1
REMARK VINA RESULT:     -10.7      0.000      0.000
REMARK SMILES O=C(NCCCNC(=O)[C@]1(CCc2ccccc2)C[C@H]2CC[C@@H]1O2)c1ccc(-c2c3nc(c(-c4ccc(S(=O)(=O)[O-])cc4)c4ccc([nH]4)c(-c4ccc(S(=O)(=O)[O-])cc4)c4nc(c(-c5ccc(S(=O)(=O)[O-])cc5)c5ccc2[nH]5)C=C4)C=C3)cc1
REMARK SMILES IDX 5 1 4 2 3 3 1 4 2 5 25 7 26 8 84 9 27 10 83 11 28 12 29 13
REMARK SMILES IDX 30 14 77 15 31 16 82 17 76 18 78 19 32 20 81 21 75 22 74 23
REMARK SMILES IDX 33 25 63 26 44 27 62 28 45 29 48 30 61 31 79 32 46 33 47 34
REMARK SMILES IDX 60 36 80 37 49 38 34 39 35 40 43 41 36 42 42 43 37 44 38 45
REMARK SMILES IDX 39 46 40 47 41 48 64 49 65 50 73 51 66 52 72 53 67 54 68 55
REMARK SMILES IDX 69 56 70 57 71 58 50 59 51 60 59 61 52 62 58 63 53 64 54 65
REMARK SMILES IDX 55 66 56 67 57 68 6 69 7 70 8 71 9 73 10 74 19 75 23 76
REMARK SMILES IDX 20 77 22 78 24 79 21 80 11 81 12 82 13 83 14 84 18 85 15 86
REMARK SMILES IDX 17 87 16 88
REMARK H PARENT 3 6 78 24 48 35 7 72
REMARK Flexibility Score: inf
ROOT
ATOM      1  C   UNL A   1      35.062  23.396  26.667  1.00  0.00     0.042 C 
ENDROOT
BRANCH   1   2
ATOM      2  C   UNL A   1      36.320  23.780  25.910  1.00  0.00     0.118 C 
BRANCH   2   3
ATOM      3  N   UNL A   1      37.339  22.741  25.973  1.00  0.00    -0.352 N 
ATOM      4  O   UNL A   1      39.423  21.895  26.040  1.00  0.00    -0.269 OA
ATOM      5  C   UNL A   1      38.678  22.839  26.272  1.00  0.00     0.251 C 
ATOM      6  H   UNL A   1      37.021  21.831  25.770  1.00  0.00     0.163 HD
BRANCH   5   7
ATOM      7  C   UNL A   1      39.211  24.090  26.852  1.00  0.00     0.039 A 
ATOM      8  C   UNL A   1      38.998  24.394  28.198  1.00  0.00     0.014 A 
ATOM      9  C   UNL A   1      39.945  24.962  26.045  1.00  0.00     0.014 A 
ATOM     10  C   UNL A   1      39.358  25.640  28.693  1.00  0.00     0.010 A 
ATOM     11  C   UNL A   1      40.413  26.165  26.578  1.00  0.00     0.010 A 
ATOM     12  C   UNL A   1      40.097  26.527  27.898  1.00  0.00    -0.014 A 
BRANCH  12  13
ATOM     13  C   UNL A   1      40.606  27.789  28.487  1.00  0.00     0.031 A 
ATOM     14  C   UNL A   1      42.013  27.893  28.996  1.00  0.00     0.074 A 
ATOM     15  C   UNL A   1      39.765  28.839  28.582  1.00  0.00     0.049 A 
ATOM     16  N   UNL A   1      42.589  28.887  29.622  1.00  0.00    -0.248 NA
ATOM     17  C   UNL A   1      42.886  26.728  28.786  1.00  0.00     0.031 C 
ATOM     18  C   UNL A   1      38.377  28.853  28.115  1.00  0.00     0.029 A 
ATOM     19  N   UNL A   1      39.950  30.092  29.109  1.00  0.00    -0.354 N 
ATOM     20  C   UNL A   1      43.878  28.456  29.915  1.00  0.00     0.074 A 
ATOM     21  C   UNL A   1      43.993  27.104  29.410  1.00  0.00     0.031 C 
ATOM     22  C   UNL A   1      37.841  30.056  28.359  1.00  0.00     0.029 A 
ATOM     23  C   UNL A   1      38.818  30.868  29.073  1.00  0.00     0.049 A 
ATOM     24  H   UNL A   1      40.809  30.403  29.477  1.00  0.00     0.167 HD
ATOM     25  C   UNL A   1      44.868  29.128  30.552  1.00  0.00     0.031 A 
ATOM     26  C   UNL A   1      38.566  32.083  29.597  1.00  0.00     0.031 A 
ATOM     27  C   UNL A   1      44.728  30.469  31.057  1.00  0.00     0.049 A 
ATOM     28  C   UNL A   1      39.660  32.793  30.335  1.00  0.00     0.074 A 
ATOM     29  C   UNL A   1      45.678  31.254  31.687  1.00  0.00     0.029 A 
ATOM     30  N   UNL A   1      43.562  31.220  31.004  1.00  0.00    -0.354 N 
ATOM     31  N   UNL A   1      40.882  32.384  30.576  1.00  0.00    -0.248 NA
ATOM     32  C   UNL A   1      39.347  34.124  30.868  1.00  0.00     0.031 C 
ATOM     33  C   UNL A   1      45.068  32.454  32.070  1.00  0.00     0.029 A 
ATOM     34  C   UNL A   1      43.757  32.446  31.616  1.00  0.00     0.049 A 
ATOM     35  H   UNL A   1      42.718  30.924  30.590  1.00  0.00     0.167 HD
ATOM     36  C   UNL A   1      41.496  33.418  31.269  1.00  0.00     0.074 A 
ATOM     37  C   UNL A   1      40.509  34.472  31.406  1.00  0.00     0.031 C 
ATOM     38  C   UNL A   1      42.765  33.487  31.741  1.00  0.00     0.031 A 
BRANCH  25  39
ATOM     39  C   UNL A   1      46.164  28.395  30.789  1.00  0.00    -0.014 A 
ATOM     40  C   UNL A   1      46.433  27.743  32.007  1.00  0.00     0.010 A 
ATOM     41  C   UNL A   1      47.134  28.359  29.770  1.00  0.00     0.010 A 
ATOM     42  C   UNL A   1      47.672  27.133  32.225  1.00  0.00     0.020 A 
ATOM     43  C   UNL A   1      48.362  27.721  29.972  1.00  0.00     0.020 A 
ATOM     44  C   UNL A   1      48.634  27.137  31.210  1.00  0.00     0.054 A 
BRANCH  44  45
ATOM     45  S   UNL A   1      50.247  26.372  31.531  1.00  0.00     0.124 S 
ATOM     46  O   UNL A   1      51.045  26.875  30.417  1.00  0.00    -0.237 OA
ATOM     47  O   UNL A   1      50.599  26.904  32.845  1.00  0.00    -0.237 OA
ATOM     48  O   UNL A   1      49.965  24.939  31.498  1.00  0.00    -0.744 OA
ENDBRANCH  44  45
ENDBRANCH  25  39
BRANCH  26  49
ATOM     49  C   UNL A   1      37.202  32.656  29.453  1.00  0.00    -0.014 A 
ATOM     50  C   UNL A   1      36.295  32.629  30.524  1.00  0.00     0.010 A 
ATOM     51  C   UNL A   1      36.846  33.331  28.268  1.00  0.00     0.010 A 
ATOM     52  C   UNL A   1      35.061  33.279  30.419  1.00  0.00     0.020 A 
ATOM     53  C   UNL A   1      35.627  34.005  28.171  1.00  0.00     0.020 A 
ATOM     54  C   UNL A   1      34.741  33.973  29.248  1.00  0.00     0.054 A 
BRANCH  54  55
ATOM     55  S   UNL A   1      33.181  34.897  29.178  1.00  0.00     0.124 S 
ATOM     56  O   UNL A   1      33.628  36.216  28.743  1.00  0.00    -0.237 OA
ATOM     57  O   UNL A   1      32.409  34.135  28.197  1.00  0.00    -0.237 OA
ATOM     58  O   UNL A   1      32.676  34.824  30.547  1.00  0.00    -0.744 OA
ENDBRANCH  54  55
ENDBRANCH  26  49
BRANCH  38  59
ATOM     59  C   UNL A   1      43.189  34.762  32.418  1.00  0.00    -0.014 A 
ATOM     60  C   UNL A   1      43.713  35.840  31.684  1.00  0.00     0.010 A 
ATOM     61  C   UNL A   1      42.957  34.916  33.798  1.00  0.00     0.010 A 
ATOM     62  C   UNL A   1      43.997  37.051  32.322  1.00  0.00     0.020 A 
ATOM     63  C   UNL A   1      43.216  36.131  34.432  1.00  0.00     0.020 A 
ATOM     64  C   UNL A   1      43.737  37.193  33.689  1.00  0.00     0.054 A 
BRANCH  64  65
ATOM     65  S   UNL A   1      44.021  38.804  34.470  1.00  0.00     0.124 S 
ATOM     66  O   UNL A   1      43.887  38.483  35.888  1.00  0.00    -0.237 OA
ATOM     67  O   UNL A   1      45.373  39.139  34.028  1.00  0.00    -0.237 OA
ATOM     68  O   UNL A   1      42.965  39.649  33.919  1.00  0.00    -0.744 OA
ENDBRANCH  64  65
ENDBRANCH  38  59
ENDBRANCH  12  13
ENDBRANCH   5   7
ENDBRANCH   2   3
ENDBRANCH   1   2
BRANCH   1  69
ATOM     69  C   UNL A   1      33.859  23.201  25.761  1.00  0.00     0.117 C 
BRANCH  69  70
ATOM     70  N   UNL A   1      34.164  23.530  24.382  1.00  0.00    -0.355 N 
ATOM     71  C   UNL A   1      33.770  24.507  23.539  1.00  0.00     0.228 C 
ATOM     72  H   UNL A   1      34.798  22.900  23.969  1.00  0.00     0.163 HD
ATOM     73  O   UNL A   1      34.116  24.349  22.359  1.00  0.00    -0.274 OA
BRANCH  71  74
ATOM     74  C   UNL A   1      32.890  25.718  23.908  1.00  0.00     0.078 C 
ATOM     75  C   UNL A   1      31.652  25.556  24.805  1.00  0.00     0.051 C 
ATOM     76  C   UNL A   1      32.212  26.054  22.560  1.00  0.00     0.134 C 
ATOM     77  C   UNL A   1      30.499  25.521  23.784  1.00  0.00     0.120 C 
ATOM     78  C   UNL A   1      31.377  27.338  22.548  1.00  0.00     0.036 C 
ATOM     79  O   UNL A   1      31.143  25.063  22.578  1.00  0.00    -0.374 OA
ATOM     80  C   UNL A   1      30.138  26.937  23.353  1.00  0.00     0.035 C 
BRANCH  74  81
ATOM     81  C   UNL A   1      33.830  26.811  24.491  1.00  0.00     0.024 C 
BRANCH  81  82
ATOM     82  C   UNL A   1      33.791  26.948  26.036  1.00  0.00     0.037 C 
BRANCH  82  83
ATOM     83  C   UNL A   1      33.556  28.345  26.558  1.00  0.00    -0.048 A 
ATOM     84  C   UNL A   1      34.568  29.045  27.231  1.00  0.00     0.004 A 
ATOM     85  C   UNL A   1      32.335  28.990  26.320  1.00  0.00     0.004 A 
ATOM     86  C   UNL A   1      34.383  30.380  27.602  1.00  0.00     0.000 A 
ATOM     87  C   UNL A   1      32.146  30.319  26.705  1.00  0.00     0.000 A 
ATOM     88  C   UNL A   1      33.175  31.017  27.333  1.00  0.00     0.000 A 
ENDBRANCH  82  83
ENDBRANCH  81  82
ENDBRANCH  74  81
ENDBRANCH  71  74
ENDBRANCH  69  70
ENDBRANCH   1  69
TORSDOF 16
ENDMDL
MODEL 2
REMARK VINA RESULT:     -10.5      2.892      9.501
REMARK SMILES O=C(NCCCNC(=O)[C@]1(CCc2ccccc2)C[C@H]2CC[C@@H]1O2)c1ccc(-c2c3nc(c(-c4ccc(S(=O)(=O)[O-])cc4)c4ccc([nH]4)c(-c4ccc(S(=O)(=O)[O-])cc4)c4nc(c(-c5ccc(S(=O)(=O)[O-])cc5)c5ccc2[nH]5)C=C4)C=C3)cc1
REMARK SMILES IDX 5 1 4 2 3 3 1 4 2 5 25 7 26 8 84 9 27 10 83 11 28 12 29 13
REMARK SMILES IDX 30 14 77 15 31 16 82 17 76 18 78 19 32 20 81 21 75 22 74 23
REMARK SMILES IDX 33 25 63 26 44 27 62 28 45 29 48 30 61 31 79 32 46 33 47 34
REMARK SMILES IDX 60 36 80 37 49 38 34 39 35 40 43 41 36 42 42 43 37 44 38 45
REMARK SMILES IDX 39 46 40 47 41 48 64 49 65 50 73 51 66 52 72 53 67 54 68 55
REMARK SMILES IDX 69 56 70 57 71 58 50 59 51 60 59 61 52 62 58 63 53 64 54 65
REMARK SMILES IDX 55 66 56 67 57 68 6 69 7 70 8 71 9 73 10 74 19 75 23 76
REMARK SMILES IDX 20 77 22 78 24 79 21 80 11 81 12 82 13 83 14 84 18 85 15 86
REMARK SMILES IDX 17 87 16 88
REMARK H PARENT 3 6 78 24 48 35 7 72
REMARK Flexibility Score: inf
ROOT
ATOM      1  C   UNL A   1      33.566  27.819  25.388  1.00  0.00     0.042 C 
ENDROOT
BRANCH   1   2
ATOM      2  C   UNL A   1      33.880  28.122  26.842  1.00  0.00     0.118 C 
BRANCH   2   3
ATOM      3  N   UNL A   1      33.694  29.531  27.163  1.00  0.00    -0.352 N 
ATOM      4  O   UNL A   1      34.074  31.471  28.239  1.00  0.00    -0.269 OA
ATOM      5  C   UNL A   1      34.508  30.387  27.866  1.00  0.00     0.251 C 
ATOM      6  H   UNL A   1      32.860  29.930  26.825  1.00  0.00     0.163 HD
BRANCH   5   7
ATOM      7  C   UNL A   1      35.895  29.986  28.186  1.00  0.00     0.039 A 
ATOM      8  C   UNL A   1      36.218  29.507  29.457  1.00  0.00     0.014 A 
ATOM      9  C   UNL A   1      36.880  30.073  27.200  1.00  0.00     0.014 A 
ATOM     10  C   UNL A   1      37.545  29.287  29.799  1.00  0.00     0.010 A 
ATOM     11  C   UNL A   1      38.199  29.735  27.512  1.00  0.00     0.010 A 
ATOM     12  C   UNL A   1      38.547  29.368  28.822  1.00  0.00    -0.014 A 
BRANCH  12  13
ATOM     13  C   UNL A   1      39.937  28.984  29.164  1.00  0.00     0.031 A 
ATOM     14  C   UNL A   1      40.879  29.968  29.792  1.00  0.00     0.074 A 
ATOM     15  C   UNL A   1      40.349  27.734  28.873  1.00  0.00     0.049 A 
ATOM     16  N   UNL A   1      42.151  29.827  30.068  1.00  0.00    -0.248 NA
ATOM     17  C   UNL A   1      40.329  31.285  30.146  1.00  0.00     0.031 C 
ATOM     18  C   UNL A   1      39.517  26.691  28.267  1.00  0.00     0.029 A 
ATOM     19  N   UNL A   1      41.569  27.129  29.038  1.00  0.00    -0.354 N 
ATOM     20  C   UNL A   1      42.563  31.047  30.593  1.00  0.00     0.074 A 
ATOM     21  C   UNL A   1      41.408  31.920  30.581  1.00  0.00     0.031 C 
ATOM     22  C   UNL A   1      40.242  25.574  28.128  1.00  0.00     0.029 A 
ATOM     23  C   UNL A   1      41.609  25.845  28.554  1.00  0.00     0.049 A 
ATOM     24  H   UNL A   1      42.340  27.572  29.461  1.00  0.00     0.167 HD
ATOM     25  C   UNL A   1      43.793  31.402  31.036  1.00  0.00     0.031 A 
ATOM     26  C   UNL A   1      42.637  24.986  28.418  1.00  0.00     0.031 A 
ATOM     27  C   UNL A   1      44.932  30.521  31.028  1.00  0.00     0.049 A 
ATOM     28  C   UNL A   1      43.999  25.411  28.874  1.00  0.00     0.074 A 
ATOM     29  C   UNL A   1      46.215  30.768  31.484  1.00  0.00     0.029 A 
ATOM     30  N   UNL A   1      44.931  29.227  30.524  1.00  0.00    -0.354 N 
ATOM     31  N   UNL A   1      44.365  26.557  29.396  1.00  0.00    -0.248 NA
ATOM     32  C   UNL A   1      45.085  24.435  28.727  1.00  0.00     0.031 C 
ATOM     33  C   UNL A   1      47.003  29.648  31.199  1.00  0.00     0.029 A 
ATOM     34  C   UNL A   1      46.195  28.674  30.630  1.00  0.00     0.049 A 
ATOM     35  H   UNL A   1      44.144  28.769  30.147  1.00  0.00     0.167 HD
ATOM     36  C   UNL A   1      45.722  26.433  29.665  1.00  0.00     0.074 A 
ATOM     37  C   UNL A   1      46.109  25.099  29.250  1.00  0.00     0.031 C 
ATOM     38  C   UNL A   1      46.565  27.341  30.214  1.00  0.00     0.031 A 
BRANCH  25  39
ATOM     39  C   UNL A   1      43.980  32.822  31.507  1.00  0.00    -0.014 A 
ATOM     40  C   UNL A   1      44.394  33.843  30.632  1.00  0.00     0.010 A 
ATOM     41  C   UNL A   1      43.734  33.141  32.856  1.00  0.00     0.010 A 
ATOM     42  C   UNL A   1      44.628  35.136  31.112  1.00  0.00     0.020 A 
ATOM     43  C   UNL A   1      43.934  34.440  33.333  1.00  0.00     0.020 A 
ATOM     44  C   UNL A   1      44.408  35.423  32.464  1.00  0.00     0.054 A 
BRANCH  44  45
ATOM     45  S   UNL A   1      44.755  37.097  33.069  1.00  0.00     0.124 S 
ATOM     46  O   UNL A   1      43.613  37.341  33.946  1.00  0.00    -0.237 OA
ATOM     47  O   UNL A   1      46.040  36.935  33.744  1.00  0.00    -0.237 OA
ATOM     48  O   UNL A   1      44.791  37.906  31.854  1.00  0.00    -0.744 OA
ENDBRANCH  44  45
ENDBRANCH  25  39
BRANCH  26  49
ATOM     49  C   UNL A   1      42.386  23.663  27.788  1.00  0.00    -0.014 A 
ATOM     50  C   UNL A   1      42.730  23.430  26.447  1.00  0.00     0.010 A 
ATOM     51  C   UNL A   1      41.900  22.595  28.568  1.00  0.00     0.010 A 
ATOM     52  C   UNL A   1      42.605  22.149  25.900  1.00  0.00     0.020 A 
ATOM     53  C   UNL A   1      41.802  21.309  28.033  1.00  0.00     0.020 A 
ATOM     54  C   UNL A   1      42.154  21.095  26.700  1.00  0.00     0.054 A 
BRANCH  54  55
ATOM     55  S   UNL A   1      42.102  19.423  25.997  1.00  0.00     0.124 S 
ATOM     56  O   UNL A   1      42.957  19.561  24.822  1.00  0.00    -0.237 OA
ATOM     57  O   UNL A   1      42.646  18.609  27.083  1.00  0.00    -0.237 OA
ATOM     58  O   UNL A   1      40.683  19.210  25.720  1.00  0.00    -0.744 OA
ENDBRANCH  54  55
ENDBRANCH  26  49
BRANCH  38  59
ATOM     59  C   UNL A   1      47.991  26.920  30.444  1.00  0.00    -0.014 A 
ATOM     60  C   UNL A   1      49.011  27.266  29.541  1.00  0.00     0.010 A 
ATOM     61  C   UNL A   1      48.324  26.258  31.640  1.00  0.00     0.010 A 
ATOM     62  C   UNL A   1      50.341  26.956  29.833  1.00  0.00     0.020 A 
ATOM     63  C   UNL A   1      49.655  25.969  31.946  1.00  0.00     0.020 A 
ATOM     64  C   UNL A   1      50.657  26.320  31.038  1.00  0.00     0.054 A 
BRANCH  64  65
ATOM     65  S   UNL A   1      52.399  26.018  31.438  1.00  0.00     0.124 S 
ATOM     66  O   UNL A   1      52.694  27.111  32.360  1.00  0.00    -0.237 OA
ATOM     67  O   UNL A   1      52.364  24.685  32.036  1.00  0.00    -0.237 OA
ATOM     68  O   UNL A   1      53.072  26.096  30.144  1.00  0.00    -0.744 OA
ENDBRANCH  64  65
ENDBRANCH  38  59
ENDBRANCH  12  13
ENDBRANCH   5   7
ENDBRANCH   2   3
ENDBRANCH   1   2
BRANCH   1  69
ATOM     69  C   UNL A   1      33.057  26.406  25.171  1.00  0.00     0.117 C 
BRANCH  69  70
ATOM     70  N   UNL A   1      33.239  25.971  23.800  1.00  0.00    -0.355 N 
ATOM     71  C   UNL A   1      33.631  24.815  23.224  1.00  0.00     0.228 C 
ATOM     72  H   UNL A   1      33.033  26.675  23.144  1.00  0.00     0.163 HD
ATOM     73  O   UNL A   1      33.840  24.885  22.004  1.00  0.00    -0.274 OA
BRANCH  71  74
ATOM     74  C   UNL A   1      33.899  23.486  23.958  1.00  0.00     0.078 C 
ATOM     75  C   UNL A   1      33.727  23.372  25.482  1.00  0.00     0.051 C 
ATOM     76  C   UNL A   1      35.436  23.354  23.844  1.00  0.00     0.134 C 
ATOM     77  C   UNL A   1      35.173  23.500  25.995  1.00  0.00     0.120 C 
ATOM     78  C   UNL A   1      36.018  22.028  24.346  1.00  0.00     0.036 C 
ATOM     79  O   UNL A   1      35.832  24.229  24.940  1.00  0.00    -0.374 OA
ATOM     80  C   UNL A   1      35.895  22.165  25.865  1.00  0.00     0.035 C 
BRANCH  74  81
ATOM     81  C   UNL A   1      33.063  22.387  23.244  1.00  0.00     0.024 C 
BRANCH  81  82
ATOM     82  C   UNL A   1      32.494  21.289  24.181  1.00  0.00     0.037 C 
BRANCH  82  83
ATOM     83  C   UNL A   1      32.903  19.874  23.847  1.00  0.00    -0.048 A 
ATOM     84  C   UNL A   1      33.847  19.192  24.629  1.00  0.00     0.004 A 
ATOM     85  C   UNL A   1      32.294  19.197  22.782  1.00  0.00     0.004 A 
ATOM     86  C   UNL A   1      34.129  17.845  24.387  1.00  0.00     0.000 A 
ATOM     87  C   UNL A   1      32.588  17.855  22.533  1.00  0.00     0.000 A 
ATOM     88  C   UNL A   1      33.494  17.176  23.344  1.00  0.00     0.000 A 
ENDBRANCH  82  83
ENDBRANCH  81  82
ENDBRANCH  74  81
ENDBRANCH  71  74
ENDBRANCH  69  70
ENDBRANCH   1  69
TORSDOF 16
ENDMDL
MODEL 3
REMARK VINA RESULT:     -10.5      3.240      9.228
REMARK SMILES O=C(NCCCNC(=O)[C@]1(CCc2ccccc2)C[C@H]2CC[C@@H]1O2)c1ccc(-c2c3nc(c(-c4ccc(S(=O)(=O)[O-])cc4)c4ccc([nH]4)c(-c4ccc(S(=O)(=O)[O-])cc4)c4nc(c(-c5ccc(S(=O)(=O)[O-])cc5)c5ccc2[nH]5)C=C4)C=C3)cc1
REMARK SMILES IDX 5 1 4 2 3 3 1 4 2 5 25 7 26 8 84 9 27 10 83 11 28 12 29 13
REMARK SMILES IDX 30 14 77 15 31 16 82 17 76 18 78 19 32 20 81 21 75 22 74 23
REMARK SMILES IDX 33 25 63 26 44 27 62 28 45 29 48 30 61 31 79 32 46 33 47 34
REMARK SMILES IDX 60 36 80 37 49 38 34 39 35 40 43 41 36 42 42 43 37 44 38 45
REMARK SMILES IDX 39 46 40 47 41 48 64 49 65 50 73 51 66 52 72 53 67 54 68 55
REMARK SMILES IDX 69 56 70 57 71 58 50 59 51 60 59 61 52 62 58 63 53 64 54 65
REMARK SMILES IDX 55 66 56 67 57 68 6 69 7 70 8 71 9 73 10 74 19 75 23 76
REMARK SMILES IDX 20 77 22 78 24 79 21 80 11 81 12 82 13 83 14 84 18 85 15 86
REMARK SMILES IDX 17 87 16 88
REMARK H PARENT 3 6 78 24 48 35 7 72
REMARK Flexibility Score: inf
ROOT
ATOM      1  C   UNL A   1      33.301  27.668  26.807  1.00  0.00     0.042 C 
ENDROOT
BRANCH   1   2
ATOM      2  C   UNL A   1      34.063  28.684  25.976  1.00  0.00     0.118 C 
BRANCH   2   3
ATOM      3  N   UNL A   1      33.746  30.054  26.354  1.00  0.00    -0.352 N 
ATOM      4  O   UNL A   1      33.719  31.878  27.672  1.00  0.00    -0.269 OA
ATOM      5  C   UNL A   1      34.279  30.837  27.351  1.00  0.00     0.251 C 
ATOM      6  H   UNL A   1      33.043  30.484  25.815  1.00  0.00     0.163 HD
BRANCH   5   7
ATOM      7  C   UNL A   1      35.512  30.405  28.043  1.00  0.00     0.039 A 
ATOM      8  C   UNL A   1      35.441  29.590  29.174  1.00  0.00     0.014 A 
ATOM      9  C   UNL A   1      36.755  30.807  27.547  1.00  0.00     0.014 A 
ATOM     10  C   UNL A   1      36.587  29.324  29.911  1.00  0.00     0.010 A 
ATOM     11  C   UNL A   1      37.919  30.437  28.223  1.00  0.00     0.010 A 
ATOM     12  C   UNL A   1      37.842  29.718  29.428  1.00  0.00    -0.014 A 
BRANCH  12  13
ATOM     13  C   UNL A   1      39.069  29.297  30.145  1.00  0.00     0.031 A 
ATOM     14  C   UNL A   1      39.518  30.004  31.390  1.00  0.00     0.074 A 
ATOM     15  C   UNL A   1      39.793  28.278  29.639  1.00  0.00     0.049 A 
ATOM     16  N   UNL A   1      40.612  29.827  32.086  1.00  0.00    -0.248 NA
ATOM     17  C   UNL A   1      38.634  31.054  31.916  1.00  0.00     0.031 C 
ATOM     18  C   UNL A   1      39.448  27.513  28.438  1.00  0.00     0.029 A 
ATOM     19  N   UNL A   1      40.969  27.715  30.063  1.00  0.00    -0.354 N 
ATOM     20  C   UNL A   1      40.567  30.766  33.110  1.00  0.00     0.074 A 
ATOM     21  C   UNL A   1      39.344  31.521  32.934  1.00  0.00     0.031 C 
ATOM     22  C   UNL A   1      40.379  26.573  28.231  1.00  0.00     0.029 A 
ATOM     23  C   UNL A   1      41.427  26.722  29.233  1.00  0.00     0.049 A 
ATOM     24  H   UNL A   1      41.440  27.995  30.882  1.00  0.00     0.167 HD
ATOM     25  C   UNL A   1      41.467  30.979  34.100  1.00  0.00     0.031 A 
ATOM     26  C   UNL A   1      42.584  26.032  29.238  1.00  0.00     0.031 A 
ATOM     27  C   UNL A   1      42.685  30.225  34.250  1.00  0.00     0.049 A 
ATOM     28  C   UNL A   1      43.587  26.311  30.315  1.00  0.00     0.074 A 
ATOM     29  C   UNL A   1      43.650  30.336  35.236  1.00  0.00     0.029 A 
ATOM     30  N   UNL A   1      43.113  29.228  33.384  1.00  0.00    -0.354 N 
ATOM     31  N   UNL A   1      43.514  27.181  31.294  1.00  0.00    -0.248 NA
ATOM     32  C   UNL A   1      44.822  25.520  30.295  1.00  0.00     0.031 C 
ATOM     33  C   UNL A   1      44.690  29.452  34.930  1.00  0.00     0.029 A 
ATOM     34  C   UNL A   1      44.341  28.738  33.793  1.00  0.00     0.049 A 
ATOM     35  H   UNL A   1      42.616  28.916  32.593  1.00  0.00     0.167 HD
ATOM     36  C   UNL A   1      44.685  27.026  32.024  1.00  0.00     0.074 A 
ATOM     37  C   UNL A   1      45.446  25.977  31.374  1.00  0.00     0.031 C 
ATOM     38  C   UNL A   1      45.086  27.690  33.136  1.00  0.00     0.031 A 
BRANCH  25  39
ATOM     39  C   UNL A   1      41.195  32.113  35.056  1.00  0.00    -0.014 A 
ATOM     40  C   UNL A   1      40.466  31.919  36.244  1.00  0.00     0.010 A 
ATOM     41  C   UNL A   1      41.679  33.400  34.758  1.00  0.00     0.010 A 
ATOM     42  C   UNL A   1      40.166  33.003  37.076  1.00  0.00     0.020 A 
ATOM     43  C   UNL A   1      41.411  34.481  35.604  1.00  0.00     0.020 A 
ATOM     44  C   UNL A   1      40.631  34.280  36.744  1.00  0.00     0.054 A 
BRANCH  44  45
ATOM     45  S   UNL A   1      40.197  35.675  37.819  1.00  0.00     0.124 S 
ATOM     46  O   UNL A   1      39.929  36.731  36.847  1.00  0.00    -0.237 OA
ATOM     47  O   UNL A   1      39.029  35.174  38.539  1.00  0.00    -0.237 OA
ATOM     48  O   UNL A   1      41.393  35.869  38.636  1.00  0.00    -0.744 OA
ENDBRANCH  44  45
ENDBRANCH  25  39
BRANCH  26  49
ATOM     49  C   UNL A   1      42.834  25.046  28.154  1.00  0.00    -0.014 A 
ATOM     50  C   UNL A   1      43.547  25.413  27.002  1.00  0.00     0.010 A 
ATOM     51  C   UNL A   1      42.450  23.701  28.326  1.00  0.00     0.010 A 
ATOM     52  C   UNL A   1      43.884  24.449  26.045  1.00  0.00     0.020 A 
ATOM     53  C   UNL A   1      42.811  22.732  27.387  1.00  0.00     0.020 A 
ATOM     54  C   UNL A   1      43.525  23.114  26.251  1.00  0.00     0.054 A 
BRANCH  54  55
ATOM     55  S   UNL A   1      44.067  21.867  25.049  1.00  0.00     0.124 S 
ATOM     56  O   UNL A   1      45.445  21.623  25.464  1.00  0.00    -0.237 OA
ATOM     57  O   UNL A   1      43.131  20.771  25.291  1.00  0.00    -0.237 OA
ATOM     58  O   UNL A   1      43.908  22.539  23.762  1.00  0.00    -0.744 OA
ENDBRANCH  54  55
ENDBRANCH  26  49
BRANCH  38  59
ATOM     59  C   UNL A   1      46.392  27.279  33.760  1.00  0.00    -0.014 A 
ATOM     60  C   UNL A   1      47.595  27.929  33.433  1.00  0.00     0.010 A 
ATOM     61  C   UNL A   1      46.391  26.297  34.768  1.00  0.00     0.010 A 
ATOM     62  C   UNL A   1      48.774  27.602  34.107  1.00  0.00     0.020 A 
ATOM     63  C   UNL A   1      47.562  25.986  35.459  1.00  0.00     0.020 A 
ATOM     64  C   UNL A   1      48.749  26.641  35.123  1.00  0.00     0.054 A 
BRANCH  64  65
ATOM     65  S   UNL A   1      50.272  26.306  36.048  1.00  0.00     0.124 S 
ATOM     66  O   UNL A   1      51.303  26.657  35.076  1.00  0.00    -0.237 OA
ATOM     67  O   UNL A   1      50.155  27.208  37.192  1.00  0.00    -0.237 OA
ATOM     68  O   UNL A   1      50.177  24.885  36.372  1.00  0.00    -0.744 OA
ENDBRANCH  64  65
ENDBRANCH  38  59
ENDBRANCH  12  13
ENDBRANCH   5   7
ENDBRANCH   2   3
ENDBRANCH   1   2
BRANCH   1  69
ATOM     69  C   UNL A   1      32.072  27.124  26.102  1.00  0.00     0.117 C 
BRANCH  69  70
ATOM     70  N   UNL A   1      31.575  25.917  26.736  1.00  0.00    -0.355 N 
ATOM     71  C   UNL A   1      31.778  24.598  26.536  1.00  0.00     0.228 C 
ATOM     72  H   UNL A   1      30.952  26.102  27.475  1.00  0.00     0.163 HD
ATOM     73  O   UNL A   1      31.022  23.852  27.176  1.00  0.00    -0.274 OA
BRANCH  71  74
ATOM     74  C   UNL A   1      32.789  23.979  25.550  1.00  0.00     0.078 C 
ATOM     75  C   UNL A   1      33.040  24.609  24.171  1.00  0.00     0.051 C 
ATOM     76  C   UNL A   1      32.077  22.672  25.131  1.00  0.00     0.134 C 
ATOM     77  C   UNL A   1      32.183  23.733  23.238  1.00  0.00     0.120 C 
ATOM     78  C   UNL A   1      32.908  21.725  24.259  1.00  0.00     0.036 C 
ATOM     79  O   UNL A   1      31.171  23.207  24.122  1.00  0.00    -0.374 OA
ATOM     80  C   UNL A   1      32.922  22.442  22.907  1.00  0.00     0.035 C 
BRANCH  74  81
ATOM     81  C   UNL A   1      34.133  23.811  26.313  1.00  0.00     0.024 C 
BRANCH  81  82
ATOM     82  C   UNL A   1      35.370  24.410  25.592  1.00  0.00     0.037 C 
BRANCH  82  83
ATOM     83  C   UNL A   1      36.626  23.573  25.653  1.00  0.00    -0.048 A 
ATOM     84  C   UNL A   1      37.781  24.048  26.291  1.00  0.00     0.004 A 
ATOM     85  C   UNL A   1      36.633  22.275  25.125  1.00  0.00     0.004 A 
ATOM     86  C   UNL A   1      38.896  23.221  26.451  1.00  0.00     0.000 A 
ATOM     87  C   UNL A   1      37.754  21.455  25.271  1.00  0.00     0.000 A 
ATOM     88  C   UNL A   1      38.879  21.923  25.947  1.00  0.00     0.000 A 
ENDBRANCH  82  83
ENDBRANCH  81  82
ENDBRANCH  74  81
ENDBRANCH  71  74
ENDBRANCH  69  70
ENDBRANCH   1  69
TORSDOF 16
ENDMDL
