MODEL 1
REMARK VINA RESULT:     -10.0      0.000      0.000
REMARK SMILES CC(=O)c1ccc(C(F)(F)C(=O)NCCCNC(=O)c2ccc(-c3c4nc(c(-c5ccc(S(=O)(=O)[O-])cc5)c5ccc([nH]5)c(-c5ccc(S(=O)(=O)[O-])cc5)c5nc(c(-c6ccc(S(=O)(=O)[O-])cc6)c6ccc3[nH]6)C=C5)C=C4)cc2)n1C
REMARK SMILES IDX 15 1 14 2 13 3 11 4 12 5 8 7 9 8 10 9 7 10 4 11 5 12 80 13
REMARK SMILES IDX 6 14 81 15 2 16 1 17 3 18 16 19 17 20 18 21 19 23 20 24
REMARK SMILES IDX 21 25 79 26 22 27 78 28 23 29 24 30 25 31 72 32 26 33 77 34
REMARK SMILES IDX 71 35 73 36 27 37 76 38 70 39 69 40 28 42 58 43 39 44 57 45
REMARK SMILES IDX 40 46 43 47 56 48 74 49 41 50 42 51 55 53 75 54 44 55 29 56
REMARK SMILES IDX 30 57 38 58 31 59 37 60 32 61 33 62 34 63 35 64 36 65 59 66
REMARK SMILES IDX 60 67 68 68 61 69 67 70 62 71 63 72 64 73 65 74 66 75 45 76
REMARK SMILES IDX 46 77 54 78 47 79 53 80 48 81 49 82 50 83 51 84 52 85
REMARK H PARENT 13 6 17 22 73 41 43 52
REMARK Flexibility Score: inf
ROOT
ATOM      1  C   UNL A   1      34.275  34.274  29.219  1.00  0.00     0.042 C 
ENDROOT
BRANCH   1   2
ATOM      2  C   UNL A   1      33.960  34.480  30.695  1.00  0.00     0.118 C 
BRANCH   2   3
ATOM      3  N   UNL A   1      35.044  35.071  31.465  1.00  0.00    -0.350 N 
ATOM      4  C   UNL A   1      35.837  34.459  32.416  1.00  0.00     0.296 C 
ATOM      5  O   UNL A   1      36.857  35.068  32.756  1.00  0.00    -0.268 OA
ATOM      6  H   UNL A   1      35.233  36.021  31.287  1.00  0.00     0.163 HD
BRANCH   4   7
ATOM      7  C   UNL A   1      35.375  33.090  33.012  1.00  0.00     0.364 C 
ATOM      8  F   UNL A   1      34.597  32.438  32.087  1.00  0.00    -0.188 F 
ATOM      9  F   UNL A   1      34.547  33.297  34.081  1.00  0.00    -0.188 F 
BRANCH   7  10
ATOM     10  C   UNL A   1      36.486  32.148  33.428  1.00  0.00     0.098 A 
ATOM     11  C   UNL A   1      38.220  31.189  34.551  1.00  0.00     0.084 A 
ATOM     12  C   UNL A   1      37.922  30.410  33.442  1.00  0.00     0.032 A 
ATOM     13  N   UNL A   1      37.271  32.212  34.575  1.00  0.00    -0.340 N 
ATOM     14  C   UNL A   1      36.844  30.989  32.760  1.00  0.00     0.031 A 
ATOM     15  C   UNL A   1      37.155  33.218  35.612  1.00  0.00     0.150 C 
BRANCH  11  16
ATOM     16  C   UNL A   1      39.348  30.905  35.440  1.00  0.00     0.176 C 
ATOM     17  C   UNL A   1      40.545  31.813  35.464  1.00  0.00     0.095 C 
ATOM     18  O   UNL A   1      39.330  29.941  36.210  1.00  0.00    -0.293 OA
ENDBRANCH  11  16
ENDBRANCH   7  10
ENDBRANCH   4   7
ENDBRANCH   2   3
ENDBRANCH   1   2
BRANCH   1  19
ATOM     19  C   UNL A   1      35.039  32.996  28.883  1.00  0.00     0.118 C 
BRANCH  19  20
ATOM     20  N   UNL A   1      34.204  31.946  28.315  1.00  0.00    -0.352 N 
ATOM     21  C   UNL A   1      34.506  30.643  27.987  1.00  0.00     0.251 C 
ATOM     22  H   UNL A   1      33.273  32.211  28.138  1.00  0.00     0.163 HD
ATOM     23  O   UNL A   1      33.669  29.957  27.416  1.00  0.00    -0.269 OA
BRANCH  21  24
ATOM     24  C   UNL A   1      35.843  30.083  28.288  1.00  0.00     0.039 A 
ATOM     25  C   UNL A   1      36.837  30.145  27.305  1.00  0.00     0.014 A 
ATOM     26  C   UNL A   1      36.121  29.496  29.524  1.00  0.00     0.014 A 
ATOM     27  C   UNL A   1      38.130  29.700  27.593  1.00  0.00     0.010 A 
ATOM     28  C   UNL A   1      37.426  29.121  29.833  1.00  0.00     0.010 A 
ATOM     29  C   UNL A   1      38.447  29.227  28.875  1.00  0.00    -0.014 A 
BRANCH  29  30
ATOM     30  C   UNL A   1      39.835  28.851  29.254  1.00  0.00     0.031 A 
ATOM     31  C   UNL A   1      40.737  29.863  29.905  1.00  0.00     0.074 A 
ATOM     32  C   UNL A   1      40.313  27.636  28.922  1.00  0.00     0.049 A 
ATOM     33  N   UNL A   1      42.015  29.777  30.174  1.00  0.00    -0.248 NA
ATOM     34  C   UNL A   1      40.130  31.152  30.275  1.00  0.00     0.031 C 
ATOM     35  C   UNL A   1      39.551  26.573  28.262  1.00  0.00     0.029 A 
ATOM     36  N   UNL A   1      41.566  27.095  29.077  1.00  0.00    -0.354 N 
ATOM     37  C   UNL A   1      42.371  31.006  30.717  1.00  0.00     0.074 A 
ATOM     38  C   UNL A   1      41.183  31.833  30.704  1.00  0.00     0.031 C 
ATOM     39  C   UNL A   1      40.346  25.506  28.083  1.00  0.00     0.029 A 
ATOM     40  C   UNL A   1      41.686  25.822  28.568  1.00  0.00     0.049 A 
ATOM     41  H   UNL A   1      42.309  27.573  29.511  1.00  0.00     0.167 HD
ATOM     42  C   UNL A   1      43.573  31.407  31.196  1.00  0.00     0.031 A 
ATOM     43  C   UNL A   1      42.756  25.008  28.483  1.00  0.00     0.031 A 
ATOM     44  C   UNL A   1      44.748  30.577  31.224  1.00  0.00     0.049 A 
ATOM     45  C   UNL A   1      44.082  25.476  29.016  1.00  0.00     0.074 A 
ATOM     46  C   UNL A   1      45.999  30.876  31.735  1.00  0.00     0.029 A 
ATOM     47  N   UNL A   1      44.818  29.285  30.725  1.00  0.00    -0.354 N 
ATOM     48  N   UNL A   1      44.388  26.627  29.564  1.00  0.00    -0.248 NA
ATOM     49  C   UNL A   1      45.204  24.531  28.927  1.00  0.00     0.031 C 
ATOM     50  C   UNL A   1      46.838  29.779  31.505  1.00  0.00     0.029 A 
ATOM     51  C   UNL A   1      46.094  28.778  30.902  1.00  0.00     0.049 A 
ATOM     52  H   UNL A   1      44.070  28.800  30.308  1.00  0.00     0.167 HD
ATOM     53  C   UNL A   1      45.730  26.533  29.916  1.00  0.00     0.074 A 
ATOM     54  C   UNL A   1      46.175  25.211  29.524  1.00  0.00     0.031 C 
ATOM     55  C   UNL A   1      46.520  27.457  30.516  1.00  0.00     0.031 A 
BRANCH  42  56
ATOM     56  C   UNL A   1      43.678  32.816  31.719  1.00  0.00    -0.014 A 
ATOM     57  C   UNL A   1      43.237  33.146  33.013  1.00  0.00     0.010 A 
ATOM     58  C   UNL A   1      44.256  33.817  30.917  1.00  0.00     0.010 A 
ATOM     59  C   UNL A   1      43.325  34.461  33.477  1.00  0.00     0.020 A 
ATOM     60  C   UNL A   1      44.373  35.127  31.389  1.00  0.00     0.020 A 
ATOM     61  C   UNL A   1      43.888  35.444  32.659  1.00  0.00     0.054 A 
BRANCH  61  62
ATOM     62  S   UNL A   1      44.001  37.141  33.291  1.00  0.00     0.124 S 
ATOM     63  O   UNL A   1      43.945  37.924  32.059  1.00  0.00    -0.237 OA
ATOM     64  O   UNL A   1      42.826  37.242  34.152  1.00  0.00    -0.237 OA
ATOM     65  O   UNL A   1      45.285  37.167  33.986  1.00  0.00    -0.744 OA
ENDBRANCH  61  62
ENDBRANCH  42  56
BRANCH  43  66
ATOM     66  C   UNL A   1      42.611  23.656  27.876  1.00  0.00    -0.014 A 
ATOM     67  C   UNL A   1      42.237  22.557  28.670  1.00  0.00     0.010 A 
ATOM     68  C   UNL A   1      42.831  23.463  26.500  1.00  0.00     0.010 A 
ATOM     69  C   UNL A   1      42.099  21.287  28.103  1.00  0.00     0.020 A 
ATOM     70  C   UNL A   1      42.668  22.199  25.924  1.00  0.00     0.020 A 
ATOM     71  C   UNL A   1      42.314  21.117  26.731  1.00  0.00     0.054 A 
BRANCH  71  72
ATOM     72  S   UNL A   1      42.073  19.471  26.006  1.00  0.00     0.124 S 
ATOM     73  O   UNL A   1      42.870  19.558  24.787  1.00  0.00    -0.237 OA
ATOM     74  O   UNL A   1      42.598  18.588  27.045  1.00  0.00    -0.237 OA
ATOM     75  O   UNL A   1      40.627  19.395  25.808  1.00  0.00    -0.744 OA
ENDBRANCH  71  72
ENDBRANCH  43  66
BRANCH  55  76
ATOM     76  C   UNL A   1      47.937  27.061  30.835  1.00  0.00    -0.014 A 
ATOM     77  C   UNL A   1      48.992  27.340  29.949  1.00  0.00     0.010 A 
ATOM     78  C   UNL A   1      48.222  26.462  32.076  1.00  0.00     0.010 A 
ATOM     79  C   UNL A   1      50.306  27.006  30.292  1.00  0.00     0.020 A 
ATOM     80  C   UNL A   1      49.535  26.151  32.432  1.00  0.00     0.020 A 
ATOM     81  C   UNL A   1      50.568  26.415  31.532  1.00  0.00     0.054 A 
BRANCH  81  82
ATOM     82  S   UNL A   1      52.288  26.045  31.977  1.00  0.00     0.124 S 
ATOM     83  O   UNL A   1      52.446  26.789  33.225  1.00  0.00    -0.237 OA
ATOM     84  O   UNL A   1      52.281  24.591  32.110  1.00  0.00    -0.237 OA
ATOM     85  O   UNL A   1      53.057  26.558  30.846  1.00  0.00    -0.744 OA
ENDBRANCH  81  82
ENDBRANCH  55  76
ENDBRANCH  29  30
ENDBRANCH  21  24
ENDBRANCH  19  20
ENDBRANCH   1  19
TORSDOF 15
ENDMDL
MODEL 2
REMARK VINA RESULT:      -9.9      3.721      6.453
REMARK SMILES CC(=O)c1ccc(C(F)(F)C(=O)NCCCNC(=O)c2ccc(-c3c4nc(c(-c5ccc(S(=O)(=O)[O-])cc5)c5ccc([nH]5)c(-c5ccc(S(=O)(=O)[O-])cc5)c5nc(c(-c6ccc(S(=O)(=O)[O-])cc6)c6ccc3[nH]6)C=C5)C=C4)cc2)n1C
REMARK SMILES IDX 15 1 14 2 13 3 11 4 12 5 8 7 9 8 10 9 7 10 4 11 5 12 80 13
REMARK SMILES IDX 6 14 81 15 2 16 1 17 3 18 16 19 17 20 18 21 19 23 20 24
REMARK SMILES IDX 21 25 79 26 22 27 78 28 23 29 24 30 25 31 72 32 26 33 77 34
REMARK SMILES IDX 71 35 73 36 27 37 76 38 70 39 69 40 28 42 58 43 39 44 57 45
REMARK SMILES IDX 40 46 43 47 56 48 74 49 41 50 42 51 55 53 75 54 44 55 29 56
REMARK SMILES IDX 30 57 38 58 31 59 37 60 32 61 33 62 34 63 35 64 36 65 59 66
REMARK SMILES IDX 60 67 68 68 61 69 67 70 62 71 63 72 64 73 65 74 66 75 45 76
REMARK SMILES IDX 46 77 54 78 47 79 53 80 48 81 49 82 50 83 51 84 52 85
REMARK H PARENT 13 6 17 22 73 41 43 52
REMARK Flexibility Score: inf
ROOT
ATOM      1  C   UNL A   1      33.759  28.259  25.763  1.00  0.00     0.042 C 
ENDROOT
BRANCH   1   2
ATOM      2  C   UNL A   1      33.002  27.097  25.133  1.00  0.00     0.118 C 
BRANCH   2   3
ATOM      3  N   UNL A   1      31.945  26.545  25.966  1.00  0.00    -0.350 N 
ATOM      4  C   UNL A   1      30.813  25.866  25.557  1.00  0.00     0.296 C 
ATOM      5  O   UNL A   1      30.186  25.264  26.435  1.00  0.00    -0.268 OA
ATOM      6  H   UNL A   1      32.049  26.670  26.938  1.00  0.00     0.163 HD
BRANCH   4   7
ATOM      7  C   UNL A   1      30.392  25.945  24.055  1.00  0.00     0.364 C 
ATOM      8  F   UNL A   1      29.966  24.706  23.643  1.00  0.00    -0.188 F 
ATOM      9  F   UNL A   1      31.483  26.217  23.274  1.00  0.00    -0.188 F 
BRANCH   7  10
ATOM     10  C   UNL A   1      29.299  26.942  23.731  1.00  0.00     0.098 A 
ATOM     11  C   UNL A   1      28.187  28.807  23.043  1.00  0.00     0.084 A 
ATOM     12  C   UNL A   1      27.265  27.896  23.539  1.00  0.00     0.032 A 
ATOM     13  N   UNL A   1      29.428  28.171  23.092  1.00  0.00    -0.340 N 
ATOM     14  C   UNL A   1      27.945  26.742  23.946  1.00  0.00     0.031 A 
ATOM     15  C   UNL A   1      30.671  28.728  22.597  1.00  0.00     0.150 C 
BRANCH  11  16
ATOM     16  C   UNL A   1      27.815  30.152  22.603  1.00  0.00     0.176 C 
ATOM     17  C   UNL A   1      28.139  30.614  21.210  1.00  0.00     0.095 C 
ATOM     18  O   UNL A   1      27.199  30.922  23.345  1.00  0.00    -0.293 OA
ENDBRANCH  11  16
ENDBRANCH   7  10
ENDBRANCH   4   7
ENDBRANCH   2   3
ENDBRANCH   1   2
BRANCH   1  19
ATOM     19  C   UNL A   1      33.485  28.493  27.246  1.00  0.00     0.118 C 
BRANCH  19  20
ATOM     20  N   UNL A   1      33.478  29.899  27.627  1.00  0.00    -0.352 N 
ATOM     21  C   UNL A   1      34.459  30.675  28.202  1.00  0.00     0.251 C 
ATOM     22  H   UNL A   1      32.634  30.371  27.443  1.00  0.00     0.163 HD
ATOM     23  O   UNL A   1      34.198  31.823  28.538  1.00  0.00    -0.269 OA
BRANCH  21  24
ATOM     24  C   UNL A   1      35.810  30.120  28.446  1.00  0.00     0.039 A 
ATOM     25  C   UNL A   1      36.749  30.154  27.409  1.00  0.00     0.014 A 
ATOM     26  C   UNL A   1      36.153  29.566  29.680  1.00  0.00     0.014 A 
ATOM     27  C   UNL A   1      38.055  29.714  27.639  1.00  0.00     0.010 A 
ATOM     28  C   UNL A   1      37.472  29.195  29.929  1.00  0.00     0.010 A 
ATOM     29  C   UNL A   1      38.440  29.274  28.915  1.00  0.00    -0.014 A 
BRANCH  29  30
ATOM     30  C   UNL A   1      39.846  28.906  29.228  1.00  0.00     0.031 A 
ATOM     31  C   UNL A   1      40.780  29.930  29.812  1.00  0.00     0.074 A 
ATOM     32  C   UNL A   1      40.308  27.683  28.895  1.00  0.00     0.049 A 
ATOM     33  N   UNL A   1      42.070  29.848  30.017  1.00  0.00    -0.248 NA
ATOM     34  C   UNL A   1      40.192  31.225  30.189  1.00  0.00     0.031 C 
ATOM     35  C   UNL A   1      39.513  26.609  28.296  1.00  0.00     0.029 A 
ATOM     36  N   UNL A   1      41.568  27.146  28.995  1.00  0.00    -0.354 N 
ATOM     37  C   UNL A   1      42.453  31.088  30.518  1.00  0.00     0.074 A 
ATOM     38  C   UNL A   1      41.265  31.914  30.550  1.00  0.00     0.031 C 
ATOM     39  C   UNL A   1      40.299  25.538  28.096  1.00  0.00     0.029 A 
ATOM     40  C   UNL A   1      41.662  25.864  28.505  1.00  0.00     0.049 A 
ATOM     41  H   UNL A   1      42.331  27.632  29.382  1.00  0.00     0.167 HD
ATOM     42  C   UNL A   1      43.678  31.497  30.926  1.00  0.00     0.031 A 
ATOM     43  C   UNL A   1      42.726  25.047  28.381  1.00  0.00     0.031 A 
ATOM     44  C   UNL A   1      44.853  30.667  30.909  1.00  0.00     0.049 A 
ATOM     45  C   UNL A   1      44.079  25.525  28.836  1.00  0.00     0.074 A 
ATOM     46  C   UNL A   1      46.129  30.976  31.348  1.00  0.00     0.029 A 
ATOM     47  N   UNL A   1      44.898  29.366  30.432  1.00  0.00    -0.354 N 
ATOM     48  N   UNL A   1      44.412  26.686  29.345  1.00  0.00    -0.248 NA
ATOM     49  C   UNL A   1      45.195  24.579  28.707  1.00  0.00     0.031 C 
ATOM     50  C   UNL A   1      46.955  29.875  31.096  1.00  0.00     0.029 A 
ATOM     51  C   UNL A   1      46.182  28.862  30.552  1.00  0.00     0.049 A 
ATOM     52  H   UNL A   1      44.130  28.874  30.063  1.00  0.00     0.167 HD
ATOM     53  C   UNL A   1      45.770  26.599  29.629  1.00  0.00     0.074 A 
ATOM     54  C   UNL A   1      46.194  25.270  29.240  1.00  0.00     0.031 C 
ATOM     55  C   UNL A   1      46.589  27.534  30.170  1.00  0.00     0.031 A 
BRANCH  42  56
ATOM     56  C   UNL A   1      43.808  32.915  31.416  1.00  0.00    -0.014 A 
ATOM     57  C   UNL A   1      43.572  33.244  32.763  1.00  0.00     0.010 A 
ATOM     58  C   UNL A   1      44.205  33.929  30.523  1.00  0.00     0.010 A 
ATOM     59  C   UNL A   1      43.681  34.567  33.198  1.00  0.00     0.020 A 
ATOM     60  C   UNL A   1      44.343  35.248  30.962  1.00  0.00     0.020 A 
ATOM     61  C   UNL A   1      44.061  35.562  32.292  1.00  0.00     0.054 A 
BRANCH  61  62
ATOM     62  S   UNL A   1      44.205  37.270  32.886  1.00  0.00     0.124 S 
ATOM     63  O   UNL A   1      43.907  38.034  31.678  1.00  0.00    -0.237 OA
ATOM     64  O   UNL A   1      43.190  37.333  33.935  1.00  0.00    -0.237 OA
ATOM     65  O   UNL A   1      45.586  37.359  33.353  1.00  0.00    -0.744 OA
ENDBRANCH  61  62
ENDBRANCH  42  56
BRANCH  43  66
ATOM     66  C   UNL A   1      42.552  23.685  27.808  1.00  0.00    -0.014 A 
ATOM     67  C   UNL A   1      42.769  23.457  26.437  1.00  0.00     0.010 A 
ATOM     68  C   UNL A   1      42.183  22.604  28.631  1.00  0.00     0.010 A 
ATOM     69  C   UNL A   1      42.607  22.179  25.896  1.00  0.00     0.020 A 
ATOM     70  C   UNL A   1      42.046  21.319  28.098  1.00  0.00     0.020 A 
ATOM     71  C   UNL A   1      42.248  21.116  26.732  1.00  0.00     0.054 A 
BRANCH  71  72
ATOM     72  S   UNL A   1      42.100  19.454  26.019  1.00  0.00     0.124 S 
ATOM     73  O   UNL A   1      40.663  19.354  25.781  1.00  0.00    -0.237 OA
ATOM     74  O   UNL A   1      42.935  19.547  24.823  1.00  0.00    -0.237 OA
ATOM     75  O   UNL A   1      42.625  18.584  27.070  1.00  0.00    -0.744 OA
ENDBRANCH  71  72
ENDBRANCH  43  66
BRANCH  55  76
ATOM     76  C   UNL A   1      48.021  27.144  30.423  1.00  0.00    -0.014 A 
ATOM     77  C   UNL A   1      49.051  27.538  29.551  1.00  0.00     0.010 A 
ATOM     78  C   UNL A   1      48.344  26.430  31.592  1.00  0.00     0.010 A 
ATOM     79  C   UNL A   1      50.379  27.204  29.836  1.00  0.00     0.020 A 
ATOM     80  C   UNL A   1      49.671  26.118  31.891  1.00  0.00     0.020 A 
ATOM     81  C   UNL A   1      50.680  26.498  31.005  1.00  0.00     0.054 A 
BRANCH  81  82
ATOM     82  S   UNL A   1      52.416  26.129  31.381  1.00  0.00     0.124 S 
ATOM     83  O   UNL A   1      52.310  24.858  32.093  1.00  0.00    -0.237 OA
ATOM     84  O   UNL A   1      53.024  26.057  30.055  1.00  0.00    -0.237 OA
ATOM     85  O   UNL A   1      52.844  27.265  32.195  1.00  0.00    -0.744 OA
ENDBRANCH  81  82
ENDBRANCH  55  76
ENDBRANCH  29  30
ENDBRANCH  21  24
ENDBRANCH  19  20
ENDBRANCH   1  19
TORSDOF 15
ENDMDL
MODEL 3
REMARK VINA RESULT:      -9.9      3.683      6.196
REMARK SMILES CC(=O)c1ccc(C(F)(F)C(=O)NCCCNC(=O)c2ccc(-c3c4nc(c(-c5ccc(S(=O)(=O)[O-])cc5)c5ccc([nH]5)c(-c5ccc(S(=O)(=O)[O-])cc5)c5nc(c(-c6ccc(S(=O)(=O)[O-])cc6)c6ccc3[nH]6)C=C5)C=C4)cc2)n1C
REMARK SMILES IDX 15 1 14 2 13 3 11 4 12 5 8 7 9 8 10 9 7 10 4 11 5 12 80 13
REMARK SMILES IDX 6 14 81 15 2 16 1 17 3 18 16 19 17 20 18 21 19 23 20 24
REMARK SMILES IDX 21 25 79 26 22 27 78 28 23 29 24 30 25 31 72 32 26 33 77 34
REMARK SMILES IDX 71 35 73 36 27 37 76 38 70 39 69 40 28 42 58 43 39 44 57 45
REMARK SMILES IDX 40 46 43 47 56 48 74 49 41 50 42 51 55 53 75 54 44 55 29 56
REMARK SMILES IDX 30 57 38 58 31 59 37 60 32 61 33 62 34 63 35 64 36 65 59 66
REMARK SMILES IDX 60 67 68 68 61 69 67 70 62 71 63 72 64 73 65 74 66 75 45 76
REMARK SMILES IDX 46 77 54 78 47 79 53 80 48 81 49 82 50 83 51 84 52 85
REMARK H PARENT 13 6 17 22 73 41 43 52
REMARK Flexibility Score: inf
ROOT
ATOM      1  C   UNL A   1      31.822  28.114  27.348  1.00  0.00     0.042 C 
ENDROOT
BRANCH   1   2
ATOM      2  C   UNL A   1      31.650  27.086  26.236  1.00  0.00     0.118 C 
BRANCH   2   3
ATOM      3  N   UNL A   1      31.105  25.811  26.675  1.00  0.00    -0.350 N 
ATOM      4  C   UNL A   1      31.719  24.574  26.643  1.00  0.00     0.296 C 
ATOM      5  O   UNL A   1      31.180  23.675  27.298  1.00  0.00    -0.268 OA
ATOM      6  H   UNL A   1      30.190  25.833  27.037  1.00  0.00     0.163 HD
BRANCH   4   7
ATOM      7  C   UNL A   1      32.999  24.392  25.766  1.00  0.00     0.364 C 
ATOM      8  F   UNL A   1      33.958  25.284  26.181  1.00  0.00    -0.188 F 
ATOM      9  F   UNL A   1      32.735  24.742  24.469  1.00  0.00    -0.188 F 
BRANCH   7  10
ATOM     10  C   UNL A   1      33.615  23.008  25.783  1.00  0.00     0.098 A 
ATOM     11  C   UNL A   1      34.006  20.795  25.415  1.00  0.00     0.084 A 
ATOM     12  C   UNL A   1      35.000  21.291  26.248  1.00  0.00     0.032 A 
ATOM     13  N   UNL A   1      33.207  21.885  25.070  1.00  0.00    -0.340 N 
ATOM     14  C   UNL A   1      34.770  22.656  26.461  1.00  0.00     0.031 A 
ATOM     15  C   UNL A   1      32.091  21.842  24.147  1.00  0.00     0.150 C 
BRANCH  11  16
ATOM     16  C   UNL A   1      33.907  19.380  25.055  1.00  0.00     0.176 C 
ATOM     17  C   UNL A   1      32.699  18.577  25.450  1.00  0.00     0.095 C 
ATOM     18  O   UNL A   1      34.788  18.823  24.394  1.00  0.00    -0.293 OA
ENDBRANCH  11  16
ENDBRANCH   7  10
ENDBRANCH   4   7
ENDBRANCH   2   3
ENDBRANCH   1   2
BRANCH   1  19
ATOM     19  C   UNL A   1      33.233  28.672  27.512  1.00  0.00     0.118 C 
BRANCH  19  20
ATOM     20  N   UNL A   1      33.280  30.123  27.633  1.00  0.00    -0.352 N 
ATOM     21  C   UNL A   1      34.301  30.954  28.034  1.00  0.00     0.251 C 
ATOM     22  H   UNL A   1      32.445  30.583  27.387  1.00  0.00     0.163 HD
ATOM     23  O   UNL A   1      34.086  32.152  28.163  1.00  0.00    -0.269 OA
BRANCH  21  24
ATOM     24  C   UNL A   1      35.642  30.404  28.341  1.00  0.00     0.039 A 
ATOM     25  C   UNL A   1      36.590  30.330  27.314  1.00  0.00     0.014 A 
ATOM     26  C   UNL A   1      35.966  29.960  29.623  1.00  0.00     0.014 A 
ATOM     27  C   UNL A   1      37.888  29.894  27.597  1.00  0.00     0.010 A 
ATOM     28  C   UNL A   1      37.277  29.595  29.918  1.00  0.00     0.010 A 
ATOM     29  C   UNL A   1      38.255  29.567  28.910  1.00  0.00    -0.014 A 
BRANCH  29  30
ATOM     30  C   UNL A   1      39.652  29.209  29.270  1.00  0.00     0.031 A 
ATOM     31  C   UNL A   1      40.561  30.241  29.880  1.00  0.00     0.074 A 
ATOM     32  C   UNL A   1      40.132  27.988  28.956  1.00  0.00     0.049 A 
ATOM     33  N   UNL A   1      41.844  30.168  30.127  1.00  0.00    -0.248 NA
ATOM     34  C   UNL A   1      39.953  31.534  30.233  1.00  0.00     0.031 C 
ATOM     35  C   UNL A   1      39.364  26.907  28.336  1.00  0.00     0.029 A 
ATOM     36  N   UNL A   1      41.391  27.459  29.098  1.00  0.00    -0.354 N 
ATOM     37  C   UNL A   1      42.203  31.411  30.635  1.00  0.00     0.074 A 
ATOM     38  C   UNL A   1      41.010  32.230  30.626  1.00  0.00     0.031 C 
ATOM     39  C   UNL A   1      40.163  25.841  28.164  1.00  0.00     0.029 A 
ATOM     40  C   UNL A   1      41.510  26.176  28.616  1.00  0.00     0.049 A 
ATOM     41  H   UNL A   1      42.139  27.951  29.507  1.00  0.00     0.167 HD
ATOM     42  C   UNL A   1      43.411  31.829  31.081  1.00  0.00     0.031 A 
ATOM     43  C   UNL A   1      42.583  25.366  28.529  1.00  0.00     0.031 A 
ATOM     44  C   UNL A   1      44.592  31.008  31.104  1.00  0.00     0.049 A 
ATOM     45  C   UNL A   1      43.916  25.854  29.025  1.00  0.00     0.074 A 
ATOM     46  C   UNL A   1      45.851  31.326  31.583  1.00  0.00     0.029 A 
ATOM     47  N   UNL A   1      44.660  29.705  30.633  1.00  0.00    -0.354 N 
ATOM     48  N   UNL A   1      44.226  27.019  29.541  1.00  0.00    -0.248 NA
ATOM     49  C   UNL A   1      45.042  24.915  28.935  1.00  0.00     0.031 C 
ATOM     50  C   UNL A   1      46.692  30.229  31.361  1.00  0.00     0.029 A 
ATOM     51  C   UNL A   1      45.943  29.210  30.796  1.00  0.00     0.049 A 
ATOM     52  H   UNL A   1      43.908  29.207  30.241  1.00  0.00     0.167 HD
ATOM     53  C   UNL A   1      45.575  26.941  29.868  1.00  0.00     0.074 A 
ATOM     54  C   UNL A   1      46.020  25.614  29.497  1.00  0.00     0.031 C 
ATOM     55  C   UNL A   1      46.370  27.883  30.431  1.00  0.00     0.031 A 
BRANCH  42  56
ATOM     56  C   UNL A   1      43.517  33.251  31.569  1.00  0.00    -0.014 A 
ATOM     57  C   UNL A   1      43.345  33.566  32.929  1.00  0.00     0.010 A 
ATOM     58  C   UNL A   1      43.826  34.280  30.662  1.00  0.00     0.010 A 
ATOM     59  C   UNL A   1      43.429  34.892  33.364  1.00  0.00     0.020 A 
ATOM     60  C   UNL A   1      43.941  35.603  31.099  1.00  0.00     0.020 A 
ATOM     61  C   UNL A   1      43.722  35.902  32.444  1.00  0.00     0.054 A 
BRANCH  61  62
ATOM     62  S   UNL A   1      43.836  37.612  33.038  1.00  0.00     0.124 S 
ATOM     63  O   UNL A   1      42.653  37.715  33.888  1.00  0.00    -0.237 OA
ATOM     64  O   UNL A   1      45.117  37.624  33.740  1.00  0.00    -0.237 OA
ATOM     65  O   UNL A   1      43.793  38.408  31.813  1.00  0.00    -0.744 OA
ENDBRANCH  61  62
ENDBRANCH  42  56
BRANCH  43  66
ATOM     66  C   UNL A   1      42.435  24.001  27.955  1.00  0.00    -0.014 A 
ATOM     67  C   UNL A   1      42.264  22.890  28.800  1.00  0.00     0.010 A 
ATOM     68  C   UNL A   1      42.448  23.804  26.562  1.00  0.00     0.010 A 
ATOM     69  C   UNL A   1      42.123  21.606  28.264  1.00  0.00     0.020 A 
ATOM     70  C   UNL A   1      42.282  22.526  26.022  1.00  0.00     0.020 A 
ATOM     71  C   UNL A   1      42.131  21.433  26.877  1.00  0.00     0.054 A 
BRANCH  71  72
ATOM     72  S   UNL A   1      41.890  19.766  26.202  1.00  0.00     0.124 S 
ATOM     73  O   UNL A   1      40.457  19.754  25.927  1.00  0.00    -0.237 OA
ATOM     74  O   UNL A   1      42.762  19.769  25.029  1.00  0.00    -0.237 OA
ATOM     75  O   UNL A   1      42.328  18.892  27.290  1.00  0.00    -0.744 OA
ENDBRANCH  71  72
ENDBRANCH  43  66
BRANCH  55  76
ATOM     76  C   UNL A   1      47.795  27.504  30.731  1.00  0.00    -0.014 A 
ATOM     77  C   UNL A   1      48.146  26.867  31.934  1.00  0.00     0.010 A 
ATOM     78  C   UNL A   1      48.787  27.729  29.759  1.00  0.00     0.010 A 
ATOM     79  C   UNL A   1      49.469  26.481  32.167  1.00  0.00     0.020 A 
ATOM     80  C   UNL A   1      50.104  27.322  29.977  1.00  0.00     0.020 A 
ATOM     81  C   UNL A   1      50.439  26.709  31.186  1.00  0.00     0.054 A 
BRANCH  81  82
ATOM     82  S   UNL A   1      52.137  26.146  31.487  1.00  0.00     0.124 S 
ATOM     83  O   UNL A   1      51.926  24.776  31.950  1.00  0.00    -0.237 OA
ATOM     84  O   UNL A   1      52.758  26.275  30.172  1.00  0.00    -0.237 OA
ATOM     85  O   UNL A   1      52.636  27.075  32.499  1.00  0.00    -0.744 OA
ENDBRANCH  81  82
ENDBRANCH  55  76
ENDBRANCH  29  30
ENDBRANCH  21  24
ENDBRANCH  19  20
ENDBRANCH   1  19
TORSDOF 15
ENDMDL
