MODEL 1
REMARK VINA RESULT:      -8.6      0.000      0.000
REMARK SMILES CCC(CC)(C[C@H](O)COC)C(=O)NCCCNC(=O)c1ccc(-c2c3nc(c(-c4ccc(S(=O)(=O)[O-])cc4)c4ccc([nH]4)c(-c4ccc(S(=O)(=O)[O-])cc4)c4nc(c(-c5ccc(S(=O)(=O)[O-])cc5)c5ccc2[nH]5)C=C4)C=C3)cc1
REMARK SMILES IDX 15 1 14 2 12 3 13 4 3 6 2 7 1 8 4 9 5 10 6 11 7 12 9 13
REMARK SMILES IDX 10 14 11 15 8 16 16 18 17 19 18 20 19 21 20 23 21 24 22 25
REMARK SMILES IDX 80 26 23 27 79 28 24 29 25 30 26 31 73 32 27 33 78 34 72 35
REMARK SMILES IDX 74 36 28 37 77 38 71 39 70 40 29 42 59 43 40 44 58 45 41 46
REMARK SMILES IDX 44 47 57 48 75 49 42 50 43 51 56 53 76 54 45 55 30 56 31 57
REMARK SMILES IDX 39 58 32 59 38 60 33 61 34 62 35 63 36 64 37 65 60 66 61 67
REMARK SMILES IDX 69 68 62 69 68 70 63 71 64 72 65 73 66 74 67 75 46 76 47 77
REMARK SMILES IDX 55 78 48 79 54 80 49 81 50 82 51 83 52 84 53 85
REMARK H PARENT 14 5 8 17 18 22 74 41 44 52
REMARK Flexibility Score: inf
ROOT
ATOM      1  C   UNL A   1      34.188  22.538  24.968  1.00  0.00     0.117 C 
ENDROOT
BRANCH   1   2
ATOM      2  N   UNL A   1      34.272  23.461  23.847  1.00  0.00    -0.356 N 
ATOM      3  C   UNL A   1      33.534  24.535  23.458  1.00  0.00     0.226 C 
ATOM      4  O   UNL A   1      33.920  25.098  22.427  1.00  0.00    -0.274 OA
ATOM      5  H   UNL A   1      35.023  23.268  23.240  1.00  0.00     0.163 HD
BRANCH   3   6
ATOM      6  C   UNL A   1      32.292  25.050  24.228  1.00  0.00     0.051 C 
BRANCH   6   7
ATOM      7  C   UNL A   1      32.728  25.569  25.654  1.00  0.00     0.013 C 
ATOM      8  C   UNL A   1      33.899  26.548  25.715  1.00  0.00     0.005 C 
ENDBRANCH   6   7
BRANCH   6   9
ATOM      9  C   UNL A   1      31.282  23.870  24.433  1.00  0.00     0.013 C 
ATOM     10  C   UNL A   1      30.736  23.702  25.846  1.00  0.00     0.005 C 
ENDBRANCH   6   9
BRANCH   6  11
ATOM     11  C   UNL A   1      31.625  26.251  23.469  1.00  0.00     0.051 C 
BRANCH  11  12
ATOM     12  C   UNL A   1      30.642  27.208  24.190  1.00  0.00     0.141 C 
BRANCH  12  13
ATOM     13  C   UNL A   1      30.873  28.714  24.017  1.00  0.00     0.191 C 
BRANCH  13  14
ATOM     14  O   UNL A   1      29.771  29.373  23.374  1.00  0.00    -0.382 OA
ATOM     15  C   UNL A   1      30.024  29.698  22.011  1.00  0.00     0.195 C 
ENDBRANCH  13  14
ENDBRANCH  12  13
BRANCH  12  16
ATOM     16  O   UNL A   1      29.316  26.864  23.794  1.00  0.00    -0.391 OA
ATOM     17  H   UNL A   1      28.689  27.495  24.181  1.00  0.00     0.211 HD
ENDBRANCH  12  16
ENDBRANCH  11  12
ENDBRANCH   6  11
ENDBRANCH   3   6
ENDBRANCH   1   2
BRANCH   1  18
ATOM     18  C   UNL A   1      35.117  22.865  26.132  1.00  0.00     0.042 C 
BRANCH  18  19
ATOM     19  C   UNL A   1      36.453  23.480  25.747  1.00  0.00     0.118 C 
BRANCH  19  20
ATOM     20  N   UNL A   1      37.566  22.561  25.940  1.00  0.00    -0.352 N 
ATOM     21  C   UNL A   1      38.855  22.805  26.350  1.00  0.00     0.251 C 
ATOM     22  H   UNL A   1      37.362  21.617  25.746  1.00  0.00     0.163 HD
ATOM     23  O   UNL A   1      39.700  21.922  26.243  1.00  0.00    -0.269 OA
BRANCH  21  24
ATOM     24  C   UNL A   1      39.239  24.131  26.890  1.00  0.00     0.039 A 
ATOM     25  C   UNL A   1      38.875  24.458  28.201  1.00  0.00     0.014 A 
ATOM     26  C   UNL A   1      39.933  25.060  26.111  1.00  0.00     0.014 A 
ATOM     27  C   UNL A   1      39.282  25.677  28.753  1.00  0.00     0.010 A 
ATOM     28  C   UNL A   1      40.406  26.238  26.688  1.00  0.00     0.010 A 
ATOM     29  C   UNL A   1      40.090  26.558  28.017  1.00  0.00    -0.014 A 
BRANCH  29  30
ATOM     30  C   UNL A   1      40.636  27.803  28.621  1.00  0.00     0.031 A 
ATOM     31  C   UNL A   1      42.061  27.854  29.104  1.00  0.00     0.074 A 
ATOM     32  C   UNL A   1      39.825  28.863  28.807  1.00  0.00     0.049 A 
ATOM     33  N   UNL A   1      42.681  28.818  29.738  1.00  0.00    -0.248 NA
ATOM     34  C   UNL A   1      42.889  26.661  28.867  1.00  0.00     0.031 C 
ATOM     35  C   UNL A   1      38.413  28.929  28.418  1.00  0.00     0.029 A 
ATOM     36  N   UNL A   1      40.065  30.085  29.385  1.00  0.00    -0.354 N 
ATOM     37  C   UNL A   1      43.963  28.342  29.990  1.00  0.00     0.074 A 
ATOM     38  C   UNL A   1      44.018  26.989  29.480  1.00  0.00     0.031 C 
ATOM     39  C   UNL A   1      37.921  30.134  28.748  1.00  0.00     0.029 A 
ATOM     40  C   UNL A   1      38.964  30.909  29.414  1.00  0.00     0.049 A 
ATOM     41  H   UNL A   1      40.943  30.347  29.744  1.00  0.00     0.167 HD
ATOM     42  C   UNL A   1      45.006  28.977  30.578  1.00  0.00     0.031 A 
ATOM     43  C   UNL A   1      38.802  32.144  29.930  1.00  0.00     0.031 A 
ATOM     44  C   UNL A   1      44.953  30.326  31.077  1.00  0.00     0.049 A 
ATOM     45  C   UNL A   1      39.967  32.820  30.597  1.00  0.00     0.074 A 
ATOM     46  C   UNL A   1      45.974  31.077  31.634  1.00  0.00     0.029 A 
ATOM     47  N   UNL A   1      43.820  31.126  31.084  1.00  0.00    -0.354 N 
ATOM     48  N   UNL A   1      41.189  32.374  30.770  1.00  0.00    -0.248 NA
ATOM     49  C   UNL A   1      39.731  34.166  31.137  1.00  0.00     0.031 C 
ATOM     50  C   UNL A   1      45.445  32.311  32.029  1.00  0.00     0.029 A 
ATOM     51  C   UNL A   1      44.108  32.350  31.663  1.00  0.00     0.049 A 
ATOM     52  H   UNL A   1      42.941  30.862  30.728  1.00  0.00     0.167 HD
ATOM     53  C   UNL A   1      41.873  33.394  31.421  1.00  0.00     0.074 A 
ATOM     54  C   UNL A   1      40.936  34.484  31.595  1.00  0.00     0.031 C 
ATOM     55  C   UNL A   1      43.162  33.424  31.839  1.00  0.00     0.031 A 
BRANCH  42  56
ATOM     56  C   UNL A   1      46.296  28.213  30.721  1.00  0.00    -0.014 A 
ATOM     57  C   UNL A   1      46.552  27.425  31.857  1.00  0.00     0.010 A 
ATOM     58  C   UNL A   1      47.249  28.250  29.686  1.00  0.00     0.010 A 
ATOM     59  C   UNL A   1      47.754  26.722  31.976  1.00  0.00     0.020 A 
ATOM     60  C   UNL A   1      48.441  27.526  29.788  1.00  0.00     0.020 A 
ATOM     61  C   UNL A   1      48.693  26.780  30.941  1.00  0.00     0.054 A 
BRANCH  61  62
ATOM     62  S   UNL A   1      50.236  25.842  31.115  1.00  0.00     0.124 S 
ATOM     63  O   UNL A   1      50.441  25.347  29.755  1.00  0.00    -0.237 OA
ATOM     64  O   UNL A   1      51.182  26.861  31.560  1.00  0.00    -0.237 OA
ATOM     65  O   UNL A   1      49.911  24.821  32.107  1.00  0.00    -0.744 OA
ENDBRANCH  61  62
ENDBRANCH  42  56
BRANCH  43  66
ATOM     66  C   UNL A   1      37.479  32.819  29.835  1.00  0.00    -0.014 A 
ATOM     67  C   UNL A   1      37.145  33.576  28.698  1.00  0.00     0.010 A 
ATOM     68  C   UNL A   1      36.539  32.696  30.875  1.00  0.00     0.010 A 
ATOM     69  C   UNL A   1      35.902  34.209  28.609  1.00  0.00     0.020 A 
ATOM     70  C   UNL A   1      35.285  33.304  30.776  1.00  0.00     0.020 A 
ATOM     71  C   UNL A   1      34.978  34.064  29.647  1.00  0.00     0.054 A 
BRANCH  71  72
ATOM     72  S   UNL A   1      33.347  34.843  29.483  1.00  0.00     0.124 S 
ATOM     73  O   UNL A   1      32.627  33.870  28.668  1.00  0.00    -0.237 OA
ATOM     74  O   UNL A   1      32.908  34.954  30.872  1.00  0.00    -0.237 OA
ATOM     75  O   UNL A   1      33.641  36.116  28.829  1.00  0.00    -0.744 OA
ENDBRANCH  71  72
ENDBRANCH  43  66
BRANCH  55  76
ATOM     76  C   UNL A   1      43.643  34.682  32.512  1.00  0.00    -0.014 A 
ATOM     77  C   UNL A   1      44.189  35.741  31.766  1.00  0.00     0.010 A 
ATOM     78  C   UNL A   1      43.501  34.826  33.904  1.00  0.00     0.010 A 
ATOM     79  C   UNL A   1      44.611  36.910  32.404  1.00  0.00     0.020 A 
ATOM     80  C   UNL A   1      43.895  36.003  34.543  1.00  0.00     0.020 A 
ATOM     81  C   UNL A   1      44.462  37.034  33.789  1.00  0.00     0.054 A 
BRANCH  81  82
ATOM     82  S   UNL A   1      44.976  38.579  34.589  1.00  0.00     0.124 S 
ATOM     83  O   UNL A   1      45.689  38.090  35.765  1.00  0.00    -0.237 OA
ATOM     84  O   UNL A   1      45.809  39.208  33.565  1.00  0.00    -0.237 OA
ATOM     85  O   UNL A   1      43.715  39.263  34.863  1.00  0.00    -0.744 OA
ENDBRANCH  81  82
ENDBRANCH  55  76
ENDBRANCH  29  30
ENDBRANCH  21  24
ENDBRANCH  19  20
ENDBRANCH  18  19
ENDBRANCH   1  18
TORSDOF 20
ENDMDL
MODEL 2
REMARK VINA RESULT:      -8.5      4.233      9.753
REMARK SMILES CCC(CC)(C[C@H](O)COC)C(=O)NCCCNC(=O)c1ccc(-c2c3nc(c(-c4ccc(S(=O)(=O)[O-])cc4)c4ccc([nH]4)c(-c4ccc(S(=O)(=O)[O-])cc4)c4nc(c(-c5ccc(S(=O)(=O)[O-])cc5)c5ccc2[nH]5)C=C4)C=C3)cc1
REMARK SMILES IDX 15 1 14 2 12 3 13 4 3 6 2 7 1 8 4 9 5 10 6 11 7 12 9 13
REMARK SMILES IDX 10 14 11 15 8 16 16 18 17 19 18 20 19 21 20 23 21 24 22 25
REMARK SMILES IDX 80 26 23 27 79 28 24 29 25 30 26 31 73 32 27 33 78 34 72 35
REMARK SMILES IDX 74 36 28 37 77 38 71 39 70 40 29 42 59 43 40 44 58 45 41 46
REMARK SMILES IDX 44 47 57 48 75 49 42 50 43 51 56 53 76 54 45 55 30 56 31 57
REMARK SMILES IDX 39 58 32 59 38 60 33 61 34 62 35 63 36 64 37 65 60 66 61 67
REMARK SMILES IDX 69 68 62 69 68 70 63 71 64 72 65 73 66 74 67 75 46 76 47 77
REMARK SMILES IDX 55 78 48 79 54 80 49 81 50 82 51 83 52 84 53 85
REMARK H PARENT 14 5 8 17 18 22 74 41 44 52
REMARK Flexibility Score: inf
ROOT
ATOM      1  C   UNL A   1      31.741  30.786  26.376  1.00  0.00     0.117 C 
ENDROOT
BRANCH   1   2
ATOM      2  N   UNL A   1      31.080  30.362  25.151  1.00  0.00    -0.356 N 
ATOM      3  C   UNL A   1      31.223  29.287  24.331  1.00  0.00     0.226 C 
ATOM      4  O   UNL A   1      30.458  29.256  23.360  1.00  0.00    -0.274 OA
ATOM      5  H   UNL A   1      30.380  30.986  24.852  1.00  0.00     0.163 HD
BRANCH   3   6
ATOM      6  C   UNL A   1      32.260  28.159  24.565  1.00  0.00     0.051 C 
BRANCH   6   7
ATOM      7  C   UNL A   1      33.563  28.761  25.220  1.00  0.00     0.013 C 
ATOM      8  C   UNL A   1      34.090  28.084  26.483  1.00  0.00     0.005 C 
ENDBRANCH   6   7
BRANCH   6   9
ATOM      9  C   UNL A   1      32.660  27.528  23.188  1.00  0.00     0.013 C 
ATOM     10  C   UNL A   1      33.584  28.370  22.317  1.00  0.00     0.005 C 
ENDBRANCH   6   9
BRANCH   6  11
ATOM     11  C   UNL A   1      31.690  27.077  25.549  1.00  0.00     0.051 C 
BRANCH  11  12
ATOM     12  C   UNL A   1      30.867  25.873  25.025  1.00  0.00     0.141 C 
BRANCH  12  13
ATOM     13  C   UNL A   1      30.778  24.636  25.928  1.00  0.00     0.191 C 
BRANCH  13  14
ATOM     14  O   UNL A   1      31.537  23.526  25.424  1.00  0.00    -0.382 OA
ATOM     15  C   UNL A   1      31.276  23.238  24.055  1.00  0.00     0.195 C 
ENDBRANCH  13  14
ENDBRANCH  12  13
BRANCH  12  16
ATOM     16  O   UNL A   1      29.559  26.337  24.695  1.00  0.00    -0.391 OA
ATOM     17  H   UNL A   1      29.621  27.214  24.288  1.00  0.00     0.211 HD
ENDBRANCH  12  16
ENDBRANCH  11  12
ENDBRANCH   6  11
ENDBRANCH   3   6
ENDBRANCH   1   2
BRANCH   1  18
ATOM     18  C   UNL A   1      31.698  32.289  26.635  1.00  0.00     0.042 C 
BRANCH  18  19
ATOM     19  C   UNL A   1      32.831  32.836  27.488  1.00  0.00     0.118 C 
BRANCH  19  20
ATOM     20  N   UNL A   1      32.641  34.237  27.834  1.00  0.00    -0.352 N 
ATOM     21  C   UNL A   1      33.202  34.983  28.843  1.00  0.00     0.251 C 
ATOM     22  H   UNL A   1      32.013  34.726  27.255  1.00  0.00     0.163 HD
ATOM     23  O   UNL A   1      32.748  36.095  29.096  1.00  0.00    -0.269 OA
BRANCH  21  24
ATOM     24  C   UNL A   1      34.328  34.446  29.646  1.00  0.00     0.039 A 
ATOM     25  C   UNL A   1      34.061  33.904  30.907  1.00  0.00     0.014 A 
ATOM     26  C   UNL A   1      35.642  34.492  29.175  1.00  0.00     0.014 A 
ATOM     27  C   UNL A   1      35.096  33.333  31.653  1.00  0.00     0.010 A 
ATOM     28  C   UNL A   1      36.658  33.853  29.883  1.00  0.00     0.010 A 
ATOM     29  C   UNL A   1      36.396  33.261  31.128  1.00  0.00    -0.014 A 
BRANCH  29  30
ATOM     30  C   UNL A   1      37.489  32.554  31.848  1.00  0.00     0.031 A 
ATOM     31  C   UNL A   1      37.992  33.072  33.170  1.00  0.00     0.074 A 
ATOM     32  C   UNL A   1      38.085  31.490  31.273  1.00  0.00     0.049 A 
ATOM     33  N   UNL A   1      38.994  32.642  33.895  1.00  0.00    -0.248 NA
ATOM     34  C   UNL A   1      37.294  34.235  33.738  1.00  0.00     0.031 C 
ATOM     35  C   UNL A   1      37.719  30.910  29.978  1.00  0.00     0.029 A 
ATOM     36  N   UNL A   1      39.135  30.713  31.696  1.00  0.00    -0.354 N 
ATOM     37  C   UNL A   1      39.057  33.493  34.993  1.00  0.00     0.074 A 
ATOM     38  C   UNL A   1      38.022  34.488  34.817  1.00  0.00     0.031 C 
ATOM     39  C   UNL A   1      38.515  29.860  29.724  1.00  0.00     0.029 A 
ATOM     40  C   UNL A   1      39.479  29.718  30.811  1.00  0.00     0.049 A 
ATOM     41  H   UNL A   1      39.599  30.855  32.553  1.00  0.00     0.167 HD
ATOM     42  C   UNL A   1      39.891  33.442  36.061  1.00  0.00     0.031 A 
ATOM     43  C   UNL A   1      40.467  28.802  30.857  1.00  0.00     0.031 A 
ATOM     44  C   UNL A   1      40.916  32.447  36.239  1.00  0.00     0.049 A 
ATOM     45  C   UNL A   1      41.394  28.780  32.041  1.00  0.00     0.074 A 
ATOM     46  C   UNL A   1      41.771  32.277  37.315  1.00  0.00     0.029 A 
ATOM     47  N   UNL A   1      41.229  31.456  35.321  1.00  0.00    -0.354 N 
ATOM     48  N   UNL A   1      41.397  29.556  33.098  1.00  0.00    -0.248 NA
ATOM     49  C   UNL A   1      42.448  27.756  32.037  1.00  0.00     0.031 C 
ATOM     50  C   UNL A   1      42.637  31.218  37.023  1.00  0.00     0.029 A 
ATOM     51  C   UNL A   1      42.283  30.691  35.791  1.00  0.00     0.049 A 
ATOM     52  H   UNL A   1      40.768  31.317  34.462  1.00  0.00     0.167 HD
ATOM     53  C   UNL A   1      42.441  29.101  33.895  1.00  0.00     0.074 A 
ATOM     54  C   UNL A   1      43.034  27.972  33.208  1.00  0.00     0.031 C 
ATOM     55  C   UNL A   1      42.871  29.576  35.090  1.00  0.00     0.031 A 
BRANCH  42  56
ATOM     56  C   UNL A   1      39.734  34.503  37.118  1.00  0.00    -0.014 A 
ATOM     57  C   UNL A   1      38.945  34.280  38.260  1.00  0.00     0.010 A 
ATOM     58  C   UNL A   1      40.420  35.726  36.988  1.00  0.00     0.010 A 
ATOM     59  C   UNL A   1      38.809  35.275  39.232  1.00  0.00     0.020 A 
ATOM     60  C   UNL A   1      40.308  36.713  37.972  1.00  0.00     0.020 A 
ATOM     61  C   UNL A   1      39.489  36.487  39.080  1.00  0.00     0.054 A 
BRANCH  61  62
ATOM     62  S   UNL A   1      39.308  37.753  40.367  1.00  0.00     0.124 S 
ATOM     63  O   UNL A   1      38.182  38.536  39.863  1.00  0.00    -0.237 OA
ATOM     64  O   UNL A   1      39.034  36.959  41.561  1.00  0.00    -0.237 OA
ATOM     65  O   UNL A   1      40.597  38.440  40.361  1.00  0.00    -0.744 OA
ENDBRANCH  61  62
ENDBRANCH  42  56
BRANCH  43  66
ATOM     66  C   UNL A   1      40.629  27.830  29.742  1.00  0.00    -0.014 A 
ATOM     67  C   UNL A   1      39.777  26.716  29.638  1.00  0.00     0.010 A 
ATOM     68  C   UNL A   1      41.626  28.022  28.768  1.00  0.00     0.010 A 
ATOM     69  C   UNL A   1      39.928  25.804  28.589  1.00  0.00     0.020 A 
ATOM     70  C   UNL A   1      41.761  27.128  27.702  1.00  0.00     0.020 A 
ATOM     71  C   UNL A   1      40.917  26.019  27.626  1.00  0.00     0.054 A 
BRANCH  71  72
ATOM     72  S   UNL A   1      41.056  24.856  26.238  1.00  0.00     0.124 S 
ATOM     73  O   UNL A   1      39.679  24.397  26.089  1.00  0.00    -0.237 OA
ATOM     74  O   UNL A   1      41.561  25.707  25.163  1.00  0.00    -0.237 OA
ATOM     75  O   UNL A   1      42.003  23.856  26.726  1.00  0.00    -0.744 OA
ENDBRANCH  71  72
ENDBRANCH  43  66
BRANCH  55  76
ATOM     76  C   UNL A   1      44.029  28.869  35.741  1.00  0.00    -0.014 A 
ATOM     77  C   UNL A   1      43.824  27.760  36.581  1.00  0.00     0.010 A 
ATOM     78  C   UNL A   1      45.344  29.289  35.467  1.00  0.00     0.010 A 
ATOM     79  C   UNL A   1      44.913  27.102  37.160  1.00  0.00     0.020 A 
ATOM     80  C   UNL A   1      46.436  28.616  36.022  1.00  0.00     0.020 A 
ATOM     81  C   UNL A   1      46.212  27.535  36.876  1.00  0.00     0.054 A 
BRANCH  81  82
ATOM     82  S   UNL A   1      47.610  26.636  37.604  1.00  0.00     0.124 S 
ATOM     83  O   UNL A   1      47.171  26.460  38.985  1.00  0.00    -0.237 OA
ATOM     84  O   UNL A   1      47.661  25.417  36.800  1.00  0.00    -0.237 OA
ATOM     85  O   UNL A   1      48.740  27.544  37.420  1.00  0.00    -0.744 OA
ENDBRANCH  81  82
ENDBRANCH  55  76
ENDBRANCH  29  30
ENDBRANCH  21  24
ENDBRANCH  19  20
ENDBRANCH  18  19
ENDBRANCH   1  18
TORSDOF 20
ENDMDL
MODEL 3
REMARK VINA RESULT:      -8.4      1.761      2.109
REMARK SMILES CCC(CC)(C[C@H](O)COC)C(=O)NCCCNC(=O)c1ccc(-c2c3nc(c(-c4ccc(S(=O)(=O)[O-])cc4)c4ccc([nH]4)c(-c4ccc(S(=O)(=O)[O-])cc4)c4nc(c(-c5ccc(S(=O)(=O)[O-])cc5)c5ccc2[nH]5)C=C4)C=C3)cc1
REMARK SMILES IDX 15 1 14 2 12 3 13 4 3 6 2 7 1 8 4 9 5 10 6 11 7 12 9 13
REMARK SMILES IDX 10 14 11 15 8 16 16 18 17 19 18 20 19 21 20 23 21 24 22 25
REMARK SMILES IDX 80 26 23 27 79 28 24 29 25 30 26 31 73 32 27 33 78 34 72 35
REMARK SMILES IDX 74 36 28 37 77 38 71 39 70 40 29 42 59 43 40 44 58 45 41 46
REMARK SMILES IDX 44 47 57 48 75 49 42 50 43 51 56 53 76 54 45 55 30 56 31 57
REMARK SMILES IDX 39 58 32 59 38 60 33 61 34 62 35 63 36 64 37 65 60 66 61 67
REMARK SMILES IDX 69 68 62 69 68 70 63 71 64 72 65 73 66 74 67 75 46 76 47 77
REMARK SMILES IDX 55 78 48 79 54 80 49 81 50 82 51 83 52 84 53 85
REMARK H PARENT 14 5 8 17 18 22 74 41 44 52
REMARK Flexibility Score: inf
ROOT
ATOM      1  C   UNL A   1      34.133  22.489  24.953  1.00  0.00     0.117 C 
ENDROOT
BRANCH   1   2
ATOM      2  N   UNL A   1      34.126  23.404  23.821  1.00  0.00    -0.356 N 
ATOM      3  C   UNL A   1      33.294  24.407  23.431  1.00  0.00     0.226 C 
ATOM      4  O   UNL A   1      33.620  24.989  22.390  1.00  0.00    -0.274 OA
ATOM      5  H   UNL A   1      34.884  23.269  23.208  1.00  0.00     0.163 HD
BRANCH   3   6
ATOM      6  C   UNL A   1      32.021  24.822  24.210  1.00  0.00     0.051 C 
BRANCH   6   7
ATOM      7  C   UNL A   1      32.431  25.533  25.558  1.00  0.00     0.013 C 
ATOM      8  C   UNL A   1      33.532  26.590  25.487  1.00  0.00     0.005 C 
ENDBRANCH   6   7
BRANCH   6   9
ATOM      9  C   UNL A   1      31.193  23.542  24.573  1.00  0.00     0.013 C 
ATOM     10  C   UNL A   1      30.729  23.442  26.021  1.00  0.00     0.005 C 
ENDBRANCH   6   9
BRANCH   6  11
ATOM     11  C   UNL A   1      31.167  25.841  23.377  1.00  0.00     0.051 C 
BRANCH  11  12
ATOM     12  C   UNL A   1      30.080  26.715  24.052  1.00  0.00     0.141 C 
BRANCH  12  13
ATOM     13  C   UNL A   1      29.948  28.166  23.574  1.00  0.00     0.191 C 
BRANCH  13  14
ATOM     14  O   UNL A   1      28.680  28.432  22.954  1.00  0.00    -0.382 OA
ATOM     15  C   UNL A   1      28.690  29.586  22.119  1.00  0.00     0.195 C 
ENDBRANCH  13  14
ENDBRANCH  12  13
BRANCH  12  16
ATOM     16  O   UNL A   1      28.828  26.041  23.933  1.00  0.00    -0.391 OA
ATOM     17  H   UNL A   1      28.123  26.603  24.289  1.00  0.00     0.211 HD
ENDBRANCH  12  16
ENDBRANCH  11  12
ENDBRANCH   6  11
ENDBRANCH   3   6
ENDBRANCH   1   2
BRANCH   1  18
ATOM     18  C   UNL A   1      34.994  22.939  26.128  1.00  0.00     0.042 C 
BRANCH  18  19
ATOM     19  C   UNL A   1      36.380  23.446  25.765  1.00  0.00     0.118 C 
BRANCH  19  20
ATOM     20  N   UNL A   1      37.417  22.450  25.997  1.00  0.00    -0.352 N 
ATOM     21  C   UNL A   1      38.740  22.612  26.331  1.00  0.00     0.251 C 
ATOM     22  H   UNL A   1      37.123  21.515  25.899  1.00  0.00     0.163 HD
ATOM     23  O   UNL A   1      39.499  21.649  26.273  1.00  0.00    -0.269 OA
BRANCH  21  24
ATOM     24  C   UNL A   1      39.263  23.940  26.733  1.00  0.00     0.039 A 
ATOM     25  C   UNL A   1      39.137  24.341  28.066  1.00  0.00     0.014 A 
ATOM     26  C   UNL A   1      39.856  24.798  25.803  1.00  0.00     0.014 A 
ATOM     27  C   UNL A   1      39.680  25.561  28.481  1.00  0.00     0.010 A 
ATOM     28  C   UNL A   1      40.466  25.975  26.233  1.00  0.00     0.010 A 
ATOM     29  C   UNL A   1      40.390  26.368  27.578  1.00  0.00    -0.014 A 
BRANCH  29  30
ATOM     30  C   UNL A   1      41.080  27.610  28.018  1.00  0.00     0.031 A 
ATOM     31  C   UNL A   1      42.580  27.715  27.949  1.00  0.00     0.074 A 
ATOM     32  C   UNL A   1      40.361  28.616  28.557  1.00  0.00     0.049 A 
ATOM     33  N   UNL A   1      43.359  28.679  28.372  1.00  0.00    -0.248 NA
ATOM     34  C   UNL A   1      43.300  26.580  27.349  1.00  0.00     0.031 C 
ATOM     35  C   UNL A   1      38.904  28.625  28.716  1.00  0.00     0.029 A 
ATOM     36  N   UNL A   1      40.757  29.820  29.084  1.00  0.00    -0.354 N 
ATOM     37  C   UNL A   1      44.658  28.260  28.107  1.00  0.00     0.074 A 
ATOM     38  C   UNL A   1      44.565  26.938  27.526  1.00  0.00     0.031 C 
ATOM     39  C   UNL A   1      38.530  29.785  29.280  1.00  0.00     0.029 A 
ATOM     40  C   UNL A   1      39.719  30.581  29.566  1.00  0.00     0.049 A 
ATOM     41  H   UNL A   1      41.697  30.111  29.113  1.00  0.00     0.167 HD
ATOM     42  C   UNL A   1      45.824  28.921  28.312  1.00  0.00     0.031 A 
ATOM     43  C   UNL A   1      39.719  31.779  30.185  1.00  0.00     0.031 A 
ATOM     44  C   UNL A   1      45.915  30.240  28.881  1.00  0.00     0.049 A 
ATOM     45  C   UNL A   1      41.026  32.484  30.421  1.00  0.00     0.074 A 
ATOM     46  C   UNL A   1      47.045  31.016  29.074  1.00  0.00     0.029 A 
ATOM     47  N   UNL A   1      44.840  30.977  29.354  1.00  0.00    -0.354 N 
ATOM     48  N   UNL A   1      42.239  32.096  30.106  1.00  0.00    -0.248 NA
ATOM     49  C   UNL A   1      40.963  33.788  31.095  1.00  0.00     0.031 C 
ATOM     50  C   UNL A   1      46.659  32.200  29.713  1.00  0.00     0.029 A 
ATOM     51  C   UNL A   1      45.281  32.185  29.865  1.00  0.00     0.049 A 
ATOM     52  H   UNL A   1      43.900  30.683  29.329  1.00  0.00     0.167 HD
ATOM     53  C   UNL A   1      43.082  33.119  30.525  1.00  0.00     0.074 A 
ATOM     54  C   UNL A   1      42.240  34.148  31.099  1.00  0.00     0.031 C 
ATOM     55  C   UNL A   1      44.433  33.197  30.443  1.00  0.00     0.031 A 
BRANCH  42  56
ATOM     56  C   UNL A   1      47.099  28.221  27.924  1.00  0.00    -0.014 A 
ATOM     57  C   UNL A   1      47.669  27.237  28.751  1.00  0.00     0.010 A 
ATOM     58  C   UNL A   1      47.715  28.521  26.694  1.00  0.00     0.010 A 
ATOM     59  C   UNL A   1      48.854  26.596  28.378  1.00  0.00     0.020 A 
ATOM     60  C   UNL A   1      48.885  27.862  26.304  1.00  0.00     0.020 A 
ATOM     61  C   UNL A   1      49.456  26.916  27.157  1.00  0.00     0.054 A 
BRANCH  61  62
ATOM     62  S   UNL A   1      50.983  26.054  26.690  1.00  0.00     0.124 S 
ATOM     63  O   UNL A   1      50.846  25.966  25.238  1.00  0.00    -0.237 OA
ATOM     64  O   UNL A   1      52.022  26.962  27.167  1.00  0.00    -0.237 OA
ATOM     65  O   UNL A   1      50.895  24.783  27.402  1.00  0.00    -0.744 OA
ENDBRANCH  61  62
ENDBRANCH  42  56
BRANCH  43  66
ATOM     66  C   UNL A   1      38.434  32.387  30.623  1.00  0.00    -0.014 A 
ATOM     67  C   UNL A   1      37.687  33.191  29.743  1.00  0.00     0.010 A 
ATOM     68  C   UNL A   1      37.940  32.152  31.920  1.00  0.00     0.010 A 
ATOM     69  C   UNL A   1      36.479  33.760  30.156  1.00  0.00     0.020 A 
ATOM     70  C   UNL A   1      36.718  32.696  32.326  1.00  0.00     0.020 A 
ATOM     71  C   UNL A   1      36.001  33.505  31.443  1.00  0.00     0.054 A 
BRANCH  71  72
ATOM     72  S   UNL A   1      34.399  34.203  31.937  1.00  0.00     0.124 S 
ATOM     73  O   UNL A   1      33.873  33.162  32.815  1.00  0.00    -0.237 OA
ATOM     74  O   UNL A   1      34.787  35.449  32.593  1.00  0.00    -0.237 OA
ATOM     75  O   UNL A   1      33.695  34.370  30.668  1.00  0.00    -0.744 OA
ENDBRANCH  71  72
ENDBRANCH  43  66
BRANCH  55  76
ATOM     76  C   UNL A   1      45.087  34.445  30.973  1.00  0.00    -0.014 A 
ATOM     77  C   UNL A   1      45.268  35.574  30.154  1.00  0.00     0.010 A 
ATOM     78  C   UNL A   1      45.482  34.506  32.322  1.00  0.00     0.010 A 
ATOM     79  C   UNL A   1      45.858  36.732  30.668  1.00  0.00     0.020 A 
ATOM     80  C   UNL A   1      46.046  35.671  32.847  1.00  0.00     0.020 A 
ATOM     81  C   UNL A   1      46.244  36.773  32.012  1.00  0.00     0.054 A 
BRANCH  81  82
ATOM     82  S   UNL A   1      46.967  38.303  32.666  1.00  0.00     0.124 S 
ATOM     83  O   UNL A   1      48.127  37.802  33.397  1.00  0.00    -0.237 OA
ATOM     84  O   UNL A   1      47.267  39.060  31.453  1.00  0.00    -0.237 OA
ATOM     85  O   UNL A   1      45.902  38.862  33.495  1.00  0.00    -0.744 OA
ENDBRANCH  81  82
ENDBRANCH  55  76
ENDBRANCH  29  30
ENDBRANCH  21  24
ENDBRANCH  19  20
ENDBRANCH  18  19
ENDBRANCH   1  18
TORSDOF 20
ENDMDL
