MODEL 1
REMARK VINA RESULT:     -11.8      0.000      0.000
REMARK SMILES CC(C)CCc1cc2c(cc1Cl)C=C(C(=O)NCCCNC(=O)c1ccc(-c3c4nc(c(-c5ccc(S(=O)(=O)[O-])cc5)c5ccc([nH]5)c(-c5ccc(S(=O)(=O)[O-])cc5)c5nc(c(-c6ccc(S(=O)(=O)[O-])cc6)c6ccc3[nH]6)C=C5)C=C4)cc1)[C@H](C(F)(F)F)O2
REMARK SMILES IDX 19 1 18 2 17 3 15 4 16 5 14 7 6 8 7 9 11 10 8 11 10 12 12 13
REMARK SMILES IDX 9 14 89 15 13 16 84 17 5 18 4 19 2 20 1 21 3 22 85 23 86 24
REMARK SMILES IDX 87 25 88 26 20 27 21 28 22 29 23 31 24 32 25 33 83 34 26 35
REMARK SMILES IDX 82 36 27 37 28 38 29 39 76 40 30 41 81 42 75 43 77 44 31 45
REMARK SMILES IDX 80 46 74 47 73 48 32 50 62 51 43 52 61 53 44 54 47 55 60 56
REMARK SMILES IDX 78 57 45 58 46 59 59 61 79 62 48 63 33 64 34 65 42 66 35 67
REMARK SMILES IDX 41 68 36 69 37 70 38 71 39 72 40 73 63 74 64 75 72 76 65 77
REMARK SMILES IDX 71 78 66 79 67 80 68 81 69 82 70 83 49 84 50 85 58 86 51 87
REMARK SMILES IDX 57 88 52 89 53 90 54 91 55 92 56 93
REMARK H PARENT 17 6 21 30 77 49 47 60
REMARK Flexibility Score: inf
ROOT
ATOM      1  C   UNL A   1      35.925  23.707  24.829  1.00  0.00     0.042 C 
ENDROOT
BRANCH   1   2
ATOM      2  C   UNL A   1      35.363  22.575  23.978  1.00  0.00     0.118 C 
BRANCH   2   3
ATOM      3  N   UNL A   1      34.159  22.005  24.563  1.00  0.00    -0.352 N 
ATOM      4  C   UNL A   1      32.863  22.367  24.705  1.00  0.00     0.251 C 
ATOM      5  O   UNL A   1      32.125  21.502  25.190  1.00  0.00    -0.270 OA
ATOM      6  H   UNL A   1      34.333  21.121  24.959  1.00  0.00     0.163 HD
BRANCH   4   7
ATOM      7  C   UNL A   1      32.292  23.692  24.327  1.00  0.00     0.067 C 
ATOM      8  C   UNL A   1      30.827  28.530  24.348  1.00  0.00    -0.026 A 
ATOM      9  C   UNL A   1      30.681  27.447  23.465  1.00  0.00     0.052 A 
ATOM     10  C   UNL A   1      31.536  28.314  25.543  1.00  0.00     0.045 A 
ATOM     11  C   UNL A   1      31.179  26.189  23.786  1.00  0.00     0.128 A 
ATOM     12  C   UNL A   1      32.039  27.042  25.859  1.00  0.00     0.032 A 
ATOM     13  Cl  UNL A   1      31.817  29.575  26.691  1.00  0.00    -0.084 Cl
ATOM     14  C   UNL A   1      31.853  25.972  24.982  1.00  0.00     0.019 A 
ATOM     15  O   UNL A   1      30.917  25.191  22.892  1.00  0.00    -0.475 OA
ATOM     16  C   UNL A   1      32.320  24.629  25.296  1.00  0.00     0.025 C 
ATOM     17  C   UNL A   1      31.809  24.047  22.946  1.00  0.00     0.314 C 
BRANCH   8  18
ATOM     18  C   UNL A   1      30.222  29.861  23.957  1.00  0.00     0.037 C 
BRANCH  18  19
ATOM     19  C   UNL A   1      29.485  29.848  22.603  1.00  0.00     0.008 C 
BRANCH  19  20
ATOM     20  C   UNL A   1      27.959  30.052  22.692  1.00  0.00    -0.017 C 
ATOM     21  C   UNL A   1      27.242  28.798  23.188  1.00  0.00     0.007 C 
ATOM     22  C   UNL A   1      27.644  31.235  23.612  1.00  0.00     0.007 C 
ENDBRANCH  19  20
ENDBRANCH  18  19
ENDBRANCH   8  18
BRANCH  17  23
ATOM     23  C   UNL A   1      32.936  24.213  21.914  1.00  0.00     0.429 C 
ATOM     24  F   UNL A   1      32.548  24.904  20.820  1.00  0.00    -0.167 F 
ATOM     25  F   UNL A   1      34.014  24.851  22.424  1.00  0.00    -0.167 F 
ATOM     26  F   UNL A   1      33.362  22.994  21.495  1.00  0.00    -0.167 F 
ENDBRANCH  17  23
ENDBRANCH   4   7
ENDBRANCH   2   3
ENDBRANCH   1   2
BRANCH   1  27
ATOM     27  C   UNL A   1      36.393  23.234  26.200  1.00  0.00     0.118 C 
BRANCH  27  28
ATOM     28  N   UNL A   1      37.619  22.446  26.118  1.00  0.00    -0.352 N 
ATOM     29  C   UNL A   1      38.929  22.825  26.293  1.00  0.00     0.251 C 
ATOM     30  H   UNL A   1      37.487  21.495  25.901  1.00  0.00     0.163 HD
ATOM     31  O   UNL A   1      39.829  22.066  25.940  1.00  0.00    -0.269 OA
BRANCH  29  32
ATOM     32  C   UNL A   1      39.255  24.144  26.879  1.00  0.00     0.039 A 
ATOM     33  C   UNL A   1      39.920  25.112  26.128  1.00  0.00     0.014 A 
ATOM     34  C   UNL A   1      38.882  24.425  28.197  1.00  0.00     0.014 A 
ATOM     35  C   UNL A   1      40.382  26.268  26.742  1.00  0.00     0.010 A 
ATOM     36  C   UNL A   1      39.251  25.641  28.783  1.00  0.00     0.010 A 
ATOM     37  C   UNL A   1      40.048  26.554  28.075  1.00  0.00    -0.014 A 
BRANCH  37  38
ATOM     38  C   UNL A   1      40.535  27.816  28.697  1.00  0.00     0.031 A 
ATOM     39  C   UNL A   1      41.983  27.979  29.077  1.00  0.00     0.074 A 
ATOM     40  C   UNL A   1      39.674  28.842  28.861  1.00  0.00     0.049 A 
ATOM     41  N   UNL A   1      42.574  29.011  29.622  1.00  0.00    -0.248 NA
ATOM     42  C   UNL A   1      42.888  26.845  28.819  1.00  0.00     0.031 C 
ATOM     43  C   UNL A   1      38.252  28.809  28.508  1.00  0.00     0.029 A 
ATOM     44  N   UNL A   1      39.865  30.117  29.333  1.00  0.00    -0.354 N 
ATOM     45  C   UNL A   1      43.907  28.648  29.787  1.00  0.00     0.074 A 
ATOM     46  C   UNL A   1      44.036  27.288  29.314  1.00  0.00     0.031 C 
ATOM     47  C   UNL A   1      37.718  30.021  28.712  1.00  0.00     0.029 A 
ATOM     48  C   UNL A   1      38.731  30.896  29.292  1.00  0.00     0.049 A 
ATOM     49  H   UNL A   1      40.731  30.442  29.670  1.00  0.00     0.167 HD
ATOM     50  C   UNL A   1      44.930  29.390  30.270  1.00  0.00     0.031 A 
ATOM     51  C   UNL A   1      38.515  32.165  29.691  1.00  0.00     0.031 A 
ATOM     52  C   UNL A   1      44.796  30.756  30.711  1.00  0.00     0.049 A 
ATOM     53  C   UNL A   1      39.658  32.950  30.270  1.00  0.00     0.074 A 
ATOM     54  C   UNL A   1      45.782  31.593  31.201  1.00  0.00     0.029 A 
ATOM     55  N   UNL A   1      43.617  31.487  30.705  1.00  0.00    -0.354 N 
ATOM     56  N   UNL A   1      40.910  32.586  30.413  1.00  0.00    -0.248 NA
ATOM     57  C   UNL A   1      39.367  34.310  30.741  1.00  0.00     0.031 C 
ATOM     58  C   UNL A   1      45.190  32.805  31.556  1.00  0.00     0.029 A 
ATOM     59  C   UNL A   1      43.848  32.755  31.210  1.00  0.00     0.049 A 
ATOM     60  H   UNL A   1      42.747  31.154  30.388  1.00  0.00     0.167 HD
ATOM     61  C   UNL A   1      41.559  33.677  30.978  1.00  0.00     0.074 A 
ATOM     62  C   UNL A   1      40.568  34.721  31.128  1.00  0.00     0.031 C 
ATOM     63  C   UNL A   1      42.857  33.793  31.349  1.00  0.00     0.031 A 
BRANCH  50  64
ATOM     64  C   UNL A   1      46.305  28.775  30.349  1.00  0.00    -0.014 A 
ATOM     65  C   UNL A   1      46.739  28.196  31.555  1.00  0.00     0.010 A 
ATOM     66  C   UNL A   1      47.220  28.919  29.291  1.00  0.00     0.010 A 
ATOM     67  C   UNL A   1      48.077  27.823  31.725  1.00  0.00     0.020 A 
ATOM     68  C   UNL A   1      48.552  28.520  29.447  1.00  0.00     0.020 A 
ATOM     69  C   UNL A   1      48.977  28.003  30.673  1.00  0.00     0.054 A 
BRANCH  69  70
ATOM     70  S   UNL A   1      50.723  27.585  30.937  1.00  0.00     0.124 S 
ATOM     71  O   UNL A   1      50.632  26.341  31.695  1.00  0.00    -0.237 OA
ATOM     72  O   UNL A   1      51.229  27.457  29.572  1.00  0.00    -0.237 OA
ATOM     73  O   UNL A   1      51.243  28.732  31.679  1.00  0.00    -0.744 OA
ENDBRANCH  69  70
ENDBRANCH  50  64
BRANCH  51  74
ATOM     74  C   UNL A   1      37.152  32.752  29.550  1.00  0.00    -0.014 A 
ATOM     75  C   UNL A   1      36.679  33.150  28.284  1.00  0.00     0.010 A 
ATOM     76  C   UNL A   1      36.351  32.993  30.680  1.00  0.00     0.010 A 
ATOM     77  C   UNL A   1      35.466  33.829  28.157  1.00  0.00     0.020 A 
ATOM     78  C   UNL A   1      35.116  33.639  30.552  1.00  0.00     0.020 A 
ATOM     79  C   UNL A   1      34.698  34.080  29.295  1.00  0.00     0.054 A 
BRANCH  79  80
ATOM     80  S   UNL A   1      33.145  35.002  29.110  1.00  0.00     0.124 S 
ATOM     81  O   UNL A   1      33.626  36.315  28.689  1.00  0.00    -0.237 OA
ATOM     82  O   UNL A   1      32.438  34.233  28.089  1.00  0.00    -0.237 OA
ATOM     83  O   UNL A   1      32.556  34.948  30.446  1.00  0.00    -0.744 OA
ENDBRANCH  79  80
ENDBRANCH  51  74
BRANCH  63  84
ATOM     84  C   UNL A   1      43.312  35.094  31.956  1.00  0.00    -0.014 A 
ATOM     85  C   UNL A   1      43.206  35.290  33.346  1.00  0.00     0.010 A 
ATOM     86  C   UNL A   1      43.697  36.172  31.140  1.00  0.00     0.010 A 
ATOM     87  C   UNL A   1      43.430  36.549  33.904  1.00  0.00     0.020 A 
ATOM     88  C   UNL A   1      43.956  37.426  31.700  1.00  0.00     0.020 A 
ATOM     89  C   UNL A   1      43.792  37.613  33.075  1.00  0.00     0.054 A 
BRANCH  89  90
ATOM     90  S   UNL A   1      44.026  39.254  33.812  1.00  0.00     0.124 S 
ATOM     91  O   UNL A   1      43.077  40.068  33.059  1.00  0.00    -0.237 OA
ATOM     92  O   UNL A   1      43.687  39.027  35.215  1.00  0.00    -0.237 OA
ATOM     93  O   UNL A   1      45.436  39.545  33.559  1.00  0.00    -0.744 OA
ENDBRANCH  89  90
ENDBRANCH  63  84
ENDBRANCH  37  38
ENDBRANCH  29  32
ENDBRANCH  27  28
ENDBRANCH   1  27
TORSDOF 17
ENDMDL
MODEL 2
REMARK VINA RESULT:     -11.7      3.369      9.756
REMARK SMILES CC(C)CCc1cc2c(cc1Cl)C=C(C(=O)NCCCNC(=O)c1ccc(-c3c4nc(c(-c5ccc(S(=O)(=O)[O-])cc5)c5ccc([nH]5)c(-c5ccc(S(=O)(=O)[O-])cc5)c5nc(c(-c6ccc(S(=O)(=O)[O-])cc6)c6ccc3[nH]6)C=C5)C=C4)cc1)[C@H](C(F)(F)F)O2
REMARK SMILES IDX 19 1 18 2 17 3 15 4 16 5 14 7 6 8 7 9 11 10 8 11 10 12 12 13
REMARK SMILES IDX 9 14 89 15 13 16 84 17 5 18 4 19 2 20 1 21 3 22 85 23 86 24
REMARK SMILES IDX 87 25 88 26 20 27 21 28 22 29 23 31 24 32 25 33 83 34 26 35
REMARK SMILES IDX 82 36 27 37 28 38 29 39 76 40 30 41 81 42 75 43 77 44 31 45
REMARK SMILES IDX 80 46 74 47 73 48 32 50 62 51 43 52 61 53 44 54 47 55 60 56
REMARK SMILES IDX 78 57 45 58 46 59 59 61 79 62 48 63 33 64 34 65 42 66 35 67
REMARK SMILES IDX 41 68 36 69 37 70 38 71 39 72 40 73 63 74 64 75 72 76 65 77
REMARK SMILES IDX 71 78 66 79 67 80 68 81 69 82 70 83 49 84 50 85 58 86 51 87
REMARK SMILES IDX 57 88 52 89 53 90 54 91 55 92 56 93
REMARK H PARENT 17 6 21 30 77 49 47 60
REMARK Flexibility Score: inf
ROOT
ATOM      1  C   UNL A   1      33.785  28.571  25.554  1.00  0.00     0.042 C 
ENDROOT
BRANCH   1   2
ATOM      2  C   UNL A   1      33.150  27.301  25.001  1.00  0.00     0.118 C 
BRANCH   2   3
ATOM      3  N   UNL A   1      33.467  27.106  23.594  1.00  0.00    -0.352 N 
ATOM      4  C   UNL A   1      33.479  26.075  22.718  1.00  0.00     0.251 C 
ATOM      5  O   UNL A   1      33.719  26.384  21.546  1.00  0.00    -0.270 OA
ATOM      6  H   UNL A   1      33.747  27.947  23.167  1.00  0.00     0.163 HD
BRANCH   4   7
ATOM      7  C   UNL A   1      33.227  24.646  23.065  1.00  0.00     0.067 C 
ATOM      8  C   UNL A   1      33.785  19.823  24.470  1.00  0.00    -0.026 A 
ATOM      9  C   UNL A   1      32.719  20.609  24.001  1.00  0.00     0.052 A 
ATOM     10  C   UNL A   1      35.041  20.437  24.616  1.00  0.00     0.045 A 
ATOM     11  C   UNL A   1      32.912  21.939  23.646  1.00  0.00     0.128 A 
ATOM     12  C   UNL A   1      35.228  21.782  24.259  1.00  0.00     0.032 A 
ATOM     13  Cl  UNL A   1      36.420  19.588  25.220  1.00  0.00    -0.084 Cl
ATOM     14  C   UNL A   1      34.162  22.535  23.763  1.00  0.00     0.019 A 
ATOM     15  O   UNL A   1      31.827  22.589  23.132  1.00  0.00    -0.475 OA
ATOM     16  C   UNL A   1      34.328  23.918  23.339  1.00  0.00     0.025 C 
ATOM     17  C   UNL A   1      31.860  24.038  23.224  1.00  0.00     0.314 C 
BRANCH   8  18
ATOM     18  C   UNL A   1      33.516  18.370  24.796  1.00  0.00     0.037 C 
BRANCH  18  19
ATOM     19  C   UNL A   1      34.133  17.372  23.795  1.00  0.00     0.008 C 
BRANCH  19  20
ATOM     20  C   UNL A   1      34.304  15.936  24.332  1.00  0.00    -0.017 C 
ATOM     21  C   UNL A   1      35.458  15.831  25.326  1.00  0.00     0.007 C 
ATOM     22  C   UNL A   1      33.003  15.467  24.988  1.00  0.00     0.007 C 
ENDBRANCH  19  20
ENDBRANCH  18  19
ENDBRANCH   8  18
BRANCH  17  23
ATOM     23  C   UNL A   1      31.113  24.499  24.485  1.00  0.00     0.429 C 
ATOM     24  F   UNL A   1      30.228  23.582  24.935  1.00  0.00    -0.167 F 
ATOM     25  F   UNL A   1      31.951  24.777  25.510  1.00  0.00    -0.167 F 
ATOM     26  F   UNL A   1      30.421  25.637  24.223  1.00  0.00    -0.167 F 
ENDBRANCH  17  23
ENDBRANCH   4   7
ENDBRANCH   2   3
ENDBRANCH   1   2
BRANCH   1  27
ATOM     27  C   UNL A   1      33.479  28.785  27.032  1.00  0.00     0.118 C 
BRANCH  27  28
ATOM     28  N   UNL A   1      33.489  30.199  27.393  1.00  0.00    -0.352 N 
ATOM     29  C   UNL A   1      34.422  30.927  28.093  1.00  0.00     0.251 C 
ATOM     30  H   UNL A   1      32.705  30.711  27.090  1.00  0.00     0.163 HD
ATOM     31  O   UNL A   1      34.128  32.049  28.502  1.00  0.00    -0.269 OA
BRANCH  29  32
ATOM     32  C   UNL A   1      35.759  30.359  28.374  1.00  0.00     0.039 A 
ATOM     33  C   UNL A   1      36.020  29.717  29.583  1.00  0.00     0.014 A 
ATOM     34  C   UNL A   1      36.768  30.460  27.410  1.00  0.00     0.014 A 
ATOM     35  C   UNL A   1      37.320  29.354  29.908  1.00  0.00     0.010 A 
ATOM     36  C   UNL A   1      38.055  29.991  27.696  1.00  0.00     0.010 A 
ATOM     37  C   UNL A   1      38.355  29.479  28.967  1.00  0.00    -0.014 A 
BRANCH  37  38
ATOM     38  C   UNL A   1      39.733  29.055  29.336  1.00  0.00     0.031 A 
ATOM     39  C   UNL A   1      40.609  29.936  30.187  1.00  0.00     0.074 A 
ATOM     40  C   UNL A   1      40.172  27.838  28.951  1.00  0.00     0.049 A 
ATOM     41  N   UNL A   1      41.830  29.719  30.603  1.00  0.00    -0.248 NA
ATOM     42  C   UNL A   1      40.054  31.228  30.627  1.00  0.00     0.031 C 
ATOM     43  C   UNL A   1      39.403  26.886  28.144  1.00  0.00     0.029 A 
ATOM     44  N   UNL A   1      41.348  27.177  29.205  1.00  0.00    -0.354 N 
ATOM     45  C   UNL A   1      42.193  30.844  31.336  1.00  0.00     0.074 A 
ATOM     46  C   UNL A   1      41.077  31.761  31.283  1.00  0.00     0.031 C 
ATOM     47  C   UNL A   1      40.097  25.745  28.027  1.00  0.00     0.029 A 
ATOM     48  C   UNL A   1      41.395  25.909  28.673  1.00  0.00     0.049 A 
ATOM     49  H   UNL A   1      42.087  27.574  29.720  1.00  0.00     0.167 HD
ATOM     50  C   UNL A   1      43.345  31.080  32.005  1.00  0.00     0.031 A 
ATOM     51  C   UNL A   1      42.373  24.982  28.680  1.00  0.00     0.031 A 
ATOM     52  C   UNL A   1      44.440  30.145  32.077  1.00  0.00     0.049 A 
ATOM     53  C   UNL A   1      43.660  25.290  29.390  1.00  0.00     0.074 A 
ATOM     54  C   UNL A   1      45.642  30.292  32.747  1.00  0.00     0.029 A 
ATOM     55  N   UNL A   1      44.467  28.897  31.475  1.00  0.00    -0.354 N 
ATOM     56  N   UNL A   1      43.980  26.360  30.078  1.00  0.00    -0.248 NA
ATOM     57  C   UNL A   1      44.719  24.274  29.329  1.00  0.00     0.031 C 
ATOM     58  C   UNL A   1      46.423  29.164  32.495  1.00  0.00     0.029 A 
ATOM     59  C   UNL A   1      45.677  28.275  31.736  1.00  0.00     0.049 A 
ATOM     60  H   UNL A   1      43.735  28.509  30.943  1.00  0.00     0.167 HD
ATOM     61  C   UNL A   1      45.271  26.141  30.542  1.00  0.00     0.074 A 
ATOM     62  C   UNL A   1      45.665  24.827  30.078  1.00  0.00     0.031 C 
ATOM     63  C   UNL A   1      46.059  26.963  31.277  1.00  0.00     0.031 A 
BRANCH  50  64
ATOM     64  C   UNL A   1      43.508  32.387  32.740  1.00  0.00    -0.014 A 
ATOM     65  C   UNL A   1      42.880  32.567  33.987  1.00  0.00     0.010 A 
ATOM     66  C   UNL A   1      44.134  33.485  32.126  1.00  0.00     0.010 A 
ATOM     67  C   UNL A   1      42.826  33.832  34.580  1.00  0.00     0.020 A 
ATOM     68  C   UNL A   1      44.108  34.747  32.731  1.00  0.00     0.020 A 
ATOM     69  C   UNL A   1      43.427  34.917  33.939  1.00  0.00     0.054 A 
BRANCH  69  70
ATOM     70  S   UNL A   1      43.282  36.563  34.687  1.00  0.00     0.124 S 
ATOM     71  O   UNL A   1      42.078  36.428  35.501  1.00  0.00    -0.237 OA
ATOM     72  O   UNL A   1      44.535  36.687  35.428  1.00  0.00    -0.237 OA
ATOM     73  O   UNL A   1      43.161  37.454  33.535  1.00  0.00    -0.744 OA
ENDBRANCH  69  70
ENDBRANCH  50  64
BRANCH  51  74
ATOM     74  C   UNL A   1      42.153  23.682  27.984  1.00  0.00    -0.014 A 
ATOM     75  C   UNL A   1      41.602  22.589  28.682  1.00  0.00     0.010 A 
ATOM     76  C   UNL A   1      42.560  23.501  26.651  1.00  0.00     0.010 A 
ATOM     77  C   UNL A   1      41.522  21.329  28.085  1.00  0.00     0.020 A 
ATOM     78  C   UNL A   1      42.445  22.249  26.036  1.00  0.00     0.020 A 
ATOM     79  C   UNL A   1      41.956  21.165  26.769  1.00  0.00     0.054 A 
BRANCH  79  80
ATOM     80  S   UNL A   1      41.880  19.510  26.028  1.00  0.00     0.124 S 
ATOM     81  O   UNL A   1      42.769  19.656  24.879  1.00  0.00    -0.237 OA
ATOM     82  O   UNL A   1      42.378  18.656  27.104  1.00  0.00    -0.237 OA
ATOM     83  O   UNL A   1      40.465  19.343  25.709  1.00  0.00    -0.744 OA
ENDBRANCH  79  80
ENDBRANCH  51  74
BRANCH  63  84
ATOM     84  C   UNL A   1      47.439  26.486  31.645  1.00  0.00    -0.014 A 
ATOM     85  C   UNL A   1      48.486  26.590  30.707  1.00  0.00     0.010 A 
ATOM     86  C   UNL A   1      47.666  25.800  32.850  1.00  0.00     0.010 A 
ATOM     87  C   UNL A   1      49.716  25.978  30.948  1.00  0.00     0.020 A 
ATOM     88  C   UNL A   1      48.908  25.214  33.109  1.00  0.00     0.020 A 
ATOM     89  C   UNL A   1      49.915  25.282  32.143  1.00  0.00     0.054 A 
BRANCH  89  90
ATOM     90  S   UNL A   1      51.503  24.446  32.413  1.00  0.00     0.124 S 
ATOM     91  O   UNL A   1      52.402  25.209  31.554  1.00  0.00    -0.237 OA
ATOM     92  O   UNL A   1      51.711  24.614  33.850  1.00  0.00    -0.237 OA
ATOM     93  O   UNL A   1      51.244  23.073  31.985  1.00  0.00    -0.744 OA
ENDBRANCH  89  90
ENDBRANCH  63  84
ENDBRANCH  37  38
ENDBRANCH  29  32
ENDBRANCH  27  28
ENDBRANCH   1  27
TORSDOF 17
ENDMDL
MODEL 3
REMARK VINA RESULT:     -11.6      3.154      8.745
REMARK SMILES CC(C)CCc1cc2c(cc1Cl)C=C(C(=O)NCCCNC(=O)c1ccc(-c3c4nc(c(-c5ccc(S(=O)(=O)[O-])cc5)c5ccc([nH]5)c(-c5ccc(S(=O)(=O)[O-])cc5)c5nc(c(-c6ccc(S(=O)(=O)[O-])cc6)c6ccc3[nH]6)C=C5)C=C4)cc1)[C@H](C(F)(F)F)O2
REMARK SMILES IDX 19 1 18 2 17 3 15 4 16 5 14 7 6 8 7 9 11 10 8 11 10 12 12 13
REMARK SMILES IDX 9 14 89 15 13 16 84 17 5 18 4 19 2 20 1 21 3 22 85 23 86 24
REMARK SMILES IDX 87 25 88 26 20 27 21 28 22 29 23 31 24 32 25 33 83 34 26 35
REMARK SMILES IDX 82 36 27 37 28 38 29 39 76 40 30 41 81 42 75 43 77 44 31 45
REMARK SMILES IDX 80 46 74 47 73 48 32 50 62 51 43 52 61 53 44 54 47 55 60 56
REMARK SMILES IDX 78 57 45 58 46 59 59 61 79 62 48 63 33 64 34 65 42 66 35 67
REMARK SMILES IDX 41 68 36 69 37 70 38 71 39 72 40 73 63 74 64 75 72 76 65 77
REMARK SMILES IDX 71 78 66 79 67 80 68 81 69 82 70 83 49 84 50 85 58 86 51 87
REMARK SMILES IDX 57 88 52 89 53 90 54 91 55 92 56 93
REMARK H PARENT 17 6 21 30 77 49 47 60
REMARK Flexibility Score: inf
ROOT
ATOM      1  C   UNL A   1      33.328  28.667  25.030  1.00  0.00     0.042 C 
ENDROOT
BRANCH   1   2
ATOM      2  C   UNL A   1      31.812  28.766  24.916  1.00  0.00     0.118 C 
BRANCH   2   3
ATOM      3  N   UNL A   1      31.346  28.426  23.581  1.00  0.00    -0.352 N 
ATOM      4  C   UNL A   1      31.164  27.297  22.856  1.00  0.00     0.251 C 
ATOM      5  O   UNL A   1      30.625  27.461  21.756  1.00  0.00    -0.270 OA
ATOM      6  H   UNL A   1      31.097  29.228  23.069  1.00  0.00     0.163 HD
BRANCH   4   7
ATOM      7  C   UNL A   1      31.555  25.924  23.286  1.00  0.00     0.067 C 
ATOM      8  C   UNL A   1      34.172  21.729  24.336  1.00  0.00    -0.026 A 
ATOM      9  C   UNL A   1      32.816  22.095  24.373  1.00  0.00     0.052 A 
ATOM     10  C   UNL A   1      35.103  22.696  23.918  1.00  0.00     0.045 A 
ATOM     11  C   UNL A   1      32.403  23.357  23.961  1.00  0.00     0.128 A 
ATOM     12  C   UNL A   1      34.680  23.970  23.507  1.00  0.00     0.032 A 
ATOM     13  Cl  UNL A   1      36.802  22.381  23.867  1.00  0.00    -0.084 Cl
ATOM     14  C   UNL A   1      33.324  24.300  23.520  1.00  0.00     0.019 A 
ATOM     15  O   UNL A   1      31.057  23.582  23.967  1.00  0.00    -0.475 OA
ATOM     16  C   UNL A   1      32.842  25.595  23.058  1.00  0.00     0.025 C 
ATOM     17  C   UNL A   1      30.651  24.976  24.027  1.00  0.00     0.314 C 
BRANCH   8  18
ATOM     18  C   UNL A   1      34.548  20.324  24.755  1.00  0.00     0.037 C 
BRANCH  18  19
ATOM     19  C   UNL A   1      33.351  19.448  25.178  1.00  0.00     0.008 C 
BRANCH  19  20
ATOM     20  C   UNL A   1      33.143  18.179  24.326  1.00  0.00    -0.017 C 
ATOM     21  C   UNL A   1      32.459  18.488  22.996  1.00  0.00     0.007 C 
ATOM     22  C   UNL A   1      34.489  17.493  24.076  1.00  0.00     0.007 C 
ENDBRANCH  19  20
ENDBRANCH  18  19
ENDBRANCH   8  18
BRANCH  17  23
ATOM     23  C   UNL A   1      30.382  25.379  25.485  1.00  0.00     0.429 C 
ATOM     24  F   UNL A   1      29.999  24.337  26.255  1.00  0.00    -0.167 F 
ATOM     25  F   UNL A   1      31.465  25.933  26.077  1.00  0.00    -0.167 F 
ATOM     26  F   UNL A   1      29.391  26.305  25.532  1.00  0.00    -0.167 F 
ENDBRANCH  17  23
ENDBRANCH   4   7
ENDBRANCH   2   3
ENDBRANCH   1   2
BRANCH   1  27
ATOM     27  C   UNL A   1      33.812  28.700  26.475  1.00  0.00     0.118 C 
BRANCH  27  28
ATOM     28  N   UNL A   1      33.730  30.039  27.049  1.00  0.00    -0.352 N 
ATOM     29  C   UNL A   1      34.581  30.685  27.914  1.00  0.00     0.251 C 
ATOM     30  H   UNL A   1      32.941  30.560  26.776  1.00  0.00     0.163 HD
ATOM     31  O   UNL A   1      34.208  31.717  28.469  1.00  0.00    -0.269 OA
BRANCH  29  32
ATOM     32  C   UNL A   1      35.926  30.135  28.193  1.00  0.00     0.039 A 
ATOM     33  C   UNL A   1      36.214  29.551  29.426  1.00  0.00     0.014 A 
ATOM     34  C   UNL A   1      36.914  30.192  27.205  1.00  0.00     0.014 A 
ATOM     35  C   UNL A   1      37.522  29.207  29.741  1.00  0.00     0.010 A 
ATOM     36  C   UNL A   1      38.208  29.741  27.487  1.00  0.00     0.010 A 
ATOM     37  C   UNL A   1      38.537  29.289  28.774  1.00  0.00    -0.014 A 
BRANCH  37  38
ATOM     38  C   UNL A   1      39.923  28.887  29.134  1.00  0.00     0.031 A 
ATOM     39  C   UNL A   1      40.461  27.536  28.740  1.00  0.00     0.074 A 
ATOM     40  C   UNL A   1      40.721  29.772  29.767  1.00  0.00     0.049 A 
ATOM     41  N   UNL A   1      41.644  27.028  28.969  1.00  0.00    -0.248 NA
ATOM     42  C   UNL A   1      39.562  26.635  27.998  1.00  0.00     0.031 C 
ATOM     43  C   UNL A   1      40.318  31.120  30.179  1.00  0.00     0.029 A 
ATOM     44  N   UNL A   1      42.038  29.692  30.149  1.00  0.00    -0.354 N 
ATOM     45  C   UNL A   1      41.627  25.751  28.417  1.00  0.00     0.074 A 
ATOM     46  C   UNL A   1      40.306  25.544  27.869  1.00  0.00     0.031 C 
ATOM     47  C   UNL A   1      41.378  31.760  30.692  1.00  0.00     0.029 A 
ATOM     48  C   UNL A   1      42.515  30.845  30.729  1.00  0.00     0.049 A 
ATOM     49  H   UNL A   1      42.587  28.886  30.020  1.00  0.00     0.167 HD
ATOM     50  C   UNL A   1      42.630  24.844  28.359  1.00  0.00     0.031 A 
ATOM     51  C   UNL A   1      43.721  31.139  31.253  1.00  0.00     0.031 A 
ATOM     52  C   UNL A   1      43.954  25.072  28.882  1.00  0.00     0.049 A 
ATOM     53  C   UNL A   1      44.801  30.095  31.218  1.00  0.00     0.074 A 
ATOM     54  C   UNL A   1      45.040  24.216  28.853  1.00  0.00     0.029 A 
ATOM     55  N   UNL A   1      44.376  26.233  29.513  1.00  0.00    -0.354 N 
ATOM     56  N   UNL A   1      44.763  28.896  30.689  1.00  0.00    -0.248 NA
ATOM     57  C   UNL A   1      46.084  30.437  31.847  1.00  0.00     0.031 C 
ATOM     58  C   UNL A   1      46.098  24.829  29.526  1.00  0.00     0.029 A 
ATOM     59  C   UNL A   1      45.698  26.102  29.902  1.00  0.00     0.049 A 
ATOM     60  H   UNL A   1      43.819  27.031  29.661  1.00  0.00     0.167 HD
ATOM     61  C   UNL A   1      46.019  28.344  30.910  1.00  0.00     0.074 A 
ATOM     62  C   UNL A   1      46.802  29.349  31.597  1.00  0.00     0.031 C 
ATOM     63  C   UNL A   1      46.474  27.111  30.580  1.00  0.00     0.031 A 
BRANCH  50  64
ATOM     64  C   UNL A   1      42.373  23.513  27.698  1.00  0.00    -0.014 A 
ATOM     65  C   UNL A   1      42.018  22.402  28.486  1.00  0.00     0.010 A 
ATOM     66  C   UNL A   1      42.645  23.322  26.332  1.00  0.00     0.010 A 
ATOM     67  C   UNL A   1      41.994  21.117  27.936  1.00  0.00     0.020 A 
ATOM     68  C   UNL A   1      42.592  22.042  25.771  1.00  0.00     0.020 A 
ATOM     69  C   UNL A   1      42.298  20.945  26.584  1.00  0.00     0.054 A 
BRANCH  69  70
ATOM     70  S   UNL A   1      42.335  19.262  25.905  1.00  0.00     0.124 S 
ATOM     71  O   UNL A   1      43.243  19.406  24.772  1.00  0.00    -0.237 OA
ATOM     72  O   UNL A   1      42.845  18.478  27.028  1.00  0.00    -0.237 OA
ATOM     73  O   UNL A   1      40.940  19.001  25.559  1.00  0.00    -0.744 OA
ENDBRANCH  69  70
ENDBRANCH  50  64
BRANCH  51  74
ATOM     74  C   UNL A   1      43.950  32.484  31.853  1.00  0.00    -0.014 A 
ATOM     75  C   UNL A   1      44.475  33.530  31.068  1.00  0.00     0.010 A 
ATOM     76  C   UNL A   1      43.722  32.712  33.220  1.00  0.00     0.010 A 
ATOM     77  C   UNL A   1      44.826  34.750  31.648  1.00  0.00     0.020 A 
ATOM     78  C   UNL A   1      44.036  33.947  33.799  1.00  0.00     0.020 A 
ATOM     79  C   UNL A   1      44.615  34.946  33.014  1.00  0.00     0.054 A 
BRANCH  79  80
ATOM     80  S   UNL A   1      45.118  36.525  33.754  1.00  0.00     0.124 S 
ATOM     81  O   UNL A   1      44.093  37.433  33.245  1.00  0.00    -0.237 OA
ATOM     82  O   UNL A   1      45.053  36.242  35.185  1.00  0.00    -0.237 OA
ATOM     83  O   UNL A   1      46.462  36.737  33.223  1.00  0.00    -0.744 OA
ENDBRANCH  79  80
ENDBRANCH  51  74
BRANCH  63  84
ATOM     84  C   UNL A   1      47.890  26.752  30.946  1.00  0.00    -0.014 A 
ATOM     85  C   UNL A   1      48.166  26.215  32.218  1.00  0.00     0.010 A 
ATOM     86  C   UNL A   1      48.959  27.085  30.096  1.00  0.00     0.010 A 
ATOM     87  C   UNL A   1      49.484  26.062  32.652  1.00  0.00     0.020 A 
ATOM     88  C   UNL A   1      50.280  26.902  30.515  1.00  0.00     0.020 A 
ATOM     89  C   UNL A   1      50.533  26.420  31.801  1.00  0.00     0.054 A 
BRANCH  89  90
ATOM     90  S   UNL A   1      52.237  26.265  32.404  1.00  0.00     0.124 S 
ATOM     91  O   UNL A   1      52.617  24.943  31.917  1.00  0.00    -0.237 OA
ATOM     92  O   UNL A   1      52.908  27.391  31.757  1.00  0.00    -0.237 OA
ATOM     93  O   UNL A   1      52.100  26.382  33.854  1.00  0.00    -0.744 OA
ENDBRANCH  89  90
ENDBRANCH  63  84
ENDBRANCH  37  38
ENDBRANCH  29  32
ENDBRANCH  27  28
ENDBRANCH   1  27
TORSDOF 17
ENDMDL
