MODEL 1
REMARK VINA RESULT:     -12.1      0.000      0.000
REMARK SMILES [NH3+][C@H](CS[C@@H]1CC(=O)N(c2ccc3ccccc3c2)C1=O)C(=O)NCCCNC(=O)c1ccc(-c2c3nc(c(-c4ccc(S(=O)(=O)[O-])cc4)c4ccc([nH]4)c(-c4ccc(S(=O)(=O)[O-])cc4)c4nc(c(-c5ccc(S(=O)(=O)[O-])cc5)c5ccc2[nH]5)C=C4)C=C3)cc1
REMARK SMILES IDX 25 1 24 2 22 3 23 4 2 6 1 7 3 11 4 12 5 13 6 14 20 15 7 16
REMARK SMILES IDX 9 17 21 18 8 19 10 20 11 21 19 22 12 23 18 24 13 25 17 26
REMARK SMILES IDX 14 27 16 28 15 29 26 30 27 31 28 32 29 33 30 35 31 36 32 37
REMARK SMILES IDX 90 38 33 39 89 40 34 41 35 42 36 43 83 44 37 45 88 46 82 47
REMARK SMILES IDX 84 48 38 49 87 50 81 51 80 52 39 54 69 55 50 56 68 57 51 58
REMARK SMILES IDX 54 59 67 60 85 61 52 62 53 63 66 65 86 66 55 67 40 68 41 69
REMARK SMILES IDX 49 70 42 71 48 72 43 73 44 74 45 75 46 76 47 77 70 78 71 79
REMARK SMILES IDX 79 80 72 81 78 82 73 83 74 84 75 85 76 86 77 87 56 88 57 89
REMARK SMILES IDX 65 90 58 91 64 92 59 93 60 94 61 95 62 96 63 97
REMARK H PARENT 24 5 1 8 1 9 1 10 28 34 84 53 54 64
REMARK Flexibility Score: inf
ROOT
ATOM      1  C   UNL A   1      38.678  22.499  26.249  1.00  0.00     0.118 C 
ENDROOT
BRANCH   1   2
ATOM      2  N   UNL A   1      38.261  21.848  25.016  1.00  0.00    -0.351 N 
ATOM      3  C   UNL A   1      37.019  21.987  24.455  1.00  0.00     0.279 C 
ATOM      4  O   UNL A   1      36.958  22.596  23.380  1.00  0.00    -0.268 OA
ATOM      5  H   UNL A   1      38.913  21.271  24.557  1.00  0.00     0.163 HD
BRANCH   3   6
ATOM      6  C   UNL A   1      35.726  21.490  25.145  1.00  0.00     0.280 C 
BRANCH   6   7
ATOM      7  N   UNL A   1      35.672  20.011  25.127  1.00  0.00    -0.347 N 
ATOM      8  H   UNL A   1      36.454  19.635  25.663  1.00  0.00     0.345 HD
ATOM      9  H   UNL A   1      35.732  19.681  24.163  1.00  0.00     0.345 HD
ATOM     10  H   UNL A   1      34.794  19.697  25.539  1.00  0.00     0.345 HD
ENDBRANCH   6   7
BRANCH   6  11
ATOM     11  C   UNL A   1      34.360  22.150  24.827  1.00  0.00     0.145 C 
BRANCH  11  12
ATOM     12  S   UNL A   1      32.934  21.915  25.944  1.00  0.00    -0.141 SA
BRANCH  12  13
ATOM     13  C   UNL A   1      31.737  23.145  25.306  1.00  0.00     0.146 C 
ATOM     14  C   UNL A   1      32.068  23.541  23.878  1.00  0.00     0.125 C 
ATOM     15  C   UNL A   1      31.766  24.450  26.060  1.00  0.00     0.247 C 
ATOM     16  C   UNL A   1      32.466  24.986  23.965  1.00  0.00     0.235 C 
ATOM     17  N   UNL A   1      32.231  25.449  25.234  1.00  0.00    -0.250 N 
ATOM     18  O   UNL A   1      31.363  24.551  27.213  1.00  0.00    -0.273 OA
ATOM     19  O   UNL A   1      32.945  25.587  23.012  1.00  0.00    -0.274 OA
BRANCH  17  20
ATOM     20  C   UNL A   1      32.408  26.801  25.647  1.00  0.00     0.052 A 
ATOM     21  C   UNL A   1      31.412  27.765  25.458  1.00  0.00     0.027 A 
ATOM     22  C   UNL A   1      33.591  27.208  26.277  1.00  0.00     0.035 A 
ATOM     23  C   UNL A   1      31.573  29.070  25.947  1.00  0.00     0.011 A 
ATOM     24  C   UNL A   1      33.804  28.528  26.705  1.00  0.00    -0.016 A 
ATOM     25  C   UNL A   1      32.764  29.466  26.577  1.00  0.00    -0.018 A 
ATOM     26  C   UNL A   1      35.032  28.920  27.261  1.00  0.00     0.009 A 
ATOM     27  C   UNL A   1      32.955  30.765  27.083  1.00  0.00     0.009 A 
ATOM     28  C   UNL A   1      35.218  30.219  27.731  1.00  0.00     0.001 A 
ATOM     29  C   UNL A   1      34.173  31.135  27.660  1.00  0.00     0.001 A 
ENDBRANCH  17  20
ENDBRANCH  12  13
ENDBRANCH  11  12
ENDBRANCH   6  11
ENDBRANCH   3   6
ENDBRANCH   1   2
BRANCH   1  30
ATOM     30  C   UNL A   1      39.997  22.030  26.858  1.00  0.00     0.042 C 
BRANCH  30  31
ATOM     31  C   UNL A   1      41.026  23.110  27.184  1.00  0.00     0.118 C 
BRANCH  31  32
ATOM     32  N   UNL A   1      41.338  23.986  26.069  1.00  0.00    -0.352 N 
ATOM     33  C   UNL A   1      41.479  25.355  26.063  1.00  0.00     0.251 C 
ATOM     34  H   UNL A   1      41.465  23.541  25.200  1.00  0.00     0.163 HD
ATOM     35  O   UNL A   1      41.687  25.943  25.003  1.00  0.00    -0.269 OA
BRANCH  33  36
ATOM     36  C   UNL A   1      41.323  26.130  27.316  1.00  0.00     0.039 A 
ATOM     37  C   UNL A   1      42.367  26.972  27.710  1.00  0.00     0.014 A 
ATOM     38  C   UNL A   1      40.167  26.037  28.097  1.00  0.00     0.014 A 
ATOM     39  C   UNL A   1      42.225  27.775  28.847  1.00  0.00     0.010 A 
ATOM     40  C   UNL A   1      40.012  26.869  29.213  1.00  0.00     0.010 A 
ATOM     41  C   UNL A   1      41.033  27.758  29.590  1.00  0.00    -0.014 A 
BRANCH  41  42
ATOM     42  C   UNL A   1      40.836  28.702  30.725  1.00  0.00     0.031 A 
ATOM     43  C   UNL A   1      41.660  28.592  31.979  1.00  0.00     0.074 A 
ATOM     44  C   UNL A   1      39.880  29.650  30.644  1.00  0.00     0.049 A 
ATOM     45  N   UNL A   1      41.606  29.322  33.066  1.00  0.00    -0.248 NA
ATOM     46  C   UNL A   1      42.668  27.523  32.022  1.00  0.00     0.031 C 
ATOM     47  C   UNL A   1      38.993  29.860  29.498  1.00  0.00     0.029 A 
ATOM     48  N   UNL A   1      39.489  30.613  31.545  1.00  0.00    -0.354 N 
ATOM     49  C   UNL A   1      42.565  28.799  33.925  1.00  0.00     0.074 A 
ATOM     50  C   UNL A   1      43.162  27.667  33.244  1.00  0.00     0.031 C 
ATOM     51  C   UNL A   1      38.175  30.894  29.758  1.00  0.00     0.029 A 
ATOM     52  C   UNL A   1      38.453  31.399  31.100  1.00  0.00     0.049 A 
ATOM     53  H   UNL A   1      39.913  30.727  32.426  1.00  0.00     0.167 HD
ATOM     54  C   UNL A   1      42.926  29.226  35.160  1.00  0.00     0.031 A 
ATOM     55  C   UNL A   1      37.789  32.408  31.700  1.00  0.00     0.031 A 
ATOM     56  C   UNL A   1      42.336  30.347  35.843  1.00  0.00     0.049 A 
ATOM     57  C   UNL A   1      38.184  32.842  33.086  1.00  0.00     0.074 A 
ATOM     58  C   UNL A   1      42.675  30.875  37.079  1.00  0.00     0.029 A 
ATOM     59  N   UNL A   1      41.285  31.111  35.361  1.00  0.00    -0.354 N 
ATOM     60  N   UNL A   1      39.137  32.371  33.853  1.00  0.00    -0.248 NA
ATOM     61  C   UNL A   1      37.421  33.949  33.682  1.00  0.00     0.031 C 
ATOM     62  C   UNL A   1      41.796  31.925  37.364  1.00  0.00     0.029 A 
ATOM     63  C   UNL A   1      40.944  32.086  36.283  1.00  0.00     0.049 A 
ATOM     64  H   UNL A   1      40.844  30.978  34.489  1.00  0.00     0.167 HD
ATOM     65  C   UNL A   1      39.106  33.143  35.010  1.00  0.00     0.074 A 
ATOM     66  C   UNL A   1      38.045  34.114  34.841  1.00  0.00     0.031 C 
ATOM     67  C   UNL A   1      39.892  33.055  36.110  1.00  0.00     0.031 A 
BRANCH  54  68
ATOM     68  C   UNL A   1      44.013  28.462  35.868  1.00  0.00    -0.014 A 
ATOM     69  C   UNL A   1      43.721  27.295  36.596  1.00  0.00     0.010 A 
ATOM     70  C   UNL A   1      45.351  28.885  35.760  1.00  0.00     0.010 A 
ATOM     71  C   UNL A   1      44.741  26.588  37.239  1.00  0.00     0.020 A 
ATOM     72  C   UNL A   1      46.377  28.168  36.381  1.00  0.00     0.020 A 
ATOM     73  C   UNL A   1      46.062  27.033  37.133  1.00  0.00     0.054 A 
BRANCH  73  74
ATOM     74  S   UNL A   1      47.370  26.090  37.965  1.00  0.00     0.124 S 
ATOM     75  O   UNL A   1      48.378  27.121  38.200  1.00  0.00    -0.237 OA
ATOM     76  O   UNL A   1      46.694  25.589  39.160  1.00  0.00    -0.237 OA
ATOM     77  O   UNL A   1      47.737  25.070  36.987  1.00  0.00    -0.744 OA
ENDBRANCH  73  74
ENDBRANCH  54  68
BRANCH  55  78
ATOM     78  C   UNL A   1      36.675  33.087  30.985  1.00  0.00    -0.014 A 
ATOM     79  C   UNL A   1      35.346  32.922  31.414  1.00  0.00     0.010 A 
ATOM     80  C   UNL A   1      36.939  33.910  29.875  1.00  0.00     0.010 A 
ATOM     81  C   UNL A   1      34.301  33.560  30.740  1.00  0.00     0.020 A 
ATOM     82  C   UNL A   1      35.900  34.568  29.214  1.00  0.00     0.020 A 
ATOM     83  C   UNL A   1      34.585  34.380  29.643  1.00  0.00     0.054 A 
BRANCH  83  84
ATOM     84  S   UNL A   1      33.220  35.245  28.817  1.00  0.00     0.124 S 
ATOM     85  O   UNL A   1      32.596  34.167  28.057  1.00  0.00    -0.237 OA
ATOM     86  O   UNL A   1      32.443  35.759  29.943  1.00  0.00    -0.237 OA
ATOM     87  O   UNL A   1      33.897  36.266  28.021  1.00  0.00    -0.744 OA
ENDBRANCH  83  84
ENDBRANCH  55  78
BRANCH  67  88
ATOM     88  C   UNL A   1      39.671  34.053  37.216  1.00  0.00    -0.014 A 
ATOM     89  C   UNL A   1      38.865  33.743  38.325  1.00  0.00     0.010 A 
ATOM     90  C   UNL A   1      40.346  35.288  37.182  1.00  0.00     0.010 A 
ATOM     91  C   UNL A   1      38.730  34.657  39.377  1.00  0.00     0.020 A 
ATOM     92  C   UNL A   1      40.230  36.193  38.240  1.00  0.00     0.020 A 
ATOM     93  C   UNL A   1      39.417  35.875  39.328  1.00  0.00     0.054 A 
BRANCH  93  94
ATOM     94  S   UNL A   1      39.283  37.011  40.737  1.00  0.00     0.124 S 
ATOM     95  O   UNL A   1      38.453  38.080  40.189  1.00  0.00    -0.237 OA
ATOM     96  O   UNL A   1      38.648  36.183  41.759  1.00  0.00    -0.237 OA
ATOM     97  O   UNL A   1      40.670  37.379  41.017  1.00  0.00    -0.744 OA
ENDBRANCH  93  94
ENDBRANCH  67  88
ENDBRANCH  41  42
ENDBRANCH  33  36
ENDBRANCH  31  32
ENDBRANCH  30  31
ENDBRANCH   1  30
TORSDOF 18
ENDMDL
MODEL 2
REMARK VINA RESULT:     -11.7      4.399      7.342
REMARK SMILES [NH3+][C@H](CS[C@@H]1CC(=O)N(c2ccc3ccccc3c2)C1=O)C(=O)NCCCNC(=O)c1ccc(-c2c3nc(c(-c4ccc(S(=O)(=O)[O-])cc4)c4ccc([nH]4)c(-c4ccc(S(=O)(=O)[O-])cc4)c4nc(c(-c5ccc(S(=O)(=O)[O-])cc5)c5ccc2[nH]5)C=C4)C=C3)cc1
REMARK SMILES IDX 25 1 24 2 22 3 23 4 2 6 1 7 3 11 4 12 5 13 6 14 20 15 7 16
REMARK SMILES IDX 9 17 21 18 8 19 10 20 11 21 19 22 12 23 18 24 13 25 17 26
REMARK SMILES IDX 14 27 16 28 15 29 26 30 27 31 28 32 29 33 30 35 31 36 32 37
REMARK SMILES IDX 90 38 33 39 89 40 34 41 35 42 36 43 83 44 37 45 88 46 82 47
REMARK SMILES IDX 84 48 38 49 87 50 81 51 80 52 39 54 69 55 50 56 68 57 51 58
REMARK SMILES IDX 54 59 67 60 85 61 52 62 53 63 66 65 86 66 55 67 40 68 41 69
REMARK SMILES IDX 49 70 42 71 48 72 43 73 44 74 45 75 46 76 47 77 70 78 71 79
REMARK SMILES IDX 79 80 72 81 78 82 73 83 74 84 75 85 76 86 77 87 56 88 57 89
REMARK SMILES IDX 65 90 58 91 64 92 59 93 60 94 61 95 62 96 63 97
REMARK H PARENT 24 5 1 8 1 9 1 10 28 34 84 53 54 64
REMARK Flexibility Score: inf
ROOT
ATOM      1  C   UNL A   1      42.530  20.565  26.252  1.00  0.00     0.118 C 
ENDROOT
BRANCH   1   2
ATOM      2  N   UNL A   1      43.062  20.024  25.011  1.00  0.00    -0.351 N 
ATOM      3  C   UNL A   1      44.289  19.425  24.895  1.00  0.00     0.279 C 
ATOM      4  O   UNL A   1      44.297  18.211  24.661  1.00  0.00    -0.268 OA
ATOM      5  H   UNL A   1      42.503  20.091  24.203  1.00  0.00     0.163 HD
BRANCH   3   6
ATOM      6  C   UNL A   1      45.617  20.186  25.122  1.00  0.00     0.280 C 
BRANCH   6   7
ATOM      7  N   UNL A   1      46.577  19.332  25.857  1.00  0.00    -0.347 N 
ATOM      8  H   UNL A   1      46.451  18.359  25.577  1.00  0.00     0.345 HD
ATOM      9  H   UNL A   1      46.411  19.420  26.860  1.00  0.00     0.345 HD
ATOM     10  H   UNL A   1      47.529  19.628  25.643  1.00  0.00     0.345 HD
ENDBRANCH   6   7
BRANCH   6  11
ATOM     11  C   UNL A   1      45.608  21.654  25.620  1.00  0.00     0.145 C 
BRANCH  11  12
ATOM     12  S   UNL A   1      45.747  23.038  24.435  1.00  0.00    -0.141 SA
BRANCH  12  13
ATOM     13  C   UNL A   1      46.804  24.222  25.347  1.00  0.00     0.146 C 
ATOM     14  C   UNL A   1      46.796  23.929  26.837  1.00  0.00     0.125 C 
ATOM     15  C   UNL A   1      46.318  25.646  25.255  1.00  0.00     0.247 C 
ATOM     16  C   UNL A   1      46.113  25.113  27.456  1.00  0.00     0.235 C 
ATOM     17  N   UNL A   1      45.903  26.072  26.497  1.00  0.00    -0.250 N 
ATOM     18  O   UNL A   1      46.369  26.291  24.215  1.00  0.00    -0.273 OA
ATOM     19  O   UNL A   1      45.797  25.138  28.638  1.00  0.00    -0.274 OA
BRANCH  17  20
ATOM     20  C   UNL A   1      45.359  27.364  26.752  1.00  0.00     0.052 A 
ATOM     21  C   UNL A   1      44.061  27.706  26.360  1.00  0.00     0.027 A 
ATOM     22  C   UNL A   1      46.109  28.336  27.426  1.00  0.00     0.035 A 
ATOM     23  C   UNL A   1      43.515  28.954  26.696  1.00  0.00     0.011 A 
ATOM     24  C   UNL A   1      45.609  29.618  27.704  1.00  0.00    -0.016 A 
ATOM     25  C   UNL A   1      44.277  29.921  27.371  1.00  0.00    -0.018 A 
ATOM     26  C   UNL A   1      46.416  30.594  28.311  1.00  0.00     0.009 A 
ATOM     27  C   UNL A   1      43.758  31.179  27.727  1.00  0.00     0.009 A 
ATOM     28  C   UNL A   1      45.897  31.848  28.629  1.00  0.00     0.001 A 
ATOM     29  C   UNL A   1      44.563  32.133  28.356  1.00  0.00     0.001 A 
ENDBRANCH  17  20
ENDBRANCH  12  13
ENDBRANCH  11  12
ENDBRANCH   6  11
ENDBRANCH   3   6
ENDBRANCH   1   2
BRANCH   1  30
ATOM     30  C   UNL A   1      41.029  20.408  26.479  1.00  0.00     0.042 C 
BRANCH  30  31
ATOM     31  C   UNL A   1      40.300  21.597  27.102  1.00  0.00     0.118 C 
BRANCH  31  32
ATOM     32  N   UNL A   1      39.163  22.065  26.330  1.00  0.00    -0.352 N 
ATOM     33  C   UNL A   1      38.622  23.330  26.273  1.00  0.00     0.251 C 
ATOM     34  H   UNL A   1      38.719  21.386  25.772  1.00  0.00     0.163 HD
ATOM     35  O   UNL A   1      37.610  23.531  25.603  1.00  0.00    -0.269 OA
BRANCH  33  36
ATOM     36  C   UNL A   1      39.216  24.434  27.060  1.00  0.00     0.039 A 
ATOM     37  C   UNL A   1      40.139  25.276  26.432  1.00  0.00     0.014 A 
ATOM     38  C   UNL A   1      38.874  24.648  28.399  1.00  0.00     0.014 A 
ATOM     39  C   UNL A   1      40.665  26.374  27.120  1.00  0.00     0.010 A 
ATOM     40  C   UNL A   1      39.373  25.769  29.074  1.00  0.00     0.010 A 
ATOM     41  C   UNL A   1      40.260  26.652  28.436  1.00  0.00    -0.014 A 
BRANCH  41  42
ATOM     42  C   UNL A   1      40.725  27.889  29.125  1.00  0.00     0.031 A 
ATOM     43  C   UNL A   1      42.090  27.964  29.751  1.00  0.00     0.074 A 
ATOM     44  C   UNL A   1      39.896  28.950  29.220  1.00  0.00     0.049 A 
ATOM     45  N   UNL A   1      42.645  28.957  30.401  1.00  0.00    -0.248 NA
ATOM     46  C   UNL A   1      42.940  26.769  29.641  1.00  0.00     0.031 C 
ATOM     47  C   UNL A   1      38.537  29.011  28.677  1.00  0.00     0.029 A 
ATOM     48  N   UNL A   1      40.072  30.178  29.811  1.00  0.00    -0.354 N 
ATOM     49  C   UNL A   1      43.903  28.508  30.784  1.00  0.00     0.074 A 
ATOM     50  C   UNL A   1      44.016  27.139  30.322  1.00  0.00     0.031 C 
ATOM     51  C   UNL A   1      38.011  30.218  28.946  1.00  0.00     0.029 A 
ATOM     52  C   UNL A   1      38.976  31.003  29.709  1.00  0.00     0.049 A 
ATOM     53  H   UNL A   1      40.905  30.442  30.264  1.00  0.00     0.167 HD
ATOM     54  C   UNL A   1      44.881  29.175  31.446  1.00  0.00     0.031 A 
ATOM     55  C   UNL A   1      38.761  32.248  30.181  1.00  0.00     0.031 A 
ATOM     56  C   UNL A   1      44.774  30.534  31.910  1.00  0.00     0.049 A 
ATOM     57  C   UNL A   1      39.848  32.955  30.944  1.00  0.00     0.074 A 
ATOM     58  C   UNL A   1      45.736  31.300  32.550  1.00  0.00     0.029 A 
ATOM     59  N   UNL A   1      43.646  31.329  31.793  1.00  0.00    -0.354 N 
ATOM     60  N   UNL A   1      41.054  32.532  31.239  1.00  0.00    -0.248 NA
ATOM     61  C   UNL A   1      39.549  34.311  31.430  1.00  0.00     0.031 C 
ATOM     62  C   UNL A   1      45.171  32.540  32.865  1.00  0.00     0.029 A 
ATOM     63  C   UNL A   1      43.876  32.567  32.373  1.00  0.00     0.049 A 
ATOM     64  H   UNL A   1      42.803  31.055  31.363  1.00  0.00     0.167 HD
ATOM     65  C   UNL A   1      41.665  33.580  31.920  1.00  0.00     0.074 A 
ATOM     66  C   UNL A   1      40.701  34.658  31.988  1.00  0.00     0.031 C 
ATOM     67  C   UNL A   1      42.917  33.641  32.435  1.00  0.00     0.031 A 
BRANCH  54  68
ATOM     68  C   UNL A   1      46.161  28.433  31.725  1.00  0.00    -0.014 A 
ATOM     69  C   UNL A   1      47.235  28.478  30.819  1.00  0.00     0.010 A 
ATOM     70  C   UNL A   1      46.311  27.726  32.933  1.00  0.00     0.010 A 
ATOM     71  C   UNL A   1      48.422  27.794  31.096  1.00  0.00     0.020 A 
ATOM     72  C   UNL A   1      47.505  27.062  33.225  1.00  0.00     0.020 A 
ATOM     73  C   UNL A   1      48.547  27.085  32.294  1.00  0.00     0.054 A 
BRANCH  73  74
ATOM     74  S   UNL A   1      50.104  26.218  32.637  1.00  0.00     0.124 S 
ATOM     75  O   UNL A   1      49.880  25.728  33.995  1.00  0.00    -0.237 OA
ATOM     76  O   UNL A   1      50.136  25.192  31.597  1.00  0.00    -0.237 OA
ATOM     77  O   UNL A   1      51.117  27.261  32.510  1.00  0.00    -0.744 OA
ENDBRANCH  73  74
ENDBRANCH  54  68
BRANCH  55  78
ATOM     78  C   UNL A   1      37.453  32.914  29.939  1.00  0.00    -0.014 A 
ATOM     79  C   UNL A   1      37.224  33.629  28.751  1.00  0.00     0.010 A 
ATOM     80  C   UNL A   1      36.424  32.827  30.895  1.00  0.00     0.010 A 
ATOM     81  C   UNL A   1      35.994  34.254  28.527  1.00  0.00     0.020 A 
ATOM     82  C   UNL A   1      35.186  33.430  30.664  1.00  0.00     0.020 A 
ATOM     83  C   UNL A   1      34.982  34.150  29.485  1.00  0.00     0.054 A 
BRANCH  83  84
ATOM     84  S   UNL A   1      33.373  34.920  29.151  1.00  0.00     0.124 S 
ATOM     85  O   UNL A   1      33.765  36.215  28.606  1.00  0.00    -0.237 OA
ATOM     86  O   UNL A   1      32.769  33.990  28.199  1.00  0.00    -0.237 OA
ATOM     87  O   UNL A   1      32.734  34.957  30.464  1.00  0.00    -0.744 OA
ENDBRANCH  83  84
ENDBRANCH  55  78
BRANCH  67  88
ATOM     88  C   UNL A   1      43.346  34.925  33.093  1.00  0.00    -0.014 A 
ATOM     89  C   UNL A   1      43.850  35.997  32.337  1.00  0.00     0.010 A 
ATOM     90  C   UNL A   1      43.166  35.088  34.479  1.00  0.00     0.010 A 
ATOM     91  C   UNL A   1      44.176  37.208  32.958  1.00  0.00     0.020 A 
ATOM     92  C   UNL A   1      43.470  36.303  35.100  1.00  0.00     0.020 A 
ATOM     93  C   UNL A   1      43.980  37.354  34.335  1.00  0.00     0.054 A 
BRANCH  93  94
ATOM     94  S   UNL A   1      44.341  38.957  35.105  1.00  0.00     0.124 S 
ATOM     95  O   UNL A   1      43.969  38.719  36.497  1.00  0.00    -0.237 OA
ATOM     96  O   UNL A   1      45.771  39.120  34.855  1.00  0.00    -0.237 OA
ATOM     97  O   UNL A   1      43.479  39.891  34.381  1.00  0.00    -0.744 OA
ENDBRANCH  93  94
ENDBRANCH  67  88
ENDBRANCH  41  42
ENDBRANCH  33  36
ENDBRANCH  31  32
ENDBRANCH  30  31
ENDBRANCH   1  30
TORSDOF 18
ENDMDL
MODEL 3
REMARK VINA RESULT:     -11.7      4.163     10.471
REMARK SMILES [NH3+][C@H](CS[C@@H]1CC(=O)N(c2ccc3ccccc3c2)C1=O)C(=O)NCCCNC(=O)c1ccc(-c2c3nc(c(-c4ccc(S(=O)(=O)[O-])cc4)c4ccc([nH]4)c(-c4ccc(S(=O)(=O)[O-])cc4)c4nc(c(-c5ccc(S(=O)(=O)[O-])cc5)c5ccc2[nH]5)C=C4)C=C3)cc1
REMARK SMILES IDX 25 1 24 2 22 3 23 4 2 6 1 7 3 11 4 12 5 13 6 14 20 15 7 16
REMARK SMILES IDX 9 17 21 18 8 19 10 20 11 21 19 22 12 23 18 24 13 25 17 26
REMARK SMILES IDX 14 27 16 28 15 29 26 30 27 31 28 32 29 33 30 35 31 36 32 37
REMARK SMILES IDX 90 38 33 39 89 40 34 41 35 42 36 43 83 44 37 45 88 46 82 47
REMARK SMILES IDX 84 48 38 49 87 50 81 51 80 52 39 54 69 55 50 56 68 57 51 58
REMARK SMILES IDX 54 59 67 60 85 61 52 62 53 63 66 65 86 66 55 67 40 68 41 69
REMARK SMILES IDX 49 70 42 71 48 72 43 73 44 74 45 75 46 76 47 77 70 78 71 79
REMARK SMILES IDX 79 80 72 81 78 82 73 83 74 84 75 85 76 86 77 87 56 88 57 89
REMARK SMILES IDX 65 90 58 91 64 92 59 93 60 94 61 95 62 96 63 97
REMARK H PARENT 24 5 1 8 1 9 1 10 28 34 84 53 54 64
REMARK Flexibility Score: inf
ROOT
ATOM      1  C   UNL A   1      42.189  20.472  26.210  1.00  0.00     0.118 C 
ENDROOT
BRANCH   1   2
ATOM      2  N   UNL A   1      42.732  19.729  25.083  1.00  0.00    -0.351 N 
ATOM      3  C   UNL A   1      44.024  19.281  25.007  1.00  0.00     0.279 C 
ATOM      4  O   UNL A   1      44.193  18.056  25.050  1.00  0.00    -0.268 OA
ATOM      5  H   UNL A   1      42.131  19.536  24.327  1.00  0.00     0.163 HD
BRANCH   3   6
ATOM      6  C   UNL A   1      45.240  20.236  24.953  1.00  0.00     0.280 C 
BRANCH   6   7
ATOM      7  N   UNL A   1      46.407  19.617  25.621  1.00  0.00    -0.347 N 
ATOM      8  H   UNL A   1      46.182  19.434  26.599  1.00  0.00     0.345 HD
ATOM      9  H   UNL A   1      47.204  20.254  25.570  1.00  0.00     0.345 HD
ATOM     10  H   UNL A   1      46.642  18.742  25.155  1.00  0.00     0.345 HD
ENDBRANCH   6   7
BRANCH   6  11
ATOM     11  C   UNL A   1      45.076  21.739  25.291  1.00  0.00     0.145 C 
BRANCH  11  12
ATOM     12  S   UNL A   1      45.744  23.021  24.172  1.00  0.00    -0.141 SA
BRANCH  12  13
ATOM     13  C   UNL A   1      46.693  24.081  25.324  1.00  0.00     0.146 C 
ATOM     14  C   UNL A   1      46.467  23.664  26.766  1.00  0.00     0.125 C 
ATOM     15  C   UNL A   1      46.264  25.526  25.292  1.00  0.00     0.247 C 
ATOM     16  C   UNL A   1      45.736  24.819  27.387  1.00  0.00     0.235 C 
ATOM     17  N   UNL A   1      45.690  25.862  26.498  1.00  0.00    -0.250 N 
ATOM     18  O   UNL A   1      46.480  26.254  24.330  1.00  0.00    -0.273 OA
ATOM     19  O   UNL A   1      45.256  24.756  28.512  1.00  0.00    -0.274 OA
BRANCH  17  20
ATOM     20  C   UNL A   1      45.151  27.148  26.789  1.00  0.00     0.052 A 
ATOM     21  C   UNL A   1      43.875  27.526  26.357  1.00  0.00     0.027 A 
ATOM     22  C   UNL A   1      45.883  28.078  27.538  1.00  0.00     0.035 A 
ATOM     23  C   UNL A   1      43.330  28.766  26.727  1.00  0.00     0.011 A 
ATOM     24  C   UNL A   1      45.387  29.353  27.854  1.00  0.00    -0.016 A 
ATOM     25  C   UNL A   1      44.074  29.690  27.478  1.00  0.00    -0.018 A 
ATOM     26  C   UNL A   1      46.178  30.289  28.539  1.00  0.00     0.009 A 
ATOM     27  C   UNL A   1      43.555  30.937  27.869  1.00  0.00     0.009 A 
ATOM     28  C   UNL A   1      45.661  31.534  28.892  1.00  0.00     0.001 A 
ATOM     29  C   UNL A   1      44.343  31.850  28.576  1.00  0.00     0.001 A 
ENDBRANCH  17  20
ENDBRANCH  12  13
ENDBRANCH  11  12
ENDBRANCH   6  11
ENDBRANCH   3   6
ENDBRANCH   1   2
BRANCH   1  30
ATOM     30  C   UNL A   1      40.668  20.565  26.299  1.00  0.00     0.042 C 
BRANCH  30  31
ATOM     31  C   UNL A   1      40.091  21.857  26.872  1.00  0.00     0.118 C 
BRANCH  31  32
ATOM     32  N   UNL A   1      39.003  22.417  26.090  1.00  0.00    -0.352 N 
ATOM     33  C   UNL A   1      38.505  23.701  26.103  1.00  0.00     0.251 C 
ATOM     34  H   UNL A   1      38.561  21.795  25.468  1.00  0.00     0.163 HD
ATOM     35  O   UNL A   1      37.529  23.984  25.410  1.00  0.00    -0.269 OA
BRANCH  33  36
ATOM     36  C   UNL A   1      39.100  24.727  26.990  1.00  0.00     0.039 A 
ATOM     37  C   UNL A   1      40.023  25.623  26.444  1.00  0.00     0.014 A 
ATOM     38  C   UNL A   1      38.757  24.814  28.343  1.00  0.00     0.014 A 
ATOM     39  C   UNL A   1      40.550  26.651  27.232  1.00  0.00     0.010 A 
ATOM     40  C   UNL A   1      39.257  25.867  29.120  1.00  0.00     0.010 A 
ATOM     41  C   UNL A   1      40.146  26.805  28.568  1.00  0.00    -0.014 A 
BRANCH  41  42
ATOM     42  C   UNL A   1      40.612  27.971  29.370  1.00  0.00     0.031 A 
ATOM     43  C   UNL A   1      39.752  29.194  29.536  1.00  0.00     0.074 A 
ATOM     44  C   UNL A   1      41.840  27.947  29.929  1.00  0.00     0.049 A 
ATOM     45  N   UNL A   1      40.011  30.301  30.186  1.00  0.00    -0.248 NA
ATOM     46  C   UNL A   1      38.435  29.176  28.881  1.00  0.00     0.031 C 
ATOM     47  C   UNL A   1      42.789  26.836  29.833  1.00  0.00     0.029 A 
ATOM     48  N   UNL A   1      42.503  28.884  30.684  1.00  0.00    -0.354 N 
ATOM     49  C   UNL A   1      38.897  31.114  30.016  1.00  0.00     0.074 A 
ATOM     50  C   UNL A   1      37.974  30.385  29.171  1.00  0.00     0.031 C 
ATOM     51  C   UNL A   1      43.903  27.150  30.517  1.00  0.00     0.029 A 
ATOM     52  C   UNL A   1      43.764  28.495  31.068  1.00  0.00     0.049 A 
ATOM     53  H   UNL A   1      42.110  29.754  30.926  1.00  0.00     0.167 HD
ATOM     54  C   UNL A   1      38.657  32.348  30.525  1.00  0.00     0.031 A 
ATOM     55  C   UNL A   1      44.711  29.143  31.776  1.00  0.00     0.031 A 
ATOM     56  C   UNL A   1      39.572  33.079  31.364  1.00  0.00     0.049 A 
ATOM     57  C   UNL A   1      44.436  30.526  32.302  1.00  0.00     0.074 A 
ATOM     58  C   UNL A   1      39.387  34.316  31.960  1.00  0.00     0.029 A 
ATOM     59  N   UNL A   1      40.840  32.651  31.722  1.00  0.00    -0.354 N 
ATOM     60  N   UNL A   1      43.349  31.249  32.180  1.00  0.00    -0.248 NA
ATOM     61  C   UNL A   1      45.511  31.175  33.067  1.00  0.00     0.031 C 
ATOM     62  C   UNL A   1      40.563  34.658  32.635  1.00  0.00     0.029 A 
ATOM     63  C   UNL A   1      41.460  33.611  32.506  1.00  0.00     0.049 A 
ATOM     64  H   UNL A   1      41.242  31.792  31.456  1.00  0.00     0.167 HD
ATOM     65  C   UNL A   1      43.600  32.426  32.878  1.00  0.00     0.074 A 
ATOM     66  C   UNL A   1      44.937  32.317  33.422  1.00  0.00     0.031 C 
ATOM     67  C   UNL A   1      42.789  33.498  33.053  1.00  0.00     0.031 A 
BRANCH  54  68
ATOM     68  C   UNL A   1      37.346  33.000  30.176  1.00  0.00    -0.014 A 
ATOM     69  C   UNL A   1      37.180  33.684  28.959  1.00  0.00     0.010 A 
ATOM     70  C   UNL A   1      36.250  32.881  31.051  1.00  0.00     0.010 A 
ATOM     71  C   UNL A   1      35.953  34.275  28.641  1.00  0.00     0.020 A 
ATOM     72  C   UNL A   1      35.015  33.449  30.726  1.00  0.00     0.020 A 
ATOM     73  C   UNL A   1      34.881  34.159  29.531  1.00  0.00     0.054 A 
BRANCH  73  74
ATOM     74  S   UNL A   1      33.295  34.922  29.089  1.00  0.00     0.124 S 
ATOM     75  O   UNL A   1      32.777  33.982  28.098  1.00  0.00    -0.237 OA
ATOM     76  O   UNL A   1      32.583  34.945  30.365  1.00  0.00    -0.237 OA
ATOM     77  O   UNL A   1      33.674  36.232  28.567  1.00  0.00    -0.744 OA
ENDBRANCH  73  74
ENDBRANCH  54  68
BRANCH  55  78
ATOM     78  C   UNL A   1      46.019  28.483  32.036  1.00  0.00    -0.014 A 
ATOM     79  C   UNL A   1      47.095  28.654  31.148  1.00  0.00     0.010 A 
ATOM     80  C   UNL A   1      46.197  27.685  33.182  1.00  0.00     0.010 A 
ATOM     81  C   UNL A   1      48.322  28.032  31.394  1.00  0.00     0.020 A 
ATOM     82  C   UNL A   1      47.430  27.081  33.443  1.00  0.00     0.020 A 
ATOM     83  C   UNL A   1      48.482  27.249  32.541  1.00  0.00     0.054 A 
BRANCH  83  84
ATOM     84  S   UNL A   1      50.099  26.497  32.873  1.00  0.00     0.124 S 
ATOM     85  O   UNL A   1      50.363  26.937  34.239  1.00  0.00    -0.237 OA
ATOM     86  O   UNL A   1      49.826  25.071  32.708  1.00  0.00    -0.237 OA
ATOM     87  O   UNL A   1      50.962  27.080  31.848  1.00  0.00    -0.744 OA
ENDBRANCH  83  84
ENDBRANCH  55  78
BRANCH  67  88
ATOM     88  C   UNL A   1      43.297  34.635  33.897  1.00  0.00    -0.014 A 
ATOM     89  C   UNL A   1      43.869  35.778  33.310  1.00  0.00     0.010 A 
ATOM     90  C   UNL A   1      43.125  34.595  35.293  1.00  0.00     0.010 A 
ATOM     91  C   UNL A   1      44.270  36.856  34.108  1.00  0.00     0.020 A 
ATOM     92  C   UNL A   1      43.504  35.678  36.090  1.00  0.00     0.020 A 
ATOM     93  C   UNL A   1      44.081  36.800  35.493  1.00  0.00     0.054 A 
BRANCH  93  94
ATOM     94  S   UNL A   1      44.542  38.240  36.497  1.00  0.00     0.124 S 
ATOM     95  O   UNL A   1      44.204  39.350  35.611  1.00  0.00    -0.237 OA
ATOM     96  O   UNL A   1      43.693  38.095  37.676  1.00  0.00    -0.237 OA
ATOM     97  O   UNL A   1      45.971  38.049  36.740  1.00  0.00    -0.744 OA
ENDBRANCH  93  94
ENDBRANCH  67  88
ENDBRANCH  41  42
ENDBRANCH  33  36
ENDBRANCH  31  32
ENDBRANCH  30  31
ENDBRANCH   1  30
TORSDOF 18
ENDMDL
