MODEL 1
REMARK VINA RESULT:     -10.4      0.000      0.000
REMARK SMILES CNC(=O)c1ccc(N(CCC(=O)NCCCNC(=O)c2ccc(-c3c4nc(c(-c5ccc(S(=O)(=O)[O-])cc5)c5ccc([nH]5)c(-c5ccc(S(=O)(=O)[O-])cc5)c5nc(c(-c6ccc(S(=O)(=O)[O-])cc6)c6ccc3[nH]6)C=C5)C=C4)cc2)C2CC2)nn1
REMARK SMILES IDX 15 1 14 2 12 3 13 4 11 6 10 7 9 8 8 9 5 10 6 11 85 12 7 13
REMARK SMILES IDX 84 14 3 15 1 16 2 17 4 19 81 20 82 21 83 22 16 23 17 24
REMARK SMILES IDX 18 25 19 26 20 28 21 29 22 30 80 31 23 32 79 33 24 34 25 35
REMARK SMILES IDX 26 36 73 37 27 38 78 39 72 40 74 41 28 42 77 43 71 44 70 45
REMARK SMILES IDX 29 47 59 48 40 49 58 50 41 51 44 52 57 53 75 54 42 55 43 56
REMARK SMILES IDX 56 58 76 59 45 60 30 61 31 62 39 63 32 64 38 65 33 66 34 67
REMARK SMILES IDX 35 68 36 69 37 70 60 71 61 72 69 73 62 74 68 75 63 76 64 77
REMARK SMILES IDX 65 78 66 79 67 80 46 81 47 82 55 83 48 84 54 85 49 86 50 87
REMARK SMILES IDX 51 88 52 89 53 90
REMARK H PARENT 14 5 2 18 18 27 74 46 44 57
REMARK Flexibility Score: inf
ROOT
ATOM      1  C   UNL A   1      37.700  23.498  26.120  1.00  0.00     0.117 C 
ENDROOT
BRANCH   1   2
ATOM      2  N   UNL A   1      38.017  22.265  25.397  1.00  0.00    -0.356 N 
ATOM      3  C   UNL A   1      37.204  21.237  25.020  1.00  0.00     0.221 C 
ATOM      4  O   UNL A   1      37.709  20.117  24.914  1.00  0.00    -0.275 OA
ATOM      5  H   UNL A   1      38.962  22.162  25.144  1.00  0.00     0.163 HD
BRANCH   3   6
ATOM      6  C   UNL A   1      35.759  21.484  24.645  1.00  0.00     0.121 C 
BRANCH   6   7
ATOM      7  C   UNL A   1      34.827  21.472  25.861  1.00  0.00     0.128 C 
BRANCH   7   8
ATOM      8  N   UNL A   1      33.426  21.783  25.499  1.00  0.00    -0.352 N 
BRANCH   8   9
ATOM      9  C   UNL A   1      32.979  23.085  25.828  1.00  0.00     0.151 A 
ATOM     10  C   UNL A   1      32.043  25.638  26.323  1.00  0.00     0.150 A 
ATOM     11  C   UNL A   1      33.359  25.484  25.953  1.00  0.00     0.040 A 
ATOM     12  N   UNL A   1      31.221  24.584  26.487  1.00  0.00    -0.143 NA
ATOM     13  C   UNL A   1      33.822  24.191  25.727  1.00  0.00     0.051 A 
ATOM     14  N   UNL A   1      31.704  23.302  26.237  1.00  0.00    -0.132 NA
BRANCH  10  15
ATOM     15  C   UNL A   1      31.490  26.994  26.515  1.00  0.00     0.271 C 
ATOM     16  C   UNL A   1      30.864  27.211  24.064  1.00  0.00     0.143 C 
ATOM     17  N   UNL A   1      31.061  27.699  25.410  1.00  0.00    -0.354 N 
ATOM     18  H   UNL A   1      30.865  28.653  25.556  1.00  0.00     0.163 HD
ATOM     19  O   UNL A   1      31.465  27.508  27.628  1.00  0.00    -0.267 OA
ENDBRANCH  10  15
ENDBRANCH   8   9
BRANCH   8  20
ATOM     20  C   UNL A   1      32.553  20.614  25.261  1.00  0.00     0.084 C 
ATOM     21  C   UNL A   1      32.495  19.924  23.924  1.00  0.00     0.027 C 
ATOM     22  C   UNL A   1      32.930  19.170  25.147  1.00  0.00     0.027 C 
ENDBRANCH   8  20
ENDBRANCH   7   8
ENDBRANCH   6   7
ENDBRANCH   3   6
ENDBRANCH   1   2
BRANCH   1  23
ATOM     23  C   UNL A   1      39.026  24.200  26.416  1.00  0.00     0.042 C 
BRANCH  23  24
ATOM     24  C   UNL A   1      40.321  23.398  26.545  1.00  0.00     0.118 C 
BRANCH  24  25
ATOM     25  N   UNL A   1      41.509  23.887  25.883  1.00  0.00    -0.352 N 
ATOM     26  C   UNL A   1      42.351  24.932  26.219  1.00  0.00     0.251 C 
ATOM     27  H   UNL A   1      41.758  23.400  25.065  1.00  0.00     0.163 HD
ATOM     28  O   UNL A   1      43.325  25.116  25.485  1.00  0.00    -0.269 OA
BRANCH  26  29
ATOM     29  C   UNL A   1      42.126  25.867  27.374  1.00  0.00     0.039 A 
ATOM     30  C   UNL A   1      42.766  27.119  27.331  1.00  0.00     0.014 A 
ATOM     31  C   UNL A   1      41.356  25.577  28.501  1.00  0.00     0.014 A 
ATOM     32  C   UNL A   1      42.605  28.057  28.366  1.00  0.00     0.010 A 
ATOM     33  C   UNL A   1      41.112  26.550  29.482  1.00  0.00     0.010 A 
ATOM     34  C   UNL A   1      41.747  27.798  29.442  1.00  0.00    -0.014 A 
BRANCH  34  35
ATOM     35  C   UNL A   1      41.524  28.796  30.535  1.00  0.00     0.031 A 
ATOM     36  C   UNL A   1      42.383  28.782  31.780  1.00  0.00     0.074 A 
ATOM     37  C   UNL A   1      40.509  29.682  30.454  1.00  0.00     0.049 A 
ATOM     38  N   UNL A   1      42.287  29.516  32.862  1.00  0.00    -0.248 NA
ATOM     39  C   UNL A   1      43.472  27.795  31.826  1.00  0.00     0.031 C 
ATOM     40  C   UNL A   1      39.564  29.789  29.341  1.00  0.00     0.029 A 
ATOM     41  N   UNL A   1      40.092  30.653  31.334  1.00  0.00    -0.354 N 
ATOM     42  C   UNL A   1      43.278  29.057  33.725  1.00  0.00     0.074 A 
ATOM     43  C   UNL A   1      43.929  27.950  33.060  1.00  0.00     0.031 C 
ATOM     44  C   UNL A   1      38.694  30.779  29.595  1.00  0.00     0.029 A 
ATOM     45  C   UNL A   1      38.985  31.350  30.907  1.00  0.00     0.049 A 
ATOM     46  H   UNL A   1      40.544  30.834  32.190  1.00  0.00     0.167 HD
ATOM     47  C   UNL A   1      43.632  29.521  34.950  1.00  0.00     0.031 A 
ATOM     48  C   UNL A   1      38.268  32.327  31.500  1.00  0.00     0.031 A 
ATOM     49  C   UNL A   1      43.003  30.636  35.611  1.00  0.00     0.049 A 
ATOM     50  C   UNL A   1      38.682  32.837  32.854  1.00  0.00     0.074 A 
ATOM     51  C   UNL A   1      43.342  31.222  36.819  1.00  0.00     0.029 A 
ATOM     52  N   UNL A   1      41.904  31.328  35.128  1.00  0.00    -0.354 N 
ATOM     53  N   UNL A   1      39.670  32.437  33.618  1.00  0.00    -0.248 NA
ATOM     54  C   UNL A   1      37.891  33.940  33.419  1.00  0.00     0.031 C 
ATOM     55  C   UNL A   1      42.413  32.232  37.093  1.00  0.00     0.029 A 
ATOM     56  C   UNL A   1      41.534  32.317  36.024  1.00  0.00     0.049 A 
ATOM     57  H   UNL A   1      41.454  31.145  34.272  1.00  0.00     0.167 HD
ATOM     58  C   UNL A   1      39.632  33.251  34.745  1.00  0.00     0.074 A 
ATOM     59  C   UNL A   1      38.535  34.179  34.554  1.00  0.00     0.031 C 
ATOM     60  C   UNL A   1      40.435  33.231  35.837  1.00  0.00     0.031 A 
BRANCH  47  61
ATOM     61  C   UNL A   1      44.750  28.803  35.668  1.00  0.00    -0.014 A 
ATOM     62  C   UNL A   1      46.094  29.185  35.500  1.00  0.00     0.010 A 
ATOM     63  C   UNL A   1      44.449  27.738  36.538  1.00  0.00     0.010 A 
ATOM     64  C   UNL A   1      47.118  28.474  36.132  1.00  0.00     0.020 A 
ATOM     65  C   UNL A   1      45.469  27.046  37.200  1.00  0.00     0.020 A 
ATOM     66  C   UNL A   1      46.799  27.402  36.970  1.00  0.00     0.054 A 
BRANCH  66  67
ATOM     67  S   UNL A   1      48.149  26.487  37.764  1.00  0.00     0.124 S 
ATOM     68  O   UNL A   1      47.840  26.668  39.180  1.00  0.00    -0.237 OA
ATOM     69  O   UNL A   1      47.965  25.132  37.250  1.00  0.00    -0.237 OA
ATOM     70  O   UNL A   1      49.353  27.169  37.296  1.00  0.00    -0.744 OA
ENDBRANCH  66  67
ENDBRANCH  47  61
BRANCH  48  71
ATOM     71  C   UNL A   1      37.078  32.889  30.803  1.00  0.00    -0.014 A 
ATOM     72  C   UNL A   1      35.777  32.555  31.219  1.00  0.00     0.010 A 
ATOM     73  C   UNL A   1      37.245  33.800  29.743  1.00  0.00     0.010 A 
ATOM     74  C   UNL A   1      34.665  33.121  30.588  1.00  0.00     0.020 A 
ATOM     75  C   UNL A   1      36.136  34.389  29.130  1.00  0.00     0.020 A 
ATOM     76  C   UNL A   1      34.853  34.042  29.554  1.00  0.00     0.054 A 
BRANCH  76  77
ATOM     77  S   UNL A   1      33.397  34.835  28.814  1.00  0.00     0.124 S 
ATOM     78  O   UNL A   1      32.488  34.922  29.950  1.00  0.00    -0.237 OA
ATOM     79  O   UNL A   1      33.942  36.104  28.338  1.00  0.00    -0.237 OA
ATOM     80  O   UNL A   1      33.001  33.902  27.760  1.00  0.00    -0.744 OA
ENDBRANCH  76  77
ENDBRANCH  48  71
BRANCH  60  81
ATOM     81  C   UNL A   1      40.180  34.259  36.910  1.00  0.00    -0.014 A 
ATOM     82  C   UNL A   1      40.761  35.539  36.850  1.00  0.00     0.010 A 
ATOM     83  C   UNL A   1      39.304  33.956  37.968  1.00  0.00     0.010 A 
ATOM     84  C   UNL A   1      40.495  36.484  37.846  1.00  0.00     0.020 A 
ATOM     85  C   UNL A   1      39.014  34.906  38.950  1.00  0.00     0.020 A 
ATOM     86  C   UNL A   1      39.623  36.161  38.891  1.00  0.00     0.054 A 
BRANCH  86  87
ATOM     87  S   UNL A   1      39.264  37.417  40.149  1.00  0.00     0.124 S 
ATOM     88  O   UNL A   1      38.682  36.615  41.222  1.00  0.00    -0.237 OA
ATOM     89  O   UNL A   1      40.585  37.978  40.429  1.00  0.00    -0.237 OA
ATOM     90  O   UNL A   1      38.338  38.326  39.477  1.00  0.00    -0.744 OA
ENDBRANCH  86  87
ENDBRANCH  60  81
ENDBRANCH  34  35
ENDBRANCH  26  29
ENDBRANCH  24  25
ENDBRANCH  23  24
ENDBRANCH   1  23
TORSDOF 18
ENDMDL
MODEL 2
REMARK VINA RESULT:     -10.2      4.307     10.281
REMARK SMILES CNC(=O)c1ccc(N(CCC(=O)NCCCNC(=O)c2ccc(-c3c4nc(c(-c5ccc(S(=O)(=O)[O-])cc5)c5ccc([nH]5)c(-c5ccc(S(=O)(=O)[O-])cc5)c5nc(c(-c6ccc(S(=O)(=O)[O-])cc6)c6ccc3[nH]6)C=C5)C=C4)cc2)C2CC2)nn1
REMARK SMILES IDX 15 1 14 2 12 3 13 4 11 6 10 7 9 8 8 9 5 10 6 11 85 12 7 13
REMARK SMILES IDX 84 14 3 15 1 16 2 17 4 19 81 20 82 21 83 22 16 23 17 24
REMARK SMILES IDX 18 25 19 26 20 28 21 29 22 30 80 31 23 32 79 33 24 34 25 35
REMARK SMILES IDX 26 36 73 37 27 38 78 39 72 40 74 41 28 42 77 43 71 44 70 45
REMARK SMILES IDX 29 47 59 48 40 49 58 50 41 51 44 52 57 53 75 54 42 55 43 56
REMARK SMILES IDX 56 58 76 59 45 60 30 61 31 62 39 63 32 64 38 65 33 66 34 67
REMARK SMILES IDX 35 68 36 69 37 70 60 71 61 72 69 73 62 74 68 75 63 76 64 77
REMARK SMILES IDX 65 78 66 79 67 80 46 81 47 82 55 83 48 84 54 85 49 86 50 87
REMARK SMILES IDX 51 88 52 89 53 90
REMARK H PARENT 14 5 2 18 18 27 74 46 44 57
REMARK Flexibility Score: inf
ROOT
ATOM      1  C   UNL A   1      33.317  27.620  24.419  1.00  0.00     0.117 C 
ENDROOT
BRANCH   1   2
ATOM      2  N   UNL A   1      32.145  27.374  23.577  1.00  0.00    -0.356 N 
ATOM      3  C   UNL A   1      32.014  26.599  22.462  1.00  0.00     0.221 C 
ATOM      4  O   UNL A   1      31.159  26.925  21.635  1.00  0.00    -0.275 OA
ATOM      5  H   UNL A   1      31.325  27.839  23.859  1.00  0.00     0.163 HD
BRANCH   3   6
ATOM      6  C   UNL A   1      32.818  25.327  22.299  1.00  0.00     0.121 C 
BRANCH   6   7
ATOM      7  C   UNL A   1      32.251  24.165  23.119  1.00  0.00     0.128 C 
BRANCH   7   8
ATOM      8  N   UNL A   1      32.845  24.088  24.472  1.00  0.00    -0.352 N 
BRANCH   8   9
ATOM      9  C   UNL A   1      34.085  23.412  24.563  1.00  0.00     0.151 A 
ATOM     10  C   UNL A   1      36.459  22.033  24.881  1.00  0.00     0.150 A 
ATOM     11  C   UNL A   1      36.434  23.372  25.192  1.00  0.00     0.040 A 
ATOM     12  N   UNL A   1      35.378  21.393  24.394  1.00  0.00    -0.143 NA
ATOM     13  C   UNL A   1      35.237  24.059  25.007  1.00  0.00     0.051 A 
ATOM     14  N   UNL A   1      34.189  22.099  24.235  1.00  0.00    -0.132 NA
BRANCH  10  15
ATOM     15  C   UNL A   1      37.689  21.249  25.118  1.00  0.00     0.271 C 
ATOM     16  C   UNL A   1      38.827  23.180  26.312  1.00  0.00     0.143 C 
ATOM     17  N   UNL A   1      38.776  21.877  25.690  1.00  0.00    -0.354 N 
ATOM     18  H   UNL A   1      39.623  21.374  25.671  1.00  0.00     0.163 HD
ATOM     19  O   UNL A   1      37.763  20.078  24.763  1.00  0.00    -0.267 OA
ENDBRANCH  10  15
ENDBRANCH   8   9
BRANCH   8  20
ATOM     20  C   UNL A   1      31.911  24.315  25.594  1.00  0.00     0.084 C 
ATOM     21  C   UNL A   1      30.801  23.349  25.912  1.00  0.00     0.027 C 
ATOM     22  C   UNL A   1      31.867  23.638  26.929  1.00  0.00     0.027 C 
ENDBRANCH   8  20
ENDBRANCH   7   8
ENDBRANCH   6   7
ENDBRANCH   3   6
ENDBRANCH   1   2
BRANCH   1  23
ATOM     23  C   UNL A   1      32.840  28.418  25.632  1.00  0.00     0.042 C 
BRANCH  23  24
ATOM     24  C   UNL A   1      33.801  28.754  26.772  1.00  0.00     0.118 C 
BRANCH  24  25
ATOM     25  N   UNL A   1      33.646  30.014  27.463  1.00  0.00    -0.352 N 
ATOM     26  C   UNL A   1      34.547  30.725  28.236  1.00  0.00     0.251 C 
ATOM     27  H   UNL A   1      32.760  30.431  27.369  1.00  0.00     0.163 HD
ATOM     28  O   UNL A   1      34.157  31.804  28.688  1.00  0.00    -0.269 OA
BRANCH  26  29
ATOM     29  C   UNL A   1      35.928  30.247  28.586  1.00  0.00     0.039 A 
ATOM     30  C   UNL A   1      36.923  30.352  27.598  1.00  0.00     0.014 A 
ATOM     31  C   UNL A   1      36.293  29.676  29.806  1.00  0.00     0.014 A 
ATOM     32  C   UNL A   1      38.243  29.935  27.842  1.00  0.00     0.010 A 
ATOM     33  C   UNL A   1      37.629  29.355  30.086  1.00  0.00     0.010 A 
ATOM     34  C   UNL A   1      38.623  29.461  29.105  1.00  0.00    -0.014 A 
BRANCH  34  35
ATOM     35  C   UNL A   1      40.030  29.050  29.405  1.00  0.00     0.031 A 
ATOM     36  C   UNL A   1      40.998  30.019  30.046  1.00  0.00     0.074 A 
ATOM     37  C   UNL A   1      40.476  27.827  29.047  1.00  0.00     0.049 A 
ATOM     38  N   UNL A   1      42.273  29.867  30.308  1.00  0.00    -0.248 NA
ATOM     39  C   UNL A   1      40.470  31.342  30.412  1.00  0.00     0.031 C 
ATOM     40  C   UNL A   1      39.679  26.797  28.379  1.00  0.00     0.029 A 
ATOM     41  N   UNL A   1      41.715  27.247  29.183  1.00  0.00    -0.354 N 
ATOM     42  C   UNL A   1      42.704  31.082  30.837  1.00  0.00     0.074 A 
ATOM     43  C   UNL A   1      41.565  31.973  30.810  1.00  0.00     0.031 C 
ATOM     44  C   UNL A   1      40.440  25.709  28.180  1.00  0.00     0.029 A 
ATOM     45  C   UNL A   1      41.793  25.975  28.664  1.00  0.00     0.049 A 
ATOM     46  H   UNL A   1      42.477  27.699  29.612  1.00  0.00     0.167 HD
ATOM     47  C   UNL A   1      43.924  31.424  31.318  1.00  0.00     0.031 A 
ATOM     48  C   UNL A   1      42.829  25.117  28.568  1.00  0.00     0.031 A 
ATOM     49  C   UNL A   1      45.058  30.537  31.368  1.00  0.00     0.049 A 
ATOM     50  C   UNL A   1      44.174  25.509  29.118  1.00  0.00     0.074 A 
ATOM     51  C   UNL A   1      46.312  30.772  31.906  1.00  0.00     0.029 A 
ATOM     52  N   UNL A   1      45.080  29.249  30.856  1.00  0.00    -0.354 N 
ATOM     53  N   UNL A   1      44.536  26.636  29.681  1.00  0.00    -0.248 NA
ATOM     54  C   UNL A   1      45.246  24.507  29.031  1.00  0.00     0.031 C 
ATOM     55  C   UNL A   1      47.110  29.648  31.668  1.00  0.00     0.029 A 
ATOM     56  C   UNL A   1      46.334  28.687  31.040  1.00  0.00     0.049 A 
ATOM     57  H   UNL A   1      44.317  28.798  30.427  1.00  0.00     0.167 HD
ATOM     58  C   UNL A   1      45.871  26.472  30.034  1.00  0.00     0.074 A 
ATOM     59  C   UNL A   1      46.247  25.130  29.637  1.00  0.00     0.031 C 
ATOM     60  C   UNL A   1      46.708  27.355  30.633  1.00  0.00     0.031 A 
BRANCH  47  61
ATOM     61  C   UNL A   1      44.102  32.838  31.819  1.00  0.00    -0.014 A 
ATOM     62  C   UNL A   1      43.916  33.165  33.175  1.00  0.00     0.010 A 
ATOM     63  C   UNL A   1      44.477  33.854  30.920  1.00  0.00     0.010 A 
ATOM     64  C   UNL A   1      44.033  34.488  33.609  1.00  0.00     0.020 A 
ATOM     65  C   UNL A   1      44.629  35.174  31.357  1.00  0.00     0.020 A 
ATOM     66  C   UNL A   1      44.379  35.486  32.693  1.00  0.00     0.054 A 
BRANCH  66  67
ATOM     67  S   UNL A   1      44.508  37.198  33.281  1.00  0.00     0.124 S 
ATOM     68  O   UNL A   1      44.957  37.894  32.077  1.00  0.00    -0.237 OA
ATOM     69  O   UNL A   1      43.142  37.496  33.704  1.00  0.00    -0.237 OA
ATOM     70  O   UNL A   1      45.490  37.122  34.360  1.00  0.00    -0.744 OA
ENDBRANCH  66  67
ENDBRANCH  47  61
BRANCH  48  71
ATOM     71  C   UNL A   1      42.626  23.792  27.921  1.00  0.00    -0.014 A 
ATOM     72  C   UNL A   1      42.964  23.591  26.571  1.00  0.00     0.010 A 
ATOM     73  C   UNL A   1      42.131  22.708  28.670  1.00  0.00     0.010 A 
ATOM     74  C   UNL A   1      42.811  22.332  25.982  1.00  0.00     0.020 A 
ATOM     75  C   UNL A   1      42.004  21.442  28.093  1.00  0.00     0.020 A 
ATOM     76  C   UNL A   1      42.342  21.263  26.750  1.00  0.00     0.054 A 
BRANCH  76  77
ATOM     77  S   UNL A   1      42.242  19.617  25.991  1.00  0.00     0.124 S 
ATOM     78  O   UNL A   1      40.820  19.511  25.682  1.00  0.00    -0.237 OA
ATOM     79  O   UNL A   1      43.133  19.749  24.841  1.00  0.00    -0.237 OA
ATOM     80  O   UNL A   1      42.725  18.727  27.045  1.00  0.00    -0.744 OA
ENDBRANCH  76  77
ENDBRANCH  48  71
BRANCH  60  81
ATOM     81  C   UNL A   1      48.114  26.897  30.924  1.00  0.00    -0.014 A 
ATOM     82  C   UNL A   1      49.184  27.233  30.074  1.00  0.00     0.010 A 
ATOM     83  C   UNL A   1      48.376  26.160  32.094  1.00  0.00     0.010 A 
ATOM     84  C   UNL A   1      50.484  26.813  30.374  1.00  0.00     0.020 A 
ATOM     85  C   UNL A   1      49.678  25.763  32.411  1.00  0.00     0.020 A 
ATOM     86  C   UNL A   1      50.722  26.080  31.541  1.00  0.00     0.054 A 
BRANCH  86  87
ATOM     87  S   UNL A   1      52.423  25.581  31.927  1.00  0.00     0.124 S 
ATOM     88  O   UNL A   1      52.786  26.526  32.979  1.00  0.00    -0.237 OA
ATOM     89  O   UNL A   1      52.261  24.193  32.357  1.00  0.00    -0.237 OA
ATOM     90  O   UNL A   1      53.131  25.755  30.660  1.00  0.00    -0.744 OA
ENDBRANCH  86  87
ENDBRANCH  60  81
ENDBRANCH  34  35
ENDBRANCH  26  29
ENDBRANCH  24  25
ENDBRANCH  23  24
ENDBRANCH   1  23
TORSDOF 18
ENDMDL
MODEL 3
REMARK VINA RESULT:     -10.1      2.014      2.613
REMARK SMILES CNC(=O)c1ccc(N(CCC(=O)NCCCNC(=O)c2ccc(-c3c4nc(c(-c5ccc(S(=O)(=O)[O-])cc5)c5ccc([nH]5)c(-c5ccc(S(=O)(=O)[O-])cc5)c5nc(c(-c6ccc(S(=O)(=O)[O-])cc6)c6ccc3[nH]6)C=C5)C=C4)cc2)C2CC2)nn1
REMARK SMILES IDX 15 1 14 2 12 3 13 4 11 6 10 7 9 8 8 9 5 10 6 11 85 12 7 13
REMARK SMILES IDX 84 14 3 15 1 16 2 17 4 19 81 20 82 21 83 22 16 23 17 24
REMARK SMILES IDX 18 25 19 26 20 28 21 29 22 30 80 31 23 32 79 33 24 34 25 35
REMARK SMILES IDX 26 36 73 37 27 38 78 39 72 40 74 41 28 42 77 43 71 44 70 45
REMARK SMILES IDX 29 47 59 48 40 49 58 50 41 51 44 52 57 53 75 54 42 55 43 56
REMARK SMILES IDX 56 58 76 59 45 60 30 61 31 62 39 63 32 64 38 65 33 66 34 67
REMARK SMILES IDX 35 68 36 69 37 70 60 71 61 72 69 73 62 74 68 75 63 76 64 77
REMARK SMILES IDX 65 78 66 79 67 80 46 81 47 82 55 83 48 84 54 85 49 86 50 87
REMARK SMILES IDX 51 88 52 89 53 90
REMARK H PARENT 14 5 2 18 18 27 74 46 44 57
REMARK Flexibility Score: inf
ROOT
ATOM      1  C   UNL A   1      37.501  23.380  25.678  1.00  0.00     0.117 C 
ENDROOT
BRANCH   1   2
ATOM      2  N   UNL A   1      37.606  22.231  24.778  1.00  0.00    -0.356 N 
ATOM      3  C   UNL A   1      37.111  20.967  24.908  1.00  0.00     0.221 C 
ATOM      4  O   UNL A   1      37.721  20.051  24.352  1.00  0.00    -0.275 OA
ATOM      5  H   UNL A   1      38.114  22.395  23.951  1.00  0.00     0.163 HD
BRANCH   3   6
ATOM      6  C   UNL A   1      35.800  20.715  25.623  1.00  0.00     0.121 C 
BRANCH   6   7
ATOM      7  C   UNL A   1      34.594  20.798  24.683  1.00  0.00     0.128 C 
BRANCH   7   8
ATOM      8  N   UNL A   1      33.600  21.800  25.130  1.00  0.00    -0.352 N 
BRANCH   8   9
ATOM      9  C   UNL A   1      33.328  22.846  24.218  1.00  0.00     0.151 A 
ATOM     10  C   UNL A   1      32.830  24.790  22.316  1.00  0.00     0.150 A 
ATOM     11  C   UNL A   1      34.056  24.783  22.940  1.00  0.00     0.040 A 
ATOM     12  N   UNL A   1      31.864  23.907  22.634  1.00  0.00    -0.143 NA
ATOM     13  C   UNL A   1      34.285  23.812  23.910  1.00  0.00     0.051 A 
ATOM     14  N   UNL A   1      32.125  22.934  23.596  1.00  0.00    -0.132 NA
BRANCH  10  15
ATOM     15  C   UNL A   1      32.563  25.763  21.238  1.00  0.00     0.271 C 
ATOM     16  C   UNL A   1      31.279  27.307  22.793  1.00  0.00     0.143 C 
ATOM     17  N   UNL A   1      31.752  26.846  21.507  1.00  0.00    -0.354 N 
ATOM     18  H   UNL A   1      31.460  27.370  20.726  1.00  0.00     0.163 HD
ATOM     19  O   UNL A   1      33.006  25.584  20.109  1.00  0.00    -0.267 OA
ENDBRANCH  10  15
ENDBRANCH   8   9
BRANCH   8  20
ATOM     20  C   UNL A   1      33.353  21.849  26.586  1.00  0.00     0.084 C 
ATOM     21  C   UNL A   1      33.882  22.967  27.445  1.00  0.00     0.027 C 
ATOM     22  C   UNL A   1      32.404  22.722  27.347  1.00  0.00     0.027 C 
ENDBRANCH   8  20
ENDBRANCH   7   8
ENDBRANCH   6   7
ENDBRANCH   3   6
ENDBRANCH   1   2
BRANCH   1  23
ATOM     23  C   UNL A   1      38.732  23.357  26.583  1.00  0.00     0.042 C 
BRANCH  23  24
ATOM     24  C   UNL A   1      39.391  24.660  27.038  1.00  0.00     0.118 C 
BRANCH  24  25
ATOM     25  N   UNL A   1      40.186  25.404  26.088  1.00  0.00    -0.352 N 
ATOM     26  C   UNL A   1      40.863  26.602  26.235  1.00  0.00     0.251 C 
ATOM     27  H   UNL A   1      40.258  24.994  25.196  1.00  0.00     0.163 HD
ATOM     28  O   UNL A   1      41.498  27.003  25.257  1.00  0.00    -0.269 OA
BRANCH  26  29
ATOM     29  C   UNL A   1      40.829  27.449  27.476  1.00  0.00     0.039 A 
ATOM     30  C   UNL A   1      40.133  26.945  28.589  1.00  0.00     0.014 A 
ATOM     31  C   UNL A   1      41.409  28.713  27.601  1.00  0.00     0.014 A 
ATOM     32  C   UNL A   1      40.056  27.667  29.792  1.00  0.00     0.010 A 
ATOM     33  C   UNL A   1      41.422  29.387  28.830  1.00  0.00     0.010 A 
ATOM     34  C   UNL A   1      40.730  28.886  29.941  1.00  0.00    -0.014 A 
BRANCH  34  35
ATOM     35  C   UNL A   1      40.701  29.655  31.224  1.00  0.00     0.031 A 
ATOM     36  C   UNL A   1      41.753  29.427  32.286  1.00  0.00     0.074 A 
ATOM     37  C   UNL A   1      39.695  30.518  31.480  1.00  0.00     0.049 A 
ATOM     38  N   UNL A   1      41.844  29.942  33.488  1.00  0.00    -0.248 NA
ATOM     39  C   UNL A   1      42.825  28.473  31.965  1.00  0.00     0.031 C 
ATOM     40  C   UNL A   1      38.581  30.813  30.578  1.00  0.00     0.029 A 
ATOM     41  N   UNL A   1      39.438  31.298  32.584  1.00  0.00    -0.354 N 
ATOM     42  C   UNL A   1      42.960  29.350  34.075  1.00  0.00     0.074 A 
ATOM     43  C   UNL A   1      43.481  28.402  33.114  1.00  0.00     0.031 C 
ATOM     44  C   UNL A   1      37.773  31.718  31.154  1.00  0.00     0.029 A 
ATOM     45  C   UNL A   1      38.283  32.039  32.484  1.00  0.00     0.049 A 
ATOM     46  H   UNL A   1      40.027  31.324  33.373  1.00  0.00     0.167 HD
ATOM     47  C   UNL A   1      43.516  29.582  35.290  1.00  0.00     0.031 A 
ATOM     48  C   UNL A   1      37.684  32.870  33.361  1.00  0.00     0.031 A 
ATOM     49  C   UNL A   1      43.016  30.539  36.244  1.00  0.00     0.049 A 
ATOM     50  C   UNL A   1      38.320  33.125  34.700  1.00  0.00     0.074 A 
ATOM     51  C   UNL A   1      43.555  30.895  37.469  1.00  0.00     0.029 A 
ATOM     52  N   UNL A   1      41.859  31.286  36.087  1.00  0.00    -0.354 N 
ATOM     53  N   UNL A   1      39.417  32.610  35.202  1.00  0.00    -0.248 NA
ATOM     54  C   UNL A   1      37.645  34.085  35.586  1.00  0.00     0.031 C 
ATOM     55  C   UNL A   1      42.694  31.815  38.077  1.00  0.00     0.029 A 
ATOM     56  C   UNL A   1      41.652  32.081  37.203  1.00  0.00     0.049 A 
ATOM     57  H   UNL A   1      41.271  31.258  35.298  1.00  0.00     0.167 HD
ATOM     58  C   UNL A   1      39.574  33.197  36.453  1.00  0.00     0.074 A 
ATOM     59  C   UNL A   1      38.469  34.120  36.623  1.00  0.00     0.031 C 
ATOM     60  C   UNL A   1      40.546  32.989  37.375  1.00  0.00     0.031 A 
BRANCH  47  61
ATOM     61  C   UNL A   1      44.729  28.767  35.666  1.00  0.00    -0.014 A 
ATOM     62  C   UNL A   1      46.030  29.191  35.334  1.00  0.00     0.010 A 
ATOM     63  C   UNL A   1      44.568  27.563  36.378  1.00  0.00     0.010 A 
ATOM     64  C   UNL A   1      47.136  28.396  35.644  1.00  0.00     0.020 A 
ATOM     65  C   UNL A   1      45.676  26.781  36.721  1.00  0.00     0.020 A 
ATOM     66  C   UNL A   1      46.951  27.190  36.327  1.00  0.00     0.054 A 
BRANCH  66  67
ATOM     67  S   UNL A   1      48.404  26.170  36.702  1.00  0.00     0.124 S 
ATOM     68  O   UNL A   1      48.551  25.396  35.471  1.00  0.00    -0.237 OA
ATOM     69  O   UNL A   1      49.443  27.168  36.943  1.00  0.00    -0.237 OA
ATOM     70  O   UNL A   1      47.996  25.402  37.876  1.00  0.00    -0.744 OA
ENDBRANCH  66  67
ENDBRANCH  47  61
BRANCH  48  71
ATOM     71  C   UNL A   1      36.401  33.527  32.987  1.00  0.00    -0.014 A 
ATOM     72  C   UNL A   1      35.169  32.900  33.248  1.00  0.00     0.010 A 
ATOM     73  C   UNL A   1      36.406  34.809  32.407  1.00  0.00     0.010 A 
ATOM     74  C   UNL A   1      33.968  33.542  32.934  1.00  0.00     0.020 A 
ATOM     75  C   UNL A   1      35.207  35.466  32.119  1.00  0.00     0.020 A 
ATOM     76  C   UNL A   1      33.994  34.826  32.381  1.00  0.00     0.054 A 
BRANCH  76  77
ATOM     77  S   UNL A   1      32.422  35.678  32.071  1.00  0.00     0.124 S 
ATOM     78  O   UNL A   1      32.714  37.031  32.528  1.00  0.00    -0.237 OA
ATOM     79  O   UNL A   1      32.259  35.516  30.628  1.00  0.00    -0.237 OA
ATOM     80  O   UNL A   1      31.464  34.931  32.885  1.00  0.00    -0.744 OA
ENDBRANCH  76  77
ENDBRANCH  48  71
BRANCH  60  81
ATOM     81  C   UNL A   1      40.482  33.791  38.650  1.00  0.00    -0.014 A 
ATOM     82  C   UNL A   1      39.774  33.325  39.773  1.00  0.00     0.010 A 
ATOM     83  C   UNL A   1      41.183  35.008  38.741  1.00  0.00     0.010 A 
ATOM     84  C   UNL A   1      39.744  34.076  40.952  1.00  0.00     0.020 A 
ATOM     85  C   UNL A   1      41.178  35.747  39.927  1.00  0.00     0.020 A 
ATOM     86  C   UNL A   1      40.446  35.284  41.021  1.00  0.00     0.054 A 
BRANCH  86  87
ATOM     87  S   UNL A   1      40.423  36.220  42.574  1.00  0.00     0.124 S 
ATOM     88  O   UNL A   1      41.213  37.399  42.230  1.00  0.00    -0.237 OA
ATOM     89  O   UNL A   1      38.996  36.459  42.784  1.00  0.00    -0.237 OA
ATOM     90  O   UNL A   1      41.044  35.312  43.536  1.00  0.00    -0.744 OA
ENDBRANCH  86  87
ENDBRANCH  60  81
ENDBRANCH  34  35
ENDBRANCH  26  29
ENDBRANCH  24  25
ENDBRANCH  23  24
ENDBRANCH   1  23
TORSDOF 18
ENDMDL
