MODEL 1
REMARK VINA RESULT:     -12.1      0.000      0.000
REMARK SMILES CC1(C)[C@@]2(CC[C@@H]2C(=O)NCc2ccco2)[C@]1(C)C(=O)NCCCNC(=O)c1ccc(-c2c3nc(c(-c4ccc(S(=O)(=O)[O-])cc4)c4ccc([nH]4)c(-c4ccc(S(=O)(=O)[O-])cc4)c4nc(c(-c5ccc(S(=O)(=O)[O-])cc5)c5ccc2[nH]5)C=C4)C=C3)cc1
REMARK SMILES IDX 23 1 22 2 21 3 19 4 20 5 17 7 1 8 2 9 3 10 4 11 18 12 5 13
REMARK SMILES IDX 7 14 6 15 8 16 9 17 10 18 11 20 12 21 13 22 16 23 14 24
REMARK SMILES IDX 15 25 24 26 25 27 26 28 27 30 28 31 29 32 87 33 30 34 86 35
REMARK SMILES IDX 31 36 32 37 33 38 80 39 34 40 85 41 79 42 81 43 35 44 84 45
REMARK SMILES IDX 78 46 77 47 36 49 66 50 47 51 65 52 48 53 51 54 64 55 82 56
REMARK SMILES IDX 49 57 50 58 63 60 83 61 52 62 37 63 38 64 46 65 39 66 45 67
REMARK SMILES IDX 40 68 41 69 42 70 43 71 44 72 67 73 68 74 76 75 69 76 75 77
REMARK SMILES IDX 70 78 71 79 72 80 73 81 74 82 53 83 54 84 62 85 55 86 61 87
REMARK SMILES IDX 56 88 57 89 58 90 59 91 60 92
REMARK H PARENT 21 6 10 19 25 29 81 48 51 59
REMARK Flexibility Score: inf
ROOT
ATOM      1  C   UNL A   1      31.975  28.073  27.383  1.00  0.00     0.042 C 
ENDROOT
BRANCH   1   2
ATOM      2  C   UNL A   1      31.714  27.005  26.332  1.00  0.00     0.117 C 
BRANCH   2   3
ATOM      3  N   UNL A   1      31.347  25.732  26.913  1.00  0.00    -0.356 N 
ATOM      4  C   UNL A   1      31.654  24.423  26.720  1.00  0.00     0.227 C 
ATOM      5  O   UNL A   1      30.928  23.663  27.373  1.00  0.00    -0.274 OA
ATOM      6  H   UNL A   1      30.698  25.845  27.645  1.00  0.00     0.163 HD
BRANCH   4   7
ATOM      7  C   UNL A   1      32.735  23.776  25.858  1.00  0.00     0.059 C 
ATOM      8  C   UNL A   1      34.125  25.846  24.998  1.00  0.00     0.013 C 
ATOM      9  C   UNL A   1      33.795  24.376  24.897  1.00  0.00    -0.013 C 
ATOM     10  C   UNL A   1      35.073  23.610  24.564  1.00  0.00     0.013 C 
ATOM     11  C   UNL A   1      32.509  23.787  24.332  1.00  0.00     0.003 C 
ATOM     12  C   UNL A   1      33.209  22.470  26.537  1.00  0.00     0.023 C 
ATOM     13  C   UNL A   1      32.292  22.481  23.624  1.00  0.00     0.010 C 
ATOM     14  C   UNL A   1      31.405  24.463  23.566  1.00  0.00     0.086 C 
ATOM     15  C   UNL A   1      31.055  23.093  22.980  1.00  0.00     0.015 C 
BRANCH  14  16
ATOM     16  C   UNL A   1      31.675  25.644  22.609  1.00  0.00     0.224 C 
ATOM     17  O   UNL A   1      32.566  25.577  21.744  1.00  0.00    -0.275 OA
ATOM     18  N   UNL A   1      30.999  26.836  22.630  1.00  0.00    -0.349 N 
ATOM     19  H   UNL A   1      31.315  27.488  21.964  1.00  0.00     0.163 HD
BRANCH  18  20
ATOM     20  C   UNL A   1      29.910  27.313  23.447  1.00  0.00     0.191 C 
BRANCH  20  21
ATOM     21  C   UNL A   1      29.233  28.461  22.797  1.00  0.00     0.122 A 
ATOM     22  C   UNL A   1      27.937  28.940  22.792  1.00  0.00     0.047 A 
ATOM     23  O   UNL A   1      30.030  29.284  22.052  1.00  0.00    -0.467 OA
ATOM     24  C   UNL A   1      27.946  30.118  22.007  1.00  0.00     0.042 A 
ATOM     25  C   UNL A   1      29.241  30.283  21.579  1.00  0.00     0.195 A 
ENDBRANCH  20  21
ENDBRANCH  18  20
ENDBRANCH  14  16
ENDBRANCH   4   7
ENDBRANCH   2   3
ENDBRANCH   1   2
BRANCH   1  26
ATOM     26  C   UNL A   1      33.398  28.607  27.395  1.00  0.00     0.118 C 
BRANCH  26  27
ATOM     27  N   UNL A   1      33.471  30.038  27.659  1.00  0.00    -0.352 N 
ATOM     28  C   UNL A   1      34.497  30.796  28.183  1.00  0.00     0.251 C 
ATOM     29  H   UNL A   1      32.660  30.544  27.427  1.00  0.00     0.163 HD
ATOM     30  O   UNL A   1      34.298  31.962  28.494  1.00  0.00    -0.269 OA
BRANCH  28  31
ATOM     31  C   UNL A   1      35.829  30.185  28.400  1.00  0.00     0.039 A 
ATOM     32  C   UNL A   1      36.748  30.153  27.347  1.00  0.00     0.014 A 
ATOM     33  C   UNL A   1      36.175  29.659  29.643  1.00  0.00     0.014 A 
ATOM     34  C   UNL A   1      38.046  29.683  27.574  1.00  0.00     0.010 A 
ATOM     35  C   UNL A   1      37.494  29.301  29.896  1.00  0.00     0.010 A 
ATOM     36  C   UNL A   1      38.445  29.304  28.865  1.00  0.00    -0.014 A 
BRANCH  36  37
ATOM     37  C   UNL A   1      39.838  28.892  29.184  1.00  0.00     0.031 A 
ATOM     38  C   UNL A   1      40.808  29.910  29.721  1.00  0.00     0.074 A 
ATOM     39  C   UNL A   1      40.268  27.655  28.864  1.00  0.00     0.049 A 
ATOM     40  N   UNL A   1      42.104  29.821  29.871  1.00  0.00    -0.248 NA
ATOM     41  C   UNL A   1      40.251  31.222  30.089  1.00  0.00     0.031 C 
ATOM     42  C   UNL A   1      39.445  26.592  28.284  1.00  0.00     0.029 A 
ATOM     43  N   UNL A   1      41.519  27.094  28.953  1.00  0.00    -0.354 N 
ATOM     44  C   UNL A   1      42.522  31.078  30.293  1.00  0.00     0.074 A 
ATOM     45  C   UNL A   1      41.348  31.921  30.337  1.00  0.00     0.031 C 
ATOM     46  C   UNL A   1      40.208  25.507  28.076  1.00  0.00     0.029 A 
ATOM     47  C   UNL A   1      41.584  25.811  28.460  1.00  0.00     0.049 A 
ATOM     48  H   UNL A   1      42.295  27.565  29.334  1.00  0.00     0.167 HD
ATOM     49  C   UNL A   1      43.768  31.492  30.623  1.00  0.00     0.031 A 
ATOM     50  C   UNL A   1      42.633  24.979  28.308  1.00  0.00     0.031 A 
ATOM     51  C   UNL A   1      44.923  30.637  30.620  1.00  0.00     0.049 A 
ATOM     52  C   UNL A   1      44.000  25.436  28.732  1.00  0.00     0.074 A 
ATOM     53  C   UNL A   1      46.211  30.929  31.030  1.00  0.00     0.029 A 
ATOM     54  N   UNL A   1      44.927  29.319  30.188  1.00  0.00    -0.354 N 
ATOM     55  N   UNL A   1      44.365  26.605  29.201  1.00  0.00    -0.248 NA
ATOM     56  C   UNL A   1      45.095  24.462  28.618  1.00  0.00     0.031 C 
ATOM     57  C   UNL A   1      47.005  29.799  30.808  1.00  0.00     0.029 A 
ATOM     58  C   UNL A   1      46.200  28.789  30.304  1.00  0.00     0.049 A 
ATOM     59  H   UNL A   1      44.141  28.832  29.848  1.00  0.00     0.167 HD
ATOM     60  C   UNL A   1      45.728  26.502  29.459  1.00  0.00     0.074 A 
ATOM     61  C   UNL A   1      46.120  25.154  29.100  1.00  0.00     0.031 C 
ATOM     62  C   UNL A   1      46.572  27.440  29.952  1.00  0.00     0.031 A 
BRANCH  49  63
ATOM     63  C   UNL A   1      43.938  32.940  31.000  1.00  0.00    -0.014 A 
ATOM     64  C   UNL A   1      44.254  33.916  30.038  1.00  0.00     0.010 A 
ATOM     65  C   UNL A   1      43.788  33.330  32.343  1.00  0.00     0.010 A 
ATOM     66  C   UNL A   1      44.489  35.239  30.421  1.00  0.00     0.020 A 
ATOM     67  C   UNL A   1      43.990  34.658  32.727  1.00  0.00     0.020 A 
ATOM     68  C   UNL A   1      44.367  35.598  31.767  1.00  0.00     0.054 A 
BRANCH  68  69
ATOM     69  S   UNL A   1      44.699  37.317  32.243  1.00  0.00     0.124 S 
ATOM     70  O   UNL A   1      44.018  38.058  31.184  1.00  0.00    -0.237 OA
ATOM     71  O   UNL A   1      44.087  37.410  33.566  1.00  0.00    -0.237 OA
ATOM     72  O   UNL A   1      46.157  37.405  32.226  1.00  0.00    -0.744 OA
ENDBRANCH  68  69
ENDBRANCH  49  63
BRANCH  50  73
ATOM     73  C   UNL A   1      42.410  23.625  27.732  1.00  0.00    -0.014 A 
ATOM     74  C   UNL A   1      42.541  23.409  26.350  1.00  0.00     0.010 A 
ATOM     75  C   UNL A   1      42.137  22.530  28.574  1.00  0.00     0.010 A 
ATOM     76  C   UNL A   1      42.412  22.121  25.819  1.00  0.00     0.020 A 
ATOM     77  C   UNL A   1      42.031  21.239  28.048  1.00  0.00     0.020 A 
ATOM     78  C   UNL A   1      42.167  21.043  26.673  1.00  0.00     0.054 A 
BRANCH  78  79
ATOM     79  S   UNL A   1      42.106  19.368  25.975  1.00  0.00     0.124 S 
ATOM     80  O   UNL A   1      42.990  19.486  24.821  1.00  0.00    -0.237 OA
ATOM     81  O   UNL A   1      42.607  18.547  27.075  1.00  0.00    -0.237 OA
ATOM     82  O   UNL A   1      40.690  19.177  25.664  1.00  0.00    -0.744 OA
ENDBRANCH  78  79
ENDBRANCH  50  73
BRANCH  62  83
ATOM     83  C   UNL A   1      48.007  27.047  30.176  1.00  0.00    -0.014 A 
ATOM     84  C   UNL A   1      48.993  27.323  29.215  1.00  0.00     0.010 A 
ATOM     85  C   UNL A   1      48.386  26.499  31.415  1.00  0.00     0.010 A 
ATOM     86  C   UNL A   1      50.337  27.058  29.490  1.00  0.00     0.020 A 
ATOM     87  C   UNL A   1      49.730  26.253  31.702  1.00  0.00     0.020 A 
ATOM     88  C   UNL A   1      50.698  26.531  30.735  1.00  0.00     0.054 A 
BRANCH  88  89
ATOM     89  S   UNL A   1      52.458  26.286  31.104  1.00  0.00     0.124 S 
ATOM     90  O   UNL A   1      53.039  26.201  29.768  1.00  0.00    -0.237 OA
ATOM     91  O   UNL A   1      52.798  27.487  31.862  1.00  0.00    -0.237 OA
ATOM     92  O   UNL A   1      52.480  25.044  31.874  1.00  0.00    -0.744 OA
ENDBRANCH  88  89
ENDBRANCH  62  83
ENDBRANCH  36  37
ENDBRANCH  28  31
ENDBRANCH  26  27
ENDBRANCH   1  26
TORSDOF 16
ENDMDL
MODEL 2
REMARK VINA RESULT:     -12.0      4.694     10.146
REMARK SMILES CC1(C)[C@@]2(CC[C@@H]2C(=O)NCc2ccco2)[C@]1(C)C(=O)NCCCNC(=O)c1ccc(-c2c3nc(c(-c4ccc(S(=O)(=O)[O-])cc4)c4ccc([nH]4)c(-c4ccc(S(=O)(=O)[O-])cc4)c4nc(c(-c5ccc(S(=O)(=O)[O-])cc5)c5ccc2[nH]5)C=C4)C=C3)cc1
REMARK SMILES IDX 23 1 22 2 21 3 19 4 20 5 17 7 1 8 2 9 3 10 4 11 18 12 5 13
REMARK SMILES IDX 7 14 6 15 8 16 9 17 10 18 11 20 12 21 13 22 16 23 14 24
REMARK SMILES IDX 15 25 24 26 25 27 26 28 27 30 28 31 29 32 87 33 30 34 86 35
REMARK SMILES IDX 31 36 32 37 33 38 80 39 34 40 85 41 79 42 81 43 35 44 84 45
REMARK SMILES IDX 78 46 77 47 36 49 66 50 47 51 65 52 48 53 51 54 64 55 82 56
REMARK SMILES IDX 49 57 50 58 63 60 83 61 52 62 37 63 38 64 46 65 39 66 45 67
REMARK SMILES IDX 40 68 41 69 42 70 43 71 44 72 67 73 68 74 76 75 69 76 75 77
REMARK SMILES IDX 70 78 71 79 72 80 73 81 74 82 53 83 54 84 62 85 55 86 61 87
REMARK SMILES IDX 56 88 57 89 58 90 59 91 60 92
REMARK H PARENT 21 6 10 19 25 29 81 48 51 59
REMARK Flexibility Score: inf
ROOT
ATOM      1  C   UNL A   1      37.052  23.469  25.351  1.00  0.00     0.042 C 
ENDROOT
BRANCH   1   2
ATOM      2  C   UNL A   1      35.663  24.081  25.258  1.00  0.00     0.117 C 
BRANCH   2   3
ATOM      3  N   UNL A   1      35.132  24.055  23.913  1.00  0.00    -0.356 N 
ATOM      4  C   UNL A   1      33.923  24.215  23.315  1.00  0.00     0.227 C 
ATOM      5  O   UNL A   1      33.943  23.921  22.114  1.00  0.00    -0.274 OA
ATOM      6  H   UNL A   1      35.839  23.872  23.252  1.00  0.00     0.163 HD
BRANCH   4   7
ATOM      7  C   UNL A   1      32.593  24.703  23.886  1.00  0.00     0.059 C 
ATOM      8  C   UNL A   1      31.596  26.145  21.916  1.00  0.00     0.013 C 
ATOM      9  C   UNL A   1      31.556  25.734  23.369  1.00  0.00    -0.013 C 
ATOM     10  C   UNL A   1      30.099  25.672  23.819  1.00  0.00     0.013 C 
ATOM     11  C   UNL A   1      32.559  26.143  24.440  1.00  0.00     0.003 C 
ATOM     12  C   UNL A   1      31.951  23.565  24.712  1.00  0.00     0.023 C 
ATOM     13  C   UNL A   1      32.348  26.345  25.912  1.00  0.00     0.010 C 
ATOM     14  C   UNL A   1      33.646  27.180  24.384  1.00  0.00     0.086 C 
ATOM     15  C   UNL A   1      33.567  27.256  25.910  1.00  0.00     0.015 C 
BRANCH  14  16
ATOM     16  C   UNL A   1      33.500  28.476  23.557  1.00  0.00     0.224 C 
ATOM     17  O   UNL A   1      34.386  28.831  22.760  1.00  0.00    -0.275 OA
ATOM     18  N   UNL A   1      32.432  29.332  23.631  1.00  0.00    -0.349 N 
ATOM     19  H   UNL A   1      32.512  30.123  23.050  1.00  0.00     0.163 HD
BRANCH  18  20
ATOM     20  C   UNL A   1      31.214  29.291  24.400  1.00  0.00     0.191 C 
BRANCH  20  21
ATOM     21  C   UNL A   1      30.052  29.670  23.561  1.00  0.00     0.122 A 
ATOM     22  C   UNL A   1      29.420  29.098  22.473  1.00  0.00     0.047 A 
ATOM     23  O   UNL A   1      29.400  30.815  23.923  1.00  0.00    -0.467 OA
ATOM     24  C   UNL A   1      28.323  29.937  22.158  1.00  0.00     0.042 A 
ATOM     25  C   UNL A   1      28.356  30.967  23.067  1.00  0.00     0.195 A 
ENDBRANCH  20  21
ENDBRANCH  18  20
ENDBRANCH  14  16
ENDBRANCH   4   7
ENDBRANCH   2   3
ENDBRANCH   1   2
BRANCH   1  26
ATOM     26  C   UNL A   1      37.957  24.122  26.383  1.00  0.00     0.118 C 
BRANCH  26  27
ATOM     27  N   UNL A   1      39.372  23.867  26.148  1.00  0.00    -0.352 N 
ATOM     28  C   UNL A   1      40.483  24.587  26.533  1.00  0.00     0.251 C 
ATOM     29  H   UNL A   1      39.566  23.051  25.632  1.00  0.00     0.163 HD
ATOM     30  O   UNL A   1      41.583  24.300  26.082  1.00  0.00    -0.269 OA
BRANCH  28  31
ATOM     31  C   UNL A   1      40.335  25.729  27.465  1.00  0.00     0.039 A 
ATOM     32  C   UNL A   1      39.499  25.600  28.579  1.00  0.00     0.014 A 
ATOM     33  C   UNL A   1      41.031  26.916  27.250  1.00  0.00     0.014 A 
ATOM     34  C   UNL A   1      39.442  26.628  29.525  1.00  0.00     0.010 A 
ATOM     35  C   UNL A   1      41.062  27.885  28.245  1.00  0.00     0.010 A 
ATOM     36  C   UNL A   1      40.266  27.758  29.393  1.00  0.00    -0.014 A 
BRANCH  36  37
ATOM     37  C   UNL A   1      40.320  28.833  30.418  1.00  0.00     0.031 A 
ATOM     38  C   UNL A   1      41.253  28.694  31.591  1.00  0.00     0.074 A 
ATOM     39  C   UNL A   1      39.443  29.856  30.373  1.00  0.00     0.049 A 
ATOM     40  N   UNL A   1      41.314  29.401  32.689  1.00  0.00    -0.248 NA
ATOM     41  C   UNL A   1      42.212  27.578  31.542  1.00  0.00     0.031 C 
ATOM     42  C   UNL A   1      38.446  30.077  29.322  1.00  0.00     0.029 A 
ATOM     43  N   UNL A   1      39.227  30.887  31.255  1.00  0.00    -0.354 N 
ATOM     44  C   UNL A   1      42.272  28.780  33.484  1.00  0.00     0.074 A 
ATOM     45  C   UNL A   1      42.737  27.620  32.757  1.00  0.00     0.031 C 
ATOM     46  C   UNL A   1      37.732  31.175  29.616  1.00  0.00     0.029 A 
ATOM     47  C   UNL A   1      38.184  31.709  30.898  1.00  0.00     0.049 A 
ATOM     48  H   UNL A   1      39.768  31.024  32.066  1.00  0.00     0.167 HD
ATOM     49  C   UNL A   1      42.731  29.148  34.703  1.00  0.00     0.031 A 
ATOM     50  C   UNL A   1      37.632  32.759  31.537  1.00  0.00     0.031 A 
ATOM     51  C   UNL A   1      42.297  30.328  35.400  1.00  0.00     0.049 A 
ATOM     52  C   UNL A   1      38.190  33.187  32.864  1.00  0.00     0.074 A 
ATOM     53  C   UNL A   1      42.768  30.844  36.593  1.00  0.00     0.029 A 
ATOM     54  N   UNL A   1      41.292  31.177  34.963  1.00  0.00    -0.354 N 
ATOM     55  N   UNL A   1      39.150  32.633  33.568  1.00  0.00    -0.248 NA
ATOM     56  C   UNL A   1      37.605  34.385  33.482  1.00  0.00     0.031 C 
ATOM     57  C   UNL A   1      42.019  31.984  36.899  1.00  0.00     0.029 A 
ATOM     58  C   UNL A   1      41.114  32.205  35.871  1.00  0.00     0.049 A 
ATOM     59  H   UNL A   1      40.779  31.066  34.129  1.00  0.00     0.167 HD
ATOM     60  C   UNL A   1      39.298  33.427  34.700  1.00  0.00     0.074 A 
ATOM     61  C   UNL A   1      38.334  34.503  34.585  1.00  0.00     0.031 C 
ATOM     62  C   UNL A   1      40.157  33.276  35.736  1.00  0.00     0.031 A 
BRANCH  49  63
ATOM     63  C   UNL A   1      43.744  28.249  35.360  1.00  0.00    -0.014 A 
ATOM     64  C   UNL A   1      43.353  27.205  36.217  1.00  0.00     0.010 A 
ATOM     65  C   UNL A   1      45.115  28.459  35.121  1.00  0.00     0.010 A 
ATOM     66  C   UNL A   1      44.313  26.436  36.880  1.00  0.00     0.020 A 
ATOM     67  C   UNL A   1      46.078  27.670  35.758  1.00  0.00     0.020 A 
ATOM     68  C   UNL A   1      45.670  26.682  36.655  1.00  0.00     0.054 A 
BRANCH  68  69
ATOM     69  S   UNL A   1      46.896  25.686  37.545  1.00  0.00     0.124 S 
ATOM     70  O   UNL A   1      47.628  26.707  38.291  1.00  0.00    -0.237 OA
ATOM     71  O   UNL A   1      46.066  24.794  38.351  1.00  0.00    -0.237 OA
ATOM     72  O   UNL A   1      47.652  25.033  36.478  1.00  0.00    -0.744 OA
ENDBRANCH  68  69
ENDBRANCH  49  63
BRANCH  50  73
ATOM     73  C   UNL A   1      36.488  33.475  30.909  1.00  0.00    -0.014 A 
ATOM     74  C   UNL A   1      35.295  33.674  31.623  1.00  0.00     0.010 A 
ATOM     75  C   UNL A   1      36.615  34.024  29.619  1.00  0.00     0.010 A 
ATOM     76  C   UNL A   1      34.250  34.418  31.062  1.00  0.00     0.020 A 
ATOM     77  C   UNL A   1      35.581  34.786  29.066  1.00  0.00     0.020 A 
ATOM     78  C   UNL A   1      34.404  34.977  29.791  1.00  0.00     0.054 A 
BRANCH  78  79
ATOM     79  S   UNL A   1      33.077  36.022  29.126  1.00  0.00     0.124 S 
ATOM     80  O   UNL A   1      32.305  35.070  28.336  1.00  0.00    -0.237 OA
ATOM     81  O   UNL A   1      32.425  36.515  30.337  1.00  0.00    -0.237 OA
ATOM     82  O   UNL A   1      33.793  37.039  28.359  1.00  0.00    -0.744 OA
ENDBRANCH  78  79
ENDBRANCH  50  73
BRANCH  62  83
ATOM     83  C   UNL A   1      40.136  34.314  36.825  1.00  0.00    -0.014 A 
ATOM     84  C   UNL A   1      40.928  35.471  36.740  1.00  0.00     0.010 A 
ATOM     85  C   UNL A   1      39.222  34.180  37.887  1.00  0.00     0.010 A 
ATOM     86  C   UNL A   1      40.807  36.478  37.701  1.00  0.00     0.020 A 
ATOM     87  C   UNL A   1      39.083  35.193  38.837  1.00  0.00     0.020 A 
ATOM     88  C   UNL A   1      39.881  36.337  38.740  1.00  0.00     0.054 A 
BRANCH  88  89
ATOM     89  S   UNL A   1      39.673  37.699  39.920  1.00  0.00     0.124 S 
ATOM     90  O   UNL A   1      40.823  38.545  39.612  1.00  0.00    -0.237 OA
ATOM     91  O   UNL A   1      38.372  38.250  39.549  1.00  0.00    -0.237 OA
ATOM     92  O   UNL A   1      39.716  37.039  41.223  1.00  0.00    -0.744 OA
ENDBRANCH  88  89
ENDBRANCH  62  83
ENDBRANCH  36  37
ENDBRANCH  28  31
ENDBRANCH  26  27
ENDBRANCH   1  26
TORSDOF 16
ENDMDL
MODEL 3
REMARK VINA RESULT:     -12.0      1.841      3.907
REMARK SMILES CC1(C)[C@@]2(CC[C@@H]2C(=O)NCc2ccco2)[C@]1(C)C(=O)NCCCNC(=O)c1ccc(-c2c3nc(c(-c4ccc(S(=O)(=O)[O-])cc4)c4ccc([nH]4)c(-c4ccc(S(=O)(=O)[O-])cc4)c4nc(c(-c5ccc(S(=O)(=O)[O-])cc5)c5ccc2[nH]5)C=C4)C=C3)cc1
REMARK SMILES IDX 23 1 22 2 21 3 19 4 20 5 17 7 1 8 2 9 3 10 4 11 18 12 5 13
REMARK SMILES IDX 7 14 6 15 8 16 9 17 10 18 11 20 12 21 13 22 16 23 14 24
REMARK SMILES IDX 15 25 24 26 25 27 26 28 27 30 28 31 29 32 87 33 30 34 86 35
REMARK SMILES IDX 31 36 32 37 33 38 80 39 34 40 85 41 79 42 81 43 35 44 84 45
REMARK SMILES IDX 78 46 77 47 36 49 66 50 47 51 65 52 48 53 51 54 64 55 82 56
REMARK SMILES IDX 49 57 50 58 63 60 83 61 52 62 37 63 38 64 46 65 39 66 45 67
REMARK SMILES IDX 40 68 41 69 42 70 43 71 44 72 67 73 68 74 76 75 69 76 75 77
REMARK SMILES IDX 70 78 71 79 72 80 73 81 74 82 53 83 54 84 62 85 55 86 61 87
REMARK SMILES IDX 56 88 57 89 58 90 59 91 60 92
REMARK H PARENT 21 6 10 19 25 29 81 48 51 59
REMARK Flexibility Score: inf
ROOT
ATOM      1  C   UNL A   1      32.133  28.368  27.059  1.00  0.00     0.042 C 
ENDROOT
BRANCH   1   2
ATOM      2  C   UNL A   1      32.067  26.943  26.530  1.00  0.00     0.117 C 
BRANCH   2   3
ATOM      3  N   UNL A   1      33.366  26.428  26.156  1.00  0.00    -0.356 N 
ATOM      4  C   UNL A   1      33.855  25.409  25.403  1.00  0.00     0.227 C 
ATOM      5  O   UNL A   1      35.078  25.267  25.531  1.00  0.00    -0.274 OA
ATOM      6  H   UNL A   1      34.092  26.961  26.557  1.00  0.00     0.163 HD
BRANCH   4   7
ATOM      7  C   UNL A   1      33.144  24.457  24.444  1.00  0.00     0.059 C 
ATOM      8  C   UNL A   1      31.239  23.420  25.943  1.00  0.00     0.013 C 
ATOM      9  C   UNL A   1      32.049  23.382  24.669  1.00  0.00    -0.013 C 
ATOM     10  C   UNL A   1      31.140  22.940  23.526  1.00  0.00     0.013 C 
ATOM     11  C   UNL A   1      33.508  22.961  24.552  1.00  0.00     0.003 C 
ATOM     12  C   UNL A   1      33.067  25.113  23.046  1.00  0.00     0.023 C 
ATOM     13  C   UNL A   1      34.219  22.307  23.403  1.00  0.00     0.010 C 
ATOM     14  C   UNL A   1      34.394  22.296  25.568  1.00  0.00     0.086 C 
ATOM     15  C   UNL A   1      35.238  21.777  24.402  1.00  0.00     0.015 C 
BRANCH  14  16
ATOM     16  C   UNL A   1      33.844  21.292  26.604  1.00  0.00     0.224 C 
ATOM     17  O   UNL A   1      34.047  21.451  27.820  1.00  0.00    -0.275 OA
ATOM     18  N   UNL A   1      33.123  20.169  26.294  1.00  0.00    -0.349 N 
ATOM     19  H   UNL A   1      32.869  19.627  27.076  1.00  0.00     0.163 HD
BRANCH  18  20
ATOM     20  C   UNL A   1      32.666  19.631  25.036  1.00  0.00     0.191 C 
BRANCH  20  21
ATOM     21  C   UNL A   1      33.270  18.301  24.786  1.00  0.00     0.122 A 
ATOM     22  C   UNL A   1      34.465  17.870  24.244  1.00  0.00     0.047 A 
ATOM     23  O   UNL A   1      32.538  17.223  25.200  1.00  0.00    -0.467 OA
ATOM     24  C   UNL A   1      34.463  16.457  24.334  1.00  0.00     0.042 A 
ATOM     25  C   UNL A   1      33.269  16.113  24.921  1.00  0.00     0.195 A 
ENDBRANCH  20  21
ENDBRANCH  18  20
ENDBRANCH  14  16
ENDBRANCH   4   7
ENDBRANCH   2   3
ENDBRANCH   1   2
BRANCH   1  26
ATOM     26  C   UNL A   1      33.543  28.904  27.245  1.00  0.00     0.118 C 
BRANCH  26  27
ATOM     27  N   UNL A   1      33.575  30.274  27.740  1.00  0.00    -0.352 N 
ATOM     28  C   UNL A   1      34.557  30.946  28.435  1.00  0.00     0.251 C 
ATOM     29  H   UNL A   1      32.767  30.803  27.549  1.00  0.00     0.163 HD
ATOM     30  O   UNL A   1      34.320  32.045  28.919  1.00  0.00    -0.269 OA
BRANCH  28  31
ATOM     31  C   UNL A   1      35.888  30.322  28.622  1.00  0.00     0.039 A 
ATOM     32  C   UNL A   1      36.781  30.277  27.547  1.00  0.00     0.014 A 
ATOM     33  C   UNL A   1      36.258  29.797  29.858  1.00  0.00     0.014 A 
ATOM     34  C   UNL A   1      38.079  29.795  27.745  1.00  0.00     0.010 A 
ATOM     35  C   UNL A   1      37.579  29.427  30.081  1.00  0.00     0.010 A 
ATOM     36  C   UNL A   1      38.505  29.416  29.028  1.00  0.00    -0.014 A 
BRANCH  36  37
ATOM     37  C   UNL A   1      39.901  28.991  29.314  1.00  0.00     0.031 A 
ATOM     38  C   UNL A   1      40.891  29.998  29.834  1.00  0.00     0.074 A 
ATOM     39  C   UNL A   1      40.313  27.751  28.980  1.00  0.00     0.049 A 
ATOM     40  N   UNL A   1      42.190  29.896  29.956  1.00  0.00    -0.248 NA
ATOM     41  C   UNL A   1      40.353  31.313  30.221  1.00  0.00     0.031 C 
ATOM     42  C   UNL A   1      39.468  26.698  28.413  1.00  0.00     0.029 A 
ATOM     43  N   UNL A   1      41.561  27.179  29.039  1.00  0.00    -0.354 N 
ATOM     44  C   UNL A   1      42.627  31.148  30.374  1.00  0.00     0.074 A 
ATOM     45  C   UNL A   1      41.462  32.001  30.448  1.00  0.00     0.031 C 
ATOM     46  C   UNL A   1      40.217  25.608  28.183  1.00  0.00     0.029 A 
ATOM     47  C   UNL A   1      41.604  25.898  28.539  1.00  0.00     0.049 A 
ATOM     48  H   UNL A   1      42.349  27.641  29.405  1.00  0.00     0.167 HD
ATOM     49  C   UNL A   1      43.884  31.550  30.679  1.00  0.00     0.031 A 
ATOM     50  C   UNL A   1      42.642  25.058  28.360  1.00  0.00     0.031 A 
ATOM     51  C   UNL A   1      45.031  30.684  30.648  1.00  0.00     0.049 A 
ATOM     52  C   UNL A   1      44.022  25.500  28.756  1.00  0.00     0.074 A 
ATOM     53  C   UNL A   1      46.330  30.964  31.031  1.00  0.00     0.029 A 
ATOM     54  N   UNL A   1      45.014  29.369  30.210  1.00  0.00    -0.354 N 
ATOM     55  N   UNL A   1      44.407  26.665  29.223  1.00  0.00    -0.248 NA
ATOM     56  C   UNL A   1      45.106  24.518  28.615  1.00  0.00     0.031 C 
ATOM     57  C   UNL A   1      47.109  29.828  30.787  1.00  0.00     0.029 A 
ATOM     58  C   UNL A   1      46.284  28.827  30.296  1.00  0.00     0.049 A 
ATOM     59  H   UNL A   1      44.217  28.890  29.884  1.00  0.00     0.167 HD
ATOM     60  C   UNL A   1      45.774  26.548  29.451  1.00  0.00     0.074 A 
ATOM     61  C   UNL A   1      46.147  25.199  29.078  1.00  0.00     0.031 C 
ATOM     62  C   UNL A   1      46.637  27.477  29.930  1.00  0.00     0.031 A 
BRANCH  49  63
ATOM     63  C   UNL A   1      44.074  32.994  31.059  1.00  0.00    -0.014 A 
ATOM     64  C   UNL A   1      44.115  33.400  32.405  1.00  0.00     0.010 A 
ATOM     65  C   UNL A   1      44.205  33.965  30.049  1.00  0.00     0.010 A 
ATOM     66  C   UNL A   1      44.209  34.755  32.734  1.00  0.00     0.020 A 
ATOM     67  C   UNL A   1      44.332  35.319  30.374  1.00  0.00     0.020 A 
ATOM     68  C   UNL A   1      44.305  35.707  31.714  1.00  0.00     0.054 A 
BRANCH  68  69
ATOM     69  S   UNL A   1      44.403  37.460  32.166  1.00  0.00     0.124 S 
ATOM     70  O   UNL A   1      45.769  37.562  32.675  1.00  0.00    -0.237 OA
ATOM     71  O   UNL A   1      44.156  38.137  30.895  1.00  0.00    -0.237 OA
ATOM     72  O   UNL A   1      43.352  37.619  33.168  1.00  0.00    -0.744 OA
ENDBRANCH  68  69
ENDBRANCH  49  63
BRANCH  50  73
ATOM     73  C   UNL A   1      42.395  23.708  27.783  1.00  0.00    -0.014 A 
ATOM     74  C   UNL A   1      42.580  23.477  26.410  1.00  0.00     0.010 A 
ATOM     75  C   UNL A   1      42.045  22.630  28.618  1.00  0.00     0.010 A 
ATOM     76  C   UNL A   1      42.427  22.190  25.882  1.00  0.00     0.020 A 
ATOM     77  C   UNL A   1      41.914  21.340  28.097  1.00  0.00     0.020 A 
ATOM     78  C   UNL A   1      42.104  21.128  26.730  1.00  0.00     0.054 A 
BRANCH  78  79
ATOM     79  S   UNL A   1      42.011  19.451  26.041  1.00  0.00     0.124 S 
ATOM     80  O   UNL A   1      42.885  19.552  24.877  1.00  0.00    -0.237 OA
ATOM     81  O   UNL A   1      42.513  18.629  27.139  1.00  0.00    -0.237 OA
ATOM     82  O   UNL A   1      40.590  19.280  25.746  1.00  0.00    -0.744 OA
ENDBRANCH  78  79
ENDBRANCH  50  73
BRANCH  62  83
ATOM     83  C   UNL A   1      48.073  27.070  30.121  1.00  0.00    -0.014 A 
ATOM     84  C   UNL A   1      49.022  27.258  29.102  1.00  0.00     0.010 A 
ATOM     85  C   UNL A   1      48.495  26.602  31.379  1.00  0.00     0.010 A 
ATOM     86  C   UNL A   1      50.371  26.984  29.340  1.00  0.00     0.020 A 
ATOM     87  C   UNL A   1      49.845  26.349  31.626  1.00  0.00     0.020 A 
ATOM     88  C   UNL A   1      50.776  26.538  30.602  1.00  0.00     0.054 A 
BRANCH  88  89
ATOM     89  S   UNL A   1      52.545  26.282  30.914  1.00  0.00     0.124 S 
ATOM     90  O   UNL A   1      53.080  26.175  29.560  1.00  0.00    -0.237 OA
ATOM     91  O   UNL A   1      52.921  27.491  31.644  1.00  0.00    -0.237 OA
ATOM     92  O   UNL A   1      52.584  25.051  31.700  1.00  0.00    -0.744 OA
ENDBRANCH  88  89
ENDBRANCH  62  83
ENDBRANCH  36  37
ENDBRANCH  28  31
ENDBRANCH  26  27
ENDBRANCH   1  26
TORSDOF 16
ENDMDL
