MODEL 1
REMARK VINA RESULT:     -12.0      0.000      0.000
REMARK SMILES CCC(CC)(NC(=O)c1cc(C)ccc1OC)C(=O)NCCCNC(=O)c1ccc(-c2c3nc(c(-c4ccc(S(=O)(=O)[O-])cc4)c4ccc([nH]4)c(-c4ccc(S(=O)(=O)[O-])cc4)c4nc(c(-c5ccc(S(=O)(=O)[O-])cc5)c5ccc2[nH]5)C=C4)C=C3)cc1
REMARK SMILES IDX 22 1 21 2 20 3 18 4 19 5 3 7 2 8 1 9 4 10 5 11 6 12 7 13
REMARK SMILES IDX 8 15 9 16 10 17 15 18 11 19 14 20 12 21 13 22 16 23 17 24
REMARK SMILES IDX 23 25 24 26 25 27 26 29 27 30 28 31 86 32 29 33 85 34 30 35
REMARK SMILES IDX 31 36 32 37 79 38 33 39 84 40 78 41 80 42 34 43 83 44 77 45
REMARK SMILES IDX 76 46 35 48 65 49 46 50 64 51 47 52 50 53 63 54 81 55 48 56
REMARK SMILES IDX 49 57 62 59 82 60 51 61 36 62 37 63 45 64 38 65 44 66 39 67
REMARK SMILES IDX 40 68 41 69 42 70 43 71 66 72 67 73 75 74 68 75 74 76 69 77
REMARK SMILES IDX 70 78 71 79 72 80 73 81 52 82 53 83 61 84 54 85 60 86 55 87
REMARK SMILES IDX 56 88 57 89 58 90 59 91
REMARK H PARENT 20 6 6 14 24 28 80 47 50 58
REMARK Flexibility Score: inf
ROOT
ATOM      1  C   UNL A   1      38.050  21.167  25.613  1.00  0.00     0.042 C 
ENDROOT
BRANCH   1   2
ATOM      2  C   UNL A   1      36.897  20.552  24.725  1.00  0.00     0.117 C 
BRANCH   2   3
ATOM      3  N   UNL A   1      35.478  20.268  25.113  1.00  0.00    -0.354 N 
ATOM      4  C   UNL A   1      34.210  20.796  25.221  1.00  0.00     0.245 C 
ATOM      5  O   UNL A   1      33.349  19.924  25.451  1.00  0.00    -0.272 OA
ATOM      6  H   UNL A   1      35.435  19.330  25.411  1.00  0.00     0.163 HD
BRANCH   4   7
ATOM      7  C   UNL A   1      33.698  22.330  25.173  1.00  0.00     0.118 C 
BRANCH   7   8
ATOM      8  C   UNL A   1      33.525  22.748  23.657  1.00  0.00     0.035 C 
ATOM      9  C   UNL A   1      32.532  21.992  22.784  1.00  0.00     0.007 C 
ENDBRANCH   7   8
BRANCH   7  10
ATOM     10  C   UNL A   1      34.813  23.164  25.859  1.00  0.00     0.035 C 
ATOM     11  C   UNL A   1      35.027  22.968  27.354  1.00  0.00     0.007 C 
ENDBRANCH   7  10
BRANCH   7  12
ATOM     12  N   UNL A   1      32.327  22.781  25.738  1.00  0.00    -0.338 N 
ATOM     13  C   UNL A   1      31.818  23.934  26.327  1.00  0.00     0.255 C 
ATOM     14  H   UNL A   1      31.646  22.073  25.661  1.00  0.00     0.164 HD
ATOM     15  O   UNL A   1      30.954  23.840  27.197  1.00  0.00    -0.269 OA
BRANCH  13  16
ATOM     16  C   UNL A   1      32.176  25.263  25.803  1.00  0.00     0.082 A 
ATOM     17  C   UNL A   1      33.026  26.199  26.399  1.00  0.00     0.021 A 
ATOM     18  C   UNL A   1      31.529  25.679  24.675  1.00  0.00     0.131 A 
ATOM     19  C   UNL A   1      33.481  27.269  25.617  1.00  0.00    -0.050 A 
ATOM     20  C   UNL A   1      32.277  26.427  23.785  1.00  0.00     0.047 A 
ATOM     21  C   UNL A   1      33.968  28.582  26.145  1.00  0.00     0.044 C 
ATOM     22  C   UNL A   1      33.356  27.137  24.249  1.00  0.00     0.007 A 
BRANCH  18  23
ATOM     23  O   UNL A   1      30.258  25.307  24.356  1.00  0.00    -0.496 OA
ATOM     24  C   UNL A   1      29.403  26.328  23.826  1.00  0.00     0.278 C 
ENDBRANCH  18  23
ENDBRANCH  13  16
ENDBRANCH   7  12
ENDBRANCH   4   7
ENDBRANCH   2   3
ENDBRANCH   1   2
BRANCH   1  25
ATOM     25  C   UNL A   1      38.491  22.648  25.740  1.00  0.00     0.118 C 
BRANCH  25  26
ATOM     26  N   UNL A   1      38.571  23.268  27.047  1.00  0.00    -0.352 N 
ATOM     27  C   UNL A   1      39.794  23.820  27.482  1.00  0.00     0.251 C 
ATOM     28  H   UNL A   1      37.777  23.305  27.627  1.00  0.00     0.163 HD
ATOM     29  O   UNL A   1      40.868  23.293  27.421  1.00  0.00    -0.269 OA
BRANCH  27  30
ATOM     30  C   UNL A   1      39.716  25.302  27.603  1.00  0.00     0.039 A 
ATOM     31  C   UNL A   1      40.150  26.257  26.679  1.00  0.00     0.014 A 
ATOM     32  C   UNL A   1      39.149  25.700  28.806  1.00  0.00     0.014 A 
ATOM     33  C   UNL A   1      40.190  27.612  27.062  1.00  0.00     0.010 A 
ATOM     34  C   UNL A   1      39.193  27.016  29.174  1.00  0.00     0.010 A 
ATOM     35  C   UNL A   1      39.784  27.962  28.350  1.00  0.00    -0.014 A 
BRANCH  35  36
ATOM     36  C   UNL A   1      39.960  29.230  29.046  1.00  0.00     0.031 A 
ATOM     37  C   UNL A   1      38.871  30.232  29.062  1.00  0.00     0.074 A 
ATOM     38  C   UNL A   1      40.976  29.310  29.940  1.00  0.00     0.049 A 
ATOM     39  N   UNL A   1      39.058  31.494  29.240  1.00  0.00    -0.248 NA
ATOM     40  C   UNL A   1      37.459  29.878  28.902  1.00  0.00     0.031 C 
ATOM     41  C   UNL A   1      41.160  30.293  31.008  1.00  0.00     0.029 A 
ATOM     42  N   UNL A   1      42.130  28.539  30.055  1.00  0.00    -0.354 N 
ATOM     43  C   UNL A   1      37.828  32.053  29.519  1.00  0.00     0.074 A 
ATOM     44  C   UNL A   1      36.855  31.041  29.184  1.00  0.00     0.031 C 
ATOM     45  C   UNL A   1      42.450  30.272  31.395  1.00  0.00     0.029 A 
ATOM     46  C   UNL A   1      43.154  29.392  30.475  1.00  0.00     0.049 A 
ATOM     47  H   UNL A   1      42.210  27.575  29.874  1.00  0.00     0.167 HD
ATOM     48  C   UNL A   1      37.764  33.247  30.176  1.00  0.00     0.031 A 
ATOM     49  C   UNL A   1      44.176  29.794  29.654  1.00  0.00     0.031 A 
ATOM     50  C   UNL A   1      39.097  33.695  30.566  1.00  0.00     0.049 A 
ATOM     51  C   UNL A   1      44.157  31.288  29.395  1.00  0.00     0.074 A 
ATOM     52  C   UNL A   1      39.777  33.602  31.769  1.00  0.00     0.029 A 
ATOM     53  N   UNL A   1      40.038  34.013  29.596  1.00  0.00    -0.354 N 
ATOM     54  N   UNL A   1      43.097  32.035  29.537  1.00  0.00    -0.248 NA
ATOM     55  C   UNL A   1      45.320  32.058  28.961  1.00  0.00     0.031 C 
ATOM     56  C   UNL A   1      41.155  33.795  31.502  1.00  0.00     0.029 A 
ATOM     57  C   UNL A   1      41.305  34.034  30.147  1.00  0.00     0.049 A 
ATOM     58  H   UNL A   1      39.832  34.198  28.651  1.00  0.00     0.167 HD
ATOM     59  C   UNL A   1      43.403  33.338  29.248  1.00  0.00     0.074 A 
ATOM     60  C   UNL A   1      44.810  33.301  28.893  1.00  0.00     0.031 C 
ATOM     61  C   UNL A   1      42.472  34.336  29.330  1.00  0.00     0.031 A 
BRANCH  48  62
ATOM     62  C   UNL A   1      36.505  33.869  30.738  1.00  0.00    -0.014 A 
ATOM     63  C   UNL A   1      35.468  34.231  29.850  1.00  0.00     0.010 A 
ATOM     64  C   UNL A   1      36.264  34.103  32.105  1.00  0.00     0.010 A 
ATOM     65  C   UNL A   1      34.286  34.845  30.284  1.00  0.00     0.020 A 
ATOM     66  C   UNL A   1      35.090  34.737  32.554  1.00  0.00     0.020 A 
ATOM     67  C   UNL A   1      34.108  35.106  31.638  1.00  0.00     0.054 A 
BRANCH  67  68
ATOM     68  S   UNL A   1      32.569  35.904  32.166  1.00  0.00     0.124 S 
ATOM     69  O   UNL A   1      32.115  36.554  30.939  1.00  0.00    -0.237 OA
ATOM     70  O   UNL A   1      31.765  34.770  32.612  1.00  0.00    -0.237 OA
ATOM     71  O   UNL A   1      32.998  36.816  33.225  1.00  0.00    -0.744 OA
ENDBRANCH  67  68
ENDBRANCH  48  62
BRANCH  49  72
ATOM     72  C   UNL A   1      44.594  28.769  28.655  1.00  0.00    -0.014 A 
ATOM     73  C   UNL A   1      44.098  28.915  27.344  1.00  0.00     0.010 A 
ATOM     74  C   UNL A   1      45.768  28.020  28.862  1.00  0.00     0.010 A 
ATOM     75  C   UNL A   1      44.864  28.505  26.252  1.00  0.00     0.020 A 
ATOM     76  C   UNL A   1      46.537  27.604  27.766  1.00  0.00     0.020 A 
ATOM     77  C   UNL A   1      46.111  27.917  26.473  1.00  0.00     0.054 A 
BRANCH  77  78
ATOM     78  S   UNL A   1      47.255  27.850  25.066  1.00  0.00     0.124 S 
ATOM     79  O   UNL A   1      48.461  28.467  25.601  1.00  0.00    -0.237 OA
ATOM     80  O   UNL A   1      47.331  26.405  24.833  1.00  0.00    -0.237 OA
ATOM     81  O   UNL A   1      46.568  28.601  24.021  1.00  0.00    -0.744 OA
ENDBRANCH  77  78
ENDBRANCH  49  72
BRANCH  61  82
ATOM     82  C   UNL A   1      42.608  35.726  28.758  1.00  0.00    -0.014 A 
ATOM     83  C   UNL A   1      42.005  36.146  27.564  1.00  0.00     0.010 A 
ATOM     84  C   UNL A   1      43.291  36.719  29.507  1.00  0.00     0.010 A 
ATOM     85  C   UNL A   1      42.152  37.457  27.093  1.00  0.00     0.020 A 
ATOM     86  C   UNL A   1      43.392  38.044  29.079  1.00  0.00     0.020 A 
ATOM     87  C   UNL A   1      42.852  38.396  27.851  1.00  0.00     0.054 A 
BRANCH  87  88
ATOM     88  S   UNL A   1      43.010  40.085  27.231  1.00  0.00     0.124 S 
ATOM     89  O   UNL A   1      41.631  40.397  26.862  1.00  0.00    -0.237 OA
ATOM     90  O   UNL A   1      43.526  40.808  28.391  1.00  0.00    -0.237 OA
ATOM     91  O   UNL A   1      43.945  39.960  26.116  1.00  0.00    -0.744 OA
ENDBRANCH  87  88
ENDBRANCH  61  82
ENDBRANCH  35  36
ENDBRANCH  27  30
ENDBRANCH  25  26
ENDBRANCH   1  25
TORSDOF 18
ENDMDL
MODEL 2
REMARK VINA RESULT:     -11.9      4.940     11.130
REMARK SMILES CCC(CC)(NC(=O)c1cc(C)ccc1OC)C(=O)NCCCNC(=O)c1ccc(-c2c3nc(c(-c4ccc(S(=O)(=O)[O-])cc4)c4ccc([nH]4)c(-c4ccc(S(=O)(=O)[O-])cc4)c4nc(c(-c5ccc(S(=O)(=O)[O-])cc5)c5ccc2[nH]5)C=C4)C=C3)cc1
REMARK SMILES IDX 22 1 21 2 20 3 18 4 19 5 3 7 2 8 1 9 4 10 5 11 6 12 7 13
REMARK SMILES IDX 8 15 9 16 10 17 15 18 11 19 14 20 12 21 13 22 16 23 17 24
REMARK SMILES IDX 23 25 24 26 25 27 26 29 27 30 28 31 86 32 29 33 85 34 30 35
REMARK SMILES IDX 31 36 32 37 79 38 33 39 84 40 78 41 80 42 34 43 83 44 77 45
REMARK SMILES IDX 76 46 35 48 65 49 46 50 64 51 47 52 50 53 63 54 81 55 48 56
REMARK SMILES IDX 49 57 62 59 82 60 51 61 36 62 37 63 45 64 38 65 44 66 39 67
REMARK SMILES IDX 40 68 41 69 42 70 43 71 66 72 67 73 75 74 68 75 74 76 69 77
REMARK SMILES IDX 70 78 71 79 72 80 73 81 52 82 53 83 61 84 54 85 60 86 55 87
REMARK SMILES IDX 56 88 57 89 58 90 59 91
REMARK H PARENT 20 6 6 14 24 28 80 47 50 58
REMARK Flexibility Score: inf
ROOT
ATOM      1  C   UNL A   1      33.460  29.207  26.655  1.00  0.00     0.042 C 
ENDROOT
BRANCH   1   2
ATOM      2  C   UNL A   1      32.560  28.228  27.507  1.00  0.00     0.117 C 
BRANCH   2   3
ATOM      3  N   UNL A   1      31.469  27.319  27.030  1.00  0.00    -0.354 N 
ATOM      4  C   UNL A   1      31.178  26.068  26.531  1.00  0.00     0.245 C 
ATOM      5  O   UNL A   1      29.953  25.837  26.508  1.00  0.00    -0.272 OA
ATOM      6  H   UNL A   1      30.620  27.813  27.102  1.00  0.00     0.163 HD
BRANCH   4   7
ATOM      7  C   UNL A   1      32.146  24.926  25.918  1.00  0.00     0.118 C 
BRANCH   7   8
ATOM      8  C   UNL A   1      31.965  23.609  26.778  1.00  0.00     0.035 C 
ATOM      9  C   UNL A   1      31.232  22.420  26.175  1.00  0.00     0.007 C 
ENDBRANCH   7   8
BRANCH   7  10
ATOM     10  C   UNL A   1      33.588  25.485  26.049  1.00  0.00     0.035 C 
ATOM     11  C   UNL A   1      34.706  24.740  25.331  1.00  0.00     0.007 C 
ENDBRANCH   7  10
BRANCH   7  12
ATOM     12  N   UNL A   1      31.971  24.346  24.492  1.00  0.00    -0.338 N 
ATOM     13  C   UNL A   1      31.365  24.760  23.310  1.00  0.00     0.255 C 
ATOM     14  H   UNL A   1      32.395  23.461  24.399  1.00  0.00     0.164 HD
ATOM     15  O   UNL A   1      30.850  23.927  22.568  1.00  0.00    -0.269 OA
BRANCH  13  16
ATOM     16  C   UNL A   1      31.483  26.158  22.859  1.00  0.00     0.082 A 
ATOM     17  C   UNL A   1      30.520  27.164  22.982  1.00  0.00     0.021 A 
ATOM     18  C   UNL A   1      32.599  26.486  22.145  1.00  0.00     0.131 A 
ATOM     19  C   UNL A   1      30.921  28.489  22.771  1.00  0.00    -0.050 A 
ATOM     20  C   UNL A   1      33.112  27.751  22.365  1.00  0.00     0.047 A 
ATOM     21  C   UNL A   1      30.016  29.616  22.384  1.00  0.00     0.044 C 
ATOM     22  C   UNL A   1      32.276  28.743  22.812  1.00  0.00     0.007 A 
BRANCH  18  23
ATOM     23  O   UNL A   1      33.262  25.610  21.340  1.00  0.00    -0.496 OA
ATOM     24  C   UNL A   1      32.802  25.505  19.987  1.00  0.00     0.278 C 
ENDBRANCH  18  23
ENDBRANCH  13  16
ENDBRANCH   7  12
ENDBRANCH   4   7
ENDBRANCH   2   3
ENDBRANCH   1   2
BRANCH   1  25
ATOM     25  C   UNL A   1      34.155  30.520  27.099  1.00  0.00     0.118 C 
BRANCH  25  26
ATOM     26  N   UNL A   1      35.586  30.672  26.933  1.00  0.00    -0.352 N 
ATOM     27  C   UNL A   1      36.390  30.958  28.056  1.00  0.00     0.251 C 
ATOM     28  H   UNL A   1      35.993  30.576  26.042  1.00  0.00     0.163 HD
ATOM     29  O   UNL A   1      36.175  31.795  28.886  1.00  0.00    -0.269 OA
BRANCH  27  30
ATOM     30  C   UNL A   1      37.298  29.825  28.384  1.00  0.00     0.039 A 
ATOM     31  C   UNL A   1      37.221  28.962  29.482  1.00  0.00     0.014 A 
ATOM     32  C   UNL A   1      38.318  29.683  27.453  1.00  0.00     0.014 A 
ATOM     33  C   UNL A   1      38.294  28.085  29.740  1.00  0.00     0.010 A 
ATOM     34  C   UNL A   1      39.357  28.833  27.711  1.00  0.00     0.010 A 
ATOM     35  C   UNL A   1      39.396  28.096  28.885  1.00  0.00    -0.014 A 
BRANCH  35  36
ATOM     36  C   UNL A   1      40.700  27.475  29.074  1.00  0.00     0.031 A 
ATOM     37  C   UNL A   1      40.948  26.096  28.599  1.00  0.00     0.074 A 
ATOM     38  C   UNL A   1      41.741  28.295  29.366  1.00  0.00     0.049 A 
ATOM     39  N   UNL A   1      41.855  25.321  29.085  1.00  0.00    -0.248 NA
ATOM     40  C   UNL A   1      40.195  25.482  27.504  1.00  0.00     0.031 C 
ATOM     41  C   UNL A   1      43.171  28.011  29.253  1.00  0.00     0.029 A 
ATOM     42  N   UNL A   1      41.743  29.583  29.898  1.00  0.00    -0.354 N 
ATOM     43  C   UNL A   1      42.012  24.272  28.202  1.00  0.00     0.074 A 
ATOM     44  C   UNL A   1      40.885  24.351  27.302  1.00  0.00     0.031 C 
ATOM     45  C   UNL A   1      43.848  28.904  29.999  1.00  0.00     0.029 A 
ATOM     46  C   UNL A   1      42.860  29.679  30.732  1.00  0.00     0.049 A 
ATOM     47  H   UNL A   1      41.083  30.291  29.719  1.00  0.00     0.167 HD
ATOM     48  C   UNL A   1      43.171  23.554  28.207  1.00  0.00     0.031 A 
ATOM     49  C   UNL A   1      42.769  29.718  32.099  1.00  0.00     0.031 A 
ATOM     50  C   UNL A   1      44.129  24.125  29.148  1.00  0.00     0.049 A 
ATOM     51  C   UNL A   1      43.412  28.511  32.756  1.00  0.00     0.074 A 
ATOM     52  C   UNL A   1      45.205  24.975  28.954  1.00  0.00     0.029 A 
ATOM     53  N   UNL A   1      43.853  24.130  30.509  1.00  0.00    -0.354 N 
ATOM     54  N   UNL A   1      43.620  27.378  32.143  1.00  0.00    -0.248 NA
ATOM     55  C   UNL A   1      43.868  28.480  34.143  1.00  0.00     0.031 C 
ATOM     56  C   UNL A   1      45.530  25.553  30.205  1.00  0.00     0.029 A 
ATOM     57  C   UNL A   1      44.673  25.032  31.159  1.00  0.00     0.049 A 
ATOM     58  H   UNL A   1      43.171  23.572  30.946  1.00  0.00     0.167 HD
ATOM     59  C   UNL A   1      44.229  26.494  32.993  1.00  0.00     0.074 A 
ATOM     60  C   UNL A   1      44.365  27.233  34.234  1.00  0.00     0.031 C 
ATOM     61  C   UNL A   1      44.573  25.231  32.598  1.00  0.00     0.031 A 
BRANCH  48  62
ATOM     62  C   UNL A   1      43.570  22.532  27.166  1.00  0.00    -0.014 A 
ATOM     63  C   UNL A   1      42.864  21.310  27.104  1.00  0.00     0.010 A 
ATOM     64  C   UNL A   1      44.596  22.707  26.218  1.00  0.00     0.010 A 
ATOM     65  C   UNL A   1      43.193  20.296  26.195  1.00  0.00     0.020 A 
ATOM     66  C   UNL A   1      44.951  21.690  25.312  1.00  0.00     0.020 A 
ATOM     67  C   UNL A   1      44.246  20.488  25.308  1.00  0.00     0.054 A 
BRANCH  67  68
ATOM     68  S   UNL A   1      44.649  19.155  24.148  1.00  0.00     0.124 S 
ATOM     69  O   UNL A   1      46.042  18.862  24.475  1.00  0.00    -0.237 OA
ATOM     70  O   UNL A   1      43.686  18.120  24.514  1.00  0.00    -0.237 OA
ATOM     71  O   UNL A   1      44.437  19.763  22.836  1.00  0.00    -0.744 OA
ENDBRANCH  67  68
ENDBRANCH  48  62
BRANCH  49  72
ATOM     72  C   UNL A   1      41.551  30.409  32.611  1.00  0.00    -0.014 A 
ATOM     73  C   UNL A   1      40.444  29.599  32.932  1.00  0.00     0.010 A 
ATOM     74  C   UNL A   1      41.659  31.684  33.200  1.00  0.00     0.010 A 
ATOM     75  C   UNL A   1      39.581  29.963  33.967  1.00  0.00     0.020 A 
ATOM     76  C   UNL A   1      40.790  32.052  34.237  1.00  0.00     0.020 A 
ATOM     77  C   UNL A   1      39.806  31.154  34.658  1.00  0.00     0.054 A 
BRANCH  77  78
ATOM     78  S   UNL A   1      38.988  31.345  36.266  1.00  0.00     0.124 S 
ATOM     79  O   UNL A   1      40.029  31.942  37.090  1.00  0.00    -0.237 OA
ATOM     80  O   UNL A   1      37.873  32.230  35.911  1.00  0.00    -0.237 OA
ATOM     81  O   UNL A   1      38.596  29.986  36.623  1.00  0.00    -0.744 OA
ENDBRANCH  77  78
ENDBRANCH  49  72
BRANCH  61  82
ATOM     82  C   UNL A   1      44.964  24.092  33.510  1.00  0.00    -0.014 A 
ATOM     83  C   UNL A   1      44.097  23.058  33.889  1.00  0.00     0.010 A 
ATOM     84  C   UNL A   1      46.312  23.977  33.935  1.00  0.00     0.010 A 
ATOM     85  C   UNL A   1      44.523  22.016  34.722  1.00  0.00     0.020 A 
ATOM     86  C   UNL A   1      46.764  22.911  34.715  1.00  0.00     0.020 A 
ATOM     87  C   UNL A   1      45.853  21.954  35.137  1.00  0.00     0.054 A 
BRANCH  87  88
ATOM     88  S   UNL A   1      46.382  20.589  36.195  1.00  0.00     0.124 S 
ATOM     89  O   UNL A   1      45.715  20.912  37.454  1.00  0.00    -0.237 OA
ATOM     90  O   UNL A   1      45.863  19.417  35.494  1.00  0.00    -0.237 OA
ATOM     91  O   UNL A   1      47.838  20.705  36.208  1.00  0.00    -0.744 OA
ENDBRANCH  87  88
ENDBRANCH  61  82
ENDBRANCH  35  36
ENDBRANCH  27  30
ENDBRANCH  25  26
ENDBRANCH   1  25
TORSDOF 18
ENDMDL
MODEL 3
REMARK VINA RESULT:     -11.9      4.835     11.147
REMARK SMILES CCC(CC)(NC(=O)c1cc(C)ccc1OC)C(=O)NCCCNC(=O)c1ccc(-c2c3nc(c(-c4ccc(S(=O)(=O)[O-])cc4)c4ccc([nH]4)c(-c4ccc(S(=O)(=O)[O-])cc4)c4nc(c(-c5ccc(S(=O)(=O)[O-])cc5)c5ccc2[nH]5)C=C4)C=C3)cc1
REMARK SMILES IDX 22 1 21 2 20 3 18 4 19 5 3 7 2 8 1 9 4 10 5 11 6 12 7 13
REMARK SMILES IDX 8 15 9 16 10 17 15 18 11 19 14 20 12 21 13 22 16 23 17 24
REMARK SMILES IDX 23 25 24 26 25 27 26 29 27 30 28 31 86 32 29 33 85 34 30 35
REMARK SMILES IDX 31 36 32 37 79 38 33 39 84 40 78 41 80 42 34 43 83 44 77 45
REMARK SMILES IDX 76 46 35 48 65 49 46 50 64 51 47 52 50 53 63 54 81 55 48 56
REMARK SMILES IDX 49 57 62 59 82 60 51 61 36 62 37 63 45 64 38 65 44 66 39 67
REMARK SMILES IDX 40 68 41 69 42 70 43 71 66 72 67 73 75 74 68 75 74 76 69 77
REMARK SMILES IDX 70 78 71 79 72 80 73 81 52 82 53 83 61 84 54 85 60 86 55 87
REMARK SMILES IDX 56 88 57 89 58 90 59 91
REMARK H PARENT 20 6 6 14 24 28 80 47 50 58
REMARK Flexibility Score: inf
ROOT
ATOM      1  C   UNL A   1      32.775  30.513  26.556  1.00  0.00     0.042 C 
ENDROOT
BRANCH   1   2
ATOM      2  C   UNL A   1      32.358  29.929  25.149  1.00  0.00     0.117 C 
BRANCH   2   3
ATOM      3  N   UNL A   1      33.238  29.326  24.097  1.00  0.00    -0.354 N 
ATOM      4  C   UNL A   1      33.571  28.165  23.432  1.00  0.00     0.245 C 
ATOM      5  O   UNL A   1      34.314  28.373  22.453  1.00  0.00    -0.272 OA
ATOM      6  H   UNL A   1      33.806  30.046  23.738  1.00  0.00     0.163 HD
BRANCH   4   7
ATOM      7  C   UNL A   1      33.220  26.622  23.765  1.00  0.00     0.118 C 
BRANCH   7   8
ATOM      8  C   UNL A   1      31.694  26.376  23.424  1.00  0.00     0.035 C 
ATOM      9  C   UNL A   1      31.249  26.355  21.968  1.00  0.00     0.007 C 
ENDBRANCH   7   8
BRANCH   7  10
ATOM     10  C   UNL A   1      33.488  26.449  25.284  1.00  0.00     0.035 C 
ATOM     11  C   UNL A   1      32.287  26.451  26.221  1.00  0.00     0.007 C 
ENDBRANCH   7  10
BRANCH   7  12
ATOM     12  N   UNL A   1      33.862  25.428  23.013  1.00  0.00    -0.338 N 
ATOM     13  C   UNL A   1      34.394  24.192  23.366  1.00  0.00     0.255 C 
ATOM     14  H   UNL A   1      33.905  25.585  22.041  1.00  0.00     0.164 HD
ATOM     15  O   UNL A   1      35.340  23.735  22.729  1.00  0.00    -0.269 OA
BRANCH  13  16
ATOM     16  C   UNL A   1      33.729  23.354  24.380  1.00  0.00     0.082 A 
ATOM     17  C   UNL A   1      34.284  22.880  25.572  1.00  0.00     0.021 A 
ATOM     18  C   UNL A   1      32.480  22.892  24.079  1.00  0.00     0.131 A 
ATOM     19  C   UNL A   1      33.418  22.358  26.541  1.00  0.00    -0.050 A 
ATOM     20  C   UNL A   1      31.592  22.810  25.136  1.00  0.00     0.047 A 
ATOM     21  C   UNL A   1      33.805  21.398  27.621  1.00  0.00     0.044 C 
ATOM     22  C   UNL A   1      32.080  22.668  26.411  1.00  0.00     0.007 A 
BRANCH  18  23
ATOM     23  O   UNL A   1      32.061  22.625  22.811  1.00  0.00    -0.496 OA
ATOM     24  C   UNL A   1      32.094  21.253  22.399  1.00  0.00     0.278 C 
ENDBRANCH  18  23
ENDBRANCH  13  16
ENDBRANCH   7  12
ENDBRANCH   4   7
ENDBRANCH   2   3
ENDBRANCH   1   2
BRANCH   1  25
ATOM     25  C   UNL A   1      33.943  30.080  27.479  1.00  0.00     0.118 C 
BRANCH  25  26
ATOM     26  N   UNL A   1      35.308  30.165  27.004  1.00  0.00    -0.352 N 
ATOM     27  C   UNL A   1      36.307  30.697  27.847  1.00  0.00     0.251 C 
ATOM     28  H   UNL A   1      35.538  29.854  26.100  1.00  0.00     0.163 HD
ATOM     29  O   UNL A   1      36.230  31.711  28.482  1.00  0.00    -0.269 OA
BRANCH  27  30
ATOM     30  C   UNL A   1      37.296  29.660  28.250  1.00  0.00     0.039 A 
ATOM     31  C   UNL A   1      37.349  28.955  29.455  1.00  0.00     0.014 A 
ATOM     32  C   UNL A   1      38.249  29.435  27.266  1.00  0.00     0.014 A 
ATOM     33  C   UNL A   1      38.484  28.169  29.741  1.00  0.00     0.010 A 
ATOM     34  C   UNL A   1      39.350  28.674  27.549  1.00  0.00     0.010 A 
ATOM     35  C   UNL A   1      39.516  28.109  28.804  1.00  0.00    -0.014 A 
BRANCH  35  36
ATOM     36  C   UNL A   1      40.862  27.577  28.968  1.00  0.00     0.031 A 
ATOM     37  C   UNL A   1      41.184  26.205  28.518  1.00  0.00     0.074 A 
ATOM     38  C   UNL A   1      41.856  28.469  29.209  1.00  0.00     0.049 A 
ATOM     39  N   UNL A   1      42.153  25.501  28.993  1.00  0.00    -0.248 NA
ATOM     40  C   UNL A   1      40.441  25.517  27.460  1.00  0.00     0.031 C 
ATOM     41  C   UNL A   1      43.297  28.272  29.059  1.00  0.00     0.029 A 
ATOM     42  N   UNL A   1      41.791  29.766  29.710  1.00  0.00    -0.354 N 
ATOM     43  C   UNL A   1      42.351  24.443  28.130  1.00  0.00     0.074 A 
ATOM     44  C   UNL A   1      41.196  24.427  27.264  1.00  0.00     0.031 C 
ATOM     45  C   UNL A   1      43.937  29.226  29.762  1.00  0.00     0.029 A 
ATOM     46  C   UNL A   1      42.923  29.955  30.507  1.00  0.00     0.049 A 
ATOM     47  H   UNL A   1      41.082  30.427  29.536  1.00  0.00     0.167 HD
ATOM     48  C   UNL A   1      43.553  23.800  28.116  1.00  0.00     0.031 A 
ATOM     49  C   UNL A   1      42.870  30.022  31.876  1.00  0.00     0.031 A 
ATOM     50  C   UNL A   1      44.500  24.454  29.014  1.00  0.00     0.049 A 
ATOM     51  C   UNL A   1      43.608  28.874  32.540  1.00  0.00     0.074 A 
ATOM     52  C   UNL A   1      45.513  25.366  28.768  1.00  0.00     0.029 A 
ATOM     53  N   UNL A   1      44.264  24.476  30.382  1.00  0.00    -0.354 N 
ATOM     54  N   UNL A   1      43.870  27.742  31.947  1.00  0.00    -0.248 NA
ATOM     55  C   UNL A   1      44.105  28.908  33.913  1.00  0.00     0.031 C 
ATOM     56  C   UNL A   1      45.836  25.994  29.995  1.00  0.00     0.029 A 
ATOM     57  C   UNL A   1      45.042  25.444  30.986  1.00  0.00     0.049 A 
ATOM     58  H   UNL A   1      43.632  23.886  30.853  1.00  0.00     0.167 HD
ATOM     59  C   UNL A   1      44.559  26.920  32.798  1.00  0.00     0.074 A 
ATOM     60  C   UNL A   1      44.683  27.697  34.018  1.00  0.00     0.031 C 
ATOM     61  C   UNL A   1      44.972  25.672  32.423  1.00  0.00     0.031 A 
BRANCH  48  62
ATOM     62  C   UNL A   1      43.987  22.779  27.088  1.00  0.00    -0.014 A 
ATOM     63  C   UNL A   1      43.066  21.789  26.679  1.00  0.00     0.010 A 
ATOM     64  C   UNL A   1      45.253  22.745  26.472  1.00  0.00     0.010 A 
ATOM     65  C   UNL A   1      43.399  20.786  25.759  1.00  0.00     0.020 A 
ATOM     66  C   UNL A   1      45.608  21.732  25.562  1.00  0.00     0.020 A 
ATOM     67  C   UNL A   1      44.677  20.756  25.212  1.00  0.00     0.054 A 
BRANCH  67  68
ATOM     68  S   UNL A   1      45.076  19.444  24.028  1.00  0.00     0.124 S 
ATOM     69  O   UNL A   1      46.535  19.413  24.072  1.00  0.00    -0.237 OA
ATOM     70  O   UNL A   1      44.405  18.284  24.609  1.00  0.00    -0.237 OA
ATOM     71  O   UNL A   1      44.505  19.926  22.772  1.00  0.00    -0.744 OA
ENDBRANCH  67  68
ENDBRANCH  48  62
BRANCH  49  72
ATOM     72  C   UNL A   1      41.625  30.647  32.408  1.00  0.00    -0.014 A 
ATOM     73  C   UNL A   1      40.576  29.777  32.766  1.00  0.00     0.010 A 
ATOM     74  C   UNL A   1      41.671  31.934  32.978  1.00  0.00     0.010 A 
ATOM     75  C   UNL A   1      39.719  30.104  33.818  1.00  0.00     0.020 A 
ATOM     76  C   UNL A   1      40.807  32.264  34.031  1.00  0.00     0.020 A 
ATOM     77  C   UNL A   1      39.889  31.316  34.487  1.00  0.00     0.054 A 
BRANCH  77  78
ATOM     78  S   UNL A   1      39.099  31.481  36.112  1.00  0.00     0.124 S 
ATOM     79  O   UNL A   1      40.192  31.939  36.959  1.00  0.00    -0.237 OA
ATOM     80  O   UNL A   1      38.061  32.476  35.821  1.00  0.00    -0.237 OA
ATOM     81  O   UNL A   1      38.596  30.141  36.395  1.00  0.00    -0.744 OA
ENDBRANCH  77  78
ENDBRANCH  49  72
BRANCH  61  82
ATOM     82  C   UNL A   1      45.461  24.583  33.348  1.00  0.00    -0.014 A 
ATOM     83  C   UNL A   1      46.678  24.631  34.042  1.00  0.00     0.010 A 
ATOM     84  C   UNL A   1      44.609  23.487  33.637  1.00  0.00     0.010 A 
ATOM     85  C   UNL A   1      47.069  23.598  34.903  1.00  0.00     0.020 A 
ATOM     86  C   UNL A   1      44.960  22.482  34.541  1.00  0.00     0.020 A 
ATOM     87  C   UNL A   1      46.210  22.526  35.141  1.00  0.00     0.054 A 
BRANCH  87  88
ATOM     88  S   UNL A   1      46.729  21.217  36.272  1.00  0.00     0.124 S 
ATOM     89  O   UNL A   1      47.710  21.911  37.102  1.00  0.00    -0.237 OA
ATOM     90  O   UNL A   1      45.482  20.857  36.944  1.00  0.00    -0.237 OA
ATOM     91  O   UNL A   1      47.271  20.188  35.387  1.00  0.00    -0.744 OA
ENDBRANCH  87  88
ENDBRANCH  61  82
ENDBRANCH  35  36
ENDBRANCH  27  30
ENDBRANCH  25  26
ENDBRANCH   1  25
TORSDOF 18
ENDMDL
