MODEL 1
REMARK VINA RESULT:      -9.6      0.000      0.000
REMARK SMILES Nc1c(CC(=O)NCCCNC(=O)c2ccc(-c3c4nc(c(-c5ccc(S(=O)(=O)[O-])cc5)c5ccc([nH]5)c(-c5ccc(S(=O)(=O)[O-])cc5)c5nc(c(-c6ccc(S(=O)(=O)[O-])cc6)c6ccc3[nH]6)C=C5)C=C4)cc2)cccc1C(=O)c1ccc(Br)cc1
REMARK SMILES IDX 9 1 8 2 7 3 5 4 6 5 4 7 3 8 2 9 77 10 74 11 76 12 75 13 1 14
REMARK SMILES IDX 78 17 79 18 80 19 81 20 86 21 82 22 85 23 83 24 84 25 10 26
REMARK SMILES IDX 11 27 12 28 13 30 14 31 15 32 73 33 16 34 72 35 17 36 18 37
REMARK SMILES IDX 19 38 66 39 20 40 71 41 65 42 67 43 21 44 70 45 64 46 63 47
REMARK SMILES IDX 22 49 52 50 33 51 51 52 34 53 37 54 50 55 68 56 35 57 36 58
REMARK SMILES IDX 49 60 69 61 38 62 23 63 24 64 32 65 25 66 31 67 26 68 27 69
REMARK SMILES IDX 28 70 29 71 30 72 53 73 54 74 62 75 55 76 61 77 56 78 57 79
REMARK SMILES IDX 58 80 59 81 60 82 39 83 40 84 48 85 41 86 47 87 42 88 43 89
REMARK SMILES IDX 44 90 45 91 46 92
REMARK H PARENT 7 6 1 15 1 16 11 29 67 48 37 59
REMARK Flexibility Score: inf
ROOT
ATOM      1  C   UNL A   1      33.568  33.814  28.599  1.00  0.00     0.042 C 
ENDROOT
BRANCH   1   2
ATOM      2  C   UNL A   1      34.244  34.619  29.708  1.00  0.00     0.117 C 
BRANCH   2   3
ATOM      3  N   UNL A   1      33.983  34.072  31.025  1.00  0.00    -0.356 N 
ATOM      4  C   UNL A   1      34.677  33.121  31.714  1.00  0.00     0.224 C 
ATOM      5  O   UNL A   1      34.254  32.774  32.820  1.00  0.00    -0.275 OA
ATOM      6  H   UNL A   1      33.194  34.440  31.488  1.00  0.00     0.163 HD
BRANCH   4   7
ATOM      7  C   UNL A   1      35.973  32.554  31.158  1.00  0.00     0.137 C 
BRANCH   7   8
ATOM      8  C   UNL A   1      37.152  32.622  32.112  1.00  0.00    -0.015 A 
ATOM      9  C   UNL A   1      37.490  31.562  32.999  1.00  0.00     0.046 A 
ATOM     10  C   UNL A   1      38.570  31.747  33.902  1.00  0.00     0.046 A 
ATOM     11  C   UNL A   1      37.897  33.816  32.124  1.00  0.00     0.006 A 
ATOM     12  C   UNL A   1      39.278  32.966  33.894  1.00  0.00     0.014 A 
ATOM     13  C   UNL A   1      38.948  33.990  33.013  1.00  0.00     0.001 A 
BRANCH   9  14
ATOM     14  N   UNL A   1      36.718  30.407  32.975  1.00  0.00    -0.398 N 
ATOM     15  H   UNL A   1      35.742  30.470  32.863  1.00  0.00     0.156 HD
ATOM     16  H   UNL A   1      37.147  29.525  33.068  1.00  0.00     0.156 HD
ENDBRANCH   9  14
BRANCH  10  17
ATOM     17  C   UNL A   1      39.049  30.759  34.929  1.00  0.00     0.195 C 
ATOM     18  O   UNL A   1      38.327  30.442  35.873  1.00  0.00    -0.289 OA
BRANCH  17  19
ATOM     19  C   UNL A   1      40.353  30.080  34.860  1.00  0.00     0.023 A 
ATOM     20  C   UNL A   1      41.301  30.371  35.849  1.00  0.00     0.013 A 
ATOM     21  C   UNL A   1      40.635  29.147  33.857  1.00  0.00     0.013 A 
ATOM     22  C   UNL A   1      42.508  29.672  35.880  1.00  0.00     0.016 A 
ATOM     23  C   UNL A   1      41.841  28.441  33.897  1.00  0.00     0.016 A 
ATOM     24  C   UNL A   1      42.763  28.699  34.913  1.00  0.00     0.018 A 
ATOM     25  Br  UNL A   1      44.369  27.701  34.992  1.00  0.00    -0.051 Br
ENDBRANCH  17  19
ENDBRANCH  10  17
ENDBRANCH   7   8
ENDBRANCH   4   7
ENDBRANCH   2   3
ENDBRANCH   1   2
BRANCH   1  26
ATOM     26  C   UNL A   1      34.485  32.783  27.945  1.00  0.00     0.118 C 
BRANCH  26  27
ATOM     27  N   UNL A   1      33.806  31.518  27.697  1.00  0.00    -0.352 N 
ATOM     28  C   UNL A   1      34.300  30.242  27.632  1.00  0.00     0.251 C 
ATOM     29  H   UNL A   1      32.835  31.592  27.553  1.00  0.00     0.163 HD
ATOM     30  O   UNL A   1      33.569  29.343  27.212  1.00  0.00    -0.269 OA
BRANCH  28  31
ATOM     31  C   UNL A   1      35.688  29.933  28.041  1.00  0.00     0.039 A 
ATOM     32  C   UNL A   1      35.921  29.532  29.360  1.00  0.00     0.014 A 
ATOM     33  C   UNL A   1      36.761  30.080  27.159  1.00  0.00     0.014 A 
ATOM     34  C   UNL A   1      37.218  29.227  29.777  1.00  0.00     0.010 A 
ATOM     35  C   UNL A   1      38.046  29.708  27.555  1.00  0.00     0.010 A 
ATOM     36  C   UNL A   1      38.288  29.282  28.869  1.00  0.00    -0.014 A 
BRANCH  36  37
ATOM     37  C   UNL A   1      39.654  28.868  29.277  1.00  0.00     0.031 A 
ATOM     38  C   UNL A   1      40.559  29.814  30.016  1.00  0.00     0.074 A 
ATOM     39  C   UNL A   1      40.105  27.649  28.919  1.00  0.00     0.049 A 
ATOM     40  N   UNL A   1      41.784  29.624  30.436  1.00  0.00    -0.248 NA
ATOM     41  C   UNL A   1      40.031  31.158  30.293  1.00  0.00     0.031 C 
ATOM     42  C   UNL A   1      39.348  26.664  28.143  1.00  0.00     0.029 A 
ATOM     43  N   UNL A   1      41.310  27.037  29.150  1.00  0.00    -0.354 N 
ATOM     44  C   UNL A   1      42.180  30.826  31.011  1.00  0.00     0.074 A 
ATOM     45  C   UNL A   1      41.082  31.752  30.841  1.00  0.00     0.031 C 
ATOM     46  C   UNL A   1      40.099  25.564  27.980  1.00  0.00     0.029 A 
ATOM     47  C   UNL A   1      41.399  25.777  28.608  1.00  0.00     0.049 A 
ATOM     48  H   UNL A   1      42.042  27.459  29.657  1.00  0.00     0.167 HD
ATOM     49  C   UNL A   1      43.345  31.127  31.636  1.00  0.00     0.031 A 
ATOM     50  C   UNL A   1      42.413  24.891  28.607  1.00  0.00     0.031 A 
ATOM     51  C   UNL A   1      44.438  30.203  31.796  1.00  0.00     0.049 A 
ATOM     52  C   UNL A   1      43.687  25.233  29.321  1.00  0.00     0.074 A 
ATOM     53  C   UNL A   1      45.629  30.387  32.476  1.00  0.00     0.029 A 
ATOM     54  N   UNL A   1      44.480  28.926  31.256  1.00  0.00    -0.354 N 
ATOM     55  N   UNL A   1      44.007  26.341  29.947  1.00  0.00    -0.248 NA
ATOM     56  C   UNL A   1      44.731  24.200  29.347  1.00  0.00     0.031 C 
ATOM     57  C   UNL A   1      46.414  29.241  32.299  1.00  0.00     0.029 A 
ATOM     58  C   UNL A   1      45.690  28.320  31.559  1.00  0.00     0.049 A 
ATOM     59  H   UNL A   1      43.757  28.510  30.733  1.00  0.00     0.167 HD
ATOM     60  C   UNL A   1      45.287  26.137  30.450  1.00  0.00     0.074 A 
ATOM     61  C   UNL A   1      45.670  24.789  30.075  1.00  0.00     0.031 C 
ATOM     62  C   UNL A   1      46.071  26.989  31.156  1.00  0.00     0.031 A 
BRANCH  49  63
ATOM     63  C   UNL A   1      43.496  32.531  32.167  1.00  0.00    -0.014 A 
ATOM     64  C   UNL A   1      43.128  32.858  33.486  1.00  0.00     0.010 A 
ATOM     65  C   UNL A   1      44.005  33.542  31.332  1.00  0.00     0.010 A 
ATOM     66  C   UNL A   1      43.197  34.180  33.935  1.00  0.00     0.020 A 
ATOM     67  C   UNL A   1      44.106  34.861  31.788  1.00  0.00     0.020 A 
ATOM     68  C   UNL A   1      43.674  35.175  33.078  1.00  0.00     0.054 A 
BRANCH  68  69
ATOM     69  S   UNL A   1      43.724  36.888  33.674  1.00  0.00     0.124 S 
ATOM     70  O   UNL A   1      44.859  36.853  34.591  1.00  0.00    -0.237 OA
ATOM     71  O   UNL A   1      43.933  37.650  32.445  1.00  0.00    -0.237 OA
ATOM     72  O   UNL A   1      42.419  37.074  34.304  1.00  0.00    -0.744 OA
ENDBRANCH  68  69
ENDBRANCH  49  63
BRANCH  50  73
ATOM     73  C   UNL A   1      42.232  23.587  27.914  1.00  0.00    -0.014 A 
ATOM     74  C   UNL A   1      42.783  23.373  26.639  1.00  0.00     0.010 A 
ATOM     75  C   UNL A   1      41.576  22.526  28.565  1.00  0.00     0.010 A 
ATOM     76  C   UNL A   1      42.691  22.118  26.031  1.00  0.00     0.020 A 
ATOM     77  C   UNL A   1      41.504  21.263  27.971  1.00  0.00     0.020 A 
ATOM     78  C   UNL A   1      42.061  21.068  26.706  1.00  0.00     0.054 A 
BRANCH  78  79
ATOM     79  S   UNL A   1      42.046  19.422  25.940  1.00  0.00     0.124 S 
ATOM     80  O   UNL A   1      42.555  18.580  27.017  1.00  0.00    -0.237 OA
ATOM     81  O   UNL A   1      40.634  19.243  25.608  1.00  0.00    -0.237 OA
ATOM     82  O   UNL A   1      42.934  19.572  24.789  1.00  0.00    -0.744 OA
ENDBRANCH  78  79
ENDBRANCH  50  73
BRANCH  62  83
ATOM     83  C   UNL A   1      47.429  26.485  31.574  1.00  0.00    -0.014 A 
ATOM     84  C   UNL A   1      47.609  25.806  32.792  1.00  0.00     0.010 A 
ATOM     85  C   UNL A   1      48.533  26.664  30.721  1.00  0.00     0.010 A 
ATOM     86  C   UNL A   1      48.875  25.350  33.168  1.00  0.00     0.020 A 
ATOM     87  C   UNL A   1      49.795  26.185  31.080  1.00  0.00     0.020 A 
ATOM     88  C   UNL A   1      49.961  25.545  32.310  1.00  0.00     0.054 A 
BRANCH  88  89
ATOM     89  S   UNL A   1      51.591  24.922  32.807  1.00  0.00     0.124 S 
ATOM     90  O   UNL A   1      51.733  25.480  34.149  1.00  0.00    -0.237 OA
ATOM     91  O   UNL A   1      51.415  23.474  32.743  1.00  0.00    -0.237 OA
ATOM     92  O   UNL A   1      52.495  25.479  31.803  1.00  0.00    -0.744 OA
ENDBRANCH  88  89
ENDBRANCH  62  83
ENDBRANCH  36  37
ENDBRANCH  28  31
ENDBRANCH  26  27
ENDBRANCH   1  26
TORSDOF 17
ENDMDL
MODEL 2
REMARK VINA RESULT:      -9.4      3.593      6.548
REMARK SMILES Nc1c(CC(=O)NCCCNC(=O)c2ccc(-c3c4nc(c(-c5ccc(S(=O)(=O)[O-])cc5)c5ccc([nH]5)c(-c5ccc(S(=O)(=O)[O-])cc5)c5nc(c(-c6ccc(S(=O)(=O)[O-])cc6)c6ccc3[nH]6)C=C5)C=C4)cc2)cccc1C(=O)c1ccc(Br)cc1
REMARK SMILES IDX 9 1 8 2 7 3 5 4 6 5 4 7 3 8 2 9 77 10 74 11 76 12 75 13 1 14
REMARK SMILES IDX 78 17 79 18 80 19 81 20 86 21 82 22 85 23 83 24 84 25 10 26
REMARK SMILES IDX 11 27 12 28 13 30 14 31 15 32 73 33 16 34 72 35 17 36 18 37
REMARK SMILES IDX 19 38 66 39 20 40 71 41 65 42 67 43 21 44 70 45 64 46 63 47
REMARK SMILES IDX 22 49 52 50 33 51 51 52 34 53 37 54 50 55 68 56 35 57 36 58
REMARK SMILES IDX 49 60 69 61 38 62 23 63 24 64 32 65 25 66 31 67 26 68 27 69
REMARK SMILES IDX 28 70 29 71 30 72 53 73 54 74 62 75 55 76 61 77 56 78 57 79
REMARK SMILES IDX 58 80 59 81 60 82 39 83 40 84 48 85 41 86 47 87 42 88 43 89
REMARK SMILES IDX 44 90 45 91 46 92
REMARK H PARENT 7 6 1 15 1 16 11 29 67 48 37 59
REMARK Flexibility Score: inf
ROOT
ATOM      1  C   UNL A   1      33.053  28.672  24.675  1.00  0.00     0.042 C 
ENDROOT
BRANCH   1   2
ATOM      2  C   UNL A   1      31.642  29.211  24.905  1.00  0.00     0.117 C 
BRANCH   2   3
ATOM      3  N   UNL A   1      30.988  29.594  23.669  1.00  0.00    -0.356 N 
ATOM      4  C   UNL A   1      30.163  28.859  22.869  1.00  0.00     0.224 C 
ATOM      5  O   UNL A   1      29.740  29.377  21.832  1.00  0.00    -0.275 OA
ATOM      6  H   UNL A   1      31.164  30.515  23.364  1.00  0.00     0.163 HD
BRANCH   4   7
ATOM      7  C   UNL A   1      29.727  27.463  23.282  1.00  0.00     0.137 C 
BRANCH   7   8
ATOM      8  C   UNL A   1      30.780  26.388  23.082  1.00  0.00    -0.015 A 
ATOM      9  C   UNL A   1      30.988  25.329  24.008  1.00  0.00     0.046 A 
ATOM     10  C   UNL A   1      32.044  24.409  23.767  1.00  0.00     0.046 A 
ATOM     11  C   UNL A   1      31.598  26.499  21.942  1.00  0.00     0.006 A 
ATOM     12  C   UNL A   1      32.851  24.568  22.622  1.00  0.00     0.014 A 
ATOM     13  C   UNL A   1      32.630  25.599  21.716  1.00  0.00     0.001 A 
BRANCH   9  14
ATOM     14  N   UNL A   1      30.176  25.264  25.133  1.00  0.00    -0.398 N 
ATOM     15  H   UNL A   1      29.535  25.988  25.320  1.00  0.00     0.156 HD
ATOM     16  H   UNL A   1      30.240  24.494  25.744  1.00  0.00     0.156 HD
ENDBRANCH   9  14
BRANCH  10  17
ATOM     17  C   UNL A   1      32.433  23.253  24.645  1.00  0.00     0.195 C 
ATOM     18  O   UNL A   1      31.577  22.487  25.082  1.00  0.00    -0.289 OA
BRANCH  17  19
ATOM     19  C   UNL A   1      33.826  22.931  24.996  1.00  0.00     0.023 A 
ATOM     20  C   UNL A   1      34.362  21.726  24.525  1.00  0.00     0.013 A 
ATOM     21  C   UNL A   1      34.608  23.810  25.752  1.00  0.00     0.013 A 
ATOM     22  C   UNL A   1      35.709  21.433  24.747  1.00  0.00     0.016 A 
ATOM     23  C   UNL A   1      35.958  23.518  25.964  1.00  0.00     0.016 A 
ATOM     24  C   UNL A   1      36.503  22.339  25.450  1.00  0.00     0.018 A 
ATOM     25  Br  UNL A   1      38.343  21.977  25.693  1.00  0.00    -0.051 Br
ENDBRANCH  17  19
ENDBRANCH  10  17
ENDBRANCH   7   8
ENDBRANCH   4   7
ENDBRANCH   2   3
ENDBRANCH   1   2
BRANCH   1  26
ATOM     26  C   UNL A   1      33.968  28.813  25.888  1.00  0.00     0.118 C 
BRANCH  26  27
ATOM     27  N   UNL A   1      33.734  30.051  26.617  1.00  0.00    -0.352 N 
ATOM     28  C   UNL A   1      34.443  30.632  27.636  1.00  0.00     0.251 C 
ATOM     29  H   UNL A   1      32.936  30.553  26.333  1.00  0.00     0.163 HD
ATOM     30  O   UNL A   1      33.947  31.586  28.237  1.00  0.00    -0.269 OA
BRANCH  28  31
ATOM     31  C   UNL A   1      35.777  30.126  28.028  1.00  0.00     0.039 A 
ATOM     32  C   UNL A   1      36.799  30.129  27.075  1.00  0.00     0.014 A 
ATOM     33  C   UNL A   1      36.017  29.609  29.304  1.00  0.00     0.014 A 
ATOM     34  C   UNL A   1      38.071  29.665  27.415  1.00  0.00     0.010 A 
ATOM     35  C   UNL A   1      37.305  29.211  29.664  1.00  0.00     0.010 A 
ATOM     36  C   UNL A   1      38.344  29.231  28.722  1.00  0.00    -0.014 A 
BRANCH  36  37
ATOM     37  C   UNL A   1      39.715  28.825  29.120  1.00  0.00     0.031 A 
ATOM     38  C   UNL A   1      40.629  29.786  29.829  1.00  0.00     0.074 A 
ATOM     39  C   UNL A   1      40.161  27.600  28.781  1.00  0.00     0.049 A 
ATOM     40  N   UNL A   1      41.860  29.603  30.238  1.00  0.00    -0.248 NA
ATOM     41  C   UNL A   1      40.104  31.134  30.087  1.00  0.00     0.031 C 
ATOM     42  C   UNL A   1      39.395  26.600  28.033  1.00  0.00     0.029 A 
ATOM     43  N   UNL A   1      41.370  26.991  29.008  1.00  0.00    -0.354 N 
ATOM     44  C   UNL A   1      42.263  30.816  30.784  1.00  0.00     0.074 A 
ATOM     45  C   UNL A   1      41.162  31.739  30.609  1.00  0.00     0.031 C 
ATOM     46  C   UNL A   1      40.144  25.497  27.882  1.00  0.00     0.029 A 
ATOM     47  C   UNL A   1      41.451  25.722  28.489  1.00  0.00     0.049 A 
ATOM     48  H   UNL A   1      42.107  27.423  29.497  1.00  0.00     0.167 HD
ATOM     49  C   UNL A   1      43.435  31.129  31.389  1.00  0.00     0.031 A 
ATOM     50  C   UNL A   1      42.465  24.835  28.493  1.00  0.00     0.031 A 
ATOM     51  C   UNL A   1      44.530  30.208  31.553  1.00  0.00     0.049 A 
ATOM     52  C   UNL A   1      43.749  25.191  29.185  1.00  0.00     0.074 A 
ATOM     53  C   UNL A   1      45.729  30.405  32.214  1.00  0.00     0.029 A 
ATOM     54  N   UNL A   1      44.566  28.920  31.037  1.00  0.00    -0.354 N 
ATOM     55  N   UNL A   1      44.077  26.311  29.784  1.00  0.00    -0.248 NA
ATOM     56  C   UNL A   1      44.793  24.159  29.217  1.00  0.00     0.031 C 
ATOM     57  C   UNL A   1      46.512  29.255  32.050  1.00  0.00     0.029 A 
ATOM     58  C   UNL A   1      45.779  28.321  31.336  1.00  0.00     0.049 A 
ATOM     59  H   UNL A   1      43.835  28.495  30.532  1.00  0.00     0.167 HD
ATOM     60  C   UNL A   1      45.363  26.116  30.275  1.00  0.00     0.074 A 
ATOM     61  C   UNL A   1      45.741  24.762  29.922  1.00  0.00     0.031 C 
ATOM     62  C   UNL A   1      46.155  26.981  30.955  1.00  0.00     0.031 A 
BRANCH  49  63
ATOM     63  C   UNL A   1      43.592  32.543  31.890  1.00  0.00    -0.014 A 
ATOM     64  C   UNL A   1      43.253  32.893  33.211  1.00  0.00     0.010 A 
ATOM     65  C   UNL A   1      44.078  33.540  31.025  1.00  0.00     0.010 A 
ATOM     66  C   UNL A   1      43.328  34.223  33.634  1.00  0.00     0.020 A 
ATOM     67  C   UNL A   1      44.185  34.867  31.454  1.00  0.00     0.020 A 
ATOM     68  C   UNL A   1      43.781  35.204  32.749  1.00  0.00     0.054 A 
BRANCH  68  69
ATOM     69  S   UNL A   1      43.838  36.927  33.311  1.00  0.00     0.124 S 
ATOM     70  O   UNL A   1      42.591  37.039  34.063  1.00  0.00    -0.237 OA
ATOM     71  O   UNL A   1      45.059  36.964  34.113  1.00  0.00    -0.237 OA
ATOM     72  O   UNL A   1      43.888  37.696  32.070  1.00  0.00    -0.744 OA
ENDBRANCH  68  69
ENDBRANCH  49  63
BRANCH  50  73
ATOM     73  C   UNL A   1      42.276  23.518  27.828  1.00  0.00    -0.014 A 
ATOM     74  C   UNL A   1      42.830  23.272  26.560  1.00  0.00     0.010 A 
ATOM     75  C   UNL A   1      41.608  22.477  28.499  1.00  0.00     0.010 A 
ATOM     76  C   UNL A   1      42.729  22.005  25.979  1.00  0.00     0.020 A 
ATOM     77  C   UNL A   1      41.528  21.202  27.932  1.00  0.00     0.020 A 
ATOM     78  C   UNL A   1      42.088  20.975  26.674  1.00  0.00     0.054 A 
BRANCH  78  79
ATOM     79  S   UNL A   1      42.062  19.313  25.944  1.00  0.00     0.124 S 
ATOM     80  O   UNL A   1      42.917  19.481  24.774  1.00  0.00    -0.237 OA
ATOM     81  O   UNL A   1      42.614  18.490  27.018  1.00  0.00    -0.237 OA
ATOM     82  O   UNL A   1      40.647  19.085  25.660  1.00  0.00    -0.744 OA
ENDBRANCH  78  79
ENDBRANCH  50  73
BRANCH  62  83
ATOM     83  C   UNL A   1      47.518  26.486  31.366  1.00  0.00    -0.014 A 
ATOM     84  C   UNL A   1      47.712  25.826  32.592  1.00  0.00     0.010 A 
ATOM     85  C   UNL A   1      48.612  26.653  30.497  1.00  0.00     0.010 A 
ATOM     86  C   UNL A   1      48.983  25.377  32.961  1.00  0.00     0.020 A 
ATOM     87  C   UNL A   1      49.879  26.180  30.849  1.00  0.00     0.020 A 
ATOM     88  C   UNL A   1      50.060  25.560  32.088  1.00  0.00     0.054 A 
BRANCH  88  89
ATOM     89  S   UNL A   1      51.695  24.947  32.577  1.00  0.00     0.124 S 
ATOM     90  O   UNL A   1      51.839  25.501  33.920  1.00  0.00    -0.237 OA
ATOM     91  O   UNL A   1      51.530  23.498  32.508  1.00  0.00    -0.237 OA
ATOM     92  O   UNL A   1      52.592  25.513  31.571  1.00  0.00    -0.744 OA
ENDBRANCH  88  89
ENDBRANCH  62  83
ENDBRANCH  36  37
ENDBRANCH  28  31
ENDBRANCH  26  27
ENDBRANCH   1  26
TORSDOF 17
ENDMDL
MODEL 3
REMARK VINA RESULT:      -9.2      0.788      8.230
REMARK SMILES Nc1c(CC(=O)NCCCNC(=O)c2ccc(-c3c4nc(c(-c5ccc(S(=O)(=O)[O-])cc5)c5ccc([nH]5)c(-c5ccc(S(=O)(=O)[O-])cc5)c5nc(c(-c6ccc(S(=O)(=O)[O-])cc6)c6ccc3[nH]6)C=C5)C=C4)cc2)cccc1C(=O)c1ccc(Br)cc1
REMARK SMILES IDX 9 1 8 2 7 3 5 4 6 5 4 7 3 8 2 9 77 10 74 11 76 12 75 13 1 14
REMARK SMILES IDX 78 17 79 18 80 19 81 20 86 21 82 22 85 23 83 24 84 25 10 26
REMARK SMILES IDX 11 27 12 28 13 30 14 31 15 32 73 33 16 34 72 35 17 36 18 37
REMARK SMILES IDX 19 38 66 39 20 40 71 41 65 42 67 43 21 44 70 45 64 46 63 47
REMARK SMILES IDX 22 49 52 50 33 51 51 52 34 53 37 54 50 55 68 56 35 57 36 58
REMARK SMILES IDX 49 60 69 61 38 62 23 63 24 64 32 65 25 66 31 67 26 68 27 69
REMARK SMILES IDX 28 70 29 71 30 72 53 73 54 74 62 75 55 76 61 77 56 78 57 79
REMARK SMILES IDX 58 80 59 81 60 82 39 83 40 84 48 85 41 86 47 87 42 88 43 89
REMARK SMILES IDX 44 90 45 91 46 92
REMARK H PARENT 7 6 1 15 1 16 11 29 67 48 37 59
REMARK Flexibility Score: inf
ROOT
ATOM      1  C   UNL A   1      33.506  33.949  28.612  1.00  0.00     0.042 C 
ENDROOT
BRANCH   1   2
ATOM      2  C   UNL A   1      34.189  34.740  29.726  1.00  0.00     0.117 C 
BRANCH   2   3
ATOM      3  N   UNL A   1      33.865  34.230  31.044  1.00  0.00    -0.356 N 
ATOM      4  C   UNL A   1      34.516  33.287  31.785  1.00  0.00     0.224 C 
ATOM      5  O   UNL A   1      34.042  32.974  32.880  1.00  0.00    -0.275 OA
ATOM      6  H   UNL A   1      33.063  34.619  31.464  1.00  0.00     0.163 HD
BRANCH   4   7
ATOM      7  C   UNL A   1      35.826  32.690  31.298  1.00  0.00     0.137 C 
BRANCH   7   8
ATOM      8  C   UNL A   1      36.964  32.764  32.301  1.00  0.00    -0.015 A 
ATOM      9  C   UNL A   1      37.374  31.652  33.086  1.00  0.00     0.046 A 
ATOM     10  C   UNL A   1      38.405  31.837  34.046  1.00  0.00     0.046 A 
ATOM     11  C   UNL A   1      37.591  34.014  32.466  1.00  0.00     0.006 A 
ATOM     12  C   UNL A   1      38.993  33.110  34.192  1.00  0.00     0.014 A 
ATOM     13  C   UNL A   1      38.593  34.188  33.409  1.00  0.00     0.001 A 
BRANCH   9  14
ATOM     14  N   UNL A   1      36.718  30.440  32.912  1.00  0.00    -0.398 N 
ATOM     15  H   UNL A   1      36.624  30.056  32.009  1.00  0.00     0.156 HD
ATOM     16  H   UNL A   1      36.347  29.963  33.690  1.00  0.00     0.156 HD
ENDBRANCH   9  14
BRANCH  10  17
ATOM     17  C   UNL A   1      38.945  30.794  34.984  1.00  0.00     0.195 C 
ATOM     18  O   UNL A   1      38.266  30.394  35.928  1.00  0.00    -0.289 OA
BRANCH  17  19
ATOM     19  C   UNL A   1      40.261  30.155  34.821  1.00  0.00     0.023 A 
ATOM     20  C   UNL A   1      41.232  30.387  35.803  1.00  0.00     0.013 A 
ATOM     21  C   UNL A   1      40.533  29.315  33.736  1.00  0.00     0.013 A 
ATOM     22  C   UNL A   1      42.455  29.717  35.740  1.00  0.00     0.016 A 
ATOM     23  C   UNL A   1      41.754  28.638  33.682  1.00  0.00     0.016 A 
ATOM     24  C   UNL A   1      42.702  28.834  34.689  1.00  0.00     0.018 A 
ATOM     25  Br  UNL A   1      44.330  27.873  34.638  1.00  0.00    -0.051 Br
ENDBRANCH  17  19
ENDBRANCH  10  17
ENDBRANCH   7   8
ENDBRANCH   4   7
ENDBRANCH   2   3
ENDBRANCH   1   2
BRANCH   1  26
ATOM     26  C   UNL A   1      34.391  32.866  27.999  1.00  0.00     0.118 C 
BRANCH  26  27
ATOM     27  N   UNL A   1      33.665  31.624  27.768  1.00  0.00    -0.352 N 
ATOM     28  C   UNL A   1      34.115  30.332  27.694  1.00  0.00     0.251 C 
ATOM     29  H   UNL A   1      32.694  31.730  27.645  1.00  0.00     0.163 HD
ATOM     30  O   UNL A   1      33.346  29.458  27.292  1.00  0.00    -0.269 OA
BRANCH  28  31
ATOM     31  C   UNL A   1      35.500  29.977  28.074  1.00  0.00     0.039 A 
ATOM     32  C   UNL A   1      36.500  30.054  27.100  1.00  0.00     0.014 A 
ATOM     33  C   UNL A   1      35.813  29.526  29.359  1.00  0.00     0.014 A 
ATOM     34  C   UNL A   1      37.818  29.733  27.428  1.00  0.00     0.010 A 
ATOM     35  C   UNL A   1      37.141  29.273  29.704  1.00  0.00     0.010 A 
ATOM     36  C   UNL A   1      38.156  29.369  28.740  1.00  0.00    -0.014 A 
BRANCH  36  37
ATOM     37  C   UNL A   1      39.569  29.118  29.122  1.00  0.00     0.031 A 
ATOM     38  C   UNL A   1      40.241  27.816  28.781  1.00  0.00     0.074 A 
ATOM     39  C   UNL A   1      40.230  30.048  29.838  1.00  0.00     0.049 A 
ATOM     40  N   UNL A   1      41.461  27.425  29.047  1.00  0.00    -0.248 NA
ATOM     41  C   UNL A   1      39.428  26.815  28.075  1.00  0.00     0.031 C 
ATOM     42  C   UNL A   1      39.668  31.323  30.289  1.00  0.00     0.029 A 
ATOM     43  N   UNL A   1      41.514  30.059  30.323  1.00  0.00    -0.354 N 
ATOM     44  C   UNL A   1      41.558  26.127  28.560  1.00  0.00     0.074 A 
ATOM     45  C   UNL A   1      40.258  25.783  28.025  1.00  0.00     0.031 C 
ATOM     46  C   UNL A   1      40.608  32.000  30.967  1.00  0.00     0.029 A 
ATOM     47  C   UNL A   1      41.824  31.197  31.029  1.00  0.00     0.049 A 
ATOM     48  H   UNL A   1      42.152  29.323  30.179  1.00  0.00     0.167 HD
ATOM     49  C   UNL A   1      42.635  25.302  28.544  1.00  0.00     0.031 A 
ATOM     50  C   UNL A   1      42.957  31.556  31.662  1.00  0.00     0.031 A 
ATOM     51  C   UNL A   1      43.924  25.648  29.083  1.00  0.00     0.049 A 
ATOM     52  C   UNL A   1      44.145  30.640  31.617  1.00  0.00     0.074 A 
ATOM     53  C   UNL A   1      45.096  24.913  29.052  1.00  0.00     0.029 A 
ATOM     54  N   UNL A   1      44.208  26.821  29.767  1.00  0.00    -0.354 N 
ATOM     55  N   UNL A   1      44.249  29.454  31.064  1.00  0.00    -0.248 NA
ATOM     56  C   UNL A   1      45.374  31.115  32.265  1.00  0.00     0.031 C 
ATOM     57  C   UNL A   1      46.073  25.618  29.765  1.00  0.00     0.029 A 
ATOM     58  C   UNL A   1      45.527  26.818  30.191  1.00  0.00     0.049 A 
ATOM     59  H   UNL A   1      43.565  27.550  29.927  1.00  0.00     0.167 HD
ATOM     60  C   UNL A   1      45.558  29.045  31.288  1.00  0.00     0.074 A 
ATOM     61  C   UNL A   1      46.213  30.121  32.006  1.00  0.00     0.031 C 
ATOM     62  C   UNL A   1      46.160  27.883  30.930  1.00  0.00     0.031 A 
BRANCH  49  63
ATOM     63  C   UNL A   1      42.441  23.932  27.943  1.00  0.00    -0.014 A 
ATOM     64  C   UNL A   1      42.179  22.809  28.750  1.00  0.00     0.010 A 
ATOM     65  C   UNL A   1      42.529  23.762  26.549  1.00  0.00     0.010 A 
ATOM     66  C   UNL A   1      42.083  21.535  28.184  1.00  0.00     0.020 A 
ATOM     67  C   UNL A   1      42.402  22.493  25.975  1.00  0.00     0.020 A 
ATOM     68  C   UNL A   1      42.208  21.384  26.801  1.00  0.00     0.054 A 
BRANCH  68  69
ATOM     69  S   UNL A   1      42.111  19.716  26.094  1.00  0.00     0.124 S 
ATOM     70  O   UNL A   1      40.708  19.638  25.699  1.00  0.00    -0.237 OA
ATOM     71  O   UNL A   1      43.071  19.777  24.993  1.00  0.00    -0.237 OA
ATOM     72  O   UNL A   1      42.495  18.846  27.203  1.00  0.00    -0.744 OA
ENDBRANCH  68  69
ENDBRANCH  49  63
BRANCH  50  73
ATOM     73  C   UNL A   1      43.005  32.862  32.372  1.00  0.00    -0.014 A 
ATOM     74  C   UNL A   1      42.726  32.938  33.748  1.00  0.00     0.010 A 
ATOM     75  C   UNL A   1      43.411  34.024  31.690  1.00  0.00     0.010 A 
ATOM     76  C   UNL A   1      42.862  34.150  34.430  1.00  0.00     0.020 A 
ATOM     77  C   UNL A   1      43.572  35.231  32.373  1.00  0.00     0.020 A 
ATOM     78  C   UNL A   1      43.295  35.287  33.741  1.00  0.00     0.054 A 
BRANCH  78  79
ATOM     79  S   UNL A   1      43.564  36.823  34.671  1.00  0.00     0.124 S 
ATOM     80  O   UNL A   1      43.603  37.820  33.607  1.00  0.00    -0.237 OA
ATOM     81  O   UNL A   1      42.392  36.871  35.542  1.00  0.00    -0.237 OA
ATOM     82  O   UNL A   1      44.832  36.588  35.358  1.00  0.00    -0.744 OA
ENDBRANCH  78  79
ENDBRANCH  50  73
BRANCH  62  83
ATOM     83  C   UNL A   1      47.609  27.716  31.312  1.00  0.00    -0.014 A 
ATOM     84  C   UNL A   1      48.639  28.156  30.463  1.00  0.00     0.010 A 
ATOM     85  C   UNL A   1      47.941  27.140  32.552  1.00  0.00     0.010 A 
ATOM     86  C   UNL A   1      49.978  27.988  30.829  1.00  0.00     0.020 A 
ATOM     87  C   UNL A   1      49.277  26.997  32.935  1.00  0.00     0.020 A 
ATOM     88  C   UNL A   1      50.288  27.406  32.062  1.00  0.00     0.054 A 
BRANCH  88  89
ATOM     89  S   UNL A   1      52.032  27.222  32.527  1.00  0.00     0.124 S 
ATOM     90  O   UNL A   1      52.076  27.903  33.818  1.00  0.00    -0.237 OA
ATOM     91  O   UNL A   1      52.201  25.772  32.574  1.00  0.00    -0.237 OA
ATOM     92  O   UNL A   1      52.751  27.892  31.445  1.00  0.00    -0.744 OA
ENDBRANCH  88  89
ENDBRANCH  62  83
ENDBRANCH  36  37
ENDBRANCH  28  31
ENDBRANCH  26  27
ENDBRANCH   1  26
TORSDOF 17
ENDMDL
