MODEL 1
REMARK VINA RESULT:     -12.6      0.000      0.000
REMARK SMILES Cc1cc(F)cc(N[C@H](C(=O)NCCCNC(=O)c2ccc(-c3c4nc(c(-c5ccc(S(=O)(=O)[O-])cc5)c5ccc([nH]5)c(-c5ccc(S(=O)(=O)[O-])cc5)c5nc(c(-c6ccc(S(=O)(=O)[O-])cc6)c6ccc3[nH]6)C=C5)C=C4)cc2)c2cc(C)cc(C)c2)c1
REMARK SMILES IDX 14 1 13 2 12 3 10 4 11 5 9 7 8 8 7 10 1 11 2 12 3 13 87 14
REMARK SMILES IDX 4 15 5 16 6 17 79 18 80 19 86 20 81 21 84 22 82 23 83 24
REMARK SMILES IDX 85 25 15 26 16 27 17 28 18 30 19 31 20 32 78 33 21 34 77 35
REMARK SMILES IDX 22 36 23 37 24 38 71 39 25 40 76 41 70 42 72 43 26 44 75 45
REMARK SMILES IDX 69 46 68 47 27 49 57 50 38 51 56 52 39 53 42 54 55 55 73 56
REMARK SMILES IDX 40 57 41 58 54 60 74 61 43 62 28 63 29 64 37 65 30 66 36 67
REMARK SMILES IDX 31 68 32 69 33 70 34 71 35 72 58 73 59 74 67 75 60 76 66 77
REMARK SMILES IDX 61 78 62 79 63 80 64 81 65 82 44 83 45 84 53 85 46 86 52 87
REMARK SMILES IDX 47 88 48 89 49 90 50 91 51 92
REMARK H PARENT 12 6 8 9 16 29 72 48 42 59
REMARK Flexibility Score: inf
ROOT
ATOM      1  C   UNL A   1      37.377  23.416  25.279  1.00  0.00     0.042 C 
ENDROOT
BRANCH   1   2
ATOM      2  C   UNL A   1      36.830  22.065  25.699  1.00  0.00     0.117 C 
BRANCH   2   3
ATOM      3  N   UNL A   1      35.835  22.144  26.749  1.00  0.00    -0.354 N 
ATOM      4  C   UNL A   1      34.473  22.120  26.668  1.00  0.00     0.247 C 
ATOM      5  O   UNL A   1      33.886  22.135  27.760  1.00  0.00    -0.272 OA
ATOM      6  H   UNL A   1      36.197  22.230  27.660  1.00  0.00     0.163 HD
BRANCH   4   7
ATOM      7  C   UNL A   1      33.697  22.206  25.321  1.00  0.00     0.200 C 
BRANCH   7   8
ATOM      8  N   UNL A   1      32.641  21.185  25.099  1.00  0.00    -0.370 N 
ATOM      9  H   UNL A   1      31.766  21.427  25.480  1.00  0.00     0.161 HD
BRANCH   8  10
ATOM     10  C   UNL A   1      32.655  19.961  24.459  1.00  0.00     0.038 A 
ATOM     11  C   UNL A   1      32.828  16.273  25.531  1.00  0.00     0.044 C 
ATOM     12  C   UNL A   1      32.730  17.501  24.676  1.00  0.00    -0.046 A 
ATOM     13  C   UNL A   1      32.582  17.361  23.298  1.00  0.00     0.042 A 
ATOM     14  C   UNL A   1      32.799  18.793  25.235  1.00  0.00     0.029 A 
ATOM     15  C   UNL A   1      32.442  18.494  22.525  1.00  0.00     0.125 A 
ATOM     16  F   UNL A   1      32.289  18.379  21.198  1.00  0.00    -0.207 F 
ATOM     17  C   UNL A   1      32.442  19.760  23.101  1.00  0.00     0.065 A 
ENDBRANCH   8  10
ENDBRANCH   7   8
BRANCH   7  18
ATOM     18  C   UNL A   1      33.180  23.598  24.966  1.00  0.00    -0.016 A 
ATOM     19  C   UNL A   1      32.751  23.889  23.665  1.00  0.00     0.009 A 
ATOM     20  C   UNL A   1      33.295  24.655  25.879  1.00  0.00     0.009 A 
ATOM     21  C   UNL A   1      32.739  25.202  23.195  1.00  0.00    -0.051 A 
ATOM     22  C   UNL A   1      33.093  25.979  25.467  1.00  0.00    -0.051 A 
ATOM     23  C   UNL A   1      32.805  25.445  21.715  1.00  0.00     0.044 C 
ATOM     24  C   UNL A   1      32.891  26.247  24.107  1.00  0.00     0.006 A 
ATOM     25  C   UNL A   1      33.212  27.113  26.440  1.00  0.00     0.044 C 
ENDBRANCH   7  18
ENDBRANCH   4   7
ENDBRANCH   2   3
ENDBRANCH   1   2
BRANCH   1  26
ATOM     26  C   UNL A   1      38.226  24.106  26.332  1.00  0.00     0.118 C 
BRANCH  26  27
ATOM     27  N   UNL A   1      39.658  23.923  26.136  1.00  0.00    -0.352 N 
ATOM     28  C   UNL A   1      40.718  24.665  26.604  1.00  0.00     0.251 C 
ATOM     29  H   UNL A   1      39.906  23.147  25.582  1.00  0.00     0.163 HD
ATOM     30  O   UNL A   1      41.854  24.431  26.199  1.00  0.00    -0.269 OA
BRANCH  28  31
ATOM     31  C   UNL A   1      40.485  25.768  27.562  1.00  0.00     0.039 A 
ATOM     32  C   UNL A   1      39.529  25.607  28.567  1.00  0.00     0.014 A 
ATOM     33  C   UNL A   1      41.228  26.947  27.490  1.00  0.00     0.014 A 
ATOM     34  C   UNL A   1      39.387  26.590  29.550  1.00  0.00     0.010 A 
ATOM     35  C   UNL A   1      41.172  27.864  28.533  1.00  0.00     0.010 A 
ATOM     36  C   UNL A   1      40.244  27.703  29.572  1.00  0.00    -0.014 A 
BRANCH  36  37
ATOM     37  C   UNL A   1      40.184  28.719  30.656  1.00  0.00     0.031 A 
ATOM     38  C   UNL A   1      41.089  28.589  31.855  1.00  0.00     0.074 A 
ATOM     39  C   UNL A   1      39.268  29.708  30.601  1.00  0.00     0.049 A 
ATOM     40  N   UNL A   1      41.129  29.319  32.940  1.00  0.00    -0.248 NA
ATOM     41  C   UNL A   1      42.052  27.474  31.853  1.00  0.00     0.031 C 
ATOM     42  C   UNL A   1      38.301  29.915  29.518  1.00  0.00     0.029 A 
ATOM     43  N   UNL A   1      38.994  30.724  31.483  1.00  0.00    -0.354 N 
ATOM     44  C   UNL A   1      42.089  28.733  33.756  1.00  0.00     0.074 A 
ATOM     45  C   UNL A   1      42.576  27.561  33.067  1.00  0.00     0.031 C 
ATOM     46  C   UNL A   1      37.570  31.012  29.782  1.00  0.00     0.029 A 
ATOM     47  C   UNL A   1      37.977  31.557  31.072  1.00  0.00     0.049 A 
ATOM     48  H   UNL A   1      39.479  30.846  32.331  1.00  0.00     0.167 HD
ATOM     49  C   UNL A   1      42.542  29.145  34.963  1.00  0.00     0.031 A 
ATOM     50  C   UNL A   1      37.429  32.634  31.670  1.00  0.00     0.031 A 
ATOM     51  C   UNL A   1      42.087  30.336  35.626  1.00  0.00     0.049 A 
ATOM     52  C   UNL A   1      37.958  33.072  33.011  1.00  0.00     0.074 A 
ATOM     53  C   UNL A   1      42.548  30.889  36.809  1.00  0.00     0.029 A 
ATOM     54  N   UNL A   1      41.072  31.160  35.168  1.00  0.00    -0.354 N 
ATOM     55  N   UNL A   1      38.928  32.550  33.725  1.00  0.00    -0.248 NA
ATOM     56  C   UNL A   1      37.324  34.248  33.622  1.00  0.00     0.031 C 
ATOM     57  C   UNL A   1      41.770  32.013  37.097  1.00  0.00     0.029 A 
ATOM     58  C   UNL A   1      40.869  32.199  36.059  1.00  0.00     0.049 A 
ATOM     59  H   UNL A   1      40.569  31.026  34.332  1.00  0.00     0.167 HD
ATOM     60  C   UNL A   1      39.044  33.359  34.851  1.00  0.00     0.074 A 
ATOM     61  C   UNL A   1      38.057  34.410  34.715  1.00  0.00     0.031 C 
ATOM     62  C   UNL A   1      39.892  33.244  35.902  1.00  0.00     0.031 A 
BRANCH  49  63
ATOM     63  C   UNL A   1      43.584  28.306  35.654  1.00  0.00    -0.014 A 
ATOM     64  C   UNL A   1      43.226  27.329  36.601  1.00  0.00     0.010 A 
ATOM     65  C   UNL A   1      44.937  28.445  35.293  1.00  0.00     0.010 A 
ATOM     66  C   UNL A   1      44.204  26.523  37.190  1.00  0.00     0.020 A 
ATOM     67  C   UNL A   1      45.914  27.622  35.858  1.00  0.00     0.020 A 
ATOM     68  C   UNL A   1      45.542  26.671  36.811  1.00  0.00     0.054 A 
BRANCH  68  69
ATOM     69  S   UNL A   1      46.779  25.568  37.546  1.00  0.00     0.124 S 
ATOM     70  O   UNL A   1      45.970  24.786  38.478  1.00  0.00    -0.237 OA
ATOM     71  O   UNL A   1      47.284  24.837  36.387  1.00  0.00    -0.237 OA
ATOM     72  O   UNL A   1      47.735  26.482  38.168  1.00  0.00    -0.744 OA
ENDBRANCH  68  69
ENDBRANCH  49  63
BRANCH  50  73
ATOM     73  C   UNL A   1      36.325  33.387  31.012  1.00  0.00    -0.014 A 
ATOM     74  C   UNL A   1      36.494  33.916  29.719  1.00  0.00     0.010 A 
ATOM     75  C   UNL A   1      35.109  33.608  31.684  1.00  0.00     0.010 A 
ATOM     76  C   UNL A   1      35.487  34.685  29.128  1.00  0.00     0.020 A 
ATOM     77  C   UNL A   1      34.087  34.349  31.083  1.00  0.00     0.020 A 
ATOM     78  C   UNL A   1      34.290  34.900  29.817  1.00  0.00     0.054 A 
BRANCH  78  79
ATOM     79  S   UNL A   1      32.992  35.892  29.027  1.00  0.00     0.124 S 
ATOM     80  O   UNL A   1      33.769  36.934  28.364  1.00  0.00    -0.237 OA
ATOM     81  O   UNL A   1      32.347  34.922  28.146  1.00  0.00    -0.237 OA
ATOM     82  O   UNL A   1      32.174  36.341  30.152  1.00  0.00    -0.744 OA
ENDBRANCH  78  79
ENDBRANCH  50  73
BRANCH  62  83
ATOM     83  C   UNL A   1      39.831  34.307  36.966  1.00  0.00    -0.014 A 
ATOM     84  C   UNL A   1      40.430  35.564  36.780  1.00  0.00     0.010 A 
ATOM     85  C   UNL A   1      39.106  34.059  38.146  1.00  0.00     0.010 A 
ATOM     86  C   UNL A   1      40.332  36.545  37.771  1.00  0.00     0.020 A 
ATOM     87  C   UNL A   1      38.978  35.047  39.124  1.00  0.00     0.020 A 
ATOM     88  C   UNL A   1      39.605  36.280  38.937  1.00  0.00     0.054 A 
BRANCH  88  89
ATOM     89  S   UNL A   1      39.452  37.586  40.185  1.00  0.00     0.124 S 
ATOM     90  O   UNL A   1      38.553  38.530  39.529  1.00  0.00    -0.237 OA
ATOM     91  O   UNL A   1      38.890  36.871  41.328  1.00  0.00    -0.237 OA
ATOM     92  O   UNL A   1      40.825  38.056  40.364  1.00  0.00    -0.744 OA
ENDBRANCH  88  89
ENDBRANCH  62  83
ENDBRANCH  36  37
ENDBRANCH  28  31
ENDBRANCH  26  27
ENDBRANCH   1  26
TORSDOF 16
ENDMDL
MODEL 2
REMARK VINA RESULT:     -12.6      4.807     10.267
REMARK SMILES Cc1cc(F)cc(N[C@H](C(=O)NCCCNC(=O)c2ccc(-c3c4nc(c(-c5ccc(S(=O)(=O)[O-])cc5)c5ccc([nH]5)c(-c5ccc(S(=O)(=O)[O-])cc5)c5nc(c(-c6ccc(S(=O)(=O)[O-])cc6)c6ccc3[nH]6)C=C5)C=C4)cc2)c2cc(C)cc(C)c2)c1
REMARK SMILES IDX 14 1 13 2 12 3 10 4 11 5 9 7 8 8 7 10 1 11 2 12 3 13 87 14
REMARK SMILES IDX 4 15 5 16 6 17 79 18 80 19 86 20 81 21 84 22 82 23 83 24
REMARK SMILES IDX 85 25 15 26 16 27 17 28 18 30 19 31 20 32 78 33 21 34 77 35
REMARK SMILES IDX 22 36 23 37 24 38 71 39 25 40 76 41 70 42 72 43 26 44 75 45
REMARK SMILES IDX 69 46 68 47 27 49 57 50 38 51 56 52 39 53 42 54 55 55 73 56
REMARK SMILES IDX 40 57 41 58 54 60 74 61 43 62 28 63 29 64 37 65 30 66 36 67
REMARK SMILES IDX 31 68 32 69 33 70 34 71 35 72 58 73 59 74 67 75 60 76 66 77
REMARK SMILES IDX 61 78 62 79 63 80 64 81 65 82 44 83 45 84 53 85 46 86 52 87
REMARK SMILES IDX 47 88 48 89 49 90 50 91 51 92
REMARK H PARENT 12 6 8 9 16 29 72 48 42 59
REMARK Flexibility Score: inf
ROOT
ATOM      1  C   UNL A   1      32.168  27.865  27.656  1.00  0.00     0.042 C 
ENDROOT
BRANCH   1   2
ATOM      2  C   UNL A   1      31.338  27.417  26.468  1.00  0.00     0.117 C 
BRANCH   2   3
ATOM      3  N   UNL A   1      30.927  26.030  26.539  1.00  0.00    -0.354 N 
ATOM      4  C   UNL A   1      31.675  24.890  26.478  1.00  0.00     0.247 C 
ATOM      5  O   UNL A   1      31.037  23.840  26.640  1.00  0.00    -0.272 OA
ATOM      6  H   UNL A   1      29.958  25.888  26.644  1.00  0.00     0.163 HD
BRANCH   4   7
ATOM      7  C   UNL A   1      33.185  24.881  26.101  1.00  0.00     0.200 C 
BRANCH   7   8
ATOM      8  N   UNL A   1      33.982  23.725  26.589  1.00  0.00    -0.370 N 
ATOM      9  H   UNL A   1      33.538  23.205  27.297  1.00  0.00     0.161 HD
BRANCH   8  10
ATOM     10  C   UNL A   1      35.226  23.242  26.234  1.00  0.00     0.038 A 
ATOM     11  C   UNL A   1      36.628  19.937  24.860  1.00  0.00     0.044 C 
ATOM     12  C   UNL A   1      36.549  21.351  25.350  1.00  0.00    -0.046 A 
ATOM     13  C   UNL A   1      37.700  22.135  25.357  1.00  0.00     0.042 A 
ATOM     14  C   UNL A   1      35.337  21.899  25.819  1.00  0.00     0.029 A 
ATOM     15  C   UNL A   1      37.608  23.450  25.762  1.00  0.00     0.125 A 
ATOM     16  F   UNL A   1      38.703  24.224  25.767  1.00  0.00    -0.207 F 
ATOM     17  C   UNL A   1      36.390  23.996  26.156  1.00  0.00     0.065 A 
ENDBRANCH   8  10
ENDBRANCH   7   8
BRANCH   7  18
ATOM     18  C   UNL A   1      33.481  25.152  24.628  1.00  0.00    -0.016 A 
ATOM     19  C   UNL A   1      33.786  26.446  24.188  1.00  0.00     0.009 A 
ATOM     20  C   UNL A   1      33.274  24.155  23.665  1.00  0.00     0.009 A 
ATOM     21  C   UNL A   1      33.585  26.812  22.857  1.00  0.00    -0.051 A 
ATOM     22  C   UNL A   1      33.264  24.472  22.300  1.00  0.00    -0.051 A 
ATOM     23  C   UNL A   1      33.397  28.264  22.524  1.00  0.00     0.044 C 
ATOM     24  C   UNL A   1      33.344  25.816  21.912  1.00  0.00     0.006 A 
ATOM     25  C   UNL A   1      33.045  23.409  21.266  1.00  0.00     0.044 C 
ENDBRANCH   7  18
ENDBRANCH   4   7
ENDBRANCH   2   3
ENDBRANCH   1   2
BRANCH   1  26
ATOM     26  C   UNL A   1      33.471  28.555  27.288  1.00  0.00     0.118 C 
BRANCH  26  27
ATOM     27  N   UNL A   1      33.490  29.974  27.618  1.00  0.00    -0.352 N 
ATOM     28  C   UNL A   1      34.492  30.742  28.164  1.00  0.00     0.251 C 
ATOM     29  H   UNL A   1      32.656  30.457  27.419  1.00  0.00     0.163 HD
ATOM     30  O   UNL A   1      34.257  31.898  28.507  1.00  0.00    -0.269 OA
BRANCH  28  31
ATOM     31  C   UNL A   1      35.838  30.166  28.374  1.00  0.00     0.039 A 
ATOM     32  C   UNL A   1      36.756  30.176  27.321  1.00  0.00     0.014 A 
ATOM     33  C   UNL A   1      36.207  29.643  29.613  1.00  0.00     0.014 A 
ATOM     34  C   UNL A   1      38.067  29.748  27.543  1.00  0.00     0.010 A 
ATOM     35  C   UNL A   1      37.538  29.333  29.865  1.00  0.00     0.010 A 
ATOM     36  C   UNL A   1      38.485  29.372  28.831  1.00  0.00    -0.014 A 
BRANCH  36  37
ATOM     37  C   UNL A   1      39.895  29.001  29.122  1.00  0.00     0.031 A 
ATOM     38  C   UNL A   1      40.829  30.023  29.719  1.00  0.00     0.074 A 
ATOM     39  C   UNL A   1      40.354  27.780  28.780  1.00  0.00     0.049 A 
ATOM     40  N   UNL A   1      42.110  29.922  29.966  1.00  0.00    -0.248 NA
ATOM     41  C   UNL A   1      40.261  31.341  30.051  1.00  0.00     0.031 C 
ATOM     42  C   UNL A   1      39.563  26.717  28.151  1.00  0.00     0.029 A 
ATOM     43  N   UNL A   1      41.604  27.225  28.906  1.00  0.00    -0.354 N 
ATOM     44  C   UNL A   1      42.502  31.167  30.445  1.00  0.00     0.074 A 
ATOM     45  C   UNL A   1      41.339  32.022  30.411  1.00  0.00     0.031 C 
ATOM     46  C   UNL A   1      40.335  25.630  27.984  1.00  0.00     0.029 A 
ATOM     47  C   UNL A   1      41.687  25.930  28.445  1.00  0.00     0.049 A 
ATOM     48  H   UNL A   1      42.370  27.708  29.291  1.00  0.00     0.167 HD
ATOM     49  C   UNL A   1      43.718  31.558  30.894  1.00  0.00     0.031 A 
ATOM     50  C   UNL A   1      42.733  25.083  28.392  1.00  0.00     0.031 A 
ATOM     51  C   UNL A   1      44.862  30.692  30.968  1.00  0.00     0.049 A 
ATOM     52  C   UNL A   1      44.073  25.545  28.904  1.00  0.00     0.074 A 
ATOM     53  C   UNL A   1      46.114  30.967  31.491  1.00  0.00     0.029 A 
ATOM     54  N   UNL A   1      44.898  29.385  30.509  1.00  0.00    -0.354 N 
ATOM     55  N   UNL A   1      44.399  26.701  29.433  1.00  0.00    -0.248 NA
ATOM     56  C   UNL A   1      45.182  24.585  28.819  1.00  0.00     0.031 C 
ATOM     57  C   UNL A   1      46.924  29.846  31.294  1.00  0.00     0.029 A 
ATOM     58  C   UNL A   1      46.159  28.851  30.708  1.00  0.00     0.049 A 
ATOM     59  H   UNL A   1      44.139  28.908  30.102  1.00  0.00     0.167 HD
ATOM     60  C   UNL A   1      45.742  26.591  29.779  1.00  0.00     0.074 A 
ATOM     61  C   UNL A   1      46.161  25.255  29.412  1.00  0.00     0.031 C 
ATOM     62  C   UNL A   1      46.555  27.513  30.350  1.00  0.00     0.031 A 
BRANCH  49  63
ATOM     63  C   UNL A   1      43.883  32.986  31.342  1.00  0.00    -0.014 A 
ATOM     64  C   UNL A   1      44.337  33.982  30.459  1.00  0.00     0.010 A 
ATOM     65  C   UNL A   1      43.503  33.351  32.647  1.00  0.00     0.010 A 
ATOM     66  C   UNL A   1      44.431  35.312  30.879  1.00  0.00     0.020 A 
ATOM     67  C   UNL A   1      43.566  34.683  33.062  1.00  0.00     0.020 A 
ATOM     68  C   UNL A   1      44.040  35.654  32.178  1.00  0.00     0.054 A 
BRANCH  68  69
ATOM     69  S   UNL A   1      44.113  37.397  32.674  1.00  0.00     0.124 S 
ATOM     70  O   UNL A   1      45.488  37.517  33.151  1.00  0.00    -0.237 OA
ATOM     71  O   UNL A   1      43.819  38.097  31.426  1.00  0.00    -0.237 OA
ATOM     72  O   UNL A   1      43.084  37.509  33.705  1.00  0.00    -0.744 OA
ENDBRANCH  68  69
ENDBRANCH  49  63
BRANCH  50  73
ATOM     73  C   UNL A   1      42.569  23.707  27.845  1.00  0.00    -0.014 A 
ATOM     74  C   UNL A   1      42.737  23.462  26.469  1.00  0.00     0.010 A 
ATOM     75  C   UNL A   1      42.213  22.639  28.688  1.00  0.00     0.010 A 
ATOM     76  C   UNL A   1      42.513  22.186  25.943  1.00  0.00     0.020 A 
ATOM     77  C   UNL A   1      42.019  21.355  28.169  1.00  0.00     0.020 A 
ATOM     78  C   UNL A   1      42.151  21.141  26.796  1.00  0.00     0.054 A 
BRANCH  78  79
ATOM     79  S   UNL A   1      41.875  19.491  26.092  1.00  0.00     0.124 S 
ATOM     80  O   UNL A   1      42.730  19.520  24.910  1.00  0.00    -0.237 OA
ATOM     81  O   UNL A   1      42.312  18.611  27.172  1.00  0.00    -0.237 OA
ATOM     82  O   UNL A   1      40.438  19.471  25.826  1.00  0.00    -0.744 OA
ENDBRANCH  78  79
ENDBRANCH  50  73
BRANCH  62  83
ATOM     83  C   UNL A   1      47.968  27.098  30.664  1.00  0.00    -0.014 A 
ATOM     84  C   UNL A   1      49.002  27.256  29.727  1.00  0.00     0.010 A 
ATOM     85  C   UNL A   1      48.270  26.598  31.944  1.00  0.00     0.010 A 
ATOM     86  C   UNL A   1      50.311  26.893  30.054  1.00  0.00     0.020 A 
ATOM     87  C   UNL A   1      49.581  26.264  32.286  1.00  0.00     0.020 A 
ATOM     88  C   UNL A   1      50.593  26.399  31.333  1.00  0.00     0.054 A 
BRANCH  88  89
ATOM     89  S   UNL A   1      52.307  25.980  31.748  1.00  0.00     0.124 S 
ATOM     90  O   UNL A   1      53.008  26.304  30.510  1.00  0.00    -0.237 OA
ATOM     91  O   UNL A   1      52.586  26.861  32.879  1.00  0.00    -0.237 OA
ATOM     92  O   UNL A   1      52.246  24.557  32.074  1.00  0.00    -0.744 OA
ENDBRANCH  88  89
ENDBRANCH  62  83
ENDBRANCH  36  37
ENDBRANCH  28  31
ENDBRANCH  26  27
ENDBRANCH   1  26
TORSDOF 16
ENDMDL
MODEL 3
REMARK VINA RESULT:     -12.6      4.748     10.358
REMARK SMILES Cc1cc(F)cc(N[C@H](C(=O)NCCCNC(=O)c2ccc(-c3c4nc(c(-c5ccc(S(=O)(=O)[O-])cc5)c5ccc([nH]5)c(-c5ccc(S(=O)(=O)[O-])cc5)c5nc(c(-c6ccc(S(=O)(=O)[O-])cc6)c6ccc3[nH]6)C=C5)C=C4)cc2)c2cc(C)cc(C)c2)c1
REMARK SMILES IDX 14 1 13 2 12 3 10 4 11 5 9 7 8 8 7 10 1 11 2 12 3 13 87 14
REMARK SMILES IDX 4 15 5 16 6 17 79 18 80 19 86 20 81 21 84 22 82 23 83 24
REMARK SMILES IDX 85 25 15 26 16 27 17 28 18 30 19 31 20 32 78 33 21 34 77 35
REMARK SMILES IDX 22 36 23 37 24 38 71 39 25 40 76 41 70 42 72 43 26 44 75 45
REMARK SMILES IDX 69 46 68 47 27 49 57 50 38 51 56 52 39 53 42 54 55 55 73 56
REMARK SMILES IDX 40 57 41 58 54 60 74 61 43 62 28 63 29 64 37 65 30 66 36 67
REMARK SMILES IDX 31 68 32 69 33 70 34 71 35 72 58 73 59 74 67 75 60 76 66 77
REMARK SMILES IDX 61 78 62 79 63 80 64 81 65 82 44 83 45 84 53 85 46 86 52 87
REMARK SMILES IDX 47 88 48 89 49 90 50 91 51 92
REMARK H PARENT 12 6 8 9 16 29 72 48 42 59
REMARK Flexibility Score: inf
ROOT
ATOM      1  C   UNL A   1      33.619  28.365  25.640  1.00  0.00     0.042 C 
ENDROOT
BRANCH   1   2
ATOM      2  C   UNL A   1      33.573  26.923  25.170  1.00  0.00     0.117 C 
BRANCH   2   3
ATOM      3  N   UNL A   1      33.596  26.782  23.729  1.00  0.00    -0.354 N 
ATOM      4  C   UNL A   1      33.809  25.675  22.961  1.00  0.00     0.247 C 
ATOM      5  O   UNL A   1      33.695  25.858  21.740  1.00  0.00    -0.272 OA
ATOM      6  H   UNL A   1      33.434  27.613  23.227  1.00  0.00     0.163 HD
BRANCH   4   7
ATOM      7  C   UNL A   1      34.292  24.314  23.543  1.00  0.00     0.200 C 
BRANCH   7   8
ATOM      8  N   UNL A   1      35.309  24.380  24.624  1.00  0.00    -0.370 N 
ATOM      9  H   UNL A   1      35.287  25.218  25.142  1.00  0.00     0.161 HD
BRANCH   8  10
ATOM     10  C   UNL A   1      36.277  23.489  25.041  1.00  0.00     0.038 A 
ATOM     11  C   UNL A   1      36.854  19.697  24.777  1.00  0.00     0.044 C 
ATOM     12  C   UNL A   1      37.061  21.146  25.101  1.00  0.00    -0.046 A 
ATOM     13  C   UNL A   1      38.238  21.541  25.732  1.00  0.00     0.042 A 
ATOM     14  C   UNL A   1      36.083  22.115  24.795  1.00  0.00     0.029 A 
ATOM     15  C   UNL A   1      38.443  22.882  25.981  1.00  0.00     0.125 A 
ATOM     16  F   UNL A   1      39.573  23.283  26.579  1.00  0.00    -0.207 F 
ATOM     17  C   UNL A   1      37.498  23.833  25.610  1.00  0.00     0.065 A 
ENDBRANCH   8  10
ENDBRANCH   7   8
BRANCH   7  18
ATOM     18  C   UNL A   1      33.175  23.342  23.916  1.00  0.00    -0.016 A 
ATOM     19  C   UNL A   1      32.179  23.718  24.827  1.00  0.00     0.009 A 
ATOM     20  C   UNL A   1      33.225  22.005  23.501  1.00  0.00     0.009 A 
ATOM     21  C   UNL A   1      31.464  22.753  25.538  1.00  0.00    -0.051 A 
ATOM     22  C   UNL A   1      32.372  21.049  24.068  1.00  0.00    -0.051 A 
ATOM     23  C   UNL A   1      30.823  23.138  26.840  1.00  0.00     0.044 C 
ATOM     24  C   UNL A   1      31.549  21.420  25.139  1.00  0.00     0.006 A 
ATOM     25  C   UNL A   1      32.421  19.618  23.626  1.00  0.00     0.044 C 
ENDBRANCH   7  18
ENDBRANCH   4   7
ENDBRANCH   2   3
ENDBRANCH   1   2
BRANCH   1  26
ATOM     26  C   UNL A   1      33.592  28.535  27.149  1.00  0.00     0.118 C 
BRANCH  26  27
ATOM     27  N   UNL A   1      33.606  29.928  27.577  1.00  0.00    -0.352 N 
ATOM     28  C   UNL A   1      34.592  30.651  28.206  1.00  0.00     0.251 C 
ATOM     29  H   UNL A   1      32.779  30.429  27.387  1.00  0.00     0.163 HD
ATOM     30  O   UNL A   1      34.350  31.782  28.622  1.00  0.00    -0.269 OA
BRANCH  28  31
ATOM     31  C   UNL A   1      35.930  30.054  28.417  1.00  0.00     0.039 A 
ATOM     32  C   UNL A   1      36.874  30.119  27.390  1.00  0.00     0.014 A 
ATOM     33  C   UNL A   1      36.264  29.459  29.634  1.00  0.00     0.014 A 
ATOM     34  C   UNL A   1      38.177  29.670  27.620  1.00  0.00     0.010 A 
ATOM     35  C   UNL A   1      37.587  29.127  29.900  1.00  0.00     0.010 A 
ATOM     36  C   UNL A   1      38.559  29.218  28.894  1.00  0.00    -0.014 A 
BRANCH  36  37
ATOM     37  C   UNL A   1      39.959  28.822  29.199  1.00  0.00     0.031 A 
ATOM     38  C   UNL A   1      40.891  29.809  29.857  1.00  0.00     0.074 A 
ATOM     39  C   UNL A   1      40.415  27.611  28.817  1.00  0.00     0.049 A 
ATOM     40  N   UNL A   1      42.165  29.686  30.126  1.00  0.00    -0.248 NA
ATOM     41  C   UNL A   1      40.328  31.118  30.231  1.00  0.00     0.031 C 
ATOM     42  C   UNL A   1      39.628  26.582  28.129  1.00  0.00     0.029 A 
ATOM     43  N   UNL A   1      41.657  27.039  28.947  1.00  0.00    -0.354 N 
ATOM     44  C   UNL A   1      42.558  30.906  30.664  1.00  0.00     0.074 A 
ATOM     45  C   UNL A   1      41.404  31.774  30.641  1.00  0.00     0.031 C 
ATOM     46  C   UNL A   1      40.394  25.496  27.934  1.00  0.00     0.029 A 
ATOM     47  C   UNL A   1      41.738  25.763  28.435  1.00  0.00     0.049 A 
ATOM     48  H   UNL A   1      42.419  27.499  29.367  1.00  0.00     0.167 HD
ATOM     49  C   UNL A   1      43.768  31.266  31.153  1.00  0.00     0.031 A 
ATOM     50  C   UNL A   1      42.777  24.909  28.369  1.00  0.00     0.031 A 
ATOM     51  C   UNL A   1      44.902  30.387  31.216  1.00  0.00     0.049 A 
ATOM     52  C   UNL A   1      44.110  25.336  28.927  1.00  0.00     0.074 A 
ATOM     53  C   UNL A   1      46.145  30.628  31.776  1.00  0.00     0.029 A 
ATOM     54  N   UNL A   1      44.936  29.099  30.705  1.00  0.00    -0.354 N 
ATOM     55  N   UNL A   1      44.435  26.466  29.510  1.00  0.00    -0.248 NA
ATOM     56  C   UNL A   1      45.212  24.370  28.826  1.00  0.00     0.031 C 
ATOM     57  C   UNL A   1      46.949  29.508  31.550  1.00  0.00     0.029 A 
ATOM     58  C   UNL A   1      46.187  28.545  30.908  1.00  0.00     0.049 A 
ATOM     59  H   UNL A   1      44.181  28.646  30.263  1.00  0.00     0.167 HD
ATOM     60  C   UNL A   1      45.769  26.329  29.878  1.00  0.00     0.074 A 
ATOM     61  C   UNL A   1      46.184  25.005  29.466  1.00  0.00     0.031 C 
ATOM     62  C   UNL A   1      46.578  27.219  30.503  1.00  0.00     0.031 A 
BRANCH  49  63
ATOM     63  C   UNL A   1      43.935  32.673  31.663  1.00  0.00    -0.014 A 
ATOM     64  C   UNL A   1      43.723  32.990  33.018  1.00  0.00     0.010 A 
ATOM     65  C   UNL A   1      44.387  33.679  30.788  1.00  0.00     0.010 A 
ATOM     66  C   UNL A   1      43.938  34.291  33.482  1.00  0.00     0.020 A 
ATOM     67  C   UNL A   1      44.631  34.973  31.255  1.00  0.00     0.020 A 
ATOM     68  C   UNL A   1      44.396  35.273  32.598  1.00  0.00     0.054 A 
BRANCH  68  69
ATOM     69  S   UNL A   1      44.725  36.935  33.243  1.00  0.00     0.124 S 
ATOM     70  O   UNL A   1      45.732  37.428  32.306  1.00  0.00    -0.237 OA
ATOM     71  O   UNL A   1      43.417  37.578  33.153  1.00  0.00    -0.237 OA
ATOM     72  O   UNL A   1      45.205  36.692  34.602  1.00  0.00    -0.744 OA
ENDBRANCH  68  69
ENDBRANCH  49  63
BRANCH  50  73
ATOM     73  C   UNL A   1      42.612  23.557  27.762  1.00  0.00    -0.014 A 
ATOM     74  C   UNL A   1      42.178  22.473  28.547  1.00  0.00     0.010 A 
ATOM     75  C   UNL A   1      42.917  23.339  26.407  1.00  0.00     0.010 A 
ATOM     76  C   UNL A   1      42.091  21.190  27.999  1.00  0.00     0.020 A 
ATOM     77  C   UNL A   1      42.800  22.062  25.847  1.00  0.00     0.020 A 
ATOM     78  C   UNL A   1      42.407  20.992  26.652  1.00  0.00     0.054 A 
BRANCH  78  79
ATOM     79  S   UNL A   1      42.278  19.320  25.959  1.00  0.00     0.124 S 
ATOM     80  O   UNL A   1      43.141  19.412  24.786  1.00  0.00    -0.237 OA
ATOM     81  O   UNL A   1      42.776  18.486  27.051  1.00  0.00    -0.237 OA
ATOM     82  O   UNL A   1      40.850  19.178  25.678  1.00  0.00    -0.744 OA
ENDBRANCH  78  79
ENDBRANCH  50  73
BRANCH  62  83
ATOM     83  C   UNL A   1      47.980  26.777  30.830  1.00  0.00    -0.014 A 
ATOM     84  C   UNL A   1      49.041  26.989  29.933  1.00  0.00     0.010 A 
ATOM     85  C   UNL A   1      48.245  26.196  32.083  1.00  0.00     0.010 A 
ATOM     86  C   UNL A   1      50.339  26.599  30.273  1.00  0.00     0.020 A 
ATOM     87  C   UNL A   1      49.545  25.834  32.439  1.00  0.00     0.020 A 
ATOM     88  C   UNL A   1      50.583  26.024  31.525  1.00  0.00     0.054 A 
BRANCH  88  89
ATOM     89  S   UNL A   1      52.283  25.570  31.960  1.00  0.00     0.124 S 
ATOM     90  O   UNL A   1      52.161  24.138  32.211  1.00  0.00    -0.237 OA
ATOM     91  O   UNL A   1      53.029  25.937  30.759  1.00  0.00    -0.237 OA
ATOM     92  O   UNL A   1      52.570  26.386  33.138  1.00  0.00    -0.744 OA
ENDBRANCH  88  89
ENDBRANCH  62  83
ENDBRANCH  36  37
ENDBRANCH  28  31
ENDBRANCH  26  27
ENDBRANCH   1  26
TORSDOF 16
ENDMDL
