MODEL 1
REMARK VINA RESULT:     -12.1      0.000      0.000
REMARK SMILES CCc1cc(C(=O)c2[nH]c3cc(Cl)ccc3c2CC(=O)NCCCNC(=O)c2ccc(-c3c4nc(c(-c5ccc(S(=O)(=O)[O-])cc5)c5ccc([nH]5)c(-c5ccc(S(=O)(=O)[O-])cc5)c5nc(c(-c6ccc(S(=O)(=O)[O-])cc6)c6ccc3[nH]6)C=C5)C=C4)cc2)ncc1Cl
REMARK SMILES IDX 22 1 21 2 19 3 20 4 18 6 17 7 8 8 9 9 10 10 16 12 11 13
REMARK SMILES IDX 15 14 12 15 14 16 13 17 6 18 7 19 5 20 3 21 4 22 90 23 89 24
REMARK SMILES IDX 91 25 88 26 2 27 1 28 23 29 24 30 25 31 26 32 27 34 28 35
REMARK SMILES IDX 29 36 87 37 30 38 86 39 31 40 32 41 33 42 80 43 34 44 85 45
REMARK SMILES IDX 79 46 81 47 35 48 84 49 78 50 77 51 36 53 66 54 47 55 65 56
REMARK SMILES IDX 48 57 51 58 64 59 82 60 49 61 50 62 63 64 83 65 52 66 37 67
REMARK SMILES IDX 38 68 46 69 39 70 45 71 40 72 41 73 42 74 43 75 44 76 67 77
REMARK SMILES IDX 68 78 76 79 69 80 75 81 70 82 71 83 72 84 73 85 74 86 53 87
REMARK SMILES IDX 54 88 62 89 55 90 61 91 56 92 57 93 58 94 59 95 60 96
REMARK H PARENT 21 5 9 11 25 33 81 52 51 63
REMARK Flexibility Score: inf
ROOT
ATOM      1  C   UNL A   1      33.505  26.277  25.666  1.00  0.00     0.117 C 
ENDROOT
BRANCH   1   2
ATOM      2  N   UNL A   1      34.530  25.520  24.971  1.00  0.00    -0.356 N 
ATOM      3  C   UNL A   1      34.944  24.233  25.160  1.00  0.00     0.224 C 
ATOM      4  O   UNL A   1      35.707  23.740  24.324  1.00  0.00    -0.275 OA
ATOM      5  H   UNL A   1      34.997  26.008  24.255  1.00  0.00     0.163 HD
BRANCH   3   6
ATOM      6  C   UNL A   1      34.394  23.389  26.299  1.00  0.00     0.138 C 
BRANCH   6   7
ATOM      7  C   UNL A   1      33.510  22.252  25.874  1.00  0.00    -0.002 A 
ATOM      8  C   UNL A   1      32.121  22.191  25.923  1.00  0.00     0.093 A 
ATOM      9  N   UNL A   1      31.739  21.013  25.324  1.00  0.00    -0.351 N 
ATOM     10  C   UNL A   1      32.835  20.228  25.064  1.00  0.00     0.048 A 
ATOM     11  H   UNL A   1      30.810  20.768  25.110  1.00  0.00     0.167 HD
ATOM     12  C   UNL A   1      33.962  20.975  25.398  1.00  0.00     0.004 A 
ATOM     13  C   UNL A   1      32.907  18.928  24.546  1.00  0.00     0.047 A 
ATOM     14  C   UNL A   1      35.234  20.392  25.205  1.00  0.00     0.012 A 
ATOM     15  C   UNL A   1      34.179  18.376  24.377  1.00  0.00     0.043 A 
ATOM     16  C   UNL A   1      35.329  19.091  24.698  1.00  0.00     0.021 A 
ATOM     17  Cl  UNL A   1      34.327  16.775  23.764  1.00  0.00    -0.084 Cl
BRANCH   8  18
ATOM     18  C   UNL A   1      31.169  23.170  26.418  1.00  0.00     0.227 C 
ATOM     19  O   UNL A   1      30.704  23.086  27.549  1.00  0.00    -0.285 OA
BRANCH  18  20
ATOM     20  C   UNL A   1      30.785  24.316  25.505  1.00  0.00     0.113 A 
ATOM     21  C   UNL A   1      30.890  25.512  23.387  1.00  0.00    -0.026 A 
ATOM     22  C   UNL A   1      31.255  24.415  24.192  1.00  0.00     0.037 A 
ATOM     23  C   UNL A   1      30.033  26.469  23.943  1.00  0.00     0.062 A 
ATOM     24  C   UNL A   1      29.608  26.294  25.254  1.00  0.00     0.132 A 
ATOM     25  Cl  UNL A   1      29.478  27.852  23.078  1.00  0.00    -0.082 Cl
ATOM     26  N   UNL A   1      29.965  25.253  26.042  1.00  0.00    -0.251 NA
BRANCH  21  27
ATOM     27  C   UNL A   1      31.468  25.613  21.993  1.00  0.00     0.034 C 
ATOM     28  C   UNL A   1      32.821  24.928  21.857  1.00  0.00     0.009 C 
ENDBRANCH  21  27
ENDBRANCH  18  20
ENDBRANCH   8  18
ENDBRANCH   6   7
ENDBRANCH   3   6
ENDBRANCH   1   2
BRANCH   1  29
ATOM     29  C   UNL A   1      33.917  27.709  26.000  1.00  0.00     0.042 C 
BRANCH  29  30
ATOM     30  C   UNL A   1      33.366  28.256  27.316  1.00  0.00     0.118 C 
BRANCH  30  31
ATOM     31  N   UNL A   1      33.382  29.710  27.371  1.00  0.00    -0.352 N 
ATOM     32  C   UNL A   1      34.356  30.580  27.797  1.00  0.00     0.251 C 
ATOM     33  H   UNL A   1      32.558  30.141  27.048  1.00  0.00     0.163 HD
ATOM     34  O   UNL A   1      34.071  31.773  27.899  1.00  0.00    -0.269 OA
BRANCH  32  35
ATOM     35  C   UNL A   1      35.723  30.125  28.150  1.00  0.00     0.039 A 
ATOM     36  C   UNL A   1      35.963  29.715  29.469  1.00  0.00     0.014 A 
ATOM     37  C   UNL A   1      36.787  30.173  27.244  1.00  0.00     0.014 A 
ATOM     38  C   UNL A   1      37.243  29.313  29.863  1.00  0.00     0.010 A 
ATOM     39  C   UNL A   1      38.058  29.734  27.627  1.00  0.00     0.010 A 
ATOM     40  C   UNL A   1      38.298  29.303  28.940  1.00  0.00    -0.014 A 
BRANCH  40  41
ATOM     41  C   UNL A   1      39.657  28.855  29.339  1.00  0.00     0.031 A 
ATOM     42  C   UNL A   1      40.568  29.771  30.108  1.00  0.00     0.074 A 
ATOM     43  C   UNL A   1      40.099  27.638  28.970  1.00  0.00     0.049 A 
ATOM     44  N   UNL A   1      41.814  29.582  30.464  1.00  0.00    -0.248 NA
ATOM     45  C   UNL A   1      40.012  31.070  30.511  1.00  0.00     0.031 C 
ATOM     46  C   UNL A   1      39.335  26.657  28.199  1.00  0.00     0.029 A 
ATOM     47  N   UNL A   1      41.308  27.027  29.188  1.00  0.00    -0.354 N 
ATOM     48  C   UNL A   1      42.206  30.755  31.097  1.00  0.00     0.074 A 
ATOM     49  C   UNL A   1      41.062  31.644  31.083  1.00  0.00     0.031 C 
ATOM     50  C   UNL A   1      40.093  25.564  28.012  1.00  0.00     0.029 A 
ATOM     51  C   UNL A   1      41.399  25.775  28.632  1.00  0.00     0.049 A 
ATOM     52  H   UNL A   1      42.042  27.446  29.693  1.00  0.00     0.167 HD
ATOM     53  C   UNL A   1      43.408  31.070  31.638  1.00  0.00     0.031 A 
ATOM     54  C   UNL A   1      42.417  24.894  28.615  1.00  0.00     0.031 A 
ATOM     55  C   UNL A   1      44.543  30.190  31.693  1.00  0.00     0.049 A 
ATOM     56  C   UNL A   1      43.715  25.232  29.285  1.00  0.00     0.074 A 
ATOM     57  C   UNL A   1      45.788  30.419  32.255  1.00  0.00     0.029 A 
ATOM     58  N   UNL A   1      44.568  28.906  31.176  1.00  0.00    -0.354 N 
ATOM     59  N   UNL A   1      44.059  26.342  29.891  1.00  0.00    -0.248 NA
ATOM     60  C   UNL A   1      44.758  24.197  29.270  1.00  0.00     0.031 C 
ATOM     61  C   UNL A   1      46.568  29.269  32.075  1.00  0.00     0.029 A 
ATOM     62  C   UNL A   1      45.804  28.326  31.407  1.00  0.00     0.049 A 
ATOM     63  H   UNL A   1      43.817  28.469  30.713  1.00  0.00     0.167 HD
ATOM     64  C   UNL A   1      45.360  26.139  30.333  1.00  0.00     0.074 A 
ATOM     65  C   UNL A   1      45.740  24.799  29.933  1.00  0.00     0.031 C 
ATOM     66  C   UNL A   1      46.169  26.992  31.008  1.00  0.00     0.031 A 
BRANCH  53  67
ATOM     67  C   UNL A   1      43.545  32.457  32.192  1.00  0.00    -0.014 A 
ATOM     68  C   UNL A   1      43.261  32.724  33.542  1.00  0.00     0.010 A 
ATOM     69  C   UNL A   1      43.928  33.509  31.342  1.00  0.00     0.010 A 
ATOM     70  C   UNL A   1      43.309  34.035  34.024  1.00  0.00     0.020 A 
ATOM     71  C   UNL A   1      43.986  34.819  31.823  1.00  0.00     0.020 A 
ATOM     72  C   UNL A   1      43.651  35.076  33.156  1.00  0.00     0.054 A 
BRANCH  72  73
ATOM     73  S   UNL A   1      43.681  36.784  33.768  1.00  0.00     0.124 S 
ATOM     74  O   UNL A   1      44.880  36.780  34.600  1.00  0.00    -0.237 OA
ATOM     75  O   UNL A   1      43.770  37.577  32.544  1.00  0.00    -0.237 OA
ATOM     76  O   UNL A   1      42.417  36.902  34.490  1.00  0.00    -0.744 OA
ENDBRANCH  72  73
ENDBRANCH  53  67
BRANCH  54  77
ATOM     77  C   UNL A   1      42.230  23.592  27.931  1.00  0.00    -0.014 A 
ATOM     78  C   UNL A   1      42.847  23.351  26.693  1.00  0.00     0.010 A 
ATOM     79  C   UNL A   1      41.494  22.570  28.552  1.00  0.00     0.010 A 
ATOM     80  C   UNL A   1      42.743  22.095  26.089  1.00  0.00     0.020 A 
ATOM     81  C   UNL A   1      41.394  21.311  27.953  1.00  0.00     0.020 A 
ATOM     82  C   UNL A   1      42.019  21.083  26.724  1.00  0.00     0.054 A 
BRANCH  82  83
ATOM     83  S   UNL A   1      41.978  19.422  25.996  1.00  0.00     0.124 S 
ATOM     84  O   UNL A   1      40.559  19.258  25.696  1.00  0.00    -0.237 OA
ATOM     85  O   UNL A   1      42.858  19.548  24.836  1.00  0.00    -0.237 OA
ATOM     86  O   UNL A   1      42.497  18.577  27.069  1.00  0.00    -0.744 OA
ENDBRANCH  82  83
ENDBRANCH  54  77
BRANCH  66  87
ATOM     87  C   UNL A   1      47.539  26.497  31.360  1.00  0.00    -0.014 A 
ATOM     88  C   UNL A   1      48.595  26.602  30.438  1.00  0.00     0.010 A 
ATOM     89  C   UNL A   1      47.783  25.951  32.632  1.00  0.00     0.010 A 
ATOM     90  C   UNL A   1      49.873  26.150  30.775  1.00  0.00     0.020 A 
ATOM     91  C   UNL A   1      49.062  25.503  32.973  1.00  0.00     0.020 A 
ATOM     92  C   UNL A   1      50.096  25.593  32.038  1.00  0.00     0.054 A 
BRANCH  92  93
ATOM     93  S   UNL A   1      51.766  25.040  32.488  1.00  0.00     0.124 S 
ATOM     94  O   UNL A   1      52.600  25.846  31.602  1.00  0.00    -0.237 OA
ATOM     95  O   UNL A   1      51.856  25.372  33.909  1.00  0.00    -0.237 OA
ATOM     96  O   UNL A   1      51.737  23.610  32.191  1.00  0.00    -0.744 OA
ENDBRANCH  92  93
ENDBRANCH  66  87
ENDBRANCH  40  41
ENDBRANCH  32  35
ENDBRANCH  30  31
ENDBRANCH  29  30
ENDBRANCH   1  29
TORSDOF 17
ENDMDL
MODEL 2
REMARK VINA RESULT:     -12.0      2.257      3.142
REMARK SMILES CCc1cc(C(=O)c2[nH]c3cc(Cl)ccc3c2CC(=O)NCCCNC(=O)c2ccc(-c3c4nc(c(-c5ccc(S(=O)(=O)[O-])cc5)c5ccc([nH]5)c(-c5ccc(S(=O)(=O)[O-])cc5)c5nc(c(-c6ccc(S(=O)(=O)[O-])cc6)c6ccc3[nH]6)C=C5)C=C4)cc2)ncc1Cl
REMARK SMILES IDX 22 1 21 2 19 3 20 4 18 6 17 7 8 8 9 9 10 10 16 12 11 13
REMARK SMILES IDX 15 14 12 15 14 16 13 17 6 18 7 19 5 20 3 21 4 22 90 23 89 24
REMARK SMILES IDX 91 25 88 26 2 27 1 28 23 29 24 30 25 31 26 32 27 34 28 35
REMARK SMILES IDX 29 36 87 37 30 38 86 39 31 40 32 41 33 42 80 43 34 44 85 45
REMARK SMILES IDX 79 46 81 47 35 48 84 49 78 50 77 51 36 53 66 54 47 55 65 56
REMARK SMILES IDX 48 57 51 58 64 59 82 60 49 61 50 62 63 64 83 65 52 66 37 67
REMARK SMILES IDX 38 68 46 69 39 70 45 71 40 72 41 73 42 74 43 75 44 76 67 77
REMARK SMILES IDX 68 78 76 79 69 80 75 81 70 82 71 83 72 84 73 85 74 86 53 87
REMARK SMILES IDX 54 88 62 89 55 90 61 91 56 92 57 93 58 94 59 95 60 96
REMARK H PARENT 21 5 9 11 25 33 81 52 51 63
REMARK Flexibility Score: inf
ROOT
ATOM      1  C   UNL A   1      31.758  27.601  26.332  1.00  0.00     0.117 C 
ENDROOT
BRANCH   1   2
ATOM      2  N   UNL A   1      31.240  26.327  26.794  1.00  0.00    -0.356 N 
ATOM      3  C   UNL A   1      31.731  25.066  26.610  1.00  0.00     0.224 C 
ATOM      4  O   UNL A   1      31.221  24.145  27.255  1.00  0.00    -0.275 OA
ATOM      5  H   UNL A   1      30.409  26.379  27.320  1.00  0.00     0.163 HD
BRANCH   3   6
ATOM      6  C   UNL A   1      32.944  24.816  25.729  1.00  0.00     0.138 C 
BRANCH   6   7
ATOM      7  C   UNL A   1      32.653  24.104  24.439  1.00  0.00    -0.002 A 
ATOM      8  C   UNL A   1      32.350  24.671  23.204  1.00  0.00     0.093 A 
ATOM      9  N   UNL A   1      32.276  23.647  22.288  1.00  0.00    -0.351 N 
ATOM     10  C   UNL A   1      32.331  22.431  22.921  1.00  0.00     0.048 A 
ATOM     11  H   UNL A   1      32.197  23.770  21.315  1.00  0.00     0.167 HD
ATOM     12  C   UNL A   1      32.566  22.680  24.271  1.00  0.00     0.004 A 
ATOM     13  C   UNL A   1      32.207  21.138  22.395  1.00  0.00     0.047 A 
ATOM     14  C   UNL A   1      32.683  21.579  25.147  1.00  0.00     0.012 A 
ATOM     15  C   UNL A   1      32.317  20.069  23.288  1.00  0.00     0.043 A 
ATOM     16  C   UNL A   1      32.553  20.279  24.644  1.00  0.00     0.021 A 
ATOM     17  Cl  UNL A   1      32.151  18.460  22.702  1.00  0.00    -0.084 Cl
BRANCH   8  18
ATOM     18  C   UNL A   1      32.202  26.069  22.840  1.00  0.00     0.227 C 
ATOM     19  O   UNL A   1      33.147  26.712  22.396  1.00  0.00    -0.285 OA
BRANCH  18  20
ATOM     20  C   UNL A   1      30.838  26.707  23.001  1.00  0.00     0.113 A 
ATOM     21  C   UNL A   1      29.281  28.560  22.740  1.00  0.00    -0.026 A 
ATOM     22  C   UNL A   1      30.559  27.999  22.545  1.00  0.00     0.037 A 
ATOM     23  C   UNL A   1      28.315  27.773  23.377  1.00  0.00     0.062 A 
ATOM     24  C   UNL A   1      28.674  26.497  23.796  1.00  0.00     0.132 A 
ATOM     25  Cl  UNL A   1      26.703  28.308  23.664  1.00  0.00    -0.082 Cl
ATOM     26  N   UNL A   1      29.902  25.953  23.630  1.00  0.00    -0.251 NA
BRANCH  21  27
ATOM     27  C   UNL A   1      29.037  29.982  22.286  1.00  0.00     0.034 C 
ATOM     28  C   UNL A   1      29.017  30.980  23.436  1.00  0.00     0.009 C 
ENDBRANCH  21  27
ENDBRANCH  18  20
ENDBRANCH   8  18
ENDBRANCH   6   7
ENDBRANCH   3   6
ENDBRANCH   1   2
BRANCH   1  29
ATOM     29  C   UNL A   1      32.834  28.195  27.238  1.00  0.00     0.042 C 
BRANCH  29  30
ATOM     30  C   UNL A   1      33.867  29.074  26.534  1.00  0.00     0.118 C 
BRANCH  30  31
ATOM     31  N   UNL A   1      33.722  30.483  26.863  1.00  0.00    -0.352 N 
ATOM     32  C   UNL A   1      34.431  31.280  27.729  1.00  0.00     0.251 C 
ATOM     33  H   UNL A   1      32.996  30.943  26.384  1.00  0.00     0.163 HD
ATOM     34  O   UNL A   1      34.012  32.414  27.959  1.00  0.00    -0.269 OA
BRANCH  32  35
ATOM     35  C   UNL A   1      35.667  30.809  28.403  1.00  0.00     0.039 A 
ATOM     36  C   UNL A   1      36.883  31.406  28.043  1.00  0.00     0.014 A 
ATOM     37  C   UNL A   1      35.668  29.745  29.309  1.00  0.00     0.014 A 
ATOM     38  C   UNL A   1      38.081  30.973  28.620  1.00  0.00     0.010 A 
ATOM     39  C   UNL A   1      36.861  29.339  29.916  1.00  0.00     0.010 A 
ATOM     40  C   UNL A   1      38.078  29.946  29.574  1.00  0.00    -0.014 A 
BRANCH  40  41
ATOM     41  C   UNL A   1      39.340  29.494  30.213  1.00  0.00     0.031 A 
ATOM     42  C   UNL A   1      39.875  30.196  31.430  1.00  0.00     0.074 A 
ATOM     43  C   UNL A   1      40.041  28.479  29.673  1.00  0.00     0.049 A 
ATOM     44  N   UNL A   1      41.001  29.995  32.067  1.00  0.00    -0.248 NA
ATOM     45  C   UNL A   1      39.044  31.271  31.991  1.00  0.00     0.031 C 
ATOM     46  C   UNL A   1      39.657  27.726  28.478  1.00  0.00     0.029 A 
ATOM     47  N   UNL A   1      41.232  27.916  30.058  1.00  0.00    -0.354 N 
ATOM     48  C   UNL A   1      41.035  30.947  33.079  1.00  0.00     0.074 A 
ATOM     49  C   UNL A   1      39.812  31.716  32.975  1.00  0.00     0.031 C 
ATOM     50  C   UNL A   1      40.595  26.795  28.230  1.00  0.00     0.029 A 
ATOM     51  C   UNL A   1      41.650  26.899  29.235  1.00  0.00     0.049 A 
ATOM     52  H   UNL A   1      41.739  28.213  30.848  1.00  0.00     0.167 HD
ATOM     53  C   UNL A   1      41.996  31.166  34.009  1.00  0.00     0.031 A 
ATOM     54  C   UNL A   1      42.759  26.138  29.276  1.00  0.00     0.031 A 
ATOM     55  C   UNL A   1      43.199  30.391  34.150  1.00  0.00     0.049 A 
ATOM     56  C   UNL A   1      43.775  26.346  30.359  1.00  0.00     0.074 A 
ATOM     57  C   UNL A   1      44.208  30.526  35.088  1.00  0.00     0.029 A 
ATOM     58  N   UNL A   1      43.549  29.328  33.335  1.00  0.00    -0.354 N 
ATOM     59  N   UNL A   1      43.781  27.243  31.315  1.00  0.00    -0.248 NA
ATOM     60  C   UNL A   1      44.931  25.440  30.368  1.00  0.00     0.031 C 
ATOM     61  C   UNL A   1      45.173  29.540  34.838  1.00  0.00     0.029 A 
ATOM     62  C   UNL A   1      44.758  28.793  33.749  1.00  0.00     0.049 A 
ATOM     63  H   UNL A   1      43.017  29.000  32.575  1.00  0.00     0.167 HD
ATOM     64  C   UNL A   1      44.940  27.007  32.043  1.00  0.00     0.074 A 
ATOM     65  C   UNL A   1      45.608  25.879  31.423  1.00  0.00     0.031 C 
ATOM     66  C   UNL A   1      45.410  27.671  33.127  1.00  0.00     0.031 A 
BRANCH  53  67
ATOM     67  C   UNL A   1      41.776  32.327  34.932  1.00  0.00    -0.014 A 
ATOM     68  C   UNL A   1      41.078  32.163  36.141  1.00  0.00     0.010 A 
ATOM     69  C   UNL A   1      42.241  33.602  34.568  1.00  0.00     0.010 A 
ATOM     70  C   UNL A   1      40.804  33.269  36.950  1.00  0.00     0.020 A 
ATOM     71  C   UNL A   1      41.977  34.708  35.379  1.00  0.00     0.020 A 
ATOM     72  C   UNL A   1      41.238  34.537  36.552  1.00  0.00     0.054 A 
BRANCH  72  73
ATOM     73  S   UNL A   1      40.855  35.982  37.582  1.00  0.00     0.124 S 
ATOM     74  O   UNL A   1      42.116  36.716  37.544  1.00  0.00    -0.237 OA
ATOM     75  O   UNL A   1      39.742  36.611  36.875  1.00  0.00    -0.237 OA
ATOM     76  O   UNL A   1      40.511  35.390  38.873  1.00  0.00    -0.744 OA
ENDBRANCH  72  73
ENDBRANCH  53  67
BRANCH  54  77
ATOM     77  C   UNL A   1      42.953  25.093  28.242  1.00  0.00    -0.014 A 
ATOM     78  C   UNL A   1      43.537  25.422  27.008  1.00  0.00     0.010 A 
ATOM     79  C   UNL A   1      42.618  23.757  28.519  1.00  0.00     0.010 A 
ATOM     80  C   UNL A   1      43.799  24.424  26.067  1.00  0.00     0.020 A 
ATOM     81  C   UNL A   1      42.885  22.756  27.582  1.00  0.00     0.020 A 
ATOM     82  C   UNL A   1      43.474  23.097  26.361  1.00  0.00     0.054 A 
BRANCH  82  83
ATOM     83  S   UNL A   1      43.917  21.787  25.186  1.00  0.00     0.124 S 
ATOM     84  O   UNL A   1      45.281  21.466  25.590  1.00  0.00    -0.237 OA
ATOM     85  O   UNL A   1      42.919  20.754  25.453  1.00  0.00    -0.237 OA
ATOM     86  O   UNL A   1      43.782  22.447  23.889  1.00  0.00    -0.744 OA
ENDBRANCH  82  83
ENDBRANCH  54  77
BRANCH  66  87
ATOM     87  C   UNL A   1      46.703  27.188  33.714  1.00  0.00    -0.014 A 
ATOM     88  C   UNL A   1      47.927  27.727  33.282  1.00  0.00     0.010 A 
ATOM     89  C   UNL A   1      46.694  26.212  34.725  1.00  0.00     0.010 A 
ATOM     90  C   UNL A   1      49.128  27.283  33.840  1.00  0.00     0.020 A 
ATOM     91  C   UNL A   1      47.894  25.770  35.288  1.00  0.00     0.020 A 
ATOM     92  C   UNL A   1      49.105  26.299  34.833  1.00  0.00     0.054 A 
BRANCH  92  93
ATOM     93  S   UNL A   1      50.664  25.749  35.583  1.00  0.00     0.124 S 
ATOM     94  O   UNL A   1      50.355  25.818  37.008  1.00  0.00    -0.237 OA
ATOM     95  O   UNL A   1      50.839  24.403  35.042  1.00  0.00    -0.237 OA
ATOM     96  O   UNL A   1      51.632  26.734  35.105  1.00  0.00    -0.744 OA
ENDBRANCH  92  93
ENDBRANCH  66  87
ENDBRANCH  40  41
ENDBRANCH  32  35
ENDBRANCH  30  31
ENDBRANCH  29  30
ENDBRANCH   1  29
TORSDOF 17
ENDMDL
MODEL 3
REMARK VINA RESULT:     -11.7      3.246      5.249
REMARK SMILES CCc1cc(C(=O)c2[nH]c3cc(Cl)ccc3c2CC(=O)NCCCNC(=O)c2ccc(-c3c4nc(c(-c5ccc(S(=O)(=O)[O-])cc5)c5ccc([nH]5)c(-c5ccc(S(=O)(=O)[O-])cc5)c5nc(c(-c6ccc(S(=O)(=O)[O-])cc6)c6ccc3[nH]6)C=C5)C=C4)cc2)ncc1Cl
REMARK SMILES IDX 22 1 21 2 19 3 20 4 18 6 17 7 8 8 9 9 10 10 16 12 11 13
REMARK SMILES IDX 15 14 12 15 14 16 13 17 6 18 7 19 5 20 3 21 4 22 90 23 89 24
REMARK SMILES IDX 91 25 88 26 2 27 1 28 23 29 24 30 25 31 26 32 27 34 28 35
REMARK SMILES IDX 29 36 87 37 30 38 86 39 31 40 32 41 33 42 80 43 34 44 85 45
REMARK SMILES IDX 79 46 81 47 35 48 84 49 78 50 77 51 36 53 66 54 47 55 65 56
REMARK SMILES IDX 48 57 51 58 64 59 82 60 49 61 50 62 63 64 83 65 52 66 37 67
REMARK SMILES IDX 38 68 46 69 39 70 45 71 40 72 41 73 42 74 43 75 44 76 67 77
REMARK SMILES IDX 68 78 76 79 69 80 75 81 70 82 71 83 72 84 73 85 74 86 53 87
REMARK SMILES IDX 54 88 62 89 55 90 61 91 56 92 57 93 58 94 59 95 60 96
REMARK H PARENT 21 5 9 11 25 33 81 52 51 63
REMARK Flexibility Score: inf
ROOT
ATOM      1  C   UNL A   1      33.490  30.156  26.801  1.00  0.00     0.117 C 
ENDROOT
BRANCH   1   2
ATOM      2  N   UNL A   1      32.518  29.467  27.630  1.00  0.00    -0.356 N 
ATOM      3  C   UNL A   1      31.952  28.235  27.469  1.00  0.00     0.224 C 
ATOM      4  O   UNL A   1      31.286  27.776  28.403  1.00  0.00    -0.275 OA
ATOM      5  H   UNL A   1      32.223  29.962  28.427  1.00  0.00     0.163 HD
BRANCH   3   6
ATOM      6  C   UNL A   1      32.225  27.399  26.229  1.00  0.00     0.138 C 
BRANCH   6   7
ATOM      7  C   UNL A   1      31.026  27.147  25.360  1.00  0.00    -0.002 A 
ATOM      8  C   UNL A   1      30.242  25.999  25.306  1.00  0.00     0.093 A 
ATOM      9  N   UNL A   1      29.189  26.259  24.459  1.00  0.00    -0.351 N 
ATOM     10  C   UNL A   1      29.371  27.460  23.821  1.00  0.00     0.048 A 
ATOM     11  H   UNL A   1      28.413  25.667  24.330  1.00  0.00     0.167 HD
ATOM     12  C   UNL A   1      30.514  28.043  24.362  1.00  0.00     0.004 A 
ATOM     13  C   UNL A   1      28.601  28.073  22.824  1.00  0.00     0.047 A 
ATOM     14  C   UNL A   1      30.914  29.309  23.881  1.00  0.00     0.012 A 
ATOM     15  C   UNL A   1      29.028  29.321  22.361  1.00  0.00     0.043 A 
ATOM     16  C   UNL A   1      30.164  29.936  22.878  1.00  0.00     0.021 A 
ATOM     17  Cl  UNL A   1      28.133  30.111  21.122  1.00  0.00    -0.084 Cl
BRANCH   8  18
ATOM     18  C   UNL A   1      30.382  24.747  26.030  1.00  0.00     0.227 C 
ATOM     19  O   UNL A   1      29.665  24.487  26.990  1.00  0.00    -0.285 OA
BRANCH  18  20
ATOM     20  C   UNL A   1      31.424  23.759  25.550  1.00  0.00     0.113 A 
ATOM     21  C   UNL A   1      33.316  23.131  24.152  1.00  0.00    -0.026 A 
ATOM     22  C   UNL A   1      32.381  24.092  24.587  1.00  0.00     0.037 A 
ATOM     23  C   UNL A   1      33.259  21.859  24.734  1.00  0.00     0.062 A 
ATOM     24  C   UNL A   1      32.279  21.612  25.687  1.00  0.00     0.132 A 
ATOM     25  Cl  UNL A   1      34.347  20.587  24.327  1.00  0.00    -0.082 Cl
ATOM     26  N   UNL A   1      31.365  22.521  26.101  1.00  0.00    -0.251 NA
BRANCH  21  27
ATOM     27  C   UNL A   1      34.296  23.512  23.066  1.00  0.00     0.034 C 
ATOM     28  C   UNL A   1      35.750  23.358  23.495  1.00  0.00     0.009 C 
ENDBRANCH  21  27
ENDBRANCH  18  20
ENDBRANCH   8  18
ENDBRANCH   6   7
ENDBRANCH   3   6
ENDBRANCH   1   2
BRANCH   1  29
ATOM     29  C   UNL A   1      34.063  31.418  27.442  1.00  0.00     0.042 C 
BRANCH  29  30
ATOM     30  C   UNL A   1      35.441  31.256  28.080  1.00  0.00     0.118 C 
BRANCH  30  31
ATOM     31  N   UNL A   1      35.375  31.072  29.522  1.00  0.00    -0.352 N 
ATOM     32  C   UNL A   1      36.263  30.491  30.394  1.00  0.00     0.251 C 
ATOM     33  H   UNL A   1      34.557  31.424  29.942  1.00  0.00     0.163 HD
ATOM     34  O   UNL A   1      35.907  30.307  31.557  1.00  0.00    -0.269 OA
BRANCH  32  35
ATOM     35  C   UNL A   1      37.621  30.066  29.972  1.00  0.00     0.039 A 
ATOM     36  C   UNL A   1      38.537  29.699  30.967  1.00  0.00     0.014 A 
ATOM     37  C   UNL A   1      38.037  30.102  28.638  1.00  0.00     0.014 A 
ATOM     38  C   UNL A   1      39.841  29.327  30.627  1.00  0.00     0.010 A 
ATOM     39  C   UNL A   1      39.330  29.693  28.293  1.00  0.00     0.010 A 
ATOM     40  C   UNL A   1      40.244  29.305  29.283  1.00  0.00    -0.014 A 
BRANCH  40  41
ATOM     41  C   UNL A   1      41.618  28.889  28.905  1.00  0.00     0.031 A 
ATOM     42  C   UNL A   1      42.748  29.881  28.918  1.00  0.00     0.074 A 
ATOM     43  C   UNL A   1      41.851  27.627  28.500  1.00  0.00     0.049 A 
ATOM     44  N   UNL A   1      43.990  29.719  28.538  1.00  0.00    -0.248 NA
ATOM     45  C   UNL A   1      42.435  31.232  29.406  1.00  0.00     0.031 C 
ATOM     46  C   UNL A   1      40.846  26.567  28.410  1.00  0.00     0.029 A 
ATOM     47  N   UNL A   1      43.010  27.028  28.076  1.00  0.00    -0.354 N 
ATOM     48  C   UNL A   1      44.598  30.957  28.699  1.00  0.00     0.074 A 
ATOM     49  C   UNL A   1      43.589  31.857  29.221  1.00  0.00     0.031 C 
ATOM     50  C   UNL A   1      41.434  25.445  27.962  1.00  0.00     0.029 A 
ATOM     51  C   UNL A   1      42.850  25.712  27.718  1.00  0.00     0.049 A 
ATOM     52  H   UNL A   1      43.875  27.496  28.031  1.00  0.00     0.167 HD
ATOM     53  C   UNL A   1      45.877  31.319  28.435  1.00  0.00     0.031 A 
ATOM     54  C   UNL A   1      43.735  24.818  27.239  1.00  0.00     0.031 A 
ATOM     55  C   UNL A   1      46.900  30.433  27.950  1.00  0.00     0.049 A 
ATOM     56  C   UNL A   1      45.165  25.218  27.024  1.00  0.00     0.074 A 
ATOM     57  C   UNL A   1      48.231  30.711  27.689  1.00  0.00     0.029 A 
ATOM     58  N   UNL A   1      46.709  29.092  27.664  1.00  0.00    -0.354 N 
ATOM     59  N   UNL A   1      45.723  26.391  27.198  1.00  0.00    -0.248 NA
ATOM     60  C   UNL A   1      46.082  24.172  26.552  1.00  0.00     0.031 C 
ATOM     61  C   UNL A   1      48.846  29.533  27.242  1.00  0.00     0.029 A 
ATOM     62  C   UNL A   1      47.896  28.525  27.232  1.00  0.00     0.049 A 
ATOM     63  H   UNL A   1      45.854  28.612  27.755  1.00  0.00     0.167 HD
ATOM     64  C   UNL A   1      47.059  26.225  26.858  1.00  0.00     0.074 A 
ATOM     65  C   UNL A   1      47.229  24.837  26.476  1.00  0.00     0.031 C 
ATOM     66  C   UNL A   1      48.054  27.144  26.859  1.00  0.00     0.031 A 
BRANCH  53  67
ATOM     67  C   UNL A   1      46.217  32.764  28.648  1.00  0.00    -0.014 A 
ATOM     68  C   UNL A   1      46.050  33.702  27.615  1.00  0.00     0.010 A 
ATOM     69  C   UNL A   1      46.742  33.178  29.884  1.00  0.00     0.010 A 
ATOM     70  C   UNL A   1      46.453  35.028  27.798  1.00  0.00     0.020 A 
ATOM     71  C   UNL A   1      47.136  34.504  30.073  1.00  0.00     0.020 A 
ATOM     72  C   UNL A   1      47.011  35.415  29.020  1.00  0.00     0.054 A 
BRANCH  72  73
ATOM     73  S   UNL A   1      47.567  37.127  29.252  1.00  0.00     0.124 S 
ATOM     74  O   UNL A   1      46.786  37.537  30.415  1.00  0.00    -0.237 OA
ATOM     75  O   UNL A   1      49.003  36.985  29.480  1.00  0.00    -0.237 OA
ATOM     76  O   UNL A   1      47.202  37.770  27.992  1.00  0.00    -0.744 OA
ENDBRANCH  72  73
ENDBRANCH  53  67
BRANCH  54  77
ATOM     77  C   UNL A   1      43.277  23.442  26.937  1.00  0.00    -0.014 A 
ATOM     78  C   UNL A   1      43.207  22.998  25.606  1.00  0.00     0.010 A 
ATOM     79  C   UNL A   1      42.978  22.553  27.983  1.00  0.00     0.010 A 
ATOM     80  C   UNL A   1      42.857  21.675  25.324  1.00  0.00     0.020 A 
ATOM     81  C   UNL A   1      42.635  21.228  27.704  1.00  0.00     0.020 A 
ATOM     82  C   UNL A   1      42.577  20.797  26.375  1.00  0.00     0.054 A 
BRANCH  82  83
ATOM     83  S   UNL A   1      42.234  19.052  26.015  1.00  0.00     0.124 S 
ATOM     84  O   UNL A   1      43.137  18.791  24.900  1.00  0.00    -0.237 OA
ATOM     85  O   UNL A   1      42.569  18.385  27.270  1.00  0.00    -0.237 OA
ATOM     86  O   UNL A   1      40.810  19.058  25.685  1.00  0.00    -0.744 OA
ENDBRANCH  82  83
ENDBRANCH  54  77
BRANCH  66  87
ATOM     87  C   UNL A   1      49.416  26.675  26.441  1.00  0.00    -0.014 A 
ATOM     88  C   UNL A   1      50.247  26.000  27.352  1.00  0.00     0.010 A 
ATOM     89  C   UNL A   1      49.856  26.881  25.123  1.00  0.00     0.010 A 
ATOM     90  C   UNL A   1      51.511  25.555  26.955  1.00  0.00     0.020 A 
ATOM     91  C   UNL A   1      51.117  26.431  24.723  1.00  0.00     0.020 A 
ATOM     92  C   UNL A   1      51.942  25.782  25.645  1.00  0.00     0.054 A 
BRANCH  92  93
ATOM     93  S   UNL A   1      53.568  25.169  25.121  1.00  0.00     0.124 S 
ATOM     94  O   UNL A   1      53.441  23.734  25.354  1.00  0.00    -0.237 OA
ATOM     95  O   UNL A   1      53.641  25.573  23.718  1.00  0.00    -0.237 OA
ATOM     96  O   UNL A   1      54.493  25.868  26.010  1.00  0.00    -0.744 OA
ENDBRANCH  92  93
ENDBRANCH  66  87
ENDBRANCH  40  41
ENDBRANCH  32  35
ENDBRANCH  30  31
ENDBRANCH  29  30
ENDBRANCH   1  29
TORSDOF 17
ENDMDL
