MODEL 1
REMARK VINA RESULT:     -10.4      0.000      0.000
REMARK SMILES CCCc1cc(OCC(=O)NCCCNC(=O)c2ccc(-c3c4nc(c(-c5ccc(S(=O)(=O)[O-])cc5)c5ccc([nH]5)c(-c5ccc(S(=O)(=O)[O-])cc5)c5nc(c(-c6ccc(S(=O)(=O)[O-])cc6)c6ccc3[nH]6)C=C5)C=C4)cc2)nc(Nc2ccc(C#N)cc2)n1
REMARK SMILES IDX 12 1 11 2 9 3 10 4 8 6 7 7 6 8 4 9 5 10 89 11 79 12 78 13
REMARK SMILES IDX 3 14 2 15 1 16 80 17 81 19 82 20 88 21 83 22 87 23 84 24
REMARK SMILES IDX 85 25 86 26 13 27 14 28 15 29 16 30 17 32 18 33 19 34 77 35
REMARK SMILES IDX 20 36 76 37 21 38 22 39 23 40 70 41 24 42 75 43 69 44 71 45
REMARK SMILES IDX 25 46 74 47 68 48 67 49 26 51 56 52 37 53 55 54 38 55 41 56
REMARK SMILES IDX 54 57 72 58 39 59 40 60 53 62 73 63 42 64 27 65 28 66 36 67
REMARK SMILES IDX 29 68 35 69 30 70 31 71 32 72 33 73 34 74 57 75 58 76 66 77
REMARK SMILES IDX 59 78 65 79 60 80 61 81 62 82 63 83 64 84 43 85 44 86 52 87
REMARK SMILES IDX 45 88 51 89 46 90 47 91 48 92 49 93 50 94
REMARK H PARENT 11 5 80 18 15 31 71 50 41 61
REMARK Flexibility Score: inf
ROOT
ATOM      1  C   UNL A   1      34.481  23.959  23.897  1.00  0.00     0.117 C 
ENDROOT
BRANCH   1   2
ATOM      2  N   UNL A   1      33.974  24.185  22.557  1.00  0.00    -0.353 N 
ATOM      3  C   UNL A   1      33.709  25.374  21.946  1.00  0.00     0.258 C 
ATOM      4  O   UNL A   1      33.319  25.371  20.775  1.00  0.00    -0.271 OA
ATOM      5  H   UNL A   1      33.800  23.377  22.020  1.00  0.00     0.163 HD
BRANCH   3   6
ATOM      6  C   UNL A   1      33.918  26.686  22.712  1.00  0.00     0.331 C 
BRANCH   6   7
ATOM      7  O   UNL A   1      33.090  27.774  22.343  1.00  0.00    -0.467 OA
BRANCH   7   8
ATOM      8  C   UNL A   1      31.776  27.744  22.721  1.00  0.00     0.218 A 
ATOM      9  C   UNL A   1      29.558  28.483  22.830  1.00  0.00     0.050 A 
ATOM     10  C   UNL A   1      30.849  28.720  22.426  1.00  0.00     0.092 A 
ATOM     11  N   UNL A   1      29.237  27.380  23.519  1.00  0.00    -0.218 NA
ATOM     12  C   UNL A   1      30.195  26.483  23.801  1.00  0.00     0.230 A 
ATOM     13  N   UNL A   1      31.470  26.638  23.426  1.00  0.00    -0.177 NA
BRANCH   9  14
ATOM     14  C   UNL A   1      28.473  29.504  22.592  1.00  0.00     0.056 C 
BRANCH  14  15
ATOM     15  C   UNL A   1      28.469  30.692  23.560  1.00  0.00     0.003 C 
ATOM     16  C   UNL A   1      27.560  31.838  23.139  1.00  0.00     0.004 C 
ENDBRANCH  14  15
ENDBRANCH   9  14
BRANCH  12  17
ATOM     17  N   UNL A   1      29.864  25.369  24.573  1.00  0.00    -0.324 N 
ATOM     18  H   UNL A   1      29.015  25.409  25.071  1.00  0.00     0.170 HD
BRANCH  17  19
ATOM     19  C   UNL A   1      30.621  24.201  24.709  1.00  0.00     0.041 A 
ATOM     20  C   UNL A   1      31.057  23.773  25.966  1.00  0.00     0.027 A 
ATOM     21  C   UNL A   1      30.834  23.363  23.605  1.00  0.00     0.027 A 
ATOM     22  C   UNL A   1      31.624  22.501  26.126  1.00  0.00     0.021 A 
ATOM     23  C   UNL A   1      31.412  22.099  23.755  1.00  0.00     0.021 A 
ATOM     24  C   UNL A   1      31.781  21.653  25.024  1.00  0.00     0.052 A 
BRANCH  24  25
ATOM     25  C   UNL A   1      32.262  20.315  25.200  1.00  0.00     0.099 C 
ATOM     26  N   UNL A   1      32.613  19.216  25.338  1.00  0.00    -0.192 NA
ENDBRANCH  24  25
ENDBRANCH  17  19
ENDBRANCH  12  17
ENDBRANCH   7   8
ENDBRANCH   6   7
ENDBRANCH   3   6
ENDBRANCH   1   2
BRANCH   1  27
ATOM     27  C   UNL A   1      35.884  23.365  23.902  1.00  0.00     0.042 C 
BRANCH  27  28
ATOM     28  C   UNL A   1      36.758  23.824  25.066  1.00  0.00     0.118 C 
BRANCH  28  29
ATOM     29  N   UNL A   1      37.778  22.849  25.431  1.00  0.00    -0.352 N 
ATOM     30  C   UNL A   1      38.969  23.011  26.095  1.00  0.00     0.251 C 
ATOM     31  H   UNL A   1      37.581  21.924  25.156  1.00  0.00     0.163 HD
ATOM     32  O   UNL A   1      39.766  22.076  26.133  1.00  0.00    -0.269 OA
BRANCH  30  33
ATOM     33  C   UNL A   1      39.308  24.298  26.742  1.00  0.00     0.039 A 
ATOM     34  C   UNL A   1      38.875  24.527  28.050  1.00  0.00     0.014 A 
ATOM     35  C   UNL A   1      40.030  25.283  26.065  1.00  0.00     0.014 A 
ATOM     36  C   UNL A   1      39.230  25.711  28.702  1.00  0.00     0.010 A 
ATOM     37  C   UNL A   1      40.453  26.424  26.743  1.00  0.00     0.010 A 
ATOM     38  C   UNL A   1      40.062  26.650  28.070  1.00  0.00    -0.014 A 
BRANCH  38  39
ATOM     39  C   UNL A   1      40.550  27.856  28.792  1.00  0.00     0.031 A 
ATOM     40  C   UNL A   1      41.921  27.871  29.415  1.00  0.00     0.074 A 
ATOM     41  C   UNL A   1      39.729  28.917  28.941  1.00  0.00     0.049 A 
ATOM     42  N   UNL A   1      42.487  28.807  30.132  1.00  0.00    -0.248 NA
ATOM     43  C   UNL A   1      42.758  26.675  29.224  1.00  0.00     0.031 C 
ATOM     44  C   UNL A   1      38.365  29.013  28.414  1.00  0.00     0.029 A 
ATOM     45  N   UNL A   1      39.917  30.116  29.585  1.00  0.00    -0.354 N 
ATOM     46  C   UNL A   1      43.735  28.310  30.490  1.00  0.00     0.074 A 
ATOM     47  C   UNL A   1      43.828  26.972  29.947  1.00  0.00     0.031 C 
ATOM     48  C   UNL A   1      37.851  30.212  28.734  1.00  0.00     0.029 A 
ATOM     49  C   UNL A   1      38.822  30.948  29.537  1.00  0.00     0.049 A 
ATOM     50  H   UNL A   1      40.757  30.357  30.039  1.00  0.00     0.167 HD
ATOM     51  C   UNL A   1      44.719  28.918  31.195  1.00  0.00     0.031 A 
ATOM     52  C   UNL A   1      38.611  32.158  30.092  1.00  0.00     0.031 A 
ATOM     53  C   UNL A   1      44.623  30.251  31.731  1.00  0.00     0.049 A 
ATOM     54  C   UNL A   1      39.710  32.793  30.902  1.00  0.00     0.074 A 
ATOM     55  C   UNL A   1      45.590  30.973  32.409  1.00  0.00     0.029 A 
ATOM     56  N   UNL A   1      43.498  31.058  31.661  1.00  0.00    -0.354 N 
ATOM     57  N   UNL A   1      40.912  32.336  31.161  1.00  0.00    -0.248 NA
ATOM     58  C   UNL A   1      39.429  34.112  31.485  1.00  0.00     0.031 C 
ATOM     59  C   UNL A   1      45.024  32.183  32.819  1.00  0.00     0.029 A 
ATOM     60  C   UNL A   1      43.734  32.254  32.320  1.00  0.00     0.049 A 
ATOM     61  H   UNL A   1      42.657  30.818  31.211  1.00  0.00     0.167 HD
ATOM     62  C   UNL A   1      41.540  33.327  31.910  1.00  0.00     0.074 A 
ATOM     63  C   UNL A   1      40.593  34.414  32.041  1.00  0.00     0.031 C 
ATOM     64  C   UNL A   1      42.787  33.333  32.441  1.00  0.00     0.031 A 
BRANCH  51  65
ATOM     65  C   UNL A   1      45.989  28.147  31.451  1.00  0.00    -0.014 A 
ATOM     66  C   UNL A   1      46.112  27.282  32.553  1.00  0.00     0.010 A 
ATOM     67  C   UNL A   1      47.044  28.221  30.521  1.00  0.00     0.010 A 
ATOM     68  C   UNL A   1      47.272  26.523  32.731  1.00  0.00     0.020 A 
ATOM     69  C   UNL A   1      48.191  27.438  30.676  1.00  0.00     0.020 A 
ATOM     70  C   UNL A   1      48.301  26.599  31.787  1.00  0.00     0.054 A 
BRANCH  70  71
ATOM     71  S   UNL A   1      49.764  25.552  32.013  1.00  0.00     0.124 S 
ATOM     72  O   UNL A   1      49.293  24.583  32.999  1.00  0.00    -0.237 OA
ATOM     73  O   UNL A   1      49.986  25.023  30.670  1.00  0.00    -0.237 OA
ATOM     74  O   UNL A   1      50.786  26.479  32.492  1.00  0.00    -0.744 OA
ENDBRANCH  70  71
ENDBRANCH  51  65
BRANCH  52  75
ATOM     75  C   UNL A   1      37.296  32.843  29.927  1.00  0.00    -0.014 A 
ATOM     76  C   UNL A   1      37.035  33.650  28.804  1.00  0.00     0.010 A 
ATOM     77  C   UNL A   1      36.302  32.711  30.914  1.00  0.00     0.010 A 
ATOM     78  C   UNL A   1      35.825  34.340  28.692  1.00  0.00     0.020 A 
ATOM     79  C   UNL A   1      35.074  33.367  30.786  1.00  0.00     0.020 A 
ATOM     80  C   UNL A   1      34.851  34.193  29.684  1.00  0.00     0.054 A 
BRANCH  80  81
ATOM     81  S   UNL A   1      33.280  35.082  29.507  1.00  0.00     0.124 S 
ATOM     82  O   UNL A   1      32.707  34.957  30.842  1.00  0.00    -0.237 OA
ATOM     83  O   UNL A   1      33.719  36.422  29.127  1.00  0.00    -0.237 OA
ATOM     84  O   UNL A   1      32.585  34.341  28.455  1.00  0.00    -0.744 OA
ENDBRANCH  80  81
ENDBRANCH  52  75
BRANCH  64  85
ATOM     85  C   UNL A   1      43.225  34.575  33.176  1.00  0.00    -0.014 A 
ATOM     86  C   UNL A   1      43.865  35.638  32.514  1.00  0.00     0.010 A 
ATOM     87  C   UNL A   1      42.941  34.700  34.550  1.00  0.00     0.010 A 
ATOM     88  C   UNL A   1      44.245  36.784  33.219  1.00  0.00     0.020 A 
ATOM     89  C   UNL A   1      43.284  35.859  35.249  1.00  0.00     0.020 A 
ATOM     90  C   UNL A   1      43.949  36.888  34.581  1.00  0.00     0.054 A 
BRANCH  90  91
ATOM     91  S   UNL A   1      44.415  38.404  35.460  1.00  0.00     0.124 S 
ATOM     92  O   UNL A   1      43.904  38.146  36.804  1.00  0.00    -0.237 OA
ATOM     93  O   UNL A   1      45.870  38.413  35.330  1.00  0.00    -0.237 OA
ATOM     94  O   UNL A   1      43.722  39.460  34.724  1.00  0.00    -0.744 OA
ENDBRANCH  90  91
ENDBRANCH  64  85
ENDBRANCH  38  39
ENDBRANCH  30  33
ENDBRANCH  28  29
ENDBRANCH  27  28
ENDBRANCH   1  27
TORSDOF 20
ENDMDL
MODEL 2
REMARK VINA RESULT:     -10.2      4.840     11.964
REMARK SMILES CCCc1cc(OCC(=O)NCCCNC(=O)c2ccc(-c3c4nc(c(-c5ccc(S(=O)(=O)[O-])cc5)c5ccc([nH]5)c(-c5ccc(S(=O)(=O)[O-])cc5)c5nc(c(-c6ccc(S(=O)(=O)[O-])cc6)c6ccc3[nH]6)C=C5)C=C4)cc2)nc(Nc2ccc(C#N)cc2)n1
REMARK SMILES IDX 12 1 11 2 9 3 10 4 8 6 7 7 6 8 4 9 5 10 89 11 79 12 78 13
REMARK SMILES IDX 3 14 2 15 1 16 80 17 81 19 82 20 88 21 83 22 87 23 84 24
REMARK SMILES IDX 85 25 86 26 13 27 14 28 15 29 16 30 17 32 18 33 19 34 77 35
REMARK SMILES IDX 20 36 76 37 21 38 22 39 23 40 70 41 24 42 75 43 69 44 71 45
REMARK SMILES IDX 25 46 74 47 68 48 67 49 26 51 56 52 37 53 55 54 38 55 41 56
REMARK SMILES IDX 54 57 72 58 39 59 40 60 53 62 73 63 42 64 27 65 28 66 36 67
REMARK SMILES IDX 29 68 35 69 30 70 31 71 32 72 33 73 34 74 57 75 58 76 66 77
REMARK SMILES IDX 59 78 65 79 60 80 61 81 62 82 63 83 64 84 43 85 44 86 52 87
REMARK SMILES IDX 45 88 51 89 46 90 47 91 48 92 49 93 50 94
REMARK H PARENT 11 5 80 18 15 31 71 50 41 61
REMARK Flexibility Score: inf
ROOT
ATOM      1  C   UNL A   1      35.761  34.164  30.583  1.00  0.00     0.117 C 
ENDROOT
BRANCH   1   2
ATOM      2  N   UNL A   1      35.228  35.086  31.568  1.00  0.00    -0.353 N 
ATOM      3  C   UNL A   1      35.302  35.004  32.927  1.00  0.00     0.258 C 
ATOM      4  O   UNL A   1      34.821  35.913  33.608  1.00  0.00    -0.271 OA
ATOM      5  H   UNL A   1      34.754  35.872  31.210  1.00  0.00     0.163 HD
BRANCH   3   6
ATOM      6  C   UNL A   1      35.993  33.800  33.578  1.00  0.00     0.331 C 
BRANCH   6   7
ATOM      7  O   UNL A   1      37.098  34.082  34.419  1.00  0.00    -0.467 OA
BRANCH   7   8
ATOM      8  C   UNL A   1      37.487  33.126  35.316  1.00  0.00     0.218 A 
ATOM      9  C   UNL A   1      37.727  32.131  37.420  1.00  0.00     0.050 A 
ATOM     10  C   UNL A   1      37.340  33.223  36.682  1.00  0.00     0.092 A 
ATOM     11  N   UNL A   1      38.265  31.053  36.836  1.00  0.00    -0.218 NA
ATOM     12  C   UNL A   1      38.410  31.036  35.501  1.00  0.00     0.230 A 
ATOM     13  N   UNL A   1      38.042  32.055  34.717  1.00  0.00    -0.177 NA
BRANCH   9  14
ATOM     14  C   UNL A   1      37.644  32.146  38.926  1.00  0.00     0.056 C 
BRANCH  14  15
ATOM     15  C   UNL A   1      36.309  31.674  39.514  1.00  0.00     0.003 C 
ATOM     16  C   UNL A   1      35.603  32.712  40.374  1.00  0.00     0.004 C 
ENDBRANCH  14  15
ENDBRANCH   9  14
BRANCH  12  17
ATOM     17  N   UNL A   1      39.030  29.935  34.908  1.00  0.00    -0.324 N 
ATOM     18  H   UNL A   1      38.441  29.230  34.554  1.00  0.00     0.170 HD
BRANCH  17  19
ATOM     19  C   UNL A   1      40.407  29.738  34.769  1.00  0.00     0.041 A 
ATOM     20  C   UNL A   1      41.287  30.079  35.800  1.00  0.00     0.027 A 
ATOM     21  C   UNL A   1      40.917  29.061  33.652  1.00  0.00     0.027 A 
ATOM     22  C   UNL A   1      42.631  29.683  35.748  1.00  0.00     0.021 A 
ATOM     23  C   UNL A   1      42.259  28.677  33.586  1.00  0.00     0.021 A 
ATOM     24  C   UNL A   1      43.113  28.961  34.651  1.00  0.00     0.052 A 
BRANCH  24  25
ATOM     25  C   UNL A   1      44.457  28.465  34.643  1.00  0.00     0.099 C 
ATOM     26  N   UNL A   1      45.550  28.073  34.595  1.00  0.00    -0.192 NA
ENDBRANCH  24  25
ENDBRANCH  17  19
ENDBRANCH  12  17
ENDBRANCH   7   8
ENDBRANCH   6   7
ENDBRANCH   3   6
ENDBRANCH   1   2
BRANCH   1  27
ATOM     27  C   UNL A   1      34.715  33.179  30.076  1.00  0.00     0.042 C 
BRANCH  27  28
ATOM     28  C   UNL A   1      34.689  33.014  28.559  1.00  0.00     0.118 C 
BRANCH  28  29
ATOM     29  N   UNL A   1      33.871  31.890  28.121  1.00  0.00    -0.352 N 
ATOM     30  C   UNL A   1      34.213  30.586  27.860  1.00  0.00     0.251 C 
ATOM     31  H   UNL A   1      32.917  32.101  27.991  1.00  0.00     0.163 HD
ATOM     32  O   UNL A   1      33.392  29.847  27.322  1.00  0.00    -0.269 OA
BRANCH  30  33
ATOM     33  C   UNL A   1      35.558  30.073  28.200  1.00  0.00     0.039 A 
ATOM     34  C   UNL A   1      36.538  30.045  27.206  1.00  0.00     0.014 A 
ATOM     35  C   UNL A   1      35.853  29.601  29.482  1.00  0.00     0.014 A 
ATOM     36  C   UNL A   1      37.832  29.617  27.517  1.00  0.00     0.010 A 
ATOM     37  C   UNL A   1      37.161  29.255  29.811  1.00  0.00     0.010 A 
ATOM     38  C   UNL A   1      38.167  29.262  28.834  1.00  0.00    -0.014 A 
BRANCH  38  39
ATOM     39  C   UNL A   1      39.566  28.922  29.207  1.00  0.00     0.031 A 
ATOM     40  C   UNL A   1      40.453  29.949  29.859  1.00  0.00     0.074 A 
ATOM     41  C   UNL A   1      40.057  27.703  28.900  1.00  0.00     0.049 A 
ATOM     42  N   UNL A   1      41.714  29.851  30.197  1.00  0.00    -0.248 NA
ATOM     43  C   UNL A   1      39.857  31.262  30.154  1.00  0.00     0.031 C 
ATOM     44  C   UNL A   1      39.309  26.631  28.238  1.00  0.00     0.029 A 
ATOM     45  N   UNL A   1      41.304  27.161  29.096  1.00  0.00    -0.354 N 
ATOM     46  C   UNL A   1      42.064  31.087  30.728  1.00  0.00     0.074 A 
ATOM     47  C   UNL A   1      40.896  31.934  30.629  1.00  0.00     0.031 C 
ATOM     48  C   UNL A   1      40.102  25.555  28.106  1.00  0.00     0.029 A 
ATOM     49  C   UNL A   1      41.430  25.875  28.620  1.00  0.00     0.049 A 
ATOM     50  H   UNL A   1      42.039  27.646  29.537  1.00  0.00     0.167 HD
ATOM     51  C   UNL A   1      43.247  31.477  31.260  1.00  0.00     0.031 A 
ATOM     52  C   UNL A   1      42.496  25.053  28.578  1.00  0.00     0.031 A 
ATOM     53  C   UNL A   1      44.406  30.628  31.358  1.00  0.00     0.049 A 
ATOM     54  C   UNL A   1      43.809  25.527  29.144  1.00  0.00     0.074 A 
ATOM     55  C   UNL A   1      45.632  30.916  31.935  1.00  0.00     0.029 A 
ATOM     56  N   UNL A   1      44.492  29.336  30.863  1.00  0.00    -0.354 N 
ATOM     57  N   UNL A   1      44.094  26.674  29.713  1.00  0.00    -0.248 NA
ATOM     58  C   UNL A   1      44.940  24.591  29.074  1.00  0.00     0.031 C 
ATOM     59  C   UNL A   1      46.482  29.830  31.718  1.00  0.00     0.029 A 
ATOM     60  C   UNL A   1      45.762  28.830  31.085  1.00  0.00     0.049 A 
ATOM     61  H   UNL A   1      43.760  28.851  30.420  1.00  0.00     0.167 HD
ATOM     62  C   UNL A   1      45.429  26.584  30.096  1.00  0.00     0.074 A 
ATOM     63  C   UNL A   1      45.884  25.263  29.717  1.00  0.00     0.031 C 
ATOM     64  C   UNL A   1      46.206  27.512  30.707  1.00  0.00     0.031 A 
BRANCH  51  65
ATOM     65  C   UNL A   1      43.366  32.891  31.768  1.00  0.00    -0.014 A 
ATOM     66  C   UNL A   1      42.956  33.239  33.067  1.00  0.00     0.010 A 
ATOM     67  C   UNL A   1      43.983  33.868  30.962  1.00  0.00     0.010 A 
ATOM     68  C   UNL A   1      43.142  34.540  33.543  1.00  0.00     0.020 A 
ATOM     69  C   UNL A   1      44.202  35.160  31.446  1.00  0.00     0.020 A 
ATOM     70  C   UNL A   1      43.771  35.491  32.732  1.00  0.00     0.054 A 
BRANCH  70  71
ATOM     71  S   UNL A   1      44.056  37.152  33.404  1.00  0.00     0.124 S 
ATOM     72  O   UNL A   1      43.647  38.002  32.289  1.00  0.00    -0.237 OA
ATOM     73  O   UNL A   1      43.176  37.178  34.569  1.00  0.00    -0.237 OA
ATOM     74  O   UNL A   1      45.486  37.166  33.703  1.00  0.00    -0.744 OA
ENDBRANCH  70  71
ENDBRANCH  51  65
BRANCH  52  75
ATOM     75  C   UNL A   1      42.382  23.702  27.954  1.00  0.00    -0.014 A 
ATOM     76  C   UNL A   1      41.966  22.589  28.708  1.00  0.00     0.010 A 
ATOM     77  C   UNL A   1      42.717  23.519  26.600  1.00  0.00     0.010 A 
ATOM     78  C   UNL A   1      41.926  21.317  28.130  1.00  0.00     0.020 A 
ATOM     79  C   UNL A   1      42.639  22.255  26.008  1.00  0.00     0.020 A 
ATOM     80  C   UNL A   1      42.262  21.158  26.783  1.00  0.00     0.054 A 
BRANCH  80  81
ATOM     81  S   UNL A   1      42.182  19.501  26.050  1.00  0.00     0.124 S 
ATOM     82  O   UNL A   1      42.643  18.659  27.149  1.00  0.00    -0.237 OA
ATOM     83  O   UNL A   1      40.768  19.378  25.706  1.00  0.00    -0.237 OA
ATOM     84  O   UNL A   1      43.089  19.589  24.907  1.00  0.00    -0.744 OA
ENDBRANCH  80  81
ENDBRANCH  52  75
BRANCH  64  85
ATOM     85  C   UNL A   1      47.621  27.120  31.049  1.00  0.00    -0.014 A 
ATOM     86  C   UNL A   1      48.721  27.634  30.339  1.00  0.00     0.010 A 
ATOM     87  C   UNL A   1      47.854  26.261  32.140  1.00  0.00     0.010 A 
ATOM     88  C   UNL A   1      50.023  27.265  30.690  1.00  0.00     0.020 A 
ATOM     89  C   UNL A   1      49.155  25.922  32.518  1.00  0.00     0.020 A 
ATOM     90  C   UNL A   1      50.232  26.415  31.779  1.00  0.00     0.054 A 
BRANCH  90  91
ATOM     91  S   UNL A   1      51.934  25.989  32.239  1.00  0.00     0.124 S 
ATOM     92  O   UNL A   1      52.008  26.474  33.614  1.00  0.00    -0.237 OA
ATOM     93  O   UNL A   1      51.952  24.536  32.082  1.00  0.00    -0.237 OA
ATOM     94  O   UNL A   1      52.749  26.724  31.275  1.00  0.00    -0.744 OA
ENDBRANCH  90  91
ENDBRANCH  64  85
ENDBRANCH  38  39
ENDBRANCH  30  33
ENDBRANCH  28  29
ENDBRANCH  27  28
ENDBRANCH   1  27
TORSDOF 20
ENDMDL
MODEL 3
REMARK VINA RESULT:     -10.2      4.838     11.160
REMARK SMILES CCCc1cc(OCC(=O)NCCCNC(=O)c2ccc(-c3c4nc(c(-c5ccc(S(=O)(=O)[O-])cc5)c5ccc([nH]5)c(-c5ccc(S(=O)(=O)[O-])cc5)c5nc(c(-c6ccc(S(=O)(=O)[O-])cc6)c6ccc3[nH]6)C=C5)C=C4)cc2)nc(Nc2ccc(C#N)cc2)n1
REMARK SMILES IDX 12 1 11 2 9 3 10 4 8 6 7 7 6 8 4 9 5 10 89 11 79 12 78 13
REMARK SMILES IDX 3 14 2 15 1 16 80 17 81 19 82 20 88 21 83 22 87 23 84 24
REMARK SMILES IDX 85 25 86 26 13 27 14 28 15 29 16 30 17 32 18 33 19 34 77 35
REMARK SMILES IDX 20 36 76 37 21 38 22 39 23 40 70 41 24 42 75 43 69 44 71 45
REMARK SMILES IDX 25 46 74 47 68 48 67 49 26 51 56 52 37 53 55 54 38 55 41 56
REMARK SMILES IDX 54 57 72 58 39 59 40 60 53 62 73 63 42 64 27 65 28 66 36 67
REMARK SMILES IDX 29 68 35 69 30 70 31 71 32 72 33 73 34 74 57 75 58 76 66 77
REMARK SMILES IDX 59 78 65 79 60 80 61 81 62 82 63 83 64 84 43 85 44 86 52 87
REMARK SMILES IDX 45 88 51 89 46 90 47 91 48 92 49 93 50 94
REMARK H PARENT 11 5 80 18 15 31 71 50 41 61
REMARK Flexibility Score: inf
ROOT
ATOM      1  C   UNL A   1      35.557  33.870  30.099  1.00  0.00     0.117 C 
ENDROOT
BRANCH   1   2
ATOM      2  N   UNL A   1      35.004  34.718  31.138  1.00  0.00    -0.353 N 
ATOM      3  C   UNL A   1      35.287  34.711  32.471  1.00  0.00     0.258 C 
ATOM      4  O   UNL A   1      34.743  35.542  33.203  1.00  0.00    -0.271 OA
ATOM      5  H   UNL A   1      34.340  35.383  30.843  1.00  0.00     0.163 HD
BRANCH   3   6
ATOM      6  C   UNL A   1      36.284  33.689  33.031  1.00  0.00     0.331 C 
BRANCH   6   7
ATOM      7  O   UNL A   1      37.118  34.131  34.087  1.00  0.00    -0.467 OA
BRANCH   7   8
ATOM      8  C   UNL A   1      37.528  33.213  35.014  1.00  0.00     0.218 A 
ATOM      9  C   UNL A   1      37.825  32.311  37.153  1.00  0.00     0.050 A 
ATOM     10  C   UNL A   1      37.425  33.372  36.379  1.00  0.00     0.092 A 
ATOM     11  N   UNL A   1      38.335  31.201  36.602  1.00  0.00    -0.218 NA
ATOM     12  C   UNL A   1      38.436  31.123  35.265  1.00  0.00     0.230 A 
ATOM     13  N   UNL A   1      38.053  32.109  34.447  1.00  0.00    -0.177 NA
BRANCH   9  14
ATOM     14  C   UNL A   1      37.791  32.395  38.659  1.00  0.00     0.056 C 
BRANCH  14  15
ATOM     15  C   UNL A   1      36.392  32.504  39.277  1.00  0.00     0.003 C 
ATOM     16  C   UNL A   1      36.142  31.546  40.432  1.00  0.00     0.004 C 
ENDBRANCH  14  15
ENDBRANCH   9  14
BRANCH  12  17
ATOM     17  N   UNL A   1      39.027  29.990  34.704  1.00  0.00    -0.324 N 
ATOM     18  H   UNL A   1      38.419  29.301  34.350  1.00  0.00     0.170 HD
BRANCH  17  19
ATOM     19  C   UNL A   1      40.398  29.740  34.595  1.00  0.00     0.041 A 
ATOM     20  C   UNL A   1      41.290  30.206  35.566  1.00  0.00     0.027 A 
ATOM     21  C   UNL A   1      40.888  28.896  33.589  1.00  0.00     0.027 A 
ATOM     22  C   UNL A   1      42.623  29.773  35.573  1.00  0.00     0.021 A 
ATOM     23  C   UNL A   1      42.220  28.473  33.580  1.00  0.00     0.021 A 
ATOM     24  C   UNL A   1      43.084  28.887  34.593  1.00  0.00     0.052 A 
BRANCH  24  25
ATOM     25  C   UNL A   1      44.415  28.363  34.657  1.00  0.00     0.099 C 
ATOM     26  N   UNL A   1      45.486  27.919  34.746  1.00  0.00    -0.192 NA
ENDBRANCH  24  25
ENDBRANCH  17  19
ENDBRANCH  12  17
ENDBRANCH   7   8
ENDBRANCH   6   7
ENDBRANCH   3   6
ENDBRANCH   1   2
BRANCH   1  27
ATOM     27  C   UNL A   1      34.695  32.645  29.820  1.00  0.00     0.042 C 
BRANCH  27  28
ATOM     28  C   UNL A   1      34.503  32.336  28.338  1.00  0.00     0.118 C 
BRANCH  28  29
ATOM     29  N   UNL A   1      33.961  31.003  28.099  1.00  0.00    -0.352 N 
ATOM     30  C   UNL A   1      34.595  29.791  27.981  1.00  0.00     0.251 C 
ATOM     31  H   UNL A   1      32.981  30.967  28.008  1.00  0.00     0.163 HD
ATOM     32  O   UNL A   1      33.956  28.815  27.595  1.00  0.00    -0.269 OA
BRANCH  30  33
ATOM     33  C   UNL A   1      36.036  29.655  28.291  1.00  0.00     0.039 A 
ATOM     34  C   UNL A   1      36.412  29.281  29.583  1.00  0.00     0.014 A 
ATOM     35  C   UNL A   1      37.014  29.912  27.328  1.00  0.00     0.014 A 
ATOM     36  C   UNL A   1      37.763  29.091  29.885  1.00  0.00     0.010 A 
ATOM     37  C   UNL A   1      38.352  29.643  27.607  1.00  0.00     0.010 A 
ATOM     38  C   UNL A   1      38.742  29.226  28.887  1.00  0.00    -0.014 A 
BRANCH  38  39
ATOM     39  C   UNL A   1      40.170  28.908  29.160  1.00  0.00     0.031 A 
ATOM     40  C   UNL A   1      40.745  27.574  28.765  1.00  0.00     0.074 A 
ATOM     41  C   UNL A   1      40.933  29.803  29.823  1.00  0.00     0.049 A 
ATOM     42  N   UNL A   1      41.947  27.102  28.978  1.00  0.00    -0.248 NA
ATOM     43  C   UNL A   1      39.853  26.642  28.056  1.00  0.00     0.031 C 
ATOM     44  C   UNL A   1      40.484  31.117  30.290  1.00  0.00     0.029 A 
ATOM     45  N   UNL A   1      42.244  29.740  30.228  1.00  0.00    -0.354 N 
ATOM     46  C   UNL A   1      41.951  25.817  28.445  1.00  0.00     0.074 A 
ATOM     47  C   UNL A   1      40.620  25.567  27.937  1.00  0.00     0.031 C 
ATOM     48  C   UNL A   1      41.506  31.745  30.893  1.00  0.00     0.029 A 
ATOM     49  C   UNL A   1      42.667  30.860  30.909  1.00  0.00     0.049 A 
ATOM     50  H   UNL A   1      42.827  28.968  30.047  1.00  0.00     0.167 HD
ATOM     51  C   UNL A   1      42.974  24.932  28.376  1.00  0.00     0.031 A 
ATOM     52  C   UNL A   1      43.845  31.137  31.500  1.00  0.00     0.031 A 
ATOM     53  C   UNL A   1      44.298  25.188  28.881  1.00  0.00     0.049 A 
ATOM     54  C   UNL A   1      44.953  30.118  31.438  1.00  0.00     0.074 A 
ATOM     55  C   UNL A   1      45.416  24.374  28.803  1.00  0.00     0.029 A 
ATOM     56  N   UNL A   1      44.683  26.331  29.564  1.00  0.00    -0.354 N 
ATOM     57  N   UNL A   1      44.958  28.941  30.859  1.00  0.00    -0.248 NA
ATOM     58  C   UNL A   1      46.218  30.471  32.098  1.00  0.00     0.031 C 
ATOM     59  C   UNL A   1      46.453  24.989  29.508  1.00  0.00     0.029 A 
ATOM     60  C   UNL A   1      46.010  26.225  29.949  1.00  0.00     0.049 A 
ATOM     61  H   UNL A   1      44.101  27.102  29.748  1.00  0.00     0.167 HD
ATOM     62  C   UNL A   1      46.236  28.428  31.059  1.00  0.00     0.074 A 
ATOM     63  C   UNL A   1      46.980  29.432  31.789  1.00  0.00     0.031 C 
ATOM     64  C   UNL A   1      46.744  27.232  30.673  1.00  0.00     0.031 A 
BRANCH  51  65
ATOM     65  C   UNL A   1      42.709  23.589  27.744  1.00  0.00    -0.014 A 
ATOM     66  C   UNL A   1      43.311  23.221  26.527  1.00  0.00     0.010 A 
ATOM     67  C   UNL A   1      41.918  22.646  28.427  1.00  0.00     0.010 A 
ATOM     68  C   UNL A   1      43.109  21.944  25.996  1.00  0.00     0.020 A 
ATOM     69  C   UNL A   1      41.741  21.357  27.916  1.00  0.00     0.020 A 
ATOM     70  C   UNL A   1      42.332  21.017  26.698  1.00  0.00     0.054 A 
BRANCH  70  71
ATOM     71  S   UNL A   1      42.143  19.348  26.013  1.00  0.00     0.124 S 
ATOM     72  O   UNL A   1      40.700  19.270  25.801  1.00  0.00    -0.237 OA
ATOM     73  O   UNL A   1      42.954  19.409  24.800  1.00  0.00    -0.237 OA
ATOM     74  O   UNL A   1      42.664  18.479  27.066  1.00  0.00    -0.744 OA
ENDBRANCH  70  71
ENDBRANCH  51  65
BRANCH  52  75
ATOM     75  C   UNL A   1      44.038  32.425  32.229  1.00  0.00    -0.014 A 
ATOM     76  C   UNL A   1      44.554  33.558  31.573  1.00  0.00     0.010 A 
ATOM     77  C   UNL A   1      43.728  32.515  33.598  1.00  0.00     0.010 A 
ATOM     78  C   UNL A   1      44.792  34.740  32.280  1.00  0.00     0.020 A 
ATOM     79  C   UNL A   1      43.927  33.708  34.300  1.00  0.00     0.020 A 
ATOM     80  C   UNL A   1      44.477  34.807  33.640  1.00  0.00     0.054 A 
BRANCH  80  81
ATOM     81  S   UNL A   1      44.775  36.358  34.532  1.00  0.00     0.124 S 
ATOM     82  O   UNL A   1      45.677  37.061  33.627  1.00  0.00    -0.237 OA
ATOM     83  O   UNL A   1      43.430  36.916  34.649  1.00  0.00    -0.237 OA
ATOM     84  O   UNL A   1      45.369  35.918  35.793  1.00  0.00    -0.744 OA
ENDBRANCH  80  81
ENDBRANCH  52  75
BRANCH  64  85
ATOM     85  C   UNL A   1      48.193  26.956  30.989  1.00  0.00    -0.014 A 
ATOM     86  C   UNL A   1      49.203  27.119  30.024  1.00  0.00     0.010 A 
ATOM     87  C   UNL A   1      48.553  26.576  32.296  1.00  0.00     0.010 A 
ATOM     88  C   UNL A   1      50.539  26.871  30.351  1.00  0.00     0.020 A 
ATOM     89  C   UNL A   1      49.891  26.365  32.636  1.00  0.00     0.020 A 
ATOM     90  C   UNL A   1      50.875  26.499  31.655  1.00  0.00     0.054 A 
BRANCH  90  91
ATOM     91  S   UNL A   1      52.621  26.227  32.062  1.00  0.00     0.124 S 
ATOM     92  O   UNL A   1      53.261  26.351  30.755  1.00  0.00    -0.237 OA
ATOM     93  O   UNL A   1      52.900  27.307  33.005  1.00  0.00    -0.237 OA
ATOM     94  O   UNL A   1      52.639  24.884  32.639  1.00  0.00    -0.744 OA
ENDBRANCH  90  91
ENDBRANCH  64  85
ENDBRANCH  38  39
ENDBRANCH  30  33
ENDBRANCH  28  29
ENDBRANCH  27  28
ENDBRANCH   1  27
TORSDOF 20
ENDMDL
