MODEL 1
REMARK VINA RESULT:     -11.8      0.000      0.000
REMARK SMILES COc1ccc([C@@H]2[NH2+][C@H](C(=O)NCCCNC(=O)c3ccc(-c4c5nc(c(-c6ccc(S(=O)(=O)[O-])cc6)c6ccc([nH]6)c(-c6ccc(S(=O)(=O)[O-])cc6)c6nc(c(-c7ccc(S(=O)(=O)[O-])cc7)c7ccc4[nH]7)C=C6)C=C5)cc3)CS2)cc1Cn1nc(C)c(Br)c1C
REMARK SMILES IDX 14 1 13 2 12 3 10 4 11 5 9 7 7 8 8 9 80 10 79 13 6 14 3 15
REMARK SMILES IDX 4 16 82 17 5 18 81 19 2 20 1 21 83 22 84 23 85 24 90 25
REMARK SMILES IDX 86 26 88 27 91 28 87 29 89 30 15 31 16 32 17 33 18 35 19 36
REMARK SMILES IDX 20 37 78 38 21 39 77 40 22 41 23 42 24 43 71 44 25 45 76 46
REMARK SMILES IDX 70 47 72 48 26 49 75 50 69 51 68 52 27 54 57 55 38 56 56 57
REMARK SMILES IDX 39 58 42 59 55 60 73 61 40 62 41 63 54 65 74 66 43 67 28 68
REMARK SMILES IDX 29 69 37 70 30 71 36 72 31 73 32 74 33 75 34 76 35 77 58 78
REMARK SMILES IDX 59 79 67 80 60 81 66 82 61 83 62 84 63 85 64 86 65 87 44 88
REMARK SMILES IDX 45 89 53 90 46 91 52 92 47 93 48 94 49 95 50 96 51 97
REMARK H PARENT 12 6 8 11 8 12 16 34 72 53 42 64
REMARK Flexibility Score: inf
ROOT
ATOM      1  C   UNL A   1      32.458  28.568  26.659  1.00  0.00     0.042 C 
ENDROOT
BRANCH   1   2
ATOM      2  C   UNL A   1      32.067  29.294  25.383  1.00  0.00     0.118 C 
BRANCH   2   3
ATOM      3  N   UNL A   1      30.847  28.877  24.720  1.00  0.00    -0.351 N 
ATOM      4  C   UNL A   1      30.694  28.016  23.670  1.00  0.00     0.279 C 
ATOM      5  O   UNL A   1      29.580  27.477  23.566  1.00  0.00    -0.268 OA
ATOM      6  H   UNL A   1      30.015  29.268  25.074  1.00  0.00     0.163 HD
BRANCH   4   7
ATOM      7  C   UNL A   1      31.757  27.697  22.585  1.00  0.00     0.283 C 
ATOM      8  C   UNL A   1      33.585  26.098  22.685  1.00  0.00     0.274 C 
ATOM      9  N   UNL A   1      33.139  27.448  23.047  1.00  0.00    -0.321 N 
ATOM     10  S   UNL A   1      32.689  25.607  21.207  1.00  0.00    -0.088 SA
ATOM     11  H   UNL A   1      33.763  28.131  22.616  1.00  0.00     0.348 HD
ATOM     12  H   UNL A   1      33.162  27.534  24.064  1.00  0.00     0.348 HD
ATOM     13  C   UNL A   1      31.252  26.607  21.637  1.00  0.00     0.151 C 
BRANCH   8  14
ATOM     14  C   UNL A   1      33.484  25.149  23.874  1.00  0.00     0.021 A 
ATOM     15  C   UNL A   1      32.952  23.619  26.174  1.00  0.00     0.123 A 
ATOM     16  C   UNL A   1      33.530  24.886  26.288  1.00  0.00     0.047 A 
ATOM     17  C   UNL A   1      32.573  23.099  24.927  1.00  0.00     0.016 A 
ATOM     18  C   UNL A   1      33.786  25.649  25.151  1.00  0.00     0.015 A 
ATOM     19  C   UNL A   1      32.916  23.857  23.788  1.00  0.00     0.020 A 
BRANCH  15  20
ATOM     20  O   UNL A   1      32.648  23.006  27.355  1.00  0.00    -0.496 OA
ATOM     21  C   UNL A   1      33.734  22.256  27.883  1.00  0.00     0.278 C 
ENDBRANCH  15  20
BRANCH  17  22
ATOM     22  C   UNL A   1      31.790  21.802  24.797  1.00  0.00     0.184 C 
BRANCH  22  23
ATOM     23  N   UNL A   1      32.598  20.567  24.754  1.00  0.00    -0.264 N 
ATOM     24  N   UNL A   1      31.984  19.385  25.030  1.00  0.00    -0.177 NA
ATOM     25  C   UNL A   1      33.969  20.424  24.663  1.00  0.00     0.050 A 
ATOM     26  C   UNL A   1      32.965  18.474  25.071  1.00  0.00     0.074 A 
ATOM     27  C   UNL A   1      34.203  19.073  24.802  1.00  0.00     0.061 A 
ATOM     28  C   UNL A   1      34.945  21.523  24.491  1.00  0.00     0.067 C 
ATOM     29  C   UNL A   1      32.658  17.060  25.417  1.00  0.00     0.070 C 
ATOM     30  Br  UNL A   1      35.855  18.189  24.752  1.00  0.00    -0.047 Br
ENDBRANCH  22  23
ENDBRANCH  17  22
ENDBRANCH   8  14
ENDBRANCH   4   7
ENDBRANCH   2   3
ENDBRANCH   1   2
BRANCH   1  31
ATOM     31  C   UNL A   1      33.789  29.005  27.256  1.00  0.00     0.118 C 
BRANCH  31  32
ATOM     32  N   UNL A   1      33.777  30.269  27.994  1.00  0.00    -0.352 N 
ATOM     33  C   UNL A   1      34.727  30.984  28.685  1.00  0.00     0.251 C 
ATOM     34  H   UNL A   1      32.894  30.704  27.996  1.00  0.00     0.163 HD
ATOM     35  O   UNL A   1      34.469  32.097  29.143  1.00  0.00    -0.269 OA
BRANCH  33  36
ATOM     36  C   UNL A   1      36.083  30.442  28.877  1.00  0.00     0.039 A 
ATOM     37  C   UNL A   1      36.457  29.860  30.098  1.00  0.00     0.014 A 
ATOM     38  C   UNL A   1      37.021  30.588  27.865  1.00  0.00     0.014 A 
ATOM     39  C   UNL A   1      37.760  29.374  30.272  1.00  0.00     0.010 A 
ATOM     40  C   UNL A   1      38.264  30.001  27.989  1.00  0.00     0.010 A 
ATOM     41  C   UNL A   1      38.664  29.423  29.204  1.00  0.00    -0.014 A 
BRANCH  41  42
ATOM     42  C   UNL A   1      40.088  29.013  29.280  1.00  0.00     0.031 A 
ATOM     43  C   UNL A   1      41.105  30.089  29.557  1.00  0.00     0.074 A 
ATOM     44  C   UNL A   1      40.472  27.780  28.905  1.00  0.00     0.049 A 
ATOM     45  N   UNL A   1      42.378  30.128  29.265  1.00  0.00    -0.248 NA
ATOM     46  C   UNL A   1      40.586  31.328  30.165  1.00  0.00     0.031 C 
ATOM     47  C   UNL A   1      39.582  26.656  28.617  1.00  0.00     0.029 A 
ATOM     48  N   UNL A   1      41.727  27.286  28.657  1.00  0.00    -0.354 N 
ATOM     49  C   UNL A   1      42.789  31.421  29.577  1.00  0.00     0.074 A 
ATOM     50  C   UNL A   1      41.622  32.140  30.036  1.00  0.00     0.031 C 
ATOM     51  C   UNL A   1      40.320  25.599  28.236  1.00  0.00     0.029 A 
ATOM     52  C   UNL A   1      41.724  25.993  28.189  1.00  0.00     0.049 A 
ATOM     53  H   UNL A   1      42.550  27.807  28.800  1.00  0.00     0.167 HD
ATOM     54  C   UNL A   1      44.031  31.955  29.490  1.00  0.00     0.031 A 
ATOM     55  C   UNL A   1      42.742  25.230  27.745  1.00  0.00     0.031 A 
ATOM     56  C   UNL A   1      45.182  31.199  29.078  1.00  0.00     0.049 A 
ATOM     57  C   UNL A   1      44.124  25.824  27.695  1.00  0.00     0.074 A 
ATOM     58  C   UNL A   1      46.503  31.600  29.010  1.00  0.00     0.029 A 
ATOM     59  N   UNL A   1      45.144  29.867  28.687  1.00  0.00    -0.354 N 
ATOM     60  N   UNL A   1      44.508  27.046  27.985  1.00  0.00    -0.248 NA
ATOM     61  C   UNL A   1      45.211  24.938  27.259  1.00  0.00     0.031 C 
ATOM     62  C   UNL A   1      47.261  30.515  28.554  1.00  0.00     0.029 A 
ATOM     63  C   UNL A   1      46.419  29.426  28.385  1.00  0.00     0.049 A 
ATOM     64  H   UNL A   1      44.329  29.317  28.634  1.00  0.00     0.167 HD
ATOM     65  C   UNL A   1      45.887  27.064  27.805  1.00  0.00     0.074 A 
ATOM     66  C   UNL A   1      46.267  25.731  27.380  1.00  0.00     0.031 C 
ATOM     67  C   UNL A   1      46.762  28.086  27.981  1.00  0.00     0.031 A 
BRANCH  54  68
ATOM     68  C   UNL A   1      44.185  33.415  29.840  1.00  0.00    -0.014 A 
ATOM     69  C   UNL A   1      44.023  34.421  28.868  1.00  0.00     0.010 A 
ATOM     70  C   UNL A   1      44.518  33.790  31.155  1.00  0.00     0.010 A 
ATOM     71  C   UNL A   1      44.271  35.760  29.183  1.00  0.00     0.020 A 
ATOM     72  C   UNL A   1      44.729  35.134  31.483  1.00  0.00     0.020 A 
ATOM     73  C   UNL A   1      44.634  36.107  30.486  1.00  0.00     0.054 A 
BRANCH  73  74
ATOM     74  S   UNL A   1      44.969  37.849  30.866  1.00  0.00     0.124 S 
ATOM     75  O   UNL A   1      45.931  37.736  31.962  1.00  0.00    -0.237 OA
ATOM     76  O   UNL A   1      45.518  38.352  29.604  1.00  0.00    -0.237 OA
ATOM     77  O   UNL A   1      43.666  38.384  31.230  1.00  0.00    -0.744 OA
ENDBRANCH  73  74
ENDBRANCH  54  68
BRANCH  55  78
ATOM     78  C   UNL A   1      42.493  23.814  27.364  1.00  0.00    -0.014 A 
ATOM     79  C   UNL A   1      42.567  23.435  26.012  1.00  0.00     0.010 A 
ATOM     80  C   UNL A   1      42.235  22.828  28.335  1.00  0.00     0.010 A 
ATOM     81  C   UNL A   1      42.383  22.103  25.634  1.00  0.00     0.020 A 
ATOM     82  C   UNL A   1      42.075  21.488  27.963  1.00  0.00     0.020 A 
ATOM     83  C   UNL A   1      42.145  21.136  26.613  1.00  0.00     0.054 A 
BRANCH  83  84
ATOM     84  S   UNL A   1      41.991  19.400  26.102  1.00  0.00     0.124 S 
ATOM     85  O   UNL A   1      42.498  18.692  27.273  1.00  0.00    -0.237 OA
ATOM     86  O   UNL A   1      40.556  19.271  25.855  1.00  0.00    -0.237 OA
ATOM     87  O   UNL A   1      42.829  19.320  24.908  1.00  0.00    -0.744 OA
ENDBRANCH  83  84
ENDBRANCH  55  78
BRANCH  67  88
ATOM     88  C   UNL A   1      48.221  27.786  27.777  1.00  0.00    -0.014 A 
ATOM     89  C   UNL A   1      48.831  27.939  26.521  1.00  0.00     0.010 A 
ATOM     90  C   UNL A   1      49.005  27.419  28.886  1.00  0.00     0.010 A 
ATOM     91  C   UNL A   1      50.202  27.712  26.374  1.00  0.00     0.020 A 
ATOM     92  C   UNL A   1      50.379  27.215  28.748  1.00  0.00     0.020 A 
ATOM     93  C   UNL A   1      50.967  27.354  27.489  1.00  0.00     0.054 A 
BRANCH  93  94
ATOM     94  S   UNL A   1      52.755  27.128  27.286  1.00  0.00     0.124 S 
ATOM     95  O   UNL A   1      53.007  25.948  28.109  1.00  0.00    -0.237 OA
ATOM     96  O   UNL A   1      52.890  26.929  25.844  1.00  0.00    -0.237 OA
ATOM     97  O   UNL A   1      53.322  28.375  27.791  1.00  0.00    -0.744 OA
ENDBRANCH  93  94
ENDBRANCH  67  88
ENDBRANCH  41  42
ENDBRANCH  33  36
ENDBRANCH  31  32
ENDBRANCH   1  31
TORSDOF 17
ENDMDL
MODEL 2
REMARK VINA RESULT:     -11.4      5.695      7.006
REMARK SMILES COc1ccc([C@@H]2[NH2+][C@H](C(=O)NCCCNC(=O)c3ccc(-c4c5nc(c(-c6ccc(S(=O)(=O)[O-])cc6)c6ccc([nH]6)c(-c6ccc(S(=O)(=O)[O-])cc6)c6nc(c(-c7ccc(S(=O)(=O)[O-])cc7)c7ccc4[nH]7)C=C6)C=C5)cc3)CS2)cc1Cn1nc(C)c(Br)c1C
REMARK SMILES IDX 14 1 13 2 12 3 10 4 11 5 9 7 7 8 8 9 80 10 79 13 6 14 3 15
REMARK SMILES IDX 4 16 82 17 5 18 81 19 2 20 1 21 83 22 84 23 85 24 90 25
REMARK SMILES IDX 86 26 88 27 91 28 87 29 89 30 15 31 16 32 17 33 18 35 19 36
REMARK SMILES IDX 20 37 78 38 21 39 77 40 22 41 23 42 24 43 71 44 25 45 76 46
REMARK SMILES IDX 70 47 72 48 26 49 75 50 69 51 68 52 27 54 57 55 38 56 56 57
REMARK SMILES IDX 39 58 42 59 55 60 73 61 40 62 41 63 54 65 74 66 43 67 28 68
REMARK SMILES IDX 29 69 37 70 30 71 36 72 31 73 32 74 33 75 34 76 35 77 58 78
REMARK SMILES IDX 59 79 67 80 60 81 66 82 61 83 62 84 63 85 64 86 65 87 44 88
REMARK SMILES IDX 45 89 53 90 46 91 52 92 47 93 48 94 49 95 50 96 51 97
REMARK H PARENT 12 6 8 11 8 12 16 34 72 53 42 64
REMARK Flexibility Score: inf
ROOT
ATOM      1  C   UNL A   1      33.034  33.693  28.397  1.00  0.00     0.042 C 
ENDROOT
BRANCH   1   2
ATOM      2  C   UNL A   1      34.191  32.773  28.049  1.00  0.00     0.118 C 
BRANCH   2   3
ATOM      3  N   UNL A   1      34.029  31.357  28.317  1.00  0.00    -0.351 N 
ATOM      4  C   UNL A   1      33.868  30.330  27.431  1.00  0.00     0.279 C 
ATOM      5  O   UNL A   1      34.193  29.203  27.838  1.00  0.00    -0.268 OA
ATOM      6  H   UNL A   1      34.037  31.101  29.268  1.00  0.00     0.163 HD
BRANCH   4   7
ATOM      7  C   UNL A   1      33.276  30.441  26.000  1.00  0.00     0.283 C 
ATOM      8  C   UNL A   1      32.420  28.665  24.578  1.00  0.00     0.274 C 
ATOM      9  N   UNL A   1      33.621  29.368  25.043  1.00  0.00    -0.321 N 
ATOM     10  S   UNL A   1      31.044  29.815  24.671  1.00  0.00    -0.088 SA
ATOM     11  H   UNL A   1      34.097  29.779  24.239  1.00  0.00     0.348 HD
ATOM     12  H   UNL A   1      34.227  28.696  25.514  1.00  0.00     0.348 HD
ATOM     13  C   UNL A   1      31.771  30.712  26.057  1.00  0.00     0.151 C 
BRANCH   8  14
ATOM     14  C   UNL A   1      32.237  27.343  25.317  1.00  0.00     0.021 A 
ATOM     15  C   UNL A   1      31.712  24.770  26.327  1.00  0.00     0.123 A 
ATOM     16  C   UNL A   1      30.688  25.718  26.245  1.00  0.00     0.047 A 
ATOM     17  C   UNL A   1      33.006  25.052  25.863  1.00  0.00     0.016 A 
ATOM     18  C   UNL A   1      30.945  26.990  25.737  1.00  0.00     0.015 A 
ATOM     19  C   UNL A   1      33.256  26.370  25.429  1.00  0.00     0.020 A 
BRANCH  15  20
ATOM     20  O   UNL A   1      31.327  23.527  26.738  1.00  0.00    -0.496 OA
ATOM     21  C   UNL A   1      29.931  23.438  26.992  1.00  0.00     0.278 C 
ENDBRANCH  15  20
BRANCH  17  22
ATOM     22  C   UNL A   1      34.086  23.984  25.785  1.00  0.00     0.184 C 
BRANCH  22  23
ATOM     23  N   UNL A   1      33.695  22.725  25.118  1.00  0.00    -0.264 N 
ATOM     24  N   UNL A   1      33.213  22.791  23.848  1.00  0.00    -0.177 NA
ATOM     25  C   UNL A   1      33.552  21.461  25.656  1.00  0.00     0.050 A 
ATOM     26  C   UNL A   1      32.802  21.551  23.557  1.00  0.00     0.074 A 
ATOM     27  C   UNL A   1      33.039  20.689  24.637  1.00  0.00     0.061 A 
ATOM     28  C   UNL A   1      33.862  21.073  27.050  1.00  0.00     0.067 C 
ATOM     29  C   UNL A   1      32.150  21.266  22.251  1.00  0.00     0.070 C 
ATOM     30  Br  UNL A   1      32.626  18.861  24.685  1.00  0.00    -0.047 Br
ENDBRANCH  22  23
ENDBRANCH  17  22
ENDBRANCH   8  14
ENDBRANCH   4   7
ENDBRANCH   2   3
ENDBRANCH   1   2
BRANCH   1  31
ATOM     31  C   UNL A   1      33.413  35.159  28.554  1.00  0.00     0.118 C 
BRANCH  31  32
ATOM     32  N   UNL A   1      32.912  35.827  29.757  1.00  0.00    -0.352 N 
ATOM     33  C   UNL A   1      33.205  35.733  31.097  1.00  0.00     0.251 C 
ATOM     34  H   UNL A   1      32.210  36.490  29.563  1.00  0.00     0.163 HD
ATOM     35  O   UNL A   1      32.691  36.501  31.910  1.00  0.00    -0.269 OA
BRANCH  33  36
ATOM     36  C   UNL A   1      34.158  34.723  31.589  1.00  0.00     0.039 A 
ATOM     37  C   UNL A   1      33.719  33.643  32.370  1.00  0.00     0.014 A 
ATOM     38  C   UNL A   1      35.513  34.894  31.346  1.00  0.00     0.014 A 
ATOM     39  C   UNL A   1      34.643  32.706  32.852  1.00  0.00     0.010 A 
ATOM     40  C   UNL A   1      36.408  33.910  31.714  1.00  0.00     0.010 A 
ATOM     41  C   UNL A   1      35.994  32.826  32.505  1.00  0.00    -0.014 A 
BRANCH  41  42
ATOM     42  C   UNL A   1      37.079  31.949  33.008  1.00  0.00     0.031 A 
ATOM     43  C   UNL A   1      37.701  32.307  34.333  1.00  0.00     0.074 A 
ATOM     44  C   UNL A   1      37.628  31.009  32.219  1.00  0.00     0.049 A 
ATOM     45  N   UNL A   1      38.885  32.020  34.802  1.00  0.00    -0.248 NA
ATOM     46  C   UNL A   1      36.902  33.188  35.204  1.00  0.00     0.031 C 
ATOM     47  C   UNL A   1      37.115  30.572  30.921  1.00  0.00     0.029 A 
ATOM     48  N   UNL A   1      38.779  30.282  32.385  1.00  0.00    -0.354 N 
ATOM     49  C   UNL A   1      39.004  32.752  35.980  1.00  0.00     0.074 A 
ATOM     50  C   UNL A   1      37.790  33.525  36.125  1.00  0.00     0.031 C 
ATOM     51  C   UNL A   1      37.946  29.648  30.410  1.00  0.00     0.029 A 
ATOM     52  C   UNL A   1      39.081  29.479  31.312  1.00  0.00     0.049 A 
ATOM     53  H   UNL A   1      39.336  30.331  33.196  1.00  0.00     0.167 HD
ATOM     54  C   UNL A   1      40.032  32.773  36.862  1.00  0.00     0.031 A 
ATOM     55  C   UNL A   1      40.166  28.718  31.076  1.00  0.00     0.031 A 
ATOM     56  C   UNL A   1      41.204  31.954  36.716  1.00  0.00     0.049 A 
ATOM     57  C   UNL A   1      41.283  28.717  32.085  1.00  0.00     0.074 A 
ATOM     58  C   UNL A   1      42.286  31.830  37.568  1.00  0.00     0.029 A 
ATOM     59  N   UNL A   1      41.431  31.094  35.649  1.00  0.00    -0.354 N 
ATOM     60  N   UNL A   1      41.393  29.413  33.194  1.00  0.00    -0.248 NA
ATOM     61  C   UNL A   1      42.421  27.829  31.815  1.00  0.00     0.031 C 
ATOM     62  C   UNL A   1      43.179  30.912  37.002  1.00  0.00     0.029 A 
ATOM     63  C   UNL A   1      42.630  30.429  35.823  1.00  0.00     0.049 A 
ATOM     64  H   UNL A   1      40.826  30.975  34.881  1.00  0.00     0.167 HD
ATOM     65  C   UNL A   1      42.595  29.017  33.773  1.00  0.00     0.074 A 
ATOM     66  C   UNL A   1      43.173  28.022  32.891  1.00  0.00     0.031 C 
ATOM     67  C   UNL A   1      43.166  29.432  34.931  1.00  0.00     0.031 A 
BRANCH  54  68
ATOM     68  C   UNL A   1      39.921  33.712  38.037  1.00  0.00    -0.014 A 
ATOM     69  C   UNL A   1      39.761  33.226  39.349  1.00  0.00     0.010 A 
ATOM     70  C   UNL A   1      39.952  35.103  37.829  1.00  0.00     0.010 A 
ATOM     71  C   UNL A   1      39.553  34.108  40.413  1.00  0.00     0.020 A 
ATOM     72  C   UNL A   1      39.784  35.990  38.898  1.00  0.00     0.020 A 
ATOM     73  C   UNL A   1      39.555  35.484  40.180  1.00  0.00     0.054 A 
BRANCH  73  74
ATOM     74  S   UNL A   1      39.264  36.608  41.574  1.00  0.00     0.124 S 
ATOM     75  O   UNL A   1      40.544  36.549  42.278  1.00  0.00    -0.237 OA
ATOM     76  O   UNL A   1      38.979  37.880  40.906  1.00  0.00    -0.237 OA
ATOM     77  O   UNL A   1      38.137  36.011  42.274  1.00  0.00    -0.744 OA
ENDBRANCH  73  74
ENDBRANCH  54  68
BRANCH  55  78
ATOM     78  C   UNL A   1      40.221  27.861  29.861  1.00  0.00    -0.014 A 
ATOM     79  C   UNL A   1      40.932  28.304  28.731  1.00  0.00     0.010 A 
ATOM     80  C   UNL A   1      39.618  26.590  29.831  1.00  0.00     0.010 A 
ATOM     81  C   UNL A   1      41.036  27.499  27.595  1.00  0.00     0.020 A 
ATOM     82  C   UNL A   1      39.742  25.770  28.704  1.00  0.00     0.020 A 
ATOM     83  C   UNL A   1      40.447  26.233  27.590  1.00  0.00     0.054 A 
BRANCH  83  84
ATOM     84  S   UNL A   1      40.667  25.175  26.131  1.00  0.00     0.124 S 
ATOM     85  O   UNL A   1      41.198  26.117  25.150  1.00  0.00    -0.237 OA
ATOM     86  O   UNL A   1      41.608  24.166  26.613  1.00  0.00    -0.237 OA
ATOM     87  O   UNL A   1      39.320  24.680  25.861  1.00  0.00    -0.744 OA
ENDBRANCH  83  84
ENDBRANCH  55  78
BRANCH  67  88
ATOM     88  C   UNL A   1      44.449  28.765  35.344  1.00  0.00    -0.014 A 
ATOM     89  C   UNL A   1      45.698  29.290  34.973  1.00  0.00     0.010 A 
ATOM     90  C   UNL A   1      44.395  27.636  36.182  1.00  0.00     0.010 A 
ATOM     91  C   UNL A   1      46.875  28.685  35.422  1.00  0.00     0.020 A 
ATOM     92  C   UNL A   1      45.568  27.043  36.651  1.00  0.00     0.020 A 
ATOM     93  C   UNL A   1      46.802  27.567  36.260  1.00  0.00     0.054 A 
BRANCH  93  94
ATOM     94  S   UNL A   1      48.342  26.837  36.880  1.00  0.00     0.124 S 
ATOM     95  O   UNL A   1      48.157  25.423  36.564  1.00  0.00    -0.237 OA
ATOM     96  O   UNL A   1      49.362  27.529  36.096  1.00  0.00    -0.237 OA
ATOM     97  O   UNL A   1      48.331  27.165  38.303  1.00  0.00    -0.744 OA
ENDBRANCH  93  94
ENDBRANCH  67  88
ENDBRANCH  41  42
ENDBRANCH  33  36
ENDBRANCH  31  32
ENDBRANCH   1  31
TORSDOF 17
ENDMDL
MODEL 3
REMARK VINA RESULT:     -11.4      5.935      9.952
REMARK SMILES COc1ccc([C@@H]2[NH2+][C@H](C(=O)NCCCNC(=O)c3ccc(-c4c5nc(c(-c6ccc(S(=O)(=O)[O-])cc6)c6ccc([nH]6)c(-c6ccc(S(=O)(=O)[O-])cc6)c6nc(c(-c7ccc(S(=O)(=O)[O-])cc7)c7ccc4[nH]7)C=C6)C=C5)cc3)CS2)cc1Cn1nc(C)c(Br)c1C
REMARK SMILES IDX 14 1 13 2 12 3 10 4 11 5 9 7 7 8 8 9 80 10 79 13 6 14 3 15
REMARK SMILES IDX 4 16 82 17 5 18 81 19 2 20 1 21 83 22 84 23 85 24 90 25
REMARK SMILES IDX 86 26 88 27 91 28 87 29 89 30 15 31 16 32 17 33 18 35 19 36
REMARK SMILES IDX 20 37 78 38 21 39 77 40 22 41 23 42 24 43 71 44 25 45 76 46
REMARK SMILES IDX 70 47 72 48 26 49 75 50 69 51 68 52 27 54 57 55 38 56 56 57
REMARK SMILES IDX 39 58 42 59 55 60 73 61 40 62 41 63 54 65 74 66 43 67 28 68
REMARK SMILES IDX 29 69 37 70 30 71 36 72 31 73 32 74 33 75 34 76 35 77 58 78
REMARK SMILES IDX 59 79 67 80 60 81 66 82 61 83 62 84 63 85 64 86 65 87 44 88
REMARK SMILES IDX 45 89 53 90 46 91 52 92 47 93 48 94 49 95 50 96 51 97
REMARK H PARENT 12 6 8 11 8 12 16 34 72 53 42 64
REMARK Flexibility Score: inf
ROOT
ATOM      1  C   UNL A   1      33.150  33.689  28.156  1.00  0.00     0.042 C 
ENDROOT
BRANCH   1   2
ATOM      2  C   UNL A   1      34.292  32.739  27.843  1.00  0.00     0.118 C 
BRANCH   2   3
ATOM      3  N   UNL A   1      34.120  31.343  28.195  1.00  0.00    -0.351 N 
ATOM      4  C   UNL A   1      33.932  30.268  27.372  1.00  0.00     0.279 C 
ATOM      5  O   UNL A   1      34.252  29.163  27.837  1.00  0.00    -0.268 OA
ATOM      6  H   UNL A   1      34.143  31.141  29.158  1.00  0.00     0.163 HD
BRANCH   4   7
ATOM      7  C   UNL A   1      33.315  30.304  25.948  1.00  0.00     0.283 C 
ATOM      8  C   UNL A   1      32.475  28.450  24.619  1.00  0.00     0.274 C 
ATOM      9  N   UNL A   1      33.667  29.197  25.032  1.00  0.00    -0.321 N 
ATOM     10  S   UNL A   1      31.075  29.574  24.686  1.00  0.00    -0.088 SA
ATOM     11  H   UNL A   1      34.121  29.583  24.203  1.00  0.00     0.348 HD
ATOM     12  H   UNL A   1      34.295  28.559  25.521  1.00  0.00     0.348 HD
ATOM     13  C   UNL A   1      31.805  30.546  26.019  1.00  0.00     0.151 C 
BRANCH   8  14
ATOM     14  C   UNL A   1      32.332  27.158  25.418  1.00  0.00     0.021 A 
ATOM     15  C   UNL A   1      31.848  24.633  26.560  1.00  0.00     0.123 A 
ATOM     16  C   UNL A   1      30.840  25.600  26.534  1.00  0.00     0.047 A 
ATOM     17  C   UNL A   1      33.102  24.870  25.975  1.00  0.00     0.016 A 
ATOM     18  C   UNL A   1      31.075  26.848  25.962  1.00  0.00     0.015 A 
ATOM     19  C   UNL A   1      33.338  26.167  25.474  1.00  0.00     0.020 A 
BRANCH  15  20
ATOM     20  O   UNL A   1      31.478  23.414  27.048  1.00  0.00    -0.496 OA
ATOM     21  C   UNL A   1      30.192  23.007  26.597  1.00  0.00     0.278 C 
ENDBRANCH  15  20
BRANCH  17  22
ATOM     22  C   UNL A   1      34.150  23.776  25.841  1.00  0.00     0.184 C 
BRANCH  22  23
ATOM     23  N   UNL A   1      33.711  22.550  25.144  1.00  0.00    -0.264 N 
ATOM     24  N   UNL A   1      33.198  22.670  23.890  1.00  0.00    -0.177 NA
ATOM     25  C   UNL A   1      33.550  21.273  25.644  1.00  0.00     0.050 A 
ATOM     26  C   UNL A   1      32.749  21.450  23.570  1.00  0.00     0.074 A 
ATOM     27  C   UNL A   1      32.992  20.548  24.615  1.00  0.00     0.061 A 
ATOM     28  C   UNL A   1      33.886  20.831  27.017  1.00  0.00     0.067 C 
ATOM     29  C   UNL A   1      32.057  21.224  22.273  1.00  0.00     0.070 C 
ATOM     30  Br  UNL A   1      32.535  18.730  24.615  1.00  0.00    -0.047 Br
ENDBRANCH  22  23
ENDBRANCH  17  22
ENDBRANCH   8  14
ENDBRANCH   4   7
ENDBRANCH   2   3
ENDBRANCH   1   2
BRANCH   1  31
ATOM     31  C   UNL A   1      33.543  34.901  28.989  1.00  0.00     0.118 C 
BRANCH  31  32
ATOM     32  N   UNL A   1      32.823  35.073  30.253  1.00  0.00    -0.352 N 
ATOM     33  C   UNL A   1      33.149  34.884  31.574  1.00  0.00     0.251 C 
ATOM     34  H   UNL A   1      31.901  35.396  30.127  1.00  0.00     0.163 HD
ATOM     35  O   UNL A   1      32.367  35.205  32.470  1.00  0.00    -0.269 OA
BRANCH  33  36
ATOM     36  C   UNL A   1      34.451  34.307  31.952  1.00  0.00     0.039 A 
ATOM     37  C   UNL A   1      34.559  32.956  32.317  1.00  0.00     0.014 A 
ATOM     38  C   UNL A   1      35.561  35.134  32.028  1.00  0.00     0.014 A 
ATOM     39  C   UNL A   1      35.801  32.432  32.700  1.00  0.00     0.010 A 
ATOM     40  C   UNL A   1      36.806  34.594  32.285  1.00  0.00     0.010 A 
ATOM     41  C   UNL A   1      36.937  33.248  32.662  1.00  0.00    -0.014 A 
BRANCH  41  42
ATOM     42  C   UNL A   1      38.290  32.839  33.112  1.00  0.00     0.031 A 
ATOM     43  C   UNL A   1      39.001  31.787  32.299  1.00  0.00     0.074 A 
ATOM     44  C   UNL A   1      38.768  33.227  34.307  1.00  0.00     0.049 A 
ATOM     45  N   UNL A   1      39.941  30.953  32.655  1.00  0.00    -0.248 NA
ATOM     46  C   UNL A   1      38.512  31.596  30.922  1.00  0.00     0.031 C 
ATOM     47  C   UNL A   1      38.173  34.239  35.180  1.00  0.00     0.029 A 
ATOM     48  N   UNL A   1      39.852  32.771  35.013  1.00  0.00    -0.354 N 
ATOM     49  C   UNL A   1      40.095  30.087  31.576  1.00  0.00     0.074 A 
ATOM     50  C   UNL A   1      39.123  30.474  30.578  1.00  0.00     0.031 C 
ATOM     51  C   UNL A   1      38.904  34.331  36.304  1.00  0.00     0.029 A 
ATOM     52  C   UNL A   1      39.974  33.341  36.258  1.00  0.00     0.049 A 
ATOM     53  H   UNL A   1      40.482  32.101  34.661  1.00  0.00     0.167 HD
ATOM     54  C   UNL A   1      40.973  29.065  31.433  1.00  0.00     0.031 A 
ATOM     55  C   UNL A   1      40.837  33.067  37.255  1.00  0.00     0.031 A 
ATOM     56  C   UNL A   1      41.962  28.738  32.423  1.00  0.00     0.049 A 
ATOM     57  C   UNL A   1      41.835  31.957  37.065  1.00  0.00     0.074 A 
ATOM     58  C   UNL A   1      42.950  27.773  32.374  1.00  0.00     0.029 A 
ATOM     59  N   UNL A   1      42.099  29.395  33.639  1.00  0.00    -0.354 N 
ATOM     60  N   UNL A   1      41.975  31.139  36.047  1.00  0.00    -0.248 NA
ATOM     61  C   UNL A   1      42.793  31.732  38.155  1.00  0.00     0.031 C 
ATOM     62  C   UNL A   1      43.671  27.831  33.573  1.00  0.00     0.029 A 
ATOM     63  C   UNL A   1      43.161  28.863  34.346  1.00  0.00     0.049 A 
ATOM     64  H   UNL A   1      41.525  30.131  33.951  1.00  0.00     0.167 HD
ATOM     65  C   UNL A   1      43.062  30.328  36.357  1.00  0.00     0.074 A 
ATOM     66  C   UNL A   1      43.540  30.755  37.658  1.00  0.00     0.031 C 
ATOM     67  C   UNL A   1      43.619  29.326  35.632  1.00  0.00     0.031 A 
BRANCH  54  68
ATOM     68  C   UNL A   1      40.882  28.244  30.170  1.00  0.00    -0.014 A 
ATOM     69  C   UNL A   1      39.840  27.318  29.974  1.00  0.00     0.010 A 
ATOM     70  C   UNL A   1      41.864  28.381  29.172  1.00  0.00     0.010 A 
ATOM     71  C   UNL A   1      39.826  26.490  28.848  1.00  0.00     0.020 A 
ATOM     72  C   UNL A   1      41.833  27.581  28.024  1.00  0.00     0.020 A 
ATOM     73  C   UNL A   1      40.830  26.619  27.885  1.00  0.00     0.054 A 
BRANCH  73  74
ATOM     74  S   UNL A   1      40.803  25.521  26.442  1.00  0.00     0.124 S 
ATOM     75  O   UNL A   1      39.419  25.047  26.451  1.00  0.00    -0.237 OA
ATOM     76  O   UNL A   1      41.144  26.427  25.343  1.00  0.00    -0.237 OA
ATOM     77  O   UNL A   1      41.809  24.515  26.749  1.00  0.00    -0.744 OA
ENDBRANCH  73  74
ENDBRANCH  54  68
BRANCH  55  78
ATOM     78  C   UNL A   1      40.822  33.891  38.494  1.00  0.00    -0.014 A 
ATOM     79  C   UNL A   1      41.551  35.093  38.537  1.00  0.00     0.010 A 
ATOM     80  C   UNL A   1      40.052  33.520  39.612  1.00  0.00     0.010 A 
ATOM     81  C   UNL A   1      41.517  35.906  39.673  1.00  0.00     0.020 A 
ATOM     82  C   UNL A   1      39.996  34.344  40.742  1.00  0.00     0.020 A 
ATOM     83  C   UNL A   1      40.733  35.530  40.766  1.00  0.00     0.054 A 
BRANCH  83  84
ATOM     84  S   UNL A   1      40.642  36.646  42.196  1.00  0.00     0.124 S 
ATOM     85  O   UNL A   1      41.053  35.772  43.290  1.00  0.00    -0.237 OA
ATOM     86  O   UNL A   1      41.591  37.697  41.835  1.00  0.00    -0.237 OA
ATOM     87  O   UNL A   1      39.242  37.062  42.216  1.00  0.00    -0.744 OA
ENDBRANCH  83  84
ENDBRANCH  55  78
BRANCH  67  88
ATOM     88  C   UNL A   1      44.847  28.667  36.199  1.00  0.00    -0.014 A 
ATOM     89  C   UNL A   1      46.131  29.182  35.957  1.00  0.00     0.010 A 
ATOM     90  C   UNL A   1      44.695  27.557  37.050  1.00  0.00     0.010 A 
ATOM     91  C   UNL A   1      47.248  28.585  36.546  1.00  0.00     0.020 A 
ATOM     92  C   UNL A   1      45.807  26.973  37.659  1.00  0.00     0.020 A 
ATOM     93  C   UNL A   1      47.078  27.486  37.396  1.00  0.00     0.054 A 
BRANCH  93  94
ATOM     94  S   UNL A   1      48.538  26.768  38.199  1.00  0.00     0.124 S 
ATOM     95  O   UNL A   1      48.637  27.567  39.417  1.00  0.00    -0.237 OA
ATOM     96  O   UNL A   1      48.144  25.374  38.391  1.00  0.00    -0.237 OA
ATOM     97  O   UNL A   1      49.606  26.978  37.226  1.00  0.00    -0.744 OA
ENDBRANCH  93  94
ENDBRANCH  67  88
ENDBRANCH  41  42
ENDBRANCH  33  36
ENDBRANCH  31  32
ENDBRANCH   1  31
TORSDOF 17
ENDMDL
