MODEL 1
REMARK VINA RESULT:     -10.3      0.000      0.000
REMARK SMILES CC(=O)N1CCC[C@H](C(=O)N(CC(=O)NCCCNC(=O)c2ccc(-c3c4nc(c(-c5ccc(S(=O)(=O)[O-])cc5)c5ccc([nH]5)c(-c5ccc(S(=O)(=O)[O-])cc5)c5nc(c(-c6ccc(S(=O)(=O)[O-])cc6)c6ccc3[nH]6)C=C5)C=C4)cc2)CC(F)(F)F)C1
REMARK SMILES IDX 16 1 15 2 13 3 14 4 12 6 11 7 9 8 10 9 8 10 4 11 5 12 87 13
REMARK SMILES IDX 6 14 7 15 2 16 1 17 3 18 82 19 83 20 84 21 85 22 86 23 17 24
REMARK SMILES IDX 18 25 19 26 20 27 21 29 22 30 23 31 81 32 24 33 80 34 25 35
REMARK SMILES IDX 26 36 27 37 74 38 28 39 79 40 73 41 75 42 29 43 78 44 72 45
REMARK SMILES IDX 71 46 30 48 60 49 41 50 59 51 42 52 45 53 58 54 76 55 43 56
REMARK SMILES IDX 44 57 57 59 77 60 46 61 31 62 32 63 40 64 33 65 39 66 34 67
REMARK SMILES IDX 35 68 36 69 37 70 38 71 61 72 62 73 70 74 63 75 69 76 64 77
REMARK SMILES IDX 65 78 66 79 67 80 68 81 47 82 48 83 56 84 49 85 55 86 50 87
REMARK SMILES IDX 51 88 52 89 53 90 54 91
REMARK H PARENT 15 5 19 28 75 47 45 58
REMARK Flexibility Score: inf
ROOT
ATOM      1  C   UNL A   1      31.734  26.780  26.571  1.00  0.00     0.117 C 
ENDROOT
BRANCH   1   2
ATOM      2  N   UNL A   1      30.809  26.919  25.473  1.00  0.00    -0.354 N 
ATOM      3  C   UNL A   1      30.308  25.959  24.643  1.00  0.00     0.239 C 
ATOM      4  O   UNL A   1      29.385  26.284  23.891  1.00  0.00    -0.273 OA
ATOM      5  H   UNL A   1      30.493  27.834  25.299  1.00  0.00     0.163 HD
BRANCH   3   6
ATOM      6  C   UNL A   1      30.743  24.483  24.753  1.00  0.00     0.219 C 
BRANCH   6   7
ATOM      7  N   UNL A   1      32.007  24.061  24.138  1.00  0.00    -0.324 N 
BRANCH   7   8
ATOM      8  C   UNL A   1      33.302  24.414  24.484  1.00  0.00     0.228 C 
ATOM      9  O   UNL A   1      33.995  24.966  23.616  1.00  0.00    -0.274 OA
BRANCH   8  10
ATOM     10  C   UNL A   1      34.027  24.102  25.828  1.00  0.00     0.098 C 
ATOM     11  N   UNL A   1      35.888  22.538  25.400  1.00  0.00    -0.342 N 
ATOM     12  C   UNL A   1      35.407  21.544  26.366  1.00  0.00     0.119 C 
ATOM     13  C   UNL A   1      35.533  23.925  25.671  1.00  0.00     0.132 C 
ATOM     14  C   UNL A   1      33.935  21.694  26.752  1.00  0.00     0.022 C 
ATOM     15  C   UNL A   1      33.482  23.143  26.891  1.00  0.00     0.017 C 
BRANCH  11  16
ATOM     16  C   UNL A   1      36.743  22.133  24.383  1.00  0.00     0.219 C 
ATOM     17  C   UNL A   1      36.653  22.842  23.053  1.00  0.00     0.114 C 
ATOM     18  O   UNL A   1      37.600  21.266  24.556  1.00  0.00    -0.275 OA
ENDBRANCH  11  16
ENDBRANCH   8  10
ENDBRANCH   7   8
BRANCH   7  19
ATOM     19  C   UNL A   1      31.854  23.070  23.031  1.00  0.00     0.235 C 
BRANCH  19  20
ATOM     20  C   UNL A   1      32.300  21.626  23.283  1.00  0.00     0.406 C 
ATOM     21  F   UNL A   1      33.637  21.484  23.340  1.00  0.00    -0.169 F 
ATOM     22  F   UNL A   1      31.788  21.180  24.454  1.00  0.00    -0.169 F 
ATOM     23  F   UNL A   1      31.836  20.799  22.317  1.00  0.00    -0.169 F 
ENDBRANCH  19  20
ENDBRANCH   7  19
ENDBRANCH   6   7
ENDBRANCH   3   6
ENDBRANCH   1   2
BRANCH   1  24
ATOM     24  C   UNL A   1      31.919  28.023  27.411  1.00  0.00     0.042 C 
BRANCH  24  25
ATOM     25  C   UNL A   1      33.316  28.595  27.333  1.00  0.00     0.118 C 
BRANCH  25  26
ATOM     26  N   UNL A   1      33.345  30.030  27.582  1.00  0.00    -0.352 N 
ATOM     27  C   UNL A   1      34.355  30.797  28.122  1.00  0.00     0.251 C 
ATOM     28  H   UNL A   1      32.529  30.520  27.331  1.00  0.00     0.163 HD
ATOM     29  O   UNL A   1      34.143  31.954  28.441  1.00  0.00    -0.269 OA
BRANCH  27  30
ATOM     30  C   UNL A   1      35.686  30.182  28.337  1.00  0.00     0.039 A 
ATOM     31  C   UNL A   1      36.612  30.181  27.293  1.00  0.00     0.014 A 
ATOM     32  C   UNL A   1      36.033  29.662  29.586  1.00  0.00     0.014 A 
ATOM     33  C   UNL A   1      37.915  29.738  27.533  1.00  0.00     0.010 A 
ATOM     34  C   UNL A   1      37.355  29.336  29.853  1.00  0.00     0.010 A 
ATOM     35  C   UNL A   1      38.311  29.361  28.828  1.00  0.00    -0.014 A 
BRANCH  35  36
ATOM     36  C   UNL A   1      39.716  28.987  29.136  1.00  0.00     0.031 A 
ATOM     37  C   UNL A   1      40.648  30.001  29.746  1.00  0.00     0.074 A 
ATOM     38  C   UNL A   1      40.171  27.764  28.796  1.00  0.00     0.049 A 
ATOM     39  N   UNL A   1      41.920  29.886  30.026  1.00  0.00    -0.248 NA
ATOM     40  C   UNL A   1      40.088  31.329  30.051  1.00  0.00     0.031 C 
ATOM     41  C   UNL A   1      39.384  26.715  28.139  1.00  0.00     0.029 A 
ATOM     42  N   UNL A   1      41.412  27.196  28.948  1.00  0.00    -0.354 N 
ATOM     43  C   UNL A   1      42.314  31.126  30.513  1.00  0.00     0.074 A 
ATOM     44  C   UNL A   1      41.164  31.997  30.441  1.00  0.00     0.031 C 
ATOM     45  C   UNL A   1      40.150  25.624  27.978  1.00  0.00     0.029 A 
ATOM     46  C   UNL A   1      41.492  25.906  28.473  1.00  0.00     0.049 A 
ATOM     47  H   UNL A   1      42.172  27.666  29.358  1.00  0.00     0.167 HD
ATOM     48  C   UNL A   1      43.519  31.501  31.001  1.00  0.00     0.031 A 
ATOM     49  C   UNL A   1      42.532  25.051  28.433  1.00  0.00     0.031 A 
ATOM     50  C   UNL A   1      44.654  30.624  31.097  1.00  0.00     0.049 A 
ATOM     51  C   UNL A   1      43.859  25.488  28.992  1.00  0.00     0.074 A 
ATOM     52  C   UNL A   1      45.896  30.883  31.649  1.00  0.00     0.029 A 
ATOM     53  N   UNL A   1      44.688  29.319  30.629  1.00  0.00    -0.354 N 
ATOM     54  N   UNL A   1      44.185  26.639  29.531  1.00  0.00    -0.248 NA
ATOM     55  C   UNL A   1      44.954  24.511  28.946  1.00  0.00     0.031 C 
ATOM     56  C   UNL A   1      46.700  29.755  31.462  1.00  0.00     0.029 A 
ATOM     57  C   UNL A   1      45.939  28.771  30.852  1.00  0.00     0.049 A 
ATOM     58  H   UNL A   1      43.933  28.852  30.202  1.00  0.00     0.167 HD
ATOM     59  C   UNL A   1      45.518  26.515  29.910  1.00  0.00     0.074 A 
ATOM     60  C   UNL A   1      45.928  25.171  29.559  1.00  0.00     0.031 C 
ATOM     61  C   UNL A   1      46.330  27.430  30.494  1.00  0.00     0.031 A 
BRANCH  48  62
ATOM     62  C   UNL A   1      43.675  32.924  31.474  1.00  0.00    -0.014 A 
ATOM     63  C   UNL A   1      43.450  33.274  32.818  1.00  0.00     0.010 A 
ATOM     64  C   UNL A   1      44.106  33.915  30.572  1.00  0.00     0.010 A 
ATOM     65  C   UNL A   1      43.622  34.593  33.244  1.00  0.00     0.020 A 
ATOM     66  C   UNL A   1      44.309  35.229  31.003  1.00  0.00     0.020 A 
ATOM     67  C   UNL A   1      44.053  35.562  32.334  1.00  0.00     0.054 A 
BRANCH  67  68
ATOM     68  S   UNL A   1      44.313  37.255  32.928  1.00  0.00     0.124 S 
ATOM     69  O   UNL A   1      43.041  37.542  33.586  1.00  0.00    -0.237 OA
ATOM     70  O   UNL A   1      45.460  37.108  33.820  1.00  0.00    -0.237 OA
ATOM     71  O   UNL A   1      44.568  38.017  31.709  1.00  0.00    -0.744 OA
ENDBRANCH  67  68
ENDBRANCH  48  62
BRANCH  49  72
ATOM     72  C   UNL A   1      42.361  23.692  27.846  1.00  0.00    -0.014 A 
ATOM     73  C   UNL A   1      41.861  22.632  28.623  1.00  0.00     0.010 A 
ATOM     74  C   UNL A   1      42.697  23.450  26.500  1.00  0.00     0.010 A 
ATOM     75  C   UNL A   1      41.724  21.353  28.075  1.00  0.00     0.020 A 
ATOM     76  C   UNL A   1      42.532  22.180  25.940  1.00  0.00     0.020 A 
ATOM     77  C   UNL A   1      42.061  21.135  26.736  1.00  0.00     0.054 A 
BRANCH  77  78
ATOM     78  S   UNL A   1      41.838  19.476  26.037  1.00  0.00     0.124 S 
ATOM     79  O   UNL A   1      42.330  18.623  27.115  1.00  0.00    -0.237 OA
ATOM     80  O   UNL A   1      40.398  19.424  25.796  1.00  0.00    -0.237 OA
ATOM     81  O   UNL A   1      42.664  19.498  24.831  1.00  0.00    -0.744 OA
ENDBRANCH  77  78
ENDBRANCH  49  72
BRANCH  61  82
ATOM     82  C   UNL A   1      47.737  27.004  30.816  1.00  0.00    -0.014 A 
ATOM     83  C   UNL A   1      48.782  27.184  29.892  1.00  0.00     0.010 A 
ATOM     84  C   UNL A   1      48.026  26.469  32.084  1.00  0.00     0.010 A 
ATOM     85  C   UNL A   1      50.085  26.805  30.220  1.00  0.00     0.020 A 
ATOM     86  C   UNL A   1      49.333  26.118  32.427  1.00  0.00     0.020 A 
ATOM     87  C   UNL A   1      50.353  26.276  31.486  1.00  0.00     0.054 A 
BRANCH  87  88
ATOM     88  S   UNL A   1      52.062  25.833  31.903  1.00  0.00     0.124 S 
ATOM     89  O   UNL A   1      52.781  26.227  30.695  1.00  0.00    -0.237 OA
ATOM     90  O   UNL A   1      52.325  26.649  33.085  1.00  0.00    -0.237 OA
ATOM     91  O   UNL A   1      51.998  24.394  32.147  1.00  0.00    -0.744 OA
ENDBRANCH  87  88
ENDBRANCH  61  82
ENDBRANCH  35  36
ENDBRANCH  27  30
ENDBRANCH  25  26
ENDBRANCH  24  25
ENDBRANCH   1  24
TORSDOF 19
ENDMDL
MODEL 2
REMARK VINA RESULT:      -9.7      4.851      9.815
REMARK SMILES CC(=O)N1CCC[C@H](C(=O)N(CC(=O)NCCCNC(=O)c2ccc(-c3c4nc(c(-c5ccc(S(=O)(=O)[O-])cc5)c5ccc([nH]5)c(-c5ccc(S(=O)(=O)[O-])cc5)c5nc(c(-c6ccc(S(=O)(=O)[O-])cc6)c6ccc3[nH]6)C=C5)C=C4)cc2)CC(F)(F)F)C1
REMARK SMILES IDX 16 1 15 2 13 3 14 4 12 6 11 7 9 8 10 9 8 10 4 11 5 12 87 13
REMARK SMILES IDX 6 14 7 15 2 16 1 17 3 18 82 19 83 20 84 21 85 22 86 23 17 24
REMARK SMILES IDX 18 25 19 26 20 27 21 29 22 30 23 31 81 32 24 33 80 34 25 35
REMARK SMILES IDX 26 36 27 37 74 38 28 39 79 40 73 41 75 42 29 43 78 44 72 45
REMARK SMILES IDX 71 46 30 48 60 49 41 50 59 51 42 52 45 53 58 54 76 55 43 56
REMARK SMILES IDX 44 57 57 59 77 60 46 61 31 62 32 63 40 64 33 65 39 66 34 67
REMARK SMILES IDX 35 68 36 69 37 70 38 71 61 72 62 73 70 74 63 75 69 76 64 77
REMARK SMILES IDX 65 78 66 79 67 80 68 81 47 82 48 83 56 84 49 85 55 86 50 87
REMARK SMILES IDX 51 88 52 89 53 90 54 91
REMARK H PARENT 15 5 19 28 75 47 45 58
REMARK Flexibility Score: inf
ROOT
ATOM      1  C   UNL A   1      39.320  22.297  26.560  1.00  0.00     0.117 C 
ENDROOT
BRANCH   1   2
ATOM      2  N   UNL A   1      38.693  22.307  25.262  1.00  0.00    -0.354 N 
ATOM      3  C   UNL A   1      37.399  22.032  24.928  1.00  0.00     0.239 C 
ATOM      4  O   UNL A   1      37.045  22.284  23.773  1.00  0.00    -0.273 OA
ATOM      5  H   UNL A   1      39.281  22.546  24.510  1.00  0.00     0.163 HD
BRANCH   3   6
ATOM      6  C   UNL A   1      36.365  21.590  25.983  1.00  0.00     0.219 C 
BRANCH   6   7
ATOM      7  N   UNL A   1      35.041  21.133  25.542  1.00  0.00    -0.324 N 
BRANCH   7   8
ATOM      8  C   UNL A   1      34.676  19.902  25.023  1.00  0.00     0.228 C 
ATOM      9  O   UNL A   1      35.582  19.174  24.586  1.00  0.00    -0.274 OA
BRANCH   8  10
ATOM     10  C   UNL A   1      33.226  19.362  24.832  1.00  0.00     0.098 C 
ATOM     11  N   UNL A   1      33.282  16.894  24.780  1.00  0.00    -0.342 N 
ATOM     12  C   UNL A   1      32.617  16.807  23.475  1.00  0.00     0.119 C 
ATOM     13  C   UNL A   1      32.965  18.065  25.588  1.00  0.00     0.132 C 
ATOM     14  C   UNL A   1      32.655  18.099  22.655  1.00  0.00     0.022 C 
ATOM     15  C   UNL A   1      32.484  19.361  23.492  1.00  0.00     0.017 C 
BRANCH  11  16
ATOM     16  C   UNL A   1      34.050  15.824  25.218  1.00  0.00     0.219 C 
ATOM     17  C   UNL A   1      35.528  16.050  25.432  1.00  0.00     0.114 C 
ATOM     18  O   UNL A   1      33.554  14.731  25.492  1.00  0.00    -0.275 OA
ENDBRANCH  11  16
ENDBRANCH   8  10
ENDBRANCH   7   8
BRANCH   7  19
ATOM     19  C   UNL A   1      33.947  22.128  25.747  1.00  0.00     0.235 C 
BRANCH  19  20
ATOM     20  C   UNL A   1      33.447  22.374  27.174  1.00  0.00     0.406 C 
ATOM     21  F   UNL A   1      34.244  23.192  27.884  1.00  0.00    -0.169 F 
ATOM     22  F   UNL A   1      32.211  22.928  27.143  1.00  0.00    -0.169 F 
ATOM     23  F   UNL A   1      33.332  21.210  27.856  1.00  0.00    -0.169 F 
ENDBRANCH  19  20
ENDBRANCH   7  19
ENDBRANCH   6   7
ENDBRANCH   3   6
ENDBRANCH   1   2
BRANCH   1  24
ATOM     24  C   UNL A   1      40.810  22.048  26.548  1.00  0.00     0.042 C 
BRANCH  24  25
ATOM     25  C   UNL A   1      41.621  23.253  26.969  1.00  0.00     0.118 C 
BRANCH  25  26
ATOM     26  N   UNL A   1      41.796  24.211  25.886  1.00  0.00    -0.352 N 
ATOM     27  C   UNL A   1      41.750  25.589  25.932  1.00  0.00     0.251 C 
ATOM     28  H   UNL A   1      41.970  23.822  25.000  1.00  0.00     0.163 HD
ATOM     29  O   UNL A   1      41.725  26.235  24.898  1.00  0.00    -0.269 OA
BRANCH  27  30
ATOM     30  C   UNL A   1      41.698  26.262  27.250  1.00  0.00     0.039 A 
ATOM     31  C   UNL A   1      42.599  27.291  27.525  1.00  0.00     0.014 A 
ATOM     32  C   UNL A   1      40.722  25.913  28.186  1.00  0.00     0.014 A 
ATOM     33  C   UNL A   1      42.461  28.027  28.704  1.00  0.00     0.010 A 
ATOM     34  C   UNL A   1      40.512  26.720  29.295  1.00  0.00     0.010 A 
ATOM     35  C   UNL A   1      41.384  27.782  29.574  1.00  0.00    -0.014 A 
BRANCH  35  36
ATOM     36  C   UNL A   1      41.150  28.616  30.780  1.00  0.00     0.031 A 
ATOM     37  C   UNL A   1      40.027  29.621  30.793  1.00  0.00     0.074 A 
ATOM     38  C   UNL A   1      41.993  28.526  31.829  1.00  0.00     0.049 A 
ATOM     39  N   UNL A   1      39.705  30.483  31.723  1.00  0.00    -0.248 NA
ATOM     40  C   UNL A   1      39.175  29.691  29.594  1.00  0.00     0.031 C 
ATOM     41  C   UNL A   1      43.157  27.638  31.911  1.00  0.00     0.029 A 
ATOM     42  N   UNL A   1      42.005  29.195  33.029  1.00  0.00    -0.354 N 
ATOM     43  C   UNL A   1      38.635  31.209  31.211  1.00  0.00     0.074 A 
ATOM     44  C   UNL A   1      38.396  30.726  29.870  1.00  0.00     0.031 C 
ATOM     45  C   UNL A   1      43.747  27.793  33.108  1.00  0.00     0.029 A 
ATOM     46  C   UNL A   1      43.037  28.821  33.859  1.00  0.00     0.049 A 
ATOM     47  H   UNL A   1      41.339  29.877  33.271  1.00  0.00     0.167 HD
ATOM     48  C   UNL A   1      37.901  32.173  31.812  1.00  0.00     0.031 A 
ATOM     49  C   UNL A   1      43.378  29.263  35.086  1.00  0.00     0.031 A 
ATOM     50  C   UNL A   1      38.125  32.631  33.156  1.00  0.00     0.049 A 
ATOM     51  C   UNL A   1      42.538  30.329  35.736  1.00  0.00     0.074 A 
ATOM     52  C   UNL A   1      37.388  33.547  33.885  1.00  0.00     0.029 A 
ATOM     53  N   UNL A   1      39.163  32.211  33.973  1.00  0.00    -0.354 N 
ATOM     54  N   UNL A   1      41.475  30.939  35.269  1.00  0.00    -0.248 NA
ATOM     55  C   UNL A   1      42.937  30.760  37.083  1.00  0.00     0.031 C 
ATOM     56  C   UNL A   1      38.014  33.725  35.122  1.00  0.00     0.029 A 
ATOM     57  C   UNL A   1      39.104  32.872  35.188  1.00  0.00     0.049 A 
ATOM     58  H   UNL A   1      39.842  31.541  33.726  1.00  0.00     0.167 HD
ATOM     59  C   UNL A   1      41.065  31.809  36.273  1.00  0.00     0.074 A 
ATOM     60  C   UNL A   1      41.981  31.629  37.381  1.00  0.00     0.031 C 
ATOM     61  C   UNL A   1      40.026  32.680  36.279  1.00  0.00     0.031 A 
BRANCH  48  62
ATOM     62  C   UNL A   1      36.781  32.800  31.021  1.00  0.00    -0.014 A 
ATOM     63  C   UNL A   1      35.436  32.489  31.292  1.00  0.00     0.010 A 
ATOM     64  C   UNL A   1      37.077  33.754  30.030  1.00  0.00     0.010 A 
ATOM     65  C   UNL A   1      34.410  33.098  30.566  1.00  0.00     0.020 A 
ATOM     66  C   UNL A   1      36.050  34.387  29.322  1.00  0.00     0.020 A 
ATOM     67  C   UNL A   1      34.723  34.044  29.587  1.00  0.00     0.054 A 
BRANCH  67  68
ATOM     68  S   UNL A   1      33.367  34.851  28.694  1.00  0.00     0.124 S 
ATOM     69  O   UNL A   1      32.412  35.112  29.768  1.00  0.00    -0.237 OA
ATOM     70  O   UNL A   1      34.014  36.032  28.130  1.00  0.00    -0.237 OA
ATOM     71  O   UNL A   1      32.946  33.848  27.718  1.00  0.00    -0.744 OA
ENDBRANCH  67  68
ENDBRANCH  48  62
BRANCH  49  72
ATOM     72  C   UNL A   1      44.567  28.697  35.781  1.00  0.00    -0.014 A 
ATOM     73  C   UNL A   1      44.434  27.603  36.656  1.00  0.00     0.010 A 
ATOM     74  C   UNL A   1      45.845  29.249  35.571  1.00  0.00     0.010 A 
ATOM     75  C   UNL A   1      45.549  27.090  37.325  1.00  0.00     0.020 A 
ATOM     76  C   UNL A   1      46.967  28.718  36.215  1.00  0.00     0.020 A 
ATOM     77  C   UNL A   1      46.810  27.650  37.100  1.00  0.00     0.054 A 
BRANCH  77  78
ATOM     78  S   UNL A   1      48.247  26.942  37.950  1.00  0.00     0.124 S 
ATOM     79  O   UNL A   1      47.967  27.270  39.345  1.00  0.00    -0.237 OA
ATOM     80  O   UNL A   1      48.155  25.527  37.601  1.00  0.00    -0.237 OA
ATOM     81  O   UNL A   1      49.380  27.651  37.356  1.00  0.00    -0.744 OA
ENDBRANCH  77  78
ENDBRANCH  49  72
BRANCH  61  82
ATOM     82  C   UNL A   1      39.804  33.488  37.529  1.00  0.00    -0.014 A 
ATOM     83  C   UNL A   1      40.419  34.740  37.706  1.00  0.00     0.010 A 
ATOM     84  C   UNL A   1      38.923  33.009  38.516  1.00  0.00     0.010 A 
ATOM     85  C   UNL A   1      40.180  35.485  38.863  1.00  0.00     0.020 A 
ATOM     86  C   UNL A   1      38.657  33.766  39.660  1.00  0.00     0.020 A 
ATOM     87  C   UNL A   1      39.299  34.994  39.832  1.00  0.00     0.054 A 
BRANCH  87  88
ATOM     88  S   UNL A   1      38.973  36.001  41.304  1.00  0.00     0.124 S 
ATOM     89  O   UNL A   1      37.749  35.395  41.823  1.00  0.00    -0.237 OA
ATOM     90  O   UNL A   1      40.171  35.786  42.112  1.00  0.00    -0.237 OA
ATOM     91  O   UNL A   1      38.821  37.354  40.773  1.00  0.00    -0.744 OA
ENDBRANCH  87  88
ENDBRANCH  61  82
ENDBRANCH  35  36
ENDBRANCH  27  30
ENDBRANCH  25  26
ENDBRANCH  24  25
ENDBRANCH   1  24
TORSDOF 19
ENDMDL
MODEL 3
REMARK VINA RESULT:      -9.6      3.464      8.303
REMARK SMILES CC(=O)N1CCC[C@H](C(=O)N(CC(=O)NCCCNC(=O)c2ccc(-c3c4nc(c(-c5ccc(S(=O)(=O)[O-])cc5)c5ccc([nH]5)c(-c5ccc(S(=O)(=O)[O-])cc5)c5nc(c(-c6ccc(S(=O)(=O)[O-])cc6)c6ccc3[nH]6)C=C5)C=C4)cc2)CC(F)(F)F)C1
REMARK SMILES IDX 16 1 15 2 13 3 14 4 12 6 11 7 9 8 10 9 8 10 4 11 5 12 87 13
REMARK SMILES IDX 6 14 7 15 2 16 1 17 3 18 82 19 83 20 84 21 85 22 86 23 17 24
REMARK SMILES IDX 18 25 19 26 20 27 21 29 22 30 23 31 81 32 24 33 80 34 25 35
REMARK SMILES IDX 26 36 27 37 74 38 28 39 79 40 73 41 75 42 29 43 78 44 72 45
REMARK SMILES IDX 71 46 30 48 60 49 41 50 59 51 42 52 45 53 58 54 76 55 43 56
REMARK SMILES IDX 44 57 57 59 77 60 46 61 31 62 32 63 40 64 33 65 39 66 34 67
REMARK SMILES IDX 35 68 36 69 37 70 38 71 61 72 62 73 70 74 63 75 69 76 64 77
REMARK SMILES IDX 65 78 66 79 67 80 68 81 47 82 48 83 56 84 49 85 55 86 50 87
REMARK SMILES IDX 51 88 52 89 53 90 54 91
REMARK H PARENT 15 5 19 28 75 47 45 58
REMARK Flexibility Score: inf
ROOT
ATOM      1  C   UNL A   1      36.898  20.812  25.379  1.00  0.00     0.117 C 
ENDROOT
BRANCH   1   2
ATOM      2  N   UNL A   1      35.868  19.874  25.006  1.00  0.00    -0.354 N 
ATOM      3  C   UNL A   1      34.515  20.048  24.975  1.00  0.00     0.239 C 
ATOM      4  O   UNL A   1      33.841  19.161  24.444  1.00  0.00    -0.273 OA
ATOM      5  H   UNL A   1      36.185  18.982  24.735  1.00  0.00     0.163 HD
BRANCH   3   6
ATOM      6  C   UNL A   1      33.856  21.369  25.419  1.00  0.00     0.219 C 
BRANCH   6   7
ATOM      7  N   UNL A   1      33.433  22.338  24.401  1.00  0.00    -0.324 N 
BRANCH   7   8
ATOM      8  C   UNL A   1      32.186  22.498  23.819  1.00  0.00     0.228 C 
ATOM      9  O   UNL A   1      31.982  21.927  22.736  1.00  0.00    -0.274 OA
BRANCH   8  10
ATOM     10  C   UNL A   1      31.027  23.407  24.330  1.00  0.00     0.098 C 
ATOM     11  N   UNL A   1      31.374  25.705  23.499  1.00  0.00    -0.342 N 
ATOM     12  C   UNL A   1      31.345  26.301  24.839  1.00  0.00     0.119 C 
ATOM     13  C   UNL A   1      30.613  24.474  23.325  1.00  0.00     0.132 C 
ATOM     14  C   UNL A   1      31.586  25.311  25.980  1.00  0.00     0.022 C 
ATOM     15  C   UNL A   1      30.934  23.951  25.759  1.00  0.00     0.017 C 
BRANCH  11  16
ATOM     16  C   UNL A   1      31.994  26.395  22.466  1.00  0.00     0.219 C 
ATOM     17  C   UNL A   1      32.481  27.799  22.741  1.00  0.00     0.114 C 
ATOM     18  O   UNL A   1      32.210  25.878  21.370  1.00  0.00    -0.275 OA
ENDBRANCH  11  16
ENDBRANCH   8  10
ENDBRANCH   7   8
BRANCH   7  19
ATOM     19  C   UNL A   1      34.493  23.309  23.996  1.00  0.00     0.235 C 
BRANCH  19  20
ATOM     20  C   UNL A   1      34.994  24.312  25.040  1.00  0.00     0.406 C 
ATOM     21  F   UNL A   1      36.328  24.281  25.211  1.00  0.00    -0.169 F 
ATOM     22  F   UNL A   1      34.655  25.571  24.672  1.00  0.00    -0.169 F 
ATOM     23  F   UNL A   1      34.415  24.091  26.243  1.00  0.00    -0.169 F 
ENDBRANCH  19  20
ENDBRANCH   7  19
ENDBRANCH   6   7
ENDBRANCH   3   6
ENDBRANCH   1   2
BRANCH   1  24
ATOM     24  C   UNL A   1      38.282  20.473  24.876  1.00  0.00     0.042 C 
BRANCH  24  25
ATOM     25  C   UNL A   1      39.356  20.634  25.929  1.00  0.00     0.118 C 
BRANCH  25  26
ATOM     26  N   UNL A   1      40.202  19.454  26.045  1.00  0.00    -0.352 N 
ATOM     27  C   UNL A   1      41.569  19.380  26.209  1.00  0.00     0.251 C 
ATOM     28  H   UNL A   1      39.733  18.590  25.999  1.00  0.00     0.163 HD
ATOM     29  O   UNL A   1      42.143  18.310  26.094  1.00  0.00    -0.269 OA
BRANCH  27  30
ATOM     30  C   UNL A   1      42.327  20.621  26.491  1.00  0.00     0.039 A 
ATOM     31  C   UNL A   1      42.968  21.281  25.442  1.00  0.00     0.014 A 
ATOM     32  C   UNL A   1      42.352  21.158  27.780  1.00  0.00     0.014 A 
ATOM     33  C   UNL A   1      43.557  22.526  25.674  1.00  0.00     0.010 A 
ATOM     34  C   UNL A   1      42.830  22.445  27.981  1.00  0.00     0.010 A 
ATOM     35  C   UNL A   1      43.447  23.142  26.933  1.00  0.00    -0.014 A 
BRANCH  35  36
ATOM     36  C   UNL A   1      43.971  24.510  27.180  1.00  0.00     0.031 A 
ATOM     37  C   UNL A   1      43.029  25.616  27.578  1.00  0.00     0.074 A 
ATOM     38  C   UNL A   1      45.277  24.773  26.970  1.00  0.00     0.049 A 
ATOM     39  N   UNL A   1      43.284  26.884  27.774  1.00  0.00    -0.248 NA
ATOM     40  C   UNL A   1      41.609  25.260  27.748  1.00  0.00     0.031 C 
ATOM     41  C   UNL A   1      46.279  23.803  26.519  1.00  0.00     0.029 A 
ATOM     42  N   UNL A   1      45.988  25.941  27.101  1.00  0.00    -0.354 N 
ATOM     43  C   UNL A   1      42.059  27.475  28.063  1.00  0.00     0.074 A 
ATOM     44  C   UNL A   1      41.054  26.443  27.964  1.00  0.00     0.031 C 
ATOM     45  C   UNL A   1      47.477  24.406  26.445  1.00  0.00     0.029 A 
ATOM     46  C   UNL A   1      47.324  25.813  26.795  1.00  0.00     0.049 A 
ATOM     47  H   UNL A   1      45.581  26.790  27.387  1.00  0.00     0.167 HD
ATOM     48  C   UNL A   1      41.797  28.758  28.405  1.00  0.00     0.031 A 
ATOM     49  C   UNL A   1      48.313  26.728  26.789  1.00  0.00     0.031 A 
ATOM     50  C   UNL A   1      42.804  29.776  28.529  1.00  0.00     0.049 A 
ATOM     51  C   UNL A   1      47.997  28.146  27.184  1.00  0.00     0.074 A 
ATOM     52  C   UNL A   1      42.653  31.086  28.946  1.00  0.00     0.029 A 
ATOM     53  N   UNL A   1      44.148  29.601  28.235  1.00  0.00    -0.354 N 
ATOM     54  N   UNL A   1      46.846  28.664  27.541  1.00  0.00    -0.248 NA
ATOM     55  C   UNL A   1      49.115  29.099  27.185  1.00  0.00     0.031 C 
ATOM     56  C   UNL A   1      43.896  31.721  28.849  1.00  0.00     0.029 A 
ATOM     57  C   UNL A   1      44.832  30.788  28.433  1.00  0.00     0.049 A 
ATOM     58  H   UNL A   1      44.555  28.757  27.932  1.00  0.00     0.167 HD
ATOM     59  C   UNL A   1      47.106  29.999  27.831  1.00  0.00     0.074 A 
ATOM     60  C   UNL A   1      48.526  30.202  27.630  1.00  0.00     0.031 C 
ATOM     61  C   UNL A   1      46.247  30.971  28.226  1.00  0.00     0.031 A 
BRANCH  48  62
ATOM     62  C   UNL A   1      40.363  29.136  28.673  1.00  0.00    -0.014 A 
ATOM     63  C   UNL A   1      39.449  29.316  27.619  1.00  0.00     0.010 A 
ATOM     64  C   UNL A   1      39.911  29.258  30.000  1.00  0.00     0.010 A 
ATOM     65  C   UNL A   1      38.117  29.641  27.887  1.00  0.00     0.020 A 
ATOM     66  C   UNL A   1      38.572  29.554  30.271  1.00  0.00     0.020 A 
ATOM     67  C   UNL A   1      37.686  29.757  29.211  1.00  0.00     0.054 A 
BRANCH  67  68
ATOM     68  S   UNL A   1      35.941  30.135  29.527  1.00  0.00     0.124 S 
ATOM     69  O   UNL A   1      35.701  29.424  30.780  1.00  0.00    -0.237 OA
ATOM     70  O   UNL A   1      35.942  31.592  29.623  1.00  0.00    -0.237 OA
ATOM     71  O   UNL A   1      35.250  29.591  28.361  1.00  0.00    -0.744 OA
ENDBRANCH  67  68
ENDBRANCH  48  62
BRANCH  49  72
ATOM     72  C   UNL A   1      49.696  26.333  26.401  1.00  0.00    -0.014 A 
ATOM     73  C   UNL A   1      50.603  25.857  27.364  1.00  0.00     0.010 A 
ATOM     74  C   UNL A   1      50.113  26.429  25.060  1.00  0.00     0.010 A 
ATOM     75  C   UNL A   1      51.908  25.509  27.000  1.00  0.00     0.020 A 
ATOM     76  C   UNL A   1      51.407  26.053  24.687  1.00  0.00     0.020 A 
ATOM     77  C   UNL A   1      52.302  25.609  25.662  1.00  0.00     0.054 A 
BRANCH  77  78
ATOM     78  S   UNL A   1      53.987  25.116  25.207  1.00  0.00     0.124 S 
ATOM     79  O   UNL A   1      54.727  25.391  26.436  1.00  0.00    -0.237 OA
ATOM     80  O   UNL A   1      53.823  23.704  24.869  1.00  0.00    -0.237 OA
ATOM     81  O   UNL A   1      54.306  25.986  24.077  1.00  0.00    -0.744 OA
ENDBRANCH  77  78
ENDBRANCH  49  72
BRANCH  61  82
ATOM     82  C   UNL A   1      46.820  32.337  28.493  1.00  0.00    -0.014 A 
ATOM     83  C   UNL A   1      47.292  32.692  29.769  1.00  0.00     0.010 A 
ATOM     84  C   UNL A   1      46.939  33.258  27.437  1.00  0.00     0.010 A 
ATOM     85  C   UNL A   1      47.844  33.955  29.991  1.00  0.00     0.020 A 
ATOM     86  C   UNL A   1      47.519  34.511  27.646  1.00  0.00     0.020 A 
ATOM     87  C   UNL A   1      47.955  34.857  28.927  1.00  0.00     0.054 A 
BRANCH  87  88
ATOM     88  S   UNL A   1      48.715  36.475  29.232  1.00  0.00     0.124 S 
ATOM     89  O   UNL A   1      47.661  37.391  28.804  1.00  0.00    -0.237 OA
ATOM     90  O   UNL A   1      48.973  36.442  30.669  1.00  0.00    -0.237 OA
ATOM     91  O   UNL A   1      49.908  36.462  28.389  1.00  0.00    -0.744 OA
ENDBRANCH  87  88
ENDBRANCH  61  82
ENDBRANCH  35  36
ENDBRANCH  27  30
ENDBRANCH  25  26
ENDBRANCH  24  25
ENDBRANCH   1  24
TORSDOF 19
ENDMDL
