MODEL 1
REMARK VINA RESULT:     -13.9      0.000      0.000
REMARK SMILES COc1ccc(-c2cc(Cl)cc3c2O[C@@H](C(F)(F)F)C(C(=O)NCCCNC(=O)c2ccc(-c4c5nc(c(-c6ccc(S(=O)(=O)[O-])cc6)c6ccc([nH]6)c(-c6ccc(S(=O)(=O)[O-])cc6)c6nc(c(-c7ccc(S(=O)(=O)[O-])cc7)c7ccc4[nH]7)C=C6)C=C5)cc2)=C3)cc1C
REMARK SMILES IDX 25 1 24 2 23 3 21 4 22 5 20 7 7 8 8 9 13 10 9 11 12 12 14 13
REMARK SMILES IDX 10 14 11 15 90 16 15 17 6 18 3 19 4 20 92 21 5 22 91 23
REMARK SMILES IDX 93 24 2 25 1 26 16 27 17 28 18 29 19 30 26 31 27 32 28 33
REMARK SMILES IDX 29 35 30 36 31 37 89 38 32 39 88 40 33 41 34 42 35 43 82 44
REMARK SMILES IDX 36 45 87 46 81 47 83 48 37 49 86 50 80 51 79 52 38 54 68 55
REMARK SMILES IDX 49 56 67 57 50 58 53 59 66 60 84 61 51 62 52 63 65 65 85 66
REMARK SMILES IDX 54 67 39 68 40 69 48 70 41 71 47 72 42 73 43 74 44 75 45 76
REMARK SMILES IDX 46 77 69 78 70 79 78 80 71 81 77 82 72 83 73 84 74 85 75 86
REMARK SMILES IDX 76 87 55 88 56 89 64 90 57 91 63 92 58 93 59 94 60 95 61 96
REMARK SMILES IDX 62 97
REMARK H PARENT 23 6 27 34 83 53 53 64
REMARK Flexibility Score: inf
ROOT
ATOM      1  C   UNL A   1      33.839  28.844  25.684  1.00  0.00     0.042 C 
ENDROOT
BRANCH   1   2
ATOM      2  C   UNL A   1      32.938  28.050  24.741  1.00  0.00     0.118 C 
BRANCH   2   3
ATOM      3  N   UNL A   1      33.564  26.825  24.248  1.00  0.00    -0.352 N 
ATOM      4  C   UNL A   1      33.119  25.839  23.420  1.00  0.00     0.251 C 
ATOM      5  O   UNL A   1      33.942  25.355  22.635  1.00  0.00    -0.270 OA
ATOM      6  H   UNL A   1      34.482  26.686  24.577  1.00  0.00     0.163 HD
BRANCH   4   7
ATOM      7  C   UNL A   1      31.713  25.230  23.512  1.00  0.00     0.067 C 
ATOM      8  C   UNL A   1      33.656  21.938  24.862  1.00  0.00     0.026 A 
ATOM      9  C   UNL A   1      33.330  20.659  24.366  1.00  0.00     0.033 A 
ATOM     10  C   UNL A   1      32.790  22.969  24.502  1.00  0.00     0.135 A 
ATOM     11  C   UNL A   1      32.416  20.515  23.320  1.00  0.00     0.042 A 
ATOM     12  C   UNL A   1      32.082  22.890  23.270  1.00  0.00     0.019 A 
ATOM     13  O   UNL A   1      32.515  24.013  25.405  1.00  0.00    -0.475 OA
ATOM     14  Cl  UNL A   1      32.094  18.947  22.687  1.00  0.00    -0.084 Cl
ATOM     15  C   UNL A   1      31.866  21.640  22.702  1.00  0.00     0.032 A 
ATOM     16  C   UNL A   1      31.587  24.175  22.659  1.00  0.00     0.025 C 
ATOM     17  C   UNL A   1      31.348  24.735  24.905  1.00  0.00     0.314 C 
BRANCH   8  18
ATOM     18  C   UNL A   1      35.111  22.201  25.003  1.00  0.00    -0.014 A 
ATOM     19  C   UNL A   1      37.889  22.337  25.530  1.00  0.00     0.121 A 
ATOM     20  C   UNL A   1      37.059  23.461  25.682  1.00  0.00     0.047 A 
ATOM     21  C   UNL A   1      37.349  21.126  25.097  1.00  0.00    -0.008 A 
ATOM     22  C   UNL A   1      35.678  23.399  25.422  1.00  0.00     0.013 A 
ATOM     23  C   UNL A   1      35.979  21.096  24.796  1.00  0.00     0.016 A 
ATOM     24  C   UNL A   1      38.135  19.854  24.978  1.00  0.00     0.048 C 
BRANCH  19  25
ATOM     25  O   UNL A   1      39.181  22.485  25.959  1.00  0.00    -0.496 OA
ATOM     26  C   UNL A   1      39.327  23.314  27.109  1.00  0.00     0.278 C 
ENDBRANCH  19  25
ENDBRANCH   8  18
BRANCH  17  27
ATOM     27  C   UNL A   1      30.510  25.658  25.796  1.00  0.00     0.429 C 
ATOM     28  F   UNL A   1      29.946  26.639  25.027  1.00  0.00    -0.167 F 
ATOM     29  F   UNL A   1      29.487  25.033  26.407  1.00  0.00    -0.167 F 
ATOM     30  F   UNL A   1      31.235  26.324  26.718  1.00  0.00    -0.167 F 
ENDBRANCH  17  27
ENDBRANCH   4   7
ENDBRANCH   2   3
ENDBRANCH   1   2
BRANCH   1  31
ATOM     31  C   UNL A   1      33.118  29.507  26.852  1.00  0.00     0.118 C 
BRANCH  31  32
ATOM     32  N   UNL A   1      33.563  30.878  27.109  1.00  0.00    -0.352 N 
ATOM     33  C   UNL A   1      34.738  31.289  27.722  1.00  0.00     0.251 C 
ATOM     34  H   UNL A   1      32.955  31.594  26.812  1.00  0.00     0.163 HD
ATOM     35  O   UNL A   1      34.978  32.455  27.974  1.00  0.00    -0.269 OA
BRANCH  33  36
ATOM     36  C   UNL A   1      35.724  30.231  28.022  1.00  0.00     0.039 A 
ATOM     37  C   UNL A   1      35.794  29.770  29.340  1.00  0.00     0.014 A 
ATOM     38  C   UNL A   1      36.752  30.009  27.113  1.00  0.00     0.014 A 
ATOM     39  C   UNL A   1      37.003  29.276  29.818  1.00  0.00     0.010 A 
ATOM     40  C   UNL A   1      37.974  29.604  27.613  1.00  0.00     0.010 A 
ATOM     41  C   UNL A   1      38.116  29.309  28.979  1.00  0.00    -0.014 A 
BRANCH  41  42
ATOM     42  C   UNL A   1      39.491  29.191  29.453  1.00  0.00     0.031 A 
ATOM     43  C   UNL A   1      40.278  27.972  29.157  1.00  0.00     0.074 A 
ATOM     44  C   UNL A   1      40.102  30.250  30.035  1.00  0.00     0.049 A 
ATOM     45  N   UNL A   1      41.393  27.672  29.734  1.00  0.00    -0.248 NA
ATOM     46  C   UNL A   1      39.818  26.937  28.234  1.00  0.00     0.031 C 
ATOM     47  C   UNL A   1      41.542  30.443  30.196  1.00  0.00     0.029 A 
ATOM     48  N   UNL A   1      39.544  31.273  30.806  1.00  0.00    -0.354 N 
ATOM     49  C   UNL A   1      41.953  26.636  29.025  1.00  0.00     0.074 A 
ATOM     50  C   UNL A   1      40.876  26.122  28.214  1.00  0.00     0.031 C 
ATOM     51  C   UNL A   1      41.747  31.278  31.224  1.00  0.00     0.029 A 
ATOM     52  C   UNL A   1      40.461  31.525  31.843  1.00  0.00     0.049 A 
ATOM     53  H   UNL A   1      38.683  31.726  30.654  1.00  0.00     0.167 HD
ATOM     54  C   UNL A   1      43.298  26.432  29.096  1.00  0.00     0.031 A 
ATOM     55  C   UNL A   1      40.182  31.364  33.170  1.00  0.00     0.031 A 
ATOM     56  C   UNL A   1      43.912  27.200  30.186  1.00  0.00     0.049 A 
ATOM     57  C   UNL A   1      41.093  30.366  33.869  1.00  0.00     0.074 A 
ATOM     58  C   UNL A   1      44.790  28.267  30.268  1.00  0.00     0.029 A 
ATOM     59  N   UNL A   1      43.425  27.011  31.470  1.00  0.00    -0.354 N 
ATOM     60  N   UNL A   1      42.087  29.746  33.295  1.00  0.00    -0.248 NA
ATOM     61  C   UNL A   1      40.881  29.907  35.244  1.00  0.00     0.031 C 
ATOM     62  C   UNL A   1      44.802  28.728  31.621  1.00  0.00     0.029 A 
ATOM     63  C   UNL A   1      43.954  27.924  32.360  1.00  0.00     0.049 A 
ATOM     64  H   UNL A   1      42.781  26.310  31.718  1.00  0.00     0.167 HD
ATOM     65  C   UNL A   1      42.570  28.777  34.133  1.00  0.00     0.074 A 
ATOM     66  C   UNL A   1      41.804  28.934  35.355  1.00  0.00     0.031 C 
ATOM     67  C   UNL A   1      43.515  27.873  33.746  1.00  0.00     0.031 A 
BRANCH  54  68
ATOM     68  C   UNL A   1      44.104  25.673  28.056  1.00  0.00    -0.014 A 
ATOM     69  C   UNL A   1      44.328  26.246  26.787  1.00  0.00     0.010 A 
ATOM     70  C   UNL A   1      44.579  24.355  28.218  1.00  0.00     0.010 A 
ATOM     71  C   UNL A   1      44.935  25.532  25.737  1.00  0.00     0.020 A 
ATOM     72  C   UNL A   1      45.203  23.636  27.190  1.00  0.00     0.020 A 
ATOM     73  C   UNL A   1      45.358  24.221  25.944  1.00  0.00     0.054 A 
BRANCH  73  74
ATOM     74  S   UNL A   1      46.080  23.277  24.578  1.00  0.00     0.124 S 
ATOM     75  O   UNL A   1      46.564  22.076  25.252  1.00  0.00    -0.237 OA
ATOM     76  O   UNL A   1      44.941  23.087  23.684  1.00  0.00    -0.237 OA
ATOM     77  O   UNL A   1      47.127  24.159  24.063  1.00  0.00    -0.744 OA
ENDBRANCH  73  74
ENDBRANCH  54  68
BRANCH  55  78
ATOM     78  C   UNL A   1      38.759  31.618  33.521  1.00  0.00    -0.014 A 
ATOM     79  C   UNL A   1      38.408  32.946  33.848  1.00  0.00     0.010 A 
ATOM     80  C   UNL A   1      37.754  30.725  33.110  1.00  0.00     0.010 A 
ATOM     81  C   UNL A   1      37.124  33.422  33.580  1.00  0.00     0.020 A 
ATOM     82  C   UNL A   1      36.463  31.202  32.848  1.00  0.00     0.020 A 
ATOM     83  C   UNL A   1      36.184  32.561  33.014  1.00  0.00     0.054 A 
BRANCH  83  84
ATOM     84  S   UNL A   1      34.695  33.303  32.281  1.00  0.00     0.124 S 
ATOM     85  O   UNL A   1      33.717  33.175  33.355  1.00  0.00    -0.237 OA
ATOM     86  O   UNL A   1      35.154  34.663  32.000  1.00  0.00    -0.237 OA
ATOM     87  O   UNL A   1      34.454  32.472  31.104  1.00  0.00    -0.744 OA
ENDBRANCH  83  84
ENDBRANCH  55  78
BRANCH  67  88
ATOM     88  C   UNL A   1      44.061  26.805  34.655  1.00  0.00    -0.014 A 
ATOM     89  C   UNL A   1      45.067  27.067  35.598  1.00  0.00     0.010 A 
ATOM     90  C   UNL A   1      43.657  25.461  34.493  1.00  0.00     0.010 A 
ATOM     91  C   UNL A   1      45.606  26.040  36.386  1.00  0.00     0.020 A 
ATOM     92  C   UNL A   1      44.203  24.427  35.259  1.00  0.00     0.020 A 
ATOM     93  C   UNL A   1      45.164  24.727  36.216  1.00  0.00     0.054 A 
BRANCH  93  94
ATOM     94  S   UNL A   1      45.898  23.405  37.215  1.00  0.00     0.124 S 
ATOM     95  O   UNL A   1      45.385  22.196  36.574  1.00  0.00    -0.237 OA
ATOM     96  O   UNL A   1      47.326  23.652  37.036  1.00  0.00    -0.237 OA
ATOM     97  O   UNL A   1      45.383  23.657  38.558  1.00  0.00    -0.744 OA
ENDBRANCH  93  94
ENDBRANCH  67  88
ENDBRANCH  41  42
ENDBRANCH  33  36
ENDBRANCH  31  32
ENDBRANCH   1  31
TORSDOF 16
ENDMDL
MODEL 2
REMARK VINA RESULT:     -13.6      3.886      9.960
REMARK SMILES COc1ccc(-c2cc(Cl)cc3c2O[C@@H](C(F)(F)F)C(C(=O)NCCCNC(=O)c2ccc(-c4c5nc(c(-c6ccc(S(=O)(=O)[O-])cc6)c6ccc([nH]6)c(-c6ccc(S(=O)(=O)[O-])cc6)c6nc(c(-c7ccc(S(=O)(=O)[O-])cc7)c7ccc4[nH]7)C=C6)C=C5)cc2)=C3)cc1C
REMARK SMILES IDX 25 1 24 2 23 3 21 4 22 5 20 7 7 8 8 9 13 10 9 11 12 12 14 13
REMARK SMILES IDX 10 14 11 15 90 16 15 17 6 18 3 19 4 20 92 21 5 22 91 23
REMARK SMILES IDX 93 24 2 25 1 26 16 27 17 28 18 29 19 30 26 31 27 32 28 33
REMARK SMILES IDX 29 35 30 36 31 37 89 38 32 39 88 40 33 41 34 42 35 43 82 44
REMARK SMILES IDX 36 45 87 46 81 47 83 48 37 49 86 50 80 51 79 52 38 54 68 55
REMARK SMILES IDX 49 56 67 57 50 58 53 59 66 60 84 61 51 62 52 63 65 65 85 66
REMARK SMILES IDX 54 67 39 68 40 69 48 70 41 71 47 72 42 73 43 74 44 75 45 76
REMARK SMILES IDX 46 77 69 78 70 79 78 80 71 81 77 82 72 83 73 84 74 85 75 86
REMARK SMILES IDX 76 87 55 88 56 89 64 90 57 91 63 92 58 93 59 94 60 95 61 96
REMARK SMILES IDX 62 97
REMARK H PARENT 23 6 27 34 83 53 53 64
REMARK Flexibility Score: inf
ROOT
ATOM      1  C   UNL A   1      36.296  23.348  26.147  1.00  0.00     0.042 C 
ENDROOT
BRANCH   1   2
ATOM      2  C   UNL A   1      34.842  22.975  25.867  1.00  0.00     0.118 C 
BRANCH   2   3
ATOM      3  N   UNL A   1      33.906  24.056  26.166  1.00  0.00    -0.352 N 
ATOM      4  C   UNL A   1      32.564  24.187  25.968  1.00  0.00     0.251 C 
ATOM      5  O   UNL A   1      31.924  24.772  26.849  1.00  0.00    -0.270 OA
ATOM      6  H   UNL A   1      34.325  24.840  26.592  1.00  0.00     0.163 HD
BRANCH   4   7
ATOM      7  C   UNL A   1      31.859  23.770  24.671  1.00  0.00     0.067 C 
ATOM      8  C   UNL A   1      31.507  27.759  24.040  1.00  0.00     0.026 A 
ATOM      9  C   UNL A   1      30.284  28.312  23.611  1.00  0.00     0.033 A 
ATOM     10  C   UNL A   1      31.588  26.367  24.016  1.00  0.00     0.135 A 
ATOM     11  C   UNL A   1      29.142  27.515  23.505  1.00  0.00     0.042 A 
ATOM     12  C   UNL A   1      30.407  25.595  24.192  1.00  0.00     0.019 A 
ATOM     13  O   UNL A   1      32.801  25.732  23.688  1.00  0.00    -0.475 OA
ATOM     14  Cl  UNL A   1      27.647  28.233  23.047  1.00  0.00    -0.084 Cl
ATOM     15  C   UNL A   1      29.178  26.174  23.893  1.00  0.00     0.032 A 
ATOM     16  C   UNL A   1      30.558  24.176  24.676  1.00  0.00     0.025 C 
ATOM     17  C   UNL A   1      32.505  24.330  23.411  1.00  0.00     0.314 C 
BRANCH   8  18
ATOM     18  C   UNL A   1      32.199  28.528  25.108  1.00  0.00    -0.014 A 
ATOM     19  C   UNL A   1      33.446  30.349  26.880  1.00  0.00     0.121 A 
ATOM     20  C   UNL A   1      34.073  29.150  26.502  1.00  0.00     0.047 A 
ATOM     21  C   UNL A   1      32.176  30.655  26.390  1.00  0.00    -0.008 A 
ATOM     22  C   UNL A   1      33.459  28.242  25.621  1.00  0.00     0.013 A 
ATOM     23  C   UNL A   1      31.558  29.714  25.553  1.00  0.00     0.016 A 
ATOM     24  C   UNL A   1      31.456  31.941  26.673  1.00  0.00     0.048 C 
BRANCH  19  25
ATOM     25  O   UNL A   1      34.207  31.216  27.618  1.00  0.00    -0.496 OA
ATOM     26  C   UNL A   1      35.315  30.609  28.277  1.00  0.00     0.278 C 
ENDBRANCH  19  25
ENDBRANCH   8  18
BRANCH  17  27
ATOM     27  C   UNL A   1      33.471  23.425  22.638  1.00  0.00     0.429 C 
ATOM     28  F   UNL A   1      33.359  22.143  23.104  1.00  0.00    -0.167 F 
ATOM     29  F   UNL A   1      33.213  23.364  21.320  1.00  0.00    -0.167 F 
ATOM     30  F   UNL A   1      34.769  23.740  22.821  1.00  0.00    -0.167 F 
ENDBRANCH  17  27
ENDBRANCH   4   7
ENDBRANCH   2   3
ENDBRANCH   1   2
BRANCH   1  31
ATOM     31  C   UNL A   1      37.311  22.731  25.190  1.00  0.00     0.118 C 
BRANCH  31  32
ATOM     32  N   UNL A   1      38.408  22.041  25.871  1.00  0.00    -0.352 N 
ATOM     33  C   UNL A   1      39.447  22.607  26.597  1.00  0.00     0.251 C 
ATOM     34  H   UNL A   1      38.409  21.058  25.806  1.00  0.00     0.163 HD
ATOM     35  O   UNL A   1      40.367  21.953  27.051  1.00  0.00    -0.269 OA
BRANCH  33  36
ATOM     36  C   UNL A   1      39.362  24.061  26.836  1.00  0.00     0.039 A 
ATOM     37  C   UNL A   1      40.131  24.896  26.018  1.00  0.00     0.014 A 
ATOM     38  C   UNL A   1      38.838  24.503  28.045  1.00  0.00     0.014 A 
ATOM     39  C   UNL A   1      40.569  26.116  26.522  1.00  0.00     0.010 A 
ATOM     40  C   UNL A   1      39.347  25.672  28.577  1.00  0.00     0.010 A 
ATOM     41  C   UNL A   1      40.268  26.438  27.845  1.00  0.00    -0.014 A 
BRANCH  41  42
ATOM     42  C   UNL A   1      40.967  27.469  28.606  1.00  0.00     0.031 A 
ATOM     43  C   UNL A   1      40.272  28.725  28.968  1.00  0.00     0.074 A 
ATOM     44  C   UNL A   1      42.200  27.224  29.110  1.00  0.00     0.049 A 
ATOM     45  N   UNL A   1      40.867  29.781  29.412  1.00  0.00    -0.248 NA
ATOM     46  C   UNL A   1      38.837  28.920  28.774  1.00  0.00     0.031 C 
ATOM     47  C   UNL A   1      42.857  27.952  30.194  1.00  0.00     0.029 A 
ATOM     48  N   UNL A   1      43.213  26.408  28.599  1.00  0.00    -0.354 N 
ATOM     49  C   UNL A   1      39.894  30.629  29.885  1.00  0.00     0.074 A 
ATOM     50  C   UNL A   1      38.664  30.124  29.328  1.00  0.00     0.031 C 
ATOM     51  C   UNL A   1      44.181  27.798  30.068  1.00  0.00     0.029 A 
ATOM     52  C   UNL A   1      44.419  27.097  28.822  1.00  0.00     0.049 A 
ATOM     53  H   UNL A   1      43.104  25.529  28.169  1.00  0.00     0.167 HD
ATOM     54  C   UNL A   1      40.227  31.569  30.814  1.00  0.00     0.031 A 
ATOM     55  C   UNL A   1      45.258  27.517  27.830  1.00  0.00     0.031 A 
ATOM     56  C   UNL A   1      41.681  31.719  30.947  1.00  0.00     0.049 A 
ATOM     57  C   UNL A   1      45.486  29.021  27.819  1.00  0.00     0.074 A 
ATOM     58  C   UNL A   1      42.614  31.446  31.932  1.00  0.00     0.029 A 
ATOM     59  N   UNL A   1      42.411  32.026  29.809  1.00  0.00    -0.354 N 
ATOM     60  N   UNL A   1      44.983  29.851  28.691  1.00  0.00    -0.248 NA
ATOM     61  C   UNL A   1      46.210  29.719  26.754  1.00  0.00     0.031 C 
ATOM     62  C   UNL A   1      43.917  31.575  31.356  1.00  0.00     0.029 A 
ATOM     63  C   UNL A   1      43.770  31.950  30.034  1.00  0.00     0.049 A 
ATOM     64  H   UNL A   1      42.007  32.271  28.945  1.00  0.00     0.167 HD
ATOM     65  C   UNL A   1      45.208  31.138  28.285  1.00  0.00     0.074 A 
ATOM     66  C   UNL A   1      46.007  31.008  27.080  1.00  0.00     0.031 C 
ATOM     67  C   UNL A   1      44.671  32.218  28.923  1.00  0.00     0.031 A 
BRANCH  54  68
ATOM     68  C   UNL A   1      39.233  32.235  31.750  1.00  0.00    -0.014 A 
ATOM     69  C   UNL A   1      38.628  31.485  32.780  1.00  0.00     0.010 A 
ATOM     70  C   UNL A   1      38.768  33.559  31.611  1.00  0.00     0.010 A 
ATOM     71  C   UNL A   1      37.593  32.005  33.579  1.00  0.00     0.020 A 
ATOM     72  C   UNL A   1      37.752  34.100  32.411  1.00  0.00     0.020 A 
ATOM     73  C   UNL A   1      37.151  33.311  33.379  1.00  0.00     0.054 A 
BRANCH  73  74
ATOM     74  S   UNL A   1      35.776  33.962  34.360  1.00  0.00     0.124 S 
ATOM     75  O   UNL A   1      36.230  33.724  35.727  1.00  0.00    -0.237 OA
ATOM     76  O   UNL A   1      35.722  35.361  33.944  1.00  0.00    -0.237 OA
ATOM     77  O   UNL A   1      34.635  33.149  33.940  1.00  0.00    -0.744 OA
ENDBRANCH  73  74
ENDBRANCH  54  68
BRANCH  55  78
ATOM     78  C   UNL A   1      45.255  26.641  26.628  1.00  0.00    -0.014 A 
ATOM     79  C   UNL A   1      46.176  25.572  26.613  1.00  0.00     0.010 A 
ATOM     80  C   UNL A   1      44.125  26.584  25.793  1.00  0.00     0.010 A 
ATOM     81  C   UNL A   1      45.876  24.392  25.932  1.00  0.00     0.020 A 
ATOM     82  C   UNL A   1      43.828  25.402  25.103  1.00  0.00     0.020 A 
ATOM     83  C   UNL A   1      44.669  24.294  25.241  1.00  0.00     0.054 A 
BRANCH  83  84
ATOM     84  S   UNL A   1      44.112  22.636  24.747  1.00  0.00     0.124 S 
ATOM     85  O   UNL A   1      42.667  22.722  24.927  1.00  0.00    -0.237 OA
ATOM     86  O   UNL A   1      44.575  22.573  23.360  1.00  0.00    -0.237 OA
ATOM     87  O   UNL A   1      44.813  21.756  25.678  1.00  0.00    -0.744 OA
ENDBRANCH  83  84
ENDBRANCH  55  78
BRANCH  67  88
ATOM     88  C   UNL A   1      44.911  33.639  28.492  1.00  0.00    -0.014 A 
ATOM     89  C   UNL A   1      44.007  34.336  27.675  1.00  0.00     0.010 A 
ATOM     90  C   UNL A   1      46.133  34.278  28.801  1.00  0.00     0.010 A 
ATOM     91  C   UNL A   1      44.287  35.637  27.232  1.00  0.00     0.020 A 
ATOM     92  C   UNL A   1      46.430  35.566  28.348  1.00  0.00     0.020 A 
ATOM     93  C   UNL A   1      45.494  36.247  27.579  1.00  0.00     0.054 A 
BRANCH  93  94
ATOM     94  S   UNL A   1      45.857  37.913  26.967  1.00  0.00     0.124 S 
ATOM     95  O   UNL A   1      44.537  38.411  26.588  1.00  0.00    -0.237 OA
ATOM     96  O   UNL A   1      46.451  38.542  28.144  1.00  0.00    -0.237 OA
ATOM     97  O   UNL A   1      46.773  37.682  25.853  1.00  0.00    -0.744 OA
ENDBRANCH  93  94
ENDBRANCH  67  88
ENDBRANCH  41  42
ENDBRANCH  33  36
ENDBRANCH  31  32
ENDBRANCH   1  31
TORSDOF 16
ENDMDL
MODEL 3
REMARK VINA RESULT:     -12.8      2.158      3.129
REMARK SMILES COc1ccc(-c2cc(Cl)cc3c2O[C@@H](C(F)(F)F)C(C(=O)NCCCNC(=O)c2ccc(-c4c5nc(c(-c6ccc(S(=O)(=O)[O-])cc6)c6ccc([nH]6)c(-c6ccc(S(=O)(=O)[O-])cc6)c6nc(c(-c7ccc(S(=O)(=O)[O-])cc7)c7ccc4[nH]7)C=C6)C=C5)cc2)=C3)cc1C
REMARK SMILES IDX 25 1 24 2 23 3 21 4 22 5 20 7 7 8 8 9 13 10 9 11 12 12 14 13
REMARK SMILES IDX 10 14 11 15 90 16 15 17 6 18 3 19 4 20 92 21 5 22 91 23
REMARK SMILES IDX 93 24 2 25 1 26 16 27 17 28 18 29 19 30 26 31 27 32 28 33
REMARK SMILES IDX 29 35 30 36 31 37 89 38 32 39 88 40 33 41 34 42 35 43 82 44
REMARK SMILES IDX 36 45 87 46 81 47 83 48 37 49 86 50 80 51 79 52 38 54 68 55
REMARK SMILES IDX 49 56 67 57 50 58 53 59 66 60 84 61 51 62 52 63 65 65 85 66
REMARK SMILES IDX 54 67 39 68 40 69 48 70 41 71 47 72 42 73 43 74 44 75 45 76
REMARK SMILES IDX 46 77 69 78 70 79 78 80 71 81 77 82 72 83 73 84 74 85 75 86
REMARK SMILES IDX 76 87 55 88 56 89 64 90 57 91 63 92 58 93 59 94 60 95 61 96
REMARK SMILES IDX 62 97
REMARK H PARENT 23 6 27 34 83 53 53 64
REMARK Flexibility Score: inf
ROOT
ATOM      1  C   UNL A   1      34.070  29.940  26.525  1.00  0.00     0.042 C 
ENDROOT
BRANCH   1   2
ATOM      2  C   UNL A   1      34.496  28.653  25.822  1.00  0.00     0.118 C 
BRANCH   2   3
ATOM      3  N   UNL A   1      33.936  27.452  26.438  1.00  0.00    -0.352 N 
ATOM      4  C   UNL A   1      33.067  26.508  25.980  1.00  0.00     0.251 C 
ATOM      5  O   UNL A   1      33.279  25.340  26.323  1.00  0.00    -0.270 OA
ATOM      6  H   UNL A   1      34.246  27.295  27.360  1.00  0.00     0.163 HD
BRANCH   4   7
ATOM      7  C   UNL A   1      31.795  26.845  25.190  1.00  0.00     0.067 C 
ATOM      8  C   UNL A   1      32.992  23.845  22.740  1.00  0.00     0.026 A 
ATOM      9  C   UNL A   1      32.969  24.009  21.341  1.00  0.00     0.033 A 
ATOM     10  C   UNL A   1      32.360  24.842  23.481  1.00  0.00     0.135 A 
ATOM     11  C   UNL A   1      32.644  25.245  20.777  1.00  0.00     0.042 A 
ATOM     12  C   UNL A   1      32.301  26.166  22.965  1.00  0.00     0.019 A 
ATOM     13  O   UNL A   1      31.670  24.518  24.665  1.00  0.00    -0.475 OA
ATOM     14  Cl  UNL A   1      32.694  25.434  19.067  1.00  0.00    -0.084 Cl
ATOM     15  C   UNL A   1      32.407  26.354  21.591  1.00  0.00     0.032 A 
ATOM     16  C   UNL A   1      32.106  27.296  23.943  1.00  0.00     0.025 C 
ATOM     17  C   UNL A   1      30.844  25.667  25.025  1.00  0.00     0.314 C 
BRANCH   8  18
ATOM     18  C   UNL A   1      34.211  23.181  23.271  1.00  0.00    -0.014 A 
ATOM     19  C   UNL A   1      36.280  21.814  24.637  1.00  0.00     0.121 A 
ATOM     20  C   UNL A   1      36.481  23.096  24.098  1.00  0.00     0.047 A 
ATOM     21  C   UNL A   1      35.044  21.184  24.490  1.00  0.00    -0.008 A 
ATOM     22  C   UNL A   1      35.457  23.781  23.420  1.00  0.00     0.013 A 
ATOM     23  C   UNL A   1      34.051  21.861  23.768  1.00  0.00     0.016 A 
ATOM     24  C   UNL A   1      34.707  19.852  25.093  1.00  0.00     0.048 C 
BRANCH  19  25
ATOM     25  O   UNL A   1      37.302  21.320  25.403  1.00  0.00    -0.496 OA
ATOM     26  C   UNL A   1      38.283  22.287  25.767  1.00  0.00     0.278 C 
ENDBRANCH  19  25
ENDBRANCH   8  18
BRANCH  17  27
ATOM     27  C   UNL A   1      29.663  25.557  25.995  1.00  0.00     0.429 C 
ATOM     28  F   UNL A   1      29.830  26.457  27.014  1.00  0.00    -0.167 F 
ATOM     29  F   UNL A   1      28.476  25.850  25.435  1.00  0.00    -0.167 F 
ATOM     30  F   UNL A   1      29.579  24.360  26.610  1.00  0.00    -0.167 F 
ENDBRANCH  17  27
ENDBRANCH   4   7
ENDBRANCH   2   3
ENDBRANCH   1   2
BRANCH   1  31
ATOM     31  C   UNL A   1      34.593  30.095  27.949  1.00  0.00     0.118 C 
BRANCH  31  32
ATOM     32  N   UNL A   1      35.462  31.260  28.126  1.00  0.00    -0.352 N 
ATOM     33  C   UNL A   1      36.823  31.272  28.396  1.00  0.00     0.251 C 
ATOM     34  H   UNL A   1      35.028  32.141  28.044  1.00  0.00     0.163 HD
ATOM     35  O   UNL A   1      37.443  32.295  28.618  1.00  0.00    -0.269 OA
BRANCH  33  36
ATOM     36  C   UNL A   1      37.508  29.964  28.359  1.00  0.00     0.039 A 
ATOM     37  C   UNL A   1      37.524  29.211  29.537  1.00  0.00     0.014 A 
ATOM     38  C   UNL A   1      38.390  29.709  27.315  1.00  0.00     0.014 A 
ATOM     39  C   UNL A   1      38.583  28.338  29.765  1.00  0.00     0.010 A 
ATOM     40  C   UNL A   1      39.486  28.912  27.581  1.00  0.00     0.010 A 
ATOM     41  C   UNL A   1      39.618  28.287  28.832  1.00  0.00    -0.014 A 
BRANCH  41  42
ATOM     42  C   UNL A   1      40.936  27.729  29.115  1.00  0.00     0.031 A 
ATOM     43  C   UNL A   1      41.240  26.324  28.764  1.00  0.00     0.074 A 
ATOM     44  C   UNL A   1      41.931  28.532  29.563  1.00  0.00     0.049 A 
ATOM     45  N   UNL A   1      42.272  25.676  29.192  1.00  0.00    -0.248 NA
ATOM     46  C   UNL A   1      40.345  25.498  27.957  1.00  0.00     0.031 C 
ATOM     47  C   UNL A   1      43.365  28.248  29.515  1.00  0.00     0.029 A 
ATOM     48  N   UNL A   1      41.848  29.675  30.361  1.00  0.00    -0.354 N 
ATOM     49  C   UNL A   1      42.362  24.519  28.455  1.00  0.00     0.074 A 
ATOM     50  C   UNL A   1      41.072  24.385  27.824  1.00  0.00     0.031 C 
ATOM     51  C   UNL A   1      43.973  28.966  30.469  1.00  0.00     0.029 A 
ATOM     52  C   UNL A   1      42.937  29.611  31.250  1.00  0.00     0.049 A 
ATOM     53  H   UNL A   1      41.164  30.382  30.312  1.00  0.00     0.167 HD
ATOM     54  C   UNL A   1      43.567  23.891  28.348  1.00  0.00     0.031 A 
ATOM     55  C   UNL A   1      42.816  29.541  32.608  1.00  0.00     0.031 A 
ATOM     56  C   UNL A   1      44.545  24.414  29.309  1.00  0.00     0.049 A 
ATOM     57  C   UNL A   1      43.451  28.299  33.215  1.00  0.00     0.074 A 
ATOM     58  C   UNL A   1      45.720  25.140  29.225  1.00  0.00     0.029 A 
ATOM     59  N   UNL A   1      44.214  24.385  30.655  1.00  0.00    -0.354 N 
ATOM     60  N   UNL A   1      44.100  27.394  32.535  1.00  0.00    -0.248 NA
ATOM     61  C   UNL A   1      43.304  27.924  34.623  1.00  0.00     0.031 C 
ATOM     62  C   UNL A   1      46.074  25.565  30.544  1.00  0.00     0.029 A 
ATOM     63  C   UNL A   1      45.129  25.073  31.425  1.00  0.00     0.049 A 
ATOM     64  H   UNL A   1      43.422  23.927  31.019  1.00  0.00     0.167 HD
ATOM     65  C   UNL A   1      44.363  26.317  33.336  1.00  0.00     0.074 A 
ATOM     66  C   UNL A   1      43.872  26.705  34.645  1.00  0.00     0.031 C 
ATOM     67  C   UNL A   1      44.903  25.158  32.860  1.00  0.00     0.031 A 
BRANCH  54  68
ATOM     68  C   UNL A   1      43.928  22.919  27.238  1.00  0.00    -0.014 A 
ATOM     69  C   UNL A   1      43.004  21.928  26.845  1.00  0.00     0.010 A 
ATOM     70  C   UNL A   1      45.190  22.853  26.614  1.00  0.00     0.010 A 
ATOM     71  C   UNL A   1      43.338  20.910  25.933  1.00  0.00     0.020 A 
ATOM     72  C   UNL A   1      45.534  21.858  25.688  1.00  0.00     0.020 A 
ATOM     73  C   UNL A   1      44.611  20.875  25.368  1.00  0.00     0.054 A 
BRANCH  73  74
ATOM     74  S   UNL A   1      45.066  19.531  24.244  1.00  0.00     0.124 S 
ATOM     75  O   UNL A   1      44.414  19.931  23.001  1.00  0.00    -0.237 OA
ATOM     76  O   UNL A   1      46.525  19.594  24.244  1.00  0.00    -0.237 OA
ATOM     77  O   UNL A   1      44.500  18.341  24.880  1.00  0.00    -0.744 OA
ENDBRANCH  73  74
ENDBRANCH  54  68
BRANCH  55  78
ATOM     78  C   UNL A   1      41.616  30.239  33.143  1.00  0.00    -0.014 A 
ATOM     79  C   UNL A   1      41.725  31.630  33.352  1.00  0.00     0.010 A 
ATOM     80  C   UNL A   1      40.340  29.665  33.007  1.00  0.00     0.010 A 
ATOM     81  C   UNL A   1      40.604  32.452  33.231  1.00  0.00     0.020 A 
ATOM     82  C   UNL A   1      39.213  30.489  32.892  1.00  0.00     0.020 A 
ATOM     83  C   UNL A   1      39.369  31.878  32.930  1.00  0.00     0.054 A 
BRANCH  83  84
ATOM     84  S   UNL A   1      38.045  32.980  32.350  1.00  0.00     0.124 S 
ATOM     85  O   UNL A   1      38.711  33.751  31.307  1.00  0.00    -0.237 OA
ATOM     86  O   UNL A   1      37.045  32.017  31.887  1.00  0.00    -0.237 OA
ATOM     87  O   UNL A   1      37.681  33.725  33.552  1.00  0.00    -0.744 OA
ENDBRANCH  83  84
ENDBRANCH  55  78
BRANCH  67  88
ATOM     88  C   UNL A   1      45.203  23.966  33.727  1.00  0.00    -0.014 A 
ATOM     89  C   UNL A   1      46.423  23.824  34.407  1.00  0.00     0.010 A 
ATOM     90  C   UNL A   1      44.300  22.880  33.780  1.00  0.00     0.010 A 
ATOM     91  C   UNL A   1      46.705  22.670  35.154  1.00  0.00     0.020 A 
ATOM     92  C   UNL A   1      44.579  21.719  34.505  1.00  0.00     0.020 A 
ATOM     93  C   UNL A   1      45.776  21.629  35.205  1.00  0.00     0.054 A 
BRANCH  93  94
ATOM     94  S   UNL A   1      46.172  20.130  36.143  1.00  0.00     0.124 S 
ATOM     95  O   UNL A   1      45.315  19.125  35.518  1.00  0.00    -0.237 OA
ATOM     96  O   UNL A   1      47.602  19.983  35.885  1.00  0.00    -0.237 OA
ATOM     97  O   UNL A   1      45.817  20.476  37.517  1.00  0.00    -0.744 OA
ENDBRANCH  93  94
ENDBRANCH  67  88
ENDBRANCH  41  42
ENDBRANCH  33  36
ENDBRANCH  31  32
ENDBRANCH   1  31
TORSDOF 16
ENDMDL
