MODEL 1
REMARK VINA RESULT:     -10.2      0.000      0.000
REMARK SMILES CCN(CC(C)(C)O)C(=O)Nc1ccc(C(=O)NCCCNC(=O)c2ccc(-c3c4nc(c(-c5ccc(S(=O)(=O)[O-])cc5)c5ccc([nH]5)c(-c5ccc(S(=O)(=O)[O-])cc5)c5nc(c(-c6ccc(S(=O)(=O)[O-])cc6)c6ccc3[nH]6)C=C5)C=C4)cc2)c(O)c1
REMARK SMILES IDX 19 1 18 2 16 3 17 4 15 6 12 7 13 8 87 9 14 10 85 11 11 12
REMARK SMILES IDX 9 13 10 14 3 16 2 17 1 18 4 19 5 20 6 21 7 22 8 23 86 25
REMARK SMILES IDX 20 27 21 28 22 29 23 30 24 32 25 33 26 34 84 35 27 36 83 37
REMARK SMILES IDX 28 38 29 39 30 40 77 41 31 42 82 43 76 44 78 45 32 46 81 47
REMARK SMILES IDX 75 48 74 49 33 51 63 52 44 53 62 54 45 55 48 56 61 57 79 58
REMARK SMILES IDX 46 59 47 60 60 62 80 63 49 64 34 65 35 66 43 67 36 68 42 69
REMARK SMILES IDX 37 70 38 71 39 72 40 73 41 74 64 75 65 76 73 77 66 78 72 79
REMARK SMILES IDX 67 80 68 81 69 82 70 83 71 84 50 85 51 86 59 87 52 88 58 89
REMARK SMILES IDX 53 90 54 91 55 92 56 93 57 94
REMARK H PARENT 18 5 11 15 8 24 86 26 22 31 78 50 48 61
REMARK Flexibility Score: inf
ROOT
ATOM      1  C   UNL A   1      31.649  27.980  26.026  1.00  0.00     0.118 C 
ENDROOT
BRANCH   1   2
ATOM      2  N   UNL A   1      31.516  28.535  24.691  1.00  0.00    -0.352 N 
ATOM      3  C   UNL A   1      31.265  27.897  23.516  1.00  0.00     0.255 C 
ATOM      4  O   UNL A   1      31.105  28.552  22.488  1.00  0.00    -0.269 OA
ATOM      5  H   UNL A   1      31.623  29.511  24.628  1.00  0.00     0.163 HD
BRANCH   3   6
ATOM      6  C   UNL A   1      31.355  26.432  23.446  1.00  0.00     0.081 A 
ATOM      7  C   UNL A   1      32.003  23.680  23.494  1.00  0.00     0.046 A 
ATOM      8  C   UNL A   1      32.863  24.650  23.059  1.00  0.00     0.027 A 
ATOM      9  C   UNL A   1      30.718  24.111  23.842  1.00  0.00     0.073 A 
ATOM     10  C   UNL A   1      32.599  26.001  23.051  1.00  0.00     0.020 A 
ATOM     11  C   UNL A   1      30.385  25.479  23.771  1.00  0.00     0.130 A 
BRANCH   7  12
ATOM     12  N   UNL A   1      32.333  22.319  23.493  1.00  0.00    -0.308 N 
ATOM     13  C   UNL A   1      33.179  21.433  24.067  1.00  0.00     0.321 C 
ATOM     14  O   UNL A   1      33.159  20.335  23.483  1.00  0.00    -0.248 OA
ATOM     15  H   UNL A   1      31.752  21.844  22.857  1.00  0.00     0.171 HD
BRANCH  13  16
ATOM     16  N   UNL A   1      33.962  21.587  25.187  1.00  0.00    -0.322 N 
BRANCH  16  17
ATOM     17  C   UNL A   1      33.213  21.862  26.428  1.00  0.00     0.118 C 
ATOM     18  C   UNL A   1      34.105  21.806  27.669  1.00  0.00     0.027 C 
ENDBRANCH  16  17
BRANCH  16  19
ATOM     19  C   UNL A   1      35.424  21.645  25.397  1.00  0.00     0.155 C 
BRANCH  19  20
ATOM     20  C   UNL A   1      36.186  22.872  24.726  1.00  0.00     0.077 C 
ATOM     21  C   UNL A   1      36.224  22.926  23.179  1.00  0.00     0.043 C 
ATOM     22  C   UNL A   1      35.624  24.198  25.292  1.00  0.00     0.043 C 
BRANCH  20  23
ATOM     23  O   UNL A   1      37.566  22.810  25.133  1.00  0.00    -0.389 OA
ATOM     24  H   UNL A   1      37.635  23.020  26.078  1.00  0.00     0.211 HD
ENDBRANCH  20  23
ENDBRANCH  19  20
ENDBRANCH  16  19
ENDBRANCH  13  16
ENDBRANCH   7  12
BRANCH  11  25
ATOM     25  O   UNL A   1      29.079  25.805  24.013  1.00  0.00    -0.507 OA
ATOM     26  H   UNL A   1      28.669  25.531  24.811  1.00  0.00     0.293 HD
ENDBRANCH  11  25
ENDBRANCH   3   6
ENDBRANCH   1   2
BRANCH   1  27
ATOM     27  C   UNL A   1      33.081  27.799  26.481  1.00  0.00     0.042 C 
BRANCH  27  28
ATOM     28  C   UNL A   1      34.018  28.902  26.026  1.00  0.00     0.118 C 
BRANCH  28  29
ATOM     29  N   UNL A   1      33.876  30.129  26.807  1.00  0.00    -0.352 N 
ATOM     30  C   UNL A   1      34.657  30.652  27.807  1.00  0.00     0.251 C 
ATOM     31  H   UNL A   1      33.087  30.671  26.577  1.00  0.00     0.163 HD
ATOM     32  O   UNL A   1      34.220  31.574  28.498  1.00  0.00    -0.269 OA
BRANCH  30  33
ATOM     33  C   UNL A   1      35.993  30.087  28.074  1.00  0.00     0.039 A 
ATOM     34  C   UNL A   1      36.986  30.153  27.095  1.00  0.00     0.014 A 
ATOM     35  C   UNL A   1      36.270  29.507  29.308  1.00  0.00     0.014 A 
ATOM     36  C   UNL A   1      38.277  29.714  27.396  1.00  0.00     0.010 A 
ATOM     37  C   UNL A   1      37.580  29.227  29.659  1.00  0.00     0.010 A 
ATOM     38  C   UNL A   1      38.596  29.295  28.699  1.00  0.00    -0.014 A 
BRANCH  38  39
ATOM     39  C   UNL A   1      39.970  28.880  29.082  1.00  0.00     0.031 A 
ATOM     40  C   UNL A   1      40.877  29.860  29.784  1.00  0.00     0.074 A 
ATOM     41  C   UNL A   1      40.425  27.663  28.728  1.00  0.00     0.049 A 
ATOM     42  N   UNL A   1      42.133  29.723  30.123  1.00  0.00    -0.248 NA
ATOM     43  C   UNL A   1      40.315  31.185  30.107  1.00  0.00     0.031 C 
ATOM     44  C   UNL A   1      39.665  26.650  27.989  1.00  0.00     0.029 A 
ATOM     45  N   UNL A   1      41.643  27.067  28.939  1.00  0.00    -0.354 N 
ATOM     46  C   UNL A   1      42.511  30.947  30.666  1.00  0.00     0.074 A 
ATOM     47  C   UNL A   1      41.381  31.836  30.543  1.00  0.00     0.031 C 
ATOM     48  C   UNL A   1      40.416  25.545  27.851  1.00  0.00     0.029 A 
ATOM     49  C   UNL A   1      41.726  25.786  28.445  1.00  0.00     0.049 A 
ATOM     50  H   UNL A   1      42.387  27.515  29.403  1.00  0.00     0.167 HD
ATOM     51  C   UNL A   1      43.683  31.291  31.248  1.00  0.00     0.031 A 
ATOM     52  C   UNL A   1      42.746  24.906  28.465  1.00  0.00     0.031 A 
ATOM     53  C   UNL A   1      44.792  30.389  31.399  1.00  0.00     0.049 A 
ATOM     54  C   UNL A   1      44.035  25.305  29.131  1.00  0.00     0.074 A 
ATOM     55  C   UNL A   1      45.998  30.608  32.038  1.00  0.00     0.029 A 
ATOM     56  N   UNL A   1      44.825  29.092  30.908  1.00  0.00    -0.354 N 
ATOM     57  N   UNL A   1      44.346  26.441  29.710  1.00  0.00    -0.248 NA
ATOM     58  C   UNL A   1      45.103  24.299  29.160  1.00  0.00     0.031 C 
ATOM     59  C   UNL A   1      46.785  29.464  31.881  1.00  0.00     0.029 A 
ATOM     60  C   UNL A   1      46.043  28.507  31.207  1.00  0.00     0.049 A 
ATOM     61  H   UNL A   1      44.092  28.653  30.420  1.00  0.00     0.167 HD
ATOM     62  C   UNL A   1      45.636  26.276  30.197  1.00  0.00     0.074 A 
ATOM     63  C   UNL A   1      46.039  24.924  29.862  1.00  0.00     0.031 C 
ATOM     64  C   UNL A   1      46.421  27.160  30.862  1.00  0.00     0.031 A 
BRANCH  51  65
ATOM     65  C   UNL A   1      43.821  32.700  31.766  1.00  0.00    -0.014 A 
ATOM     66  C   UNL A   1      44.310  33.734  30.947  1.00  0.00     0.010 A 
ATOM     67  C   UNL A   1      43.424  33.002  33.081  1.00  0.00     0.010 A 
ATOM     68  C   UNL A   1      44.443  35.033  31.446  1.00  0.00     0.020 A 
ATOM     69  C   UNL A   1      43.521  34.306  33.574  1.00  0.00     0.020 A 
ATOM     70  C   UNL A   1      44.047  35.311  32.758  1.00  0.00     0.054 A 
BRANCH  70  71
ATOM     71  S   UNL A   1      44.201  37.011  33.367  1.00  0.00     0.124 S 
ATOM     72  O   UNL A   1      44.373  37.762  32.126  1.00  0.00    -0.237 OA
ATOM     73  O   UNL A   1      42.929  37.220  34.055  1.00  0.00    -0.237 OA
ATOM     74  O   UNL A   1      45.375  36.964  34.235  1.00  0.00    -0.744 OA
ENDBRANCH  70  71
ENDBRANCH  51  65
BRANCH  52  75
ATOM     75  C   UNL A   1      42.579  23.557  27.857  1.00  0.00    -0.014 A 
ATOM     76  C   UNL A   1      43.105  23.275  26.583  1.00  0.00     0.010 A 
ATOM     77  C   UNL A   1      41.903  22.539  28.555  1.00  0.00     0.010 A 
ATOM     78  C   UNL A   1      42.938  22.010  26.010  1.00  0.00     0.020 A 
ATOM     79  C   UNL A   1      41.762  21.264  27.999  1.00  0.00     0.020 A 
ATOM     80  C   UNL A   1      42.271  21.012  26.723  1.00  0.00     0.054 A 
BRANCH  80  81
ATOM     81  S   UNL A   1      42.107  19.365  25.978  1.00  0.00     0.124 S 
ATOM     82  O   UNL A   1      40.665  19.270  25.768  1.00  0.00    -0.237 OA
ATOM     83  O   UNL A   1      42.917  19.487  24.769  1.00  0.00    -0.237 OA
ATOM     84  O   UNL A   1      42.653  18.473  26.998  1.00  0.00    -0.744 OA
ENDBRANCH  80  81
ENDBRANCH  52  75
BRANCH  64  85
ATOM     85  C   UNL A   1      47.778  26.684  31.307  1.00  0.00    -0.014 A 
ATOM     86  C   UNL A   1      47.954  26.023  32.536  1.00  0.00     0.010 A 
ATOM     87  C   UNL A   1      48.883  26.855  30.454  1.00  0.00     0.010 A 
ATOM     88  C   UNL A   1      49.221  25.572  32.917  1.00  0.00     0.020 A 
ATOM     89  C   UNL A   1      50.144  26.376  30.816  1.00  0.00     0.020 A 
ATOM     90  C   UNL A   1      50.306  25.751  32.054  1.00  0.00     0.054 A 
BRANCH  90  91
ATOM     91  S   UNL A   1      51.930  25.121  32.557  1.00  0.00     0.124 S 
ATOM     92  O   UNL A   1      51.700  23.679  32.587  1.00  0.00    -0.237 OA
ATOM     93  O   UNL A   1      52.803  25.597  31.487  1.00  0.00    -0.237 OA
ATOM     94  O   UNL A   1      52.156  25.743  33.860  1.00  0.00    -0.744 OA
ENDBRANCH  90  91
ENDBRANCH  64  85
ENDBRANCH  38  39
ENDBRANCH  30  33
ENDBRANCH  28  29
ENDBRANCH  27  28
ENDBRANCH   1  27
TORSDOF 20
ENDMDL
MODEL 2
REMARK VINA RESULT:     -10.1      3.148      9.270
REMARK SMILES CCN(CC(C)(C)O)C(=O)Nc1ccc(C(=O)NCCCNC(=O)c2ccc(-c3c4nc(c(-c5ccc(S(=O)(=O)[O-])cc5)c5ccc([nH]5)c(-c5ccc(S(=O)(=O)[O-])cc5)c5nc(c(-c6ccc(S(=O)(=O)[O-])cc6)c6ccc3[nH]6)C=C5)C=C4)cc2)c(O)c1
REMARK SMILES IDX 19 1 18 2 16 3 17 4 15 6 12 7 13 8 87 9 14 10 85 11 11 12
REMARK SMILES IDX 9 13 10 14 3 16 2 17 1 18 4 19 5 20 6 21 7 22 8 23 86 25
REMARK SMILES IDX 20 27 21 28 22 29 23 30 24 32 25 33 26 34 84 35 27 36 83 37
REMARK SMILES IDX 28 38 29 39 30 40 77 41 31 42 82 43 76 44 78 45 32 46 81 47
REMARK SMILES IDX 75 48 74 49 33 51 63 52 44 53 62 54 45 55 48 56 61 57 79 58
REMARK SMILES IDX 46 59 47 60 60 62 80 63 49 64 34 65 35 66 43 67 36 68 42 69
REMARK SMILES IDX 37 70 38 71 39 72 40 73 41 74 64 75 65 76 73 77 66 78 72 79
REMARK SMILES IDX 67 80 68 81 69 82 70 83 71 84 50 85 51 86 59 87 52 88 58 89
REMARK SMILES IDX 53 90 54 91 55 92 56 93 57 94
REMARK H PARENT 18 5 11 15 8 24 86 26 22 31 78 50 48 61
REMARK Flexibility Score: inf
ROOT
ATOM      1  C   UNL A   1      35.377  21.351  24.926  1.00  0.00     0.118 C 
ENDROOT
BRANCH   1   2
ATOM      2  N   UNL A   1      34.459  20.268  25.226  1.00  0.00    -0.352 N 
ATOM      3  C   UNL A   1      33.099  20.258  25.189  1.00  0.00     0.255 C 
ATOM      4  O   UNL A   1      32.490  19.211  25.400  1.00  0.00    -0.269 OA
ATOM      5  H   UNL A   1      34.880  19.420  25.494  1.00  0.00     0.163 HD
BRANCH   3   6
ATOM      6  C   UNL A   1      32.362  21.523  25.068  1.00  0.00     0.081 A 
ATOM      7  C   UNL A   1      30.701  23.726  24.448  1.00  0.00     0.046 A 
ATOM      8  C   UNL A   1      31.324  22.960  23.502  1.00  0.00     0.027 A 
ATOM      9  C   UNL A   1      31.001  23.418  25.779  1.00  0.00     0.073 A 
ATOM     10  C   UNL A   1      32.112  21.862  23.760  1.00  0.00     0.020 A 
ATOM     11  C   UNL A   1      31.867  22.348  26.083  1.00  0.00     0.130 A 
BRANCH   7  12
ATOM     12  N   UNL A   1      29.897  24.826  24.124  1.00  0.00    -0.308 N 
ATOM     13  C   UNL A   1      29.955  26.165  23.946  1.00  0.00     0.321 C 
ATOM     14  O   UNL A   1      28.819  26.668  23.878  1.00  0.00    -0.248 OA
ATOM     15  H   UNL A   1      28.973  24.520  23.974  1.00  0.00     0.171 HD
BRANCH  13  16
ATOM     16  N   UNL A   1      31.059  26.969  23.784  1.00  0.00    -0.322 N 
BRANCH  16  17
ATOM     17  C   UNL A   1      31.545  27.603  25.024  1.00  0.00     0.118 C 
ATOM     18  C   UNL A   1      31.405  29.125  24.990  1.00  0.00     0.027 C 
ENDBRANCH  16  17
BRANCH  16  19
ATOM     19  C   UNL A   1      31.808  27.427  22.595  1.00  0.00     0.155 C 
BRANCH  19  20
ATOM     20  C   UNL A   1      33.010  26.499  22.117  1.00  0.00     0.077 C 
ATOM     21  C   UNL A   1      33.738  25.664  23.198  1.00  0.00     0.043 C 
ATOM     22  C   UNL A   1      32.525  25.580  20.970  1.00  0.00     0.043 C 
BRANCH  20  23
ATOM     23  O   UNL A   1      34.027  27.349  21.553  1.00  0.00    -0.389 OA
ATOM     24  H   UNL A   1      34.615  27.662  22.259  1.00  0.00     0.211 HD
ENDBRANCH  20  23
ENDBRANCH  19  20
ENDBRANCH  16  19
ENDBRANCH  13  16
ENDBRANCH   7  12
BRANCH  11  25
ATOM     25  O   UNL A   1      32.202  22.186  27.399  1.00  0.00    -0.507 OA
ATOM     26  H   UNL A   1      32.645  22.874  27.857  1.00  0.00     0.293 HD
ENDBRANCH  11  25
ENDBRANCH   3   6
ENDBRANCH   1   2
BRANCH   1  27
ATOM     27  C   UNL A   1      35.647  22.274  26.095  1.00  0.00     0.042 C 
BRANCH  27  28
ATOM     28  C   UNL A   1      37.007  22.943  26.054  1.00  0.00     0.118 C 
BRANCH  28  29
ATOM     29  N   UNL A   1      38.113  21.991  26.126  1.00  0.00    -0.352 N 
ATOM     30  C   UNL A   1      39.451  22.185  26.364  1.00  0.00     0.251 C 
ATOM     31  H   UNL A   1      37.856  21.052  25.979  1.00  0.00     0.163 HD
ATOM     32  O   UNL A   1      40.246  21.272  26.137  1.00  0.00    -0.269 OA
BRANCH  30  33
ATOM     33  C   UNL A   1      39.933  23.490  26.853  1.00  0.00     0.039 A 
ATOM     34  C   UNL A   1      40.671  23.563  28.036  1.00  0.00     0.014 A 
ATOM     35  C   UNL A   1      39.670  24.647  26.125  1.00  0.00     0.014 A 
ATOM     36  C   UNL A   1      41.214  24.786  28.432  1.00  0.00     0.010 A 
ATOM     37  C   UNL A   1      40.342  25.819  26.428  1.00  0.00     0.010 A 
ATOM     38  C   UNL A   1      41.097  25.915  27.602  1.00  0.00    -0.014 A 
BRANCH  38  39
ATOM     39  C   UNL A   1      41.713  27.220  27.952  1.00  0.00     0.031 A 
ATOM     40  C   UNL A   1      43.194  27.424  27.752  1.00  0.00     0.074 A 
ATOM     41  C   UNL A   1      40.962  28.184  28.521  1.00  0.00     0.049 A 
ATOM     42  N   UNL A   1      43.935  28.453  28.073  1.00  0.00    -0.248 NA
ATOM     43  C   UNL A   1      43.952  26.309  27.154  1.00  0.00     0.031 C 
ATOM     44  C   UNL A   1      39.532  28.082  28.826  1.00  0.00     0.029 A 
ATOM     45  N   UNL A   1      41.300  29.443  28.949  1.00  0.00    -0.354 N 
ATOM     46  C   UNL A   1      45.238  28.094  27.745  1.00  0.00     0.074 A 
ATOM     47  C   UNL A   1      45.201  26.731  27.274  1.00  0.00     0.031 C 
ATOM     48  C   UNL A   1      39.107  29.245  29.347  1.00  0.00     0.029 A 
ATOM     49  C   UNL A   1      40.240  30.155  29.461  1.00  0.00     0.049 A 
ATOM     50  H   UNL A   1      42.214  29.803  28.894  1.00  0.00     0.167 HD
ATOM     51  C   UNL A   1      46.364  28.843  27.799  1.00  0.00     0.031 A 
ATOM     52  C   UNL A   1      40.188  31.403  29.969  1.00  0.00     0.031 A 
ATOM     53  C   UNL A   1      46.388  30.212  28.237  1.00  0.00     0.049 A 
ATOM     54  C   UNL A   1      41.449  32.223  30.004  1.00  0.00     0.074 A 
ATOM     55  C   UNL A   1      47.458  31.088  28.262  1.00  0.00     0.029 A 
ATOM     56  N   UNL A   1      45.289  30.904  28.722  1.00  0.00    -0.354 N 
ATOM     57  N   UNL A   1      42.659  31.892  29.616  1.00  0.00    -0.248 NA
ATOM     58  C   UNL A   1      41.335  33.588  30.531  1.00  0.00     0.031 C 
ATOM     59  C   UNL A   1      47.018  32.292  28.818  1.00  0.00     0.029 A 
ATOM     60  C   UNL A   1      45.660  32.190  29.074  1.00  0.00     0.049 A 
ATOM     61  H   UNL A   1      44.380  30.536  28.803  1.00  0.00     0.167 HD
ATOM     62  C   UNL A   1      43.444  33.020  29.826  1.00  0.00     0.074 A 
ATOM     63  C   UNL A   1      42.568  34.045  30.357  1.00  0.00     0.031 C 
ATOM     64  C   UNL A   1      44.770  33.194  29.601  1.00  0.00     0.031 A 
BRANCH  51  65
ATOM     65  C   UNL A   1      47.657  28.197  27.370  1.00  0.00    -0.014 A 
ATOM     66  C   UNL A   1      48.495  27.553  28.300  1.00  0.00     0.010 A 
ATOM     67  C   UNL A   1      48.025  28.204  26.013  1.00  0.00     0.010 A 
ATOM     68  C   UNL A   1      49.695  26.969  27.889  1.00  0.00     0.020 A 
ATOM     69  C   UNL A   1      49.207  27.591  25.591  1.00  0.00     0.020 A 
ATOM     70  C   UNL A   1      50.044  26.992  26.535  1.00  0.00     0.054 A 
BRANCH  70  71
ATOM     71  S   UNL A   1      51.593  26.199  26.026  1.00  0.00     0.124 S 
ATOM     72  O   UNL A   1      52.588  26.991  26.745  1.00  0.00    -0.237 OA
ATOM     73  O   UNL A   1      51.420  24.828  26.502  1.00  0.00    -0.237 OA
ATOM     74  O   UNL A   1      51.603  26.355  24.574  1.00  0.00    -0.744 OA
ENDBRANCH  70  71
ENDBRANCH  51  65
BRANCH  52  75
ATOM     75  C   UNL A   1      38.896  31.955  30.460  1.00  0.00    -0.014 A 
ATOM     76  C   UNL A   1      38.540  31.850  31.816  1.00  0.00     0.010 A 
ATOM     77  C   UNL A   1      38.017  32.606  29.574  1.00  0.00     0.010 A 
ATOM     78  C   UNL A   1      37.322  32.361  32.273  1.00  0.00     0.020 A 
ATOM     79  C   UNL A   1      36.812  33.147  30.033  1.00  0.00     0.020 A 
ATOM     80  C   UNL A   1      36.467  33.009  31.379  1.00  0.00     0.054 A 
BRANCH  80  81
ATOM     81  S   UNL A   1      34.911  33.705  32.004  1.00  0.00     0.124 S 
ATOM     82  O   UNL A   1      34.028  32.544  31.978  1.00  0.00    -0.237 OA
ATOM     83  O   UNL A   1      35.293  34.182  33.331  1.00  0.00    -0.237 OA
ATOM     84  O   UNL A   1      34.595  34.756  31.040  1.00  0.00    -0.744 OA
ENDBRANCH  80  81
ENDBRANCH  52  75
BRANCH  64  85
ATOM     85  C   UNL A   1      45.350  34.553  29.889  1.00  0.00    -0.014 A 
ATOM     86  C   UNL A   1      45.321  35.578  28.928  1.00  0.00     0.010 A 
ATOM     87  C   UNL A   1      45.880  34.820  31.165  1.00  0.00     0.010 A 
ATOM     88  C   UNL A   1      45.847  36.838  29.228  1.00  0.00     0.020 A 
ATOM     89  C   UNL A   1      46.375  36.087  31.479  1.00  0.00     0.020 A 
ATOM     90  C   UNL A   1      46.370  37.083  30.501  1.00  0.00     0.054 A 
BRANCH  90  91
ATOM     91  S   UNL A   1      47.009  38.738  30.876  1.00  0.00     0.124 S 
ATOM     92  O   UNL A   1      46.289  39.566  29.912  1.00  0.00    -0.237 OA
ATOM     93  O   UNL A   1      46.624  38.921  32.273  1.00  0.00    -0.237 OA
ATOM     94  O   UNL A   1      48.446  38.617  30.642  1.00  0.00    -0.744 OA
ENDBRANCH  90  91
ENDBRANCH  64  85
ENDBRANCH  38  39
ENDBRANCH  30  33
ENDBRANCH  28  29
ENDBRANCH  27  28
ENDBRANCH   1  27
TORSDOF 20
ENDMDL
MODEL 3
REMARK VINA RESULT:      -9.8      4.154      5.432
REMARK SMILES CCN(CC(C)(C)O)C(=O)Nc1ccc(C(=O)NCCCNC(=O)c2ccc(-c3c4nc(c(-c5ccc(S(=O)(=O)[O-])cc5)c5ccc([nH]5)c(-c5ccc(S(=O)(=O)[O-])cc5)c5nc(c(-c6ccc(S(=O)(=O)[O-])cc6)c6ccc3[nH]6)C=C5)C=C4)cc2)c(O)c1
REMARK SMILES IDX 19 1 18 2 16 3 17 4 15 6 12 7 13 8 87 9 14 10 85 11 11 12
REMARK SMILES IDX 9 13 10 14 3 16 2 17 1 18 4 19 5 20 6 21 7 22 8 23 86 25
REMARK SMILES IDX 20 27 21 28 22 29 23 30 24 32 25 33 26 34 84 35 27 36 83 37
REMARK SMILES IDX 28 38 29 39 30 40 77 41 31 42 82 43 76 44 78 45 32 46 81 47
REMARK SMILES IDX 75 48 74 49 33 51 63 52 44 53 62 54 45 55 48 56 61 57 79 58
REMARK SMILES IDX 46 59 47 60 60 62 80 63 49 64 34 65 35 66 43 67 36 68 42 69
REMARK SMILES IDX 37 70 38 71 39 72 40 73 41 74 64 75 65 76 73 77 66 78 72 79
REMARK SMILES IDX 67 80 68 81 69 82 70 83 71 84 50 85 51 86 59 87 52 88 58 89
REMARK SMILES IDX 53 90 54 91 55 92 56 93 57 94
REMARK H PARENT 18 5 11 15 8 24 86 26 22 31 78 50 48 61
REMARK Flexibility Score: inf
ROOT
ATOM      1  C   UNL A   1      32.030  30.480  26.258  1.00  0.00     0.118 C 
ENDROOT
BRANCH   1   2
ATOM      2  N   UNL A   1      31.415  30.311  24.954  1.00  0.00    -0.352 N 
ATOM      3  C   UNL A   1      31.139  29.164  24.276  1.00  0.00     0.255 C 
ATOM      4  O   UNL A   1      30.534  29.218  23.207  1.00  0.00    -0.269 OA
ATOM      5  H   UNL A   1      31.160  31.144  24.497  1.00  0.00     0.163 HD
BRANCH   3   6
ATOM      6  C   UNL A   1      31.711  27.890  24.731  1.00  0.00     0.081 A 
ATOM      7  C   UNL A   1      32.355  25.367  25.833  1.00  0.00     0.046 A 
ATOM      8  C   UNL A   1      31.679  26.339  26.518  1.00  0.00     0.027 A 
ATOM      9  C   UNL A   1      32.805  25.717  24.556  1.00  0.00     0.073 A 
ATOM     10  C   UNL A   1      31.318  27.566  26.008  1.00  0.00     0.020 A 
ATOM     11  C   UNL A   1      32.522  26.994  24.029  1.00  0.00     0.130 A 
BRANCH   7  12
ATOM     12  N   UNL A   1      32.683  24.129  26.402  1.00  0.00    -0.308 N 
ATOM     13  C   UNL A   1      33.152  22.904  26.075  1.00  0.00     0.321 C 
ATOM     14  O   UNL A   1      33.023  22.098  27.013  1.00  0.00    -0.248 OA
ATOM     15  H   UNL A   1      32.513  24.163  27.371  1.00  0.00     0.171 HD
BRANCH  13  16
ATOM     16  N   UNL A   1      33.769  22.496  24.916  1.00  0.00    -0.322 N 
BRANCH  16  17
ATOM     17  C   UNL A   1      32.991  21.534  24.112  1.00  0.00     0.118 C 
ATOM     18  C   UNL A   1      32.553  22.122  22.769  1.00  0.00     0.027 C 
ENDBRANCH  16  17
BRANCH  16  19
ATOM     19  C   UNL A   1      35.113  22.734  24.349  1.00  0.00     0.155 C 
BRANCH  19  20
ATOM     20  C   UNL A   1      36.346  22.467  25.320  1.00  0.00     0.077 C 
ATOM     21  C   UNL A   1      37.565  21.714  24.732  1.00  0.00     0.043 C 
ATOM     22  C   UNL A   1      36.800  23.802  25.956  1.00  0.00     0.043 C 
BRANCH  20  23
ATOM     23  O   UNL A   1      35.882  21.639  26.404  1.00  0.00    -0.389 OA
ATOM     24  H   UNL A   1      36.631  21.147  26.779  1.00  0.00     0.211 HD
ENDBRANCH  20  23
ENDBRANCH  19  20
ENDBRANCH  16  19
ENDBRANCH  13  16
ENDBRANCH   7  12
BRANCH  11  25
ATOM     25  O   UNL A   1      33.095  27.300  22.826  1.00  0.00    -0.507 OA
ATOM     26  H   UNL A   1      33.563  28.106  22.722  1.00  0.00     0.293 HD
ENDBRANCH  11  25
ENDBRANCH   3   6
ENDBRANCH   1   2
BRANCH   1  27
ATOM     27  C   UNL A   1      31.811  31.846  26.872  1.00  0.00     0.042 C 
BRANCH  27  28
ATOM     28  C   UNL A   1      33.059  32.460  27.476  1.00  0.00     0.118 C 
BRANCH  28  29
ATOM     29  N   UNL A   1      32.925  33.893  27.726  1.00  0.00    -0.352 N 
ATOM     30  C   UNL A   1      33.479  34.691  28.696  1.00  0.00     0.251 C 
ATOM     31  H   UNL A   1      32.340  34.367  27.092  1.00  0.00     0.163 HD
ATOM     32  O   UNL A   1      33.038  35.828  28.871  1.00  0.00    -0.269 OA
BRANCH  30  33
ATOM     33  C   UNL A   1      34.568  34.174  29.546  1.00  0.00     0.039 A 
ATOM     34  C   UNL A   1      34.268  33.429  30.688  1.00  0.00     0.014 A 
ATOM     35  C   UNL A   1      35.895  34.411  29.199  1.00  0.00     0.014 A 
ATOM     36  C   UNL A   1      35.305  32.854  31.424  1.00  0.00     0.010 A 
ATOM     37  C   UNL A   1      36.908  33.709  29.829  1.00  0.00     0.010 A 
ATOM     38  C   UNL A   1      36.632  32.946  30.970  1.00  0.00    -0.014 A 
BRANCH  38  39
ATOM     39  C   UNL A   1      37.759  32.296  31.685  1.00  0.00     0.031 A 
ATOM     40  C   UNL A   1      38.204  32.835  33.022  1.00  0.00     0.074 A 
ATOM     41  C   UNL A   1      38.429  31.284  31.101  1.00  0.00     0.049 A 
ATOM     42  N   UNL A   1      39.217  32.466  33.763  1.00  0.00    -0.248 NA
ATOM     43  C   UNL A   1      37.441  33.966  33.580  1.00  0.00     0.031 C 
ATOM     44  C   UNL A   1      38.136  30.717  29.781  1.00  0.00     0.029 A 
ATOM     45  N   UNL A   1      39.503  30.550  31.541  1.00  0.00    -0.354 N 
ATOM     46  C   UNL A   1      39.225  33.336  34.849  1.00  0.00     0.074 A 
ATOM     47  C   UNL A   1      38.169  34.297  34.634  1.00  0.00     0.031 C 
ATOM     48  C   UNL A   1      38.975  29.697  29.541  1.00  0.00     0.029 A 
ATOM     49  C   UNL A   1      39.898  29.568  30.662  1.00  0.00     0.049 A 
ATOM     50  H   UNL A   1      39.946  30.711  32.405  1.00  0.00     0.167 HD
ATOM     51  C   UNL A   1      40.018  33.319  35.945  1.00  0.00     0.031 A 
ATOM     52  C   UNL A   1      40.896  28.666  30.751  1.00  0.00     0.031 A 
ATOM     53  C   UNL A   1      41.045  32.338  36.169  1.00  0.00     0.049 A 
ATOM     54  C   UNL A   1      41.755  28.656  31.986  1.00  0.00     0.074 A 
ATOM     55  C   UNL A   1      41.857  32.181  37.277  1.00  0.00     0.029 A 
ATOM     56  N   UNL A   1      41.395  31.345  35.267  1.00  0.00    -0.354 N 
ATOM     57  N   UNL A   1      41.696  29.438  33.038  1.00  0.00    -0.248 NA
ATOM     58  C   UNL A   1      42.805  27.632  32.052  1.00  0.00     0.031 C 
ATOM     59  C   UNL A   1      42.740  31.129  37.020  1.00  0.00     0.029 A 
ATOM     60  C   UNL A   1      42.432  30.586  35.783  1.00  0.00     0.049 A 
ATOM     61  H   UNL A   1      40.971  31.200  34.391  1.00  0.00     0.167 HD
ATOM     62  C   UNL A   1      42.682  28.981  33.904  1.00  0.00     0.074 A 
ATOM     63  C   UNL A   1      43.309  27.844  33.261  1.00  0.00     0.031 C 
ATOM     64  C   UNL A   1      43.039  29.458  35.123  1.00  0.00     0.031 A 
BRANCH  51  65
ATOM     65  C   UNL A   1      39.801  34.389  36.984  1.00  0.00    -0.014 A 
ATOM     66  C   UNL A   1      38.989  34.158  38.111  1.00  0.00     0.010 A 
ATOM     67  C   UNL A   1      40.443  35.634  36.851  1.00  0.00     0.010 A 
ATOM     68  C   UNL A   1      38.787  35.164  39.059  1.00  0.00     0.020 A 
ATOM     69  C   UNL A   1      40.273  36.631  37.815  1.00  0.00     0.020 A 
ATOM     70  C   UNL A   1      39.432  36.396  38.905  1.00  0.00     0.054 A 
BRANCH  70  71
ATOM     71  S   UNL A   1      39.177  37.671  40.167  1.00  0.00     0.124 S 
ATOM     72  O   UNL A   1      40.504  38.273  40.260  1.00  0.00    -0.237 OA
ATOM     73  O   UNL A   1      38.147  38.514  39.565  1.00  0.00    -0.237 OA
ATOM     74  O   UNL A   1      38.752  36.917  41.343  1.00  0.00    -0.744 OA
ENDBRANCH  70  71
ENDBRANCH  51  65
BRANCH  52  75
ATOM     75  C   UNL A   1      41.118  27.689  29.650  1.00  0.00    -0.014 A 
ATOM     76  C   UNL A   1      42.259  27.777  28.832  1.00  0.00     0.010 A 
ATOM     77  C   UNL A   1      40.194  26.652  29.420  1.00  0.00     0.010 A 
ATOM     78  C   UNL A   1      42.460  26.864  27.793  1.00  0.00     0.020 A 
ATOM     79  C   UNL A   1      40.408  25.718  28.402  1.00  0.00     0.020 A 
ATOM     80  C   UNL A   1      41.535  25.838  27.586  1.00  0.00     0.054 A 
BRANCH  80  81
ATOM     81  S   UNL A   1      41.840  24.638  26.260  1.00  0.00     0.124 S 
ATOM     82  O   UNL A   1      40.670  23.772  26.360  1.00  0.00    -0.237 OA
ATOM     83  O   UNL A   1      41.899  25.489  25.074  1.00  0.00    -0.237 OA
ATOM     84  O   UNL A   1      43.109  24.023  26.641  1.00  0.00    -0.744 OA
ENDBRANCH  80  81
ENDBRANCH  52  75
BRANCH  64  85
ATOM     85  C   UNL A   1      44.131  28.729  35.859  1.00  0.00    -0.014 A 
ATOM     86  C   UNL A   1      45.477  29.123  35.747  1.00  0.00     0.010 A 
ATOM     87  C   UNL A   1      43.794  27.668  36.720  1.00  0.00     0.010 A 
ATOM     88  C   UNL A   1      46.469  28.443  36.458  1.00  0.00     0.020 A 
ATOM     89  C   UNL A   1      44.780  27.010  37.458  1.00  0.00     0.020 A 
ATOM     90  C   UNL A   1      46.114  27.392  37.308  1.00  0.00     0.054 A 
BRANCH  90  91
ATOM     91  S   UNL A   1      47.418  26.554  38.249  1.00  0.00     0.124 S 
ATOM     92  O   UNL A   1      48.566  27.428  38.020  1.00  0.00    -0.237 OA
ATOM     93  O   UNL A   1      46.885  26.559  39.608  1.00  0.00    -0.237 OA
ATOM     94  O   UNL A   1      47.505  25.236  37.624  1.00  0.00    -0.744 OA
ENDBRANCH  90  91
ENDBRANCH  64  85
ENDBRANCH  38  39
ENDBRANCH  30  33
ENDBRANCH  28  29
ENDBRANCH  27  28
ENDBRANCH   1  27
TORSDOF 20
ENDMDL
