MODEL 1
REMARK VINA RESULT:     -10.6      0.000      0.000
REMARK SMILES [NH3+][C@@]1(C(=O)NCCCNC(=O)c2ccc(-c3c4nc(c(-c5ccc(S(=O)(=O)[O-])cc5)c5ccc([nH]5)c(-c5ccc(S(=O)(=O)[O-])cc5)c5nc(c(-c6ccc(S(=O)(=O)[O-])cc6)c6ccc3[nH]6)C=C5)C=C4)cc2)CC[C@H](Sc2cccs2)C1
REMARK SMILES IDX 7 1 6 2 5 3 3 4 4 5 2 7 72 8 81 9 73 10 74 11 1 12 75 16
REMARK SMILES IDX 76 17 77 18 80 19 78 20 79 21 8 22 9 23 10 24 11 26 12 27
REMARK SMILES IDX 13 28 71 29 14 30 70 31 15 32 16 33 17 34 64 35 18 36 69 37
REMARK SMILES IDX 63 38 65 39 19 40 68 41 62 42 61 43 20 45 50 46 31 47 49 48
REMARK SMILES IDX 32 49 35 50 48 51 66 52 33 53 34 54 47 56 67 57 36 58 21 59
REMARK SMILES IDX 22 60 30 61 23 62 29 63 24 64 25 65 26 66 27 67 28 68 51 69
REMARK SMILES IDX 52 70 60 71 53 72 59 73 54 74 55 75 56 76 57 77 58 78 37 79
REMARK SMILES IDX 38 80 46 81 39 82 45 83 40 84 41 85 42 86 43 87 44 88
REMARK H PARENT 5 6 1 13 1 14 1 15 9 25 65 44 35 55
REMARK Flexibility Score: inf
ROOT
ATOM      1  C   UNL A   1      31.979  27.886  27.405  1.00  0.00     0.042 C 
ENDROOT
BRANCH   1   2
ATOM      2  C   UNL A   1      31.533  27.084  26.199  1.00  0.00     0.118 C 
BRANCH   2   3
ATOM      3  N   UNL A   1      32.444  26.021  25.847  1.00  0.00    -0.351 N 
ATOM      4  C   UNL A   1      33.076  25.742  24.678  1.00  0.00     0.281 C 
ATOM      5  O   UNL A   1      33.854  24.777  24.699  1.00  0.00    -0.268 OA
ATOM      6  H   UNL A   1      32.641  25.390  26.579  1.00  0.00     0.163 HD
BRANCH   4   7
ATOM      7  C   UNL A   1      32.880  26.569  23.351  1.00  0.00     0.175 C 
ATOM      8  C   UNL A   1      33.459  27.989  23.409  1.00  0.00     0.080 C 
ATOM      9  C   UNL A   1      31.415  26.710  22.924  1.00  0.00     0.094 C 
ATOM     10  C   UNL A   1      32.284  28.970  23.372  1.00  0.00     0.022 C 
ATOM     11  C   UNL A   1      31.124  28.212  22.730  1.00  0.00     0.059 C 
BRANCH   7  12
ATOM     12  N   UNL A   1      33.610  25.825  22.283  1.00  0.00    -0.345 N 
ATOM     13  H   UNL A   1      33.075  25.863  21.414  1.00  0.00     0.345 HD
ATOM     14  H   UNL A   1      33.727  24.851  22.566  1.00  0.00     0.345 HD
ATOM     15  H   UNL A   1      34.526  26.248  22.137  1.00  0.00     0.345 HD
ENDBRANCH   7  12
BRANCH  11  16
ATOM     16  S   UNL A   1      29.399  28.490  23.235  1.00  0.00    -0.112 SA
BRANCH  16  17
ATOM     17  C   UNL A   1      28.927  30.142  22.918  1.00  0.00     0.060 A 
ATOM     18  C   UNL A   1      29.035  31.256  23.720  1.00  0.00     0.027 A 
ATOM     19  S   UNL A   1      28.351  30.564  21.352  1.00  0.00    -0.137 S 
ATOM     20  C   UNL A   1      28.633  32.454  23.052  1.00  0.00     0.013 A 
ATOM     21  C   UNL A   1      28.246  32.219  21.752  1.00  0.00     0.066 A 
ENDBRANCH  16  17
ENDBRANCH  11  16
ENDBRANCH   4   7
ENDBRANCH   2   3
ENDBRANCH   1   2
BRANCH   1  22
ATOM     22  C   UNL A   1      33.382  28.446  27.258  1.00  0.00     0.118 C 
BRANCH  22  23
ATOM     23  N   UNL A   1      33.416  29.897  27.422  1.00  0.00    -0.352 N 
ATOM     24  C   UNL A   1      34.366  30.719  27.977  1.00  0.00     0.251 C 
ATOM     25  H   UNL A   1      32.624  30.366  27.074  1.00  0.00     0.163 HD
ATOM     26  O   UNL A   1      34.069  31.889  28.231  1.00  0.00    -0.269 OA
BRANCH  24  27
ATOM     27  C   UNL A   1      35.723  30.219  28.284  1.00  0.00     0.039 A 
ATOM     28  C   UNL A   1      36.711  30.246  27.293  1.00  0.00     0.014 A 
ATOM     29  C   UNL A   1      36.023  29.687  29.537  1.00  0.00     0.014 A 
ATOM     30  C   UNL A   1      38.007  29.808  27.589  1.00  0.00     0.010 A 
ATOM     31  C   UNL A   1      37.335  29.376  29.868  1.00  0.00     0.010 A 
ATOM     32  C   UNL A   1      38.341  29.410  28.891  1.00  0.00    -0.014 A 
BRANCH  32  33
ATOM     33  C   UNL A   1      39.715  28.984  29.269  1.00  0.00     0.031 A 
ATOM     34  C   UNL A   1      40.633  29.960  29.965  1.00  0.00     0.074 A 
ATOM     35  C   UNL A   1      40.168  27.766  28.907  1.00  0.00     0.049 A 
ATOM     36  N   UNL A   1      41.904  29.837  30.252  1.00  0.00    -0.248 NA
ATOM     37  C   UNL A   1      40.058  31.260  30.355  1.00  0.00     0.031 C 
ATOM     38  C   UNL A   1      39.394  26.746  28.195  1.00  0.00     0.029 A 
ATOM     39  N   UNL A   1      41.399  27.183  29.079  1.00  0.00    -0.354 N 
ATOM     40  C   UNL A   1      42.283  31.052  30.812  1.00  0.00     0.074 A 
ATOM     41  C   UNL A   1      41.126  31.916  30.782  1.00  0.00     0.031 C 
ATOM     42  C   UNL A   1      40.157  25.654  28.021  1.00  0.00     0.029 A 
ATOM     43  C   UNL A   1      41.488  25.913  28.558  1.00  0.00     0.049 A 
ATOM     44  H   UNL A   1      42.148  27.632  29.533  1.00  0.00     0.167 HD
ATOM     45  C   UNL A   1      43.483  31.410  31.327  1.00  0.00     0.031 A 
ATOM     46  C   UNL A   1      42.528  25.058  28.506  1.00  0.00     0.031 A 
ATOM     47  C   UNL A   1      44.618  30.531  31.399  1.00  0.00     0.049 A 
ATOM     48  C   UNL A   1      43.850  25.479  29.094  1.00  0.00     0.074 A 
ATOM     49  C   UNL A   1      45.853  30.770  31.974  1.00  0.00     0.029 A 
ATOM     50  N   UNL A   1      44.655  29.243  30.887  1.00  0.00    -0.354 N 
ATOM     51  N   UNL A   1      44.169  26.609  29.680  1.00  0.00    -0.248 NA
ATOM     52  C   UNL A   1      44.949  24.506  29.023  1.00  0.00     0.031 C 
ATOM     53  C   UNL A   1      46.656  29.646  31.762  1.00  0.00     0.029 A 
ATOM     54  C   UNL A   1      45.899  28.683  31.113  1.00  0.00     0.049 A 
ATOM     55  H   UNL A   1      43.907  28.794  30.431  1.00  0.00     0.167 HD
ATOM     56  C   UNL A   1      45.493  26.466  30.081  1.00  0.00     0.074 A 
ATOM     57  C   UNL A   1      45.910  25.138  29.681  1.00  0.00     0.031 C 
ATOM     58  C   UNL A   1      46.290  27.353  30.726  1.00  0.00     0.031 A 
BRANCH  45  59
ATOM     59  C   UNL A   1      43.636  32.811  31.861  1.00  0.00    -0.014 A 
ATOM     60  C   UNL A   1      43.998  33.878  31.019  1.00  0.00     0.010 A 
ATOM     61  C   UNL A   1      43.346  33.076  33.212  1.00  0.00     0.010 A 
ATOM     62  C   UNL A   1      44.097  35.177  31.523  1.00  0.00     0.020 A 
ATOM     63  C   UNL A   1      43.413  34.379  33.715  1.00  0.00     0.020 A 
ATOM     64  C   UNL A   1      43.801  35.419  32.869  1.00  0.00     0.054 A 
BRANCH  64  65
ATOM     65  S   UNL A   1      43.885  37.124  33.482  1.00  0.00     0.124 S 
ATOM     66  O   UNL A   1      42.610  37.257  34.180  1.00  0.00    -0.237 OA
ATOM     67  O   UNL A   1      45.069  37.097  34.337  1.00  0.00    -0.237 OA
ATOM     68  O   UNL A   1      44.016  37.925  32.267  1.00  0.00    -0.744 OA
ENDBRANCH  64  65
ENDBRANCH  45  59
BRANCH  46  69
ATOM     69  C   UNL A   1      42.368  23.711  27.891  1.00  0.00    -0.014 A 
ATOM     70  C   UNL A   1      42.107  22.587  28.696  1.00  0.00     0.010 A 
ATOM     71  C   UNL A   1      42.493  23.538  26.500  1.00  0.00     0.010 A 
ATOM     72  C   UNL A   1      42.011  21.313  28.129  1.00  0.00     0.020 A 
ATOM     73  C   UNL A   1      42.367  22.269  25.925  1.00  0.00     0.020 A 
ATOM     74  C   UNL A   1      42.145  21.162  26.746  1.00  0.00     0.054 A 
BRANCH  74  75
ATOM     75  S   UNL A   1      42.002  19.500  26.031  1.00  0.00     0.124 S 
ATOM     76  O   UNL A   1      40.570  19.408  25.763  1.00  0.00    -0.237 OA
ATOM     77  O   UNL A   1      42.862  19.589  24.853  1.00  0.00    -0.237 OA
ATOM     78  O   UNL A   1      42.498  18.627  27.091  1.00  0.00    -0.744 OA
ENDBRANCH  74  75
ENDBRANCH  46  69
BRANCH  58  79
ATOM     79  C   UNL A   1      47.678  26.902  31.099  1.00  0.00    -0.014 A 
ATOM     80  C   UNL A   1      47.937  26.257  32.319  1.00  0.00     0.010 A 
ATOM     81  C   UNL A   1      48.725  27.065  30.171  1.00  0.00     0.010 A 
ATOM     82  C   UNL A   1      49.225  25.804  32.617  1.00  0.00     0.020 A 
ATOM     83  C   UNL A   1      50.005  26.586  30.452  1.00  0.00     0.020 A 
ATOM     84  C   UNL A   1      50.250  25.968  31.679  1.00  0.00     0.054 A 
BRANCH  84  85
ATOM     85  S   UNL A   1      51.898  25.320  32.065  1.00  0.00     0.124 S 
ATOM     86  O   UNL A   1      52.198  25.985  33.331  1.00  0.00    -0.237 OA
ATOM     87  O   UNL A   1      51.663  23.880  32.152  1.00  0.00    -0.237 OA
ATOM     88  O   UNL A   1      52.714  25.744  30.930  1.00  0.00    -0.744 OA
ENDBRANCH  84  85
ENDBRANCH  58  79
ENDBRANCH  32  33
ENDBRANCH  24  27
ENDBRANCH  22  23
ENDBRANCH   1  22
TORSDOF 16
ENDMDL
MODEL 2
REMARK VINA RESULT:     -10.5      1.439      2.294
REMARK SMILES [NH3+][C@@]1(C(=O)NCCCNC(=O)c2ccc(-c3c4nc(c(-c5ccc(S(=O)(=O)[O-])cc5)c5ccc([nH]5)c(-c5ccc(S(=O)(=O)[O-])cc5)c5nc(c(-c6ccc(S(=O)(=O)[O-])cc6)c6ccc3[nH]6)C=C5)C=C4)cc2)CC[C@H](Sc2cccs2)C1
REMARK SMILES IDX 7 1 6 2 5 3 3 4 4 5 2 7 72 8 81 9 73 10 74 11 1 12 75 16
REMARK SMILES IDX 76 17 77 18 80 19 78 20 79 21 8 22 9 23 10 24 11 26 12 27
REMARK SMILES IDX 13 28 71 29 14 30 70 31 15 32 16 33 17 34 64 35 18 36 69 37
REMARK SMILES IDX 63 38 65 39 19 40 68 41 62 42 61 43 20 45 50 46 31 47 49 48
REMARK SMILES IDX 32 49 35 50 48 51 66 52 33 53 34 54 47 56 67 57 36 58 21 59
REMARK SMILES IDX 22 60 30 61 23 62 29 63 24 64 25 65 26 66 27 67 28 68 51 69
REMARK SMILES IDX 52 70 60 71 53 72 59 73 54 74 55 75 56 76 57 77 58 78 37 79
REMARK SMILES IDX 38 80 46 81 39 82 45 83 40 84 41 85 42 86 43 87 44 88
REMARK H PARENT 5 6 1 13 1 14 1 15 9 25 65 44 35 55
REMARK Flexibility Score: inf
ROOT
ATOM      1  C   UNL A   1      32.170  27.785  26.983  1.00  0.00     0.042 C 
ENDROOT
BRANCH   1   2
ATOM      2  C   UNL A   1      32.120  26.497  26.186  1.00  0.00     0.118 C 
BRANCH   2   3
ATOM      3  N   UNL A   1      31.220  25.513  26.740  1.00  0.00    -0.351 N 
ATOM      4  C   UNL A   1      31.220  24.158  26.651  1.00  0.00     0.281 C 
ATOM      5  O   UNL A   1      30.335  23.572  27.291  1.00  0.00    -0.268 OA
ATOM      6  H   UNL A   1      30.480  25.888  27.272  1.00  0.00     0.163 HD
BRANCH   4   7
ATOM      7  C   UNL A   1      32.266  23.330  25.811  1.00  0.00     0.175 C 
ATOM      8  C   UNL A   1      33.722  23.762  26.027  1.00  0.00     0.080 C 
ATOM      9  C   UNL A   1      32.015  23.372  24.300  1.00  0.00     0.094 C 
ATOM     10  C   UNL A   1      34.217  24.391  24.723  1.00  0.00     0.022 C 
ATOM     11  C   UNL A   1      33.320  23.831  23.620  1.00  0.00     0.059 C 
BRANCH   7  12
ATOM     12  N   UNL A   1      32.140  21.914  26.267  1.00  0.00    -0.345 N 
ATOM     13  H   UNL A   1      32.563  21.294  25.575  1.00  0.00     0.345 HD
ATOM     14  H   UNL A   1      31.154  21.678  26.375  1.00  0.00     0.345 HD
ATOM     15  H   UNL A   1      32.616  21.800  27.162  1.00  0.00     0.345 HD
ENDBRANCH   7  12
BRANCH  11  16
ATOM     16  S   UNL A   1      32.846  24.824  22.171  1.00  0.00    -0.112 SA
BRANCH  16  17
ATOM     17  C   UNL A   1      32.672  26.505  22.611  1.00  0.00     0.060 A 
ATOM     18  C   UNL A   1      33.640  27.457  22.845  1.00  0.00     0.027 A 
ATOM     19  S   UNL A   1      31.099  27.202  22.657  1.00  0.00    -0.137 S 
ATOM     20  C   UNL A   1      33.088  28.755  23.075  1.00  0.00     0.013 A 
ATOM     21  C   UNL A   1      31.714  28.758  22.991  1.00  0.00     0.066 A 
ENDBRANCH  16  17
ENDBRANCH  11  16
ENDBRANCH   4   7
ENDBRANCH   2   3
ENDBRANCH   1   2
BRANCH   1  22
ATOM     22  C   UNL A   1      33.561  28.387  27.050  1.00  0.00     0.118 C 
BRANCH  22  23
ATOM     23  N   UNL A   1      33.532  29.801  27.418  1.00  0.00    -0.352 N 
ATOM     24  C   UNL A   1      34.441  30.573  28.098  1.00  0.00     0.251 C 
ATOM     25  H   UNL A   1      32.723  30.281  27.128  1.00  0.00     0.163 HD
ATOM     26  O   UNL A   1      34.093  31.683  28.510  1.00  0.00    -0.269 OA
BRANCH  24  27
ATOM     27  C   UNL A   1      35.816  30.091  28.350  1.00  0.00     0.039 A 
ATOM     28  C   UNL A   1      36.771  30.153  27.329  1.00  0.00     0.014 A 
ATOM     29  C   UNL A   1      36.166  29.539  29.582  1.00  0.00     0.014 A 
ATOM     30  C   UNL A   1      38.082  29.732  27.573  1.00  0.00     0.010 A 
ATOM     31  C   UNL A   1      37.493  29.244  29.863  1.00  0.00     0.010 A 
ATOM     32  C   UNL A   1      38.465  29.314  28.856  1.00  0.00    -0.014 A 
BRANCH  32  33
ATOM     33  C   UNL A   1      39.857  28.904  29.180  1.00  0.00     0.031 A 
ATOM     34  C   UNL A   1      40.797  29.897  29.823  1.00  0.00     0.074 A 
ATOM     35  C   UNL A   1      40.305  27.686  28.816  1.00  0.00     0.049 A 
ATOM     36  N   UNL A   1      42.079  29.788  30.057  1.00  0.00    -0.248 NA
ATOM     37  C   UNL A   1      40.228  31.198  30.220  1.00  0.00     0.031 C 
ATOM     38  C   UNL A   1      39.510  26.649  28.151  1.00  0.00     0.029 A 
ATOM     39  N   UNL A   1      41.547  27.114  28.943  1.00  0.00    -0.354 N 
ATOM     40  C   UNL A   1      42.472  31.014  30.584  1.00  0.00     0.074 A 
ATOM     41  C   UNL A   1      41.307  31.868  30.592  1.00  0.00     0.031 C 
ATOM     42  C   UNL A   1      40.274  25.561  27.961  1.00  0.00     0.029 A 
ATOM     43  C   UNL A   1      41.624  25.838  28.437  1.00  0.00     0.049 A 
ATOM     44  H   UNL A   1      42.311  27.576  29.358  1.00  0.00     0.167 HD
ATOM     45  C   UNL A   1      43.689  31.389  31.042  1.00  0.00     0.031 A 
ATOM     46  C   UNL A   1      42.669  24.991  28.352  1.00  0.00     0.031 A 
ATOM     47  C   UNL A   1      44.834  30.520  31.077  1.00  0.00     0.049 A 
ATOM     48  C   UNL A   1      44.011  25.430  28.877  1.00  0.00     0.074 A 
ATOM     49  C   UNL A   1      46.090  30.777  31.596  1.00  0.00     0.029 A 
ATOM     50  N   UNL A   1      44.859  29.225  30.582  1.00  0.00    -0.354 N 
ATOM     51  N   UNL A   1      44.345  26.571  29.433  1.00  0.00    -0.248 NA
ATOM     52  C   UNL A   1      45.114  24.465  28.772  1.00  0.00     0.031 C 
ATOM     53  C   UNL A   1      46.893  29.656  31.365  1.00  0.00     0.029 A 
ATOM     54  C   UNL A   1      46.117  28.678  30.763  1.00  0.00     0.049 A 
ATOM     55  H   UNL A   1      44.097  28.764  30.165  1.00  0.00     0.167 HD
ATOM     56  C   UNL A   1      45.686  26.444  29.779  1.00  0.00     0.074 A 
ATOM     57  C   UNL A   1      46.097  25.114  29.380  1.00  0.00     0.031 C 
ATOM     58  C   UNL A   1      46.503  27.345  30.377  1.00  0.00     0.031 A 
BRANCH  45  59
ATOM     59  C   UNL A   1      43.853  32.798  31.550  1.00  0.00    -0.014 A 
ATOM     60  C   UNL A   1      43.625  33.119  32.900  1.00  0.00     0.010 A 
ATOM     61  C   UNL A   1      44.307  33.804  30.676  1.00  0.00     0.010 A 
ATOM     62  C   UNL A   1      43.819  34.423  33.361  1.00  0.00     0.020 A 
ATOM     63  C   UNL A   1      44.532  35.104  31.140  1.00  0.00     0.020 A 
ATOM     64  C   UNL A   1      44.275  35.407  32.477  1.00  0.00     0.054 A 
BRANCH  64  65
ATOM     65  S   UNL A   1      44.569  37.078  33.117  1.00  0.00     0.124 S 
ATOM     66  O   UNL A   1      44.410  36.882  34.556  1.00  0.00    -0.237 OA
ATOM     67  O   UNL A   1      45.932  37.356  32.669  1.00  0.00    -0.237 OA
ATOM     68  O   UNL A   1      43.530  37.883  32.480  1.00  0.00    -0.744 OA
ENDBRANCH  64  65
ENDBRANCH  45  59
BRANCH  46  69
ATOM     69  C   UNL A   1      42.494  23.634  27.762  1.00  0.00    -0.014 A 
ATOM     70  C   UNL A   1      42.333  22.511  28.595  1.00  0.00     0.010 A 
ATOM     71  C   UNL A   1      42.506  23.450  26.367  1.00  0.00     0.010 A 
ATOM     72  C   UNL A   1      42.224  21.229  28.048  1.00  0.00     0.020 A 
ATOM     73  C   UNL A   1      42.366  22.173  25.814  1.00  0.00     0.020 A 
ATOM     74  C   UNL A   1      42.245  21.069  26.660  1.00  0.00     0.054 A 
BRANCH  74  75
ATOM     75  S   UNL A   1      42.087  19.397  25.971  1.00  0.00     0.124 S 
ATOM     76  O   UNL A   1      40.663  19.332  25.657  1.00  0.00    -0.237 OA
ATOM     77  O   UNL A   1      42.987  19.443  24.821  1.00  0.00    -0.237 OA
ATOM     78  O   UNL A   1      42.527  18.533  27.064  1.00  0.00    -0.744 OA
ENDBRANCH  74  75
ENDBRANCH  46  69
BRANCH  58  79
ATOM     79  C   UNL A   1      47.908  26.911  30.697  1.00  0.00    -0.014 A 
ATOM     80  C   UNL A   1      48.936  26.993  29.744  1.00  0.00     0.010 A 
ATOM     81  C   UNL A   1      48.214  26.483  32.003  1.00  0.00     0.010 A 
ATOM     82  C   UNL A   1      50.243  26.630  30.083  1.00  0.00     0.020 A 
ATOM     83  C   UNL A   1      49.524  26.150  32.355  1.00  0.00     0.020 A 
ATOM     84  C   UNL A   1      50.528  26.215  31.388  1.00  0.00     0.054 A 
BRANCH  84  85
ATOM     85  S   UNL A   1      52.241  25.806  31.818  1.00  0.00     0.124 S 
ATOM     86  O   UNL A   1      52.935  26.034  30.553  1.00  0.00    -0.237 OA
ATOM     87  O   UNL A   1      52.541  26.763  32.881  1.00  0.00    -0.237 OA
ATOM     88  O   UNL A   1      52.169  24.411  32.246  1.00  0.00    -0.744 OA
ENDBRANCH  84  85
ENDBRANCH  58  79
ENDBRANCH  32  33
ENDBRANCH  24  27
ENDBRANCH  22  23
ENDBRANCH   1  22
TORSDOF 16
ENDMDL
MODEL 3
REMARK VINA RESULT:     -10.4      3.334      4.843
REMARK SMILES [NH3+][C@@]1(C(=O)NCCCNC(=O)c2ccc(-c3c4nc(c(-c5ccc(S(=O)(=O)[O-])cc5)c5ccc([nH]5)c(-c5ccc(S(=O)(=O)[O-])cc5)c5nc(c(-c6ccc(S(=O)(=O)[O-])cc6)c6ccc3[nH]6)C=C5)C=C4)cc2)CC[C@H](Sc2cccs2)C1
REMARK SMILES IDX 7 1 6 2 5 3 3 4 4 5 2 7 72 8 81 9 73 10 74 11 1 12 75 16
REMARK SMILES IDX 76 17 77 18 80 19 78 20 79 21 8 22 9 23 10 24 11 26 12 27
REMARK SMILES IDX 13 28 71 29 14 30 70 31 15 32 16 33 17 34 64 35 18 36 69 37
REMARK SMILES IDX 63 38 65 39 19 40 68 41 62 42 61 43 20 45 50 46 31 47 49 48
REMARK SMILES IDX 32 49 35 50 48 51 66 52 33 53 34 54 47 56 67 57 36 58 21 59
REMARK SMILES IDX 22 60 30 61 23 62 29 63 24 64 25 65 26 66 27 67 28 68 51 69
REMARK SMILES IDX 52 70 60 71 53 72 59 73 54 74 55 75 56 76 57 77 58 78 37 79
REMARK SMILES IDX 38 80 46 81 39 82 45 83 40 84 41 85 42 86 43 87 44 88
REMARK H PARENT 5 6 1 13 1 14 1 15 9 25 65 44 35 55
REMARK Flexibility Score: inf
ROOT
ATOM      1  C   UNL A   1      33.546  27.624  26.786  1.00  0.00     0.042 C 
ENDROOT
BRANCH   1   2
ATOM      2  C   UNL A   1      33.217  26.302  26.123  1.00  0.00     0.118 C 
BRANCH   2   3
ATOM      3  N   UNL A   1      31.842  25.897  26.298  1.00  0.00    -0.351 N 
ATOM      4  C   UNL A   1      31.277  24.663  26.345  1.00  0.00     0.281 C 
ATOM      5  O   UNL A   1      30.058  24.632  26.568  1.00  0.00    -0.268 OA
ATOM      6  H   UNL A   1      31.205  26.643  26.400  1.00  0.00     0.163 HD
BRANCH   4   7
ATOM      7  C   UNL A   1      32.079  23.319  26.152  1.00  0.00     0.175 C 
ATOM      8  C   UNL A   1      32.738  22.796  27.434  1.00  0.00     0.080 C 
ATOM      9  C   UNL A   1      33.183  23.408  25.095  1.00  0.00     0.094 C 
ATOM     10  C   UNL A   1      34.254  22.913  27.256  1.00  0.00     0.022 C 
ATOM     11  C   UNL A   1      34.499  22.939  25.749  1.00  0.00     0.059 C 
BRANCH   7  12
ATOM     12  N   UNL A   1      31.083  22.300  25.706  1.00  0.00    -0.345 N 
ATOM     13  H   UNL A   1      31.530  21.384  25.663  1.00  0.00     0.345 HD
ATOM     14  H   UNL A   1      30.733  22.550  24.780  1.00  0.00     0.345 HD
ATOM     15  H   UNL A   1      30.306  22.271  26.365  1.00  0.00     0.345 HD
ENDBRANCH   7  12
BRANCH  11  16
ATOM     16  S   UNL A   1      35.841  23.921  25.010  1.00  0.00    -0.112 SA
BRANCH  16  17
ATOM     17  C   UNL A   1      37.392  23.382  25.606  1.00  0.00     0.060 A 
ATOM     18  C   UNL A   1      38.320  24.052  26.374  1.00  0.00     0.027 A 
ATOM     19  S   UNL A   1      37.863  21.746  25.359  1.00  0.00    -0.137 S 
ATOM     20  C   UNL A   1      39.423  23.224  26.748  1.00  0.00     0.013 A 
ATOM     21  C   UNL A   1      39.294  21.940  26.267  1.00  0.00     0.066 A 
ENDBRANCH  16  17
ENDBRANCH  11  16
ENDBRANCH   4   7
ENDBRANCH   2   3
ENDBRANCH   1   2
BRANCH   1  22
ATOM     22  C   UNL A   1      33.966  28.695  25.797  1.00  0.00     0.118 C 
BRANCH  22  23
ATOM     23  N   UNL A   1      33.727  30.043  26.310  1.00  0.00    -0.352 N 
ATOM     24  C   UNL A   1      34.313  30.730  27.343  1.00  0.00     0.251 C 
ATOM     25  H   UNL A   1      33.026  30.542  25.832  1.00  0.00     0.163 HD
ATOM     26  O   UNL A   1      33.778  31.763  27.754  1.00  0.00    -0.269 OA
BRANCH  24  27
ATOM     27  C   UNL A   1      35.560  30.246  27.973  1.00  0.00     0.039 A 
ATOM     28  C   UNL A   1      36.779  30.395  27.301  1.00  0.00     0.014 A 
ATOM     29  C   UNL A   1      35.534  29.607  29.212  1.00  0.00     0.014 A 
ATOM     30  C   UNL A   1      37.966  29.971  27.908  1.00  0.00     0.010 A 
ATOM     31  C   UNL A   1      36.721  29.307  29.868  1.00  0.00     0.010 A 
ATOM     32  C   UNL A   1      37.952  29.463  29.216  1.00  0.00    -0.014 A 
BRANCH  32  33
ATOM     33  C   UNL A   1      39.191  29.045  29.923  1.00  0.00     0.031 A 
ATOM     34  C   UNL A   1      39.621  29.780  31.172  1.00  0.00     0.074 A 
ATOM     35  C   UNL A   1      39.974  28.080  29.402  1.00  0.00     0.049 A 
ATOM     36  N   UNL A   1      40.731  29.668  31.854  1.00  0.00    -0.248 NA
ATOM     37  C   UNL A   1      38.698  30.802  31.698  1.00  0.00     0.031 C 
ATOM     38  C   UNL A   1      39.693  27.322  28.180  1.00  0.00     0.029 A 
ATOM     39  N   UNL A   1      41.179  27.577  29.829  1.00  0.00    -0.354 N 
ATOM     40  C   UNL A   1      40.656  30.629  32.857  1.00  0.00     0.074 A 
ATOM     41  C   UNL A   1      39.417  31.348  32.667  1.00  0.00     0.031 C 
ATOM     42  C   UNL A   1      40.678  26.431  27.976  1.00  0.00     0.029 A 
ATOM     43  C   UNL A   1      41.686  26.590  29.018  1.00  0.00     0.049 A 
ATOM     44  H   UNL A   1      41.637  27.895  30.641  1.00  0.00     0.167 HD
ATOM     45  C   UNL A   1      41.529  30.878  33.861  1.00  0.00     0.031 A 
ATOM     46  C   UNL A   1      42.841  25.899  29.095  1.00  0.00     0.031 A 
ATOM     47  C   UNL A   1      42.737  30.128  34.074  1.00  0.00     0.049 A 
ATOM     48  C   UNL A   1      43.791  26.190  30.227  1.00  0.00     0.074 A 
ATOM     49  C   UNL A   1      43.649  30.247  35.108  1.00  0.00     0.029 A 
ATOM     50  N   UNL A   1      43.197  29.116  33.245  1.00  0.00    -0.354 N 
ATOM     51  N   UNL A   1      43.670  27.058  31.203  1.00  0.00    -0.248 NA
ATOM     52  C   UNL A   1      45.031  25.402  30.273  1.00  0.00     0.031 C 
ATOM     53  C   UNL A   1      44.690  29.344  34.874  1.00  0.00     0.029 A 
ATOM     54  C   UNL A   1      44.392  28.618  33.732  1.00  0.00     0.049 A 
ATOM     55  H   UNL A   1      42.742  28.800  32.432  1.00  0.00     0.167 HD
ATOM     56  C   UNL A   1      44.797  26.891  32.000  1.00  0.00     0.074 A 
ATOM     57  C   UNL A   1      45.583  25.833  31.398  1.00  0.00     0.031 C 
ATOM     58  C   UNL A   1      45.150  27.551  33.131  1.00  0.00     0.031 A 
BRANCH  45  59
ATOM     59  C   UNL A   1      41.214  32.003  34.813  1.00  0.00    -0.014 A 
ATOM     60  C   UNL A   1      41.587  33.328  34.526  1.00  0.00     0.010 A 
ATOM     61  C   UNL A   1      40.475  31.739  35.981  1.00  0.00     0.010 A 
ATOM     62  C   UNL A   1      41.252  34.364  35.401  1.00  0.00     0.020 A 
ATOM     63  C   UNL A   1      40.111  32.776  36.845  1.00  0.00     0.020 A 
ATOM     64  C   UNL A   1      40.513  34.081  36.555  1.00  0.00     0.054 A 
BRANCH  64  65
ATOM     65  S   UNL A   1      40.048  35.453  37.645  1.00  0.00     0.124 S 
ATOM     66  O   UNL A   1      38.813  34.955  38.245  1.00  0.00    -0.237 OA
ATOM     67  O   UNL A   1      41.192  35.546  38.548  1.00  0.00    -0.237 OA
ATOM     68  O   UNL A   1      39.885  36.583  36.732  1.00  0.00    -0.744 OA
ENDBRANCH  64  65
ENDBRANCH  45  59
BRANCH  46  69
ATOM     69  C   UNL A   1      43.164  24.853  28.084  1.00  0.00    -0.014 A 
ATOM     70  C   UNL A   1      42.768  23.519  28.290  1.00  0.00     0.010 A 
ATOM     71  C   UNL A   1      43.884  25.177  26.920  1.00  0.00     0.010 A 
ATOM     72  C   UNL A   1      43.117  22.523  27.373  1.00  0.00     0.020 A 
ATOM     73  C   UNL A   1      44.208  24.191  25.983  1.00  0.00     0.020 A 
ATOM     74  C   UNL A   1      43.838  22.866  26.226  1.00  0.00     0.054 A 
BRANCH  74  75
ATOM     75  S   UNL A   1      44.267  21.560  25.041  1.00  0.00     0.124 S 
ATOM     76  O   UNL A   1      45.627  21.219  25.445  1.00  0.00    -0.237 OA
ATOM     77  O   UNL A   1      43.252  20.544  25.311  1.00  0.00    -0.237 OA
ATOM     78  O   UNL A   1      44.146  22.222  23.744  1.00  0.00    -0.744 OA
ENDBRANCH  74  75
ENDBRANCH  46  69
BRANCH  58  79
ATOM     79  C   UNL A   1      46.407  27.113  33.833  1.00  0.00    -0.014 A 
ATOM     80  C   UNL A   1      47.645  27.724  33.571  1.00  0.00     0.010 A 
ATOM     81  C   UNL A   1      46.328  26.119  34.827  1.00  0.00     0.010 A 
ATOM     82  C   UNL A   1      48.787  27.332  34.274  1.00  0.00     0.020 A 
ATOM     83  C   UNL A   1      47.461  25.747  35.553  1.00  0.00     0.020 A 
ATOM     84  C   UNL A   1      48.687  26.348  35.263  1.00  0.00     0.054 A 
BRANCH  84  85
ATOM     85  S   UNL A   1      50.172  25.899  36.201  1.00  0.00     0.124 S 
ATOM     86  O   UNL A   1      50.621  27.197  36.699  1.00  0.00    -0.237 OA
ATOM     87  O   UNL A   1      49.647  24.985  37.212  1.00  0.00    -0.237 OA
ATOM     88  O   UNL A   1      51.041  25.282  35.202  1.00  0.00    -0.744 OA
ENDBRANCH  84  85
ENDBRANCH  58  79
ENDBRANCH  32  33
ENDBRANCH  24  27
ENDBRANCH  22  23
ENDBRANCH   1  22
TORSDOF 16
ENDMDL
