MODEL 1
REMARK VINA RESULT:     -10.7      0.000      0.000
REMARK SMILES O=C(NCCCNC(=O)[C@@H](CCc1ccccc1)[C@@H]1CCS(=O)(=O)C1)c1ccc(-c2c3nc(c(-c4ccc(S(=O)(=O)[O-])cc4)c4ccc([nH]4)c(-c4ccc(S(=O)(=O)[O-])cc4)c4nc(c(-c5ccc(S(=O)(=O)[O-])cc5)c5ccc2[nH]5)C=C4)C=C3)cc1
REMARK SMILES IDX 5 1 4 2 3 3 1 4 2 5 26 7 27 8 85 9 28 10 84 11 29 12 30 13
REMARK SMILES IDX 31 14 78 15 32 16 83 17 77 18 79 19 33 20 82 21 76 22 75 23
REMARK SMILES IDX 34 25 64 26 45 27 63 28 46 29 49 30 62 31 80 32 47 33 48 34
REMARK SMILES IDX 61 36 81 37 50 38 35 39 36 40 44 41 37 42 43 43 38 44 39 45
REMARK SMILES IDX 40 46 41 47 42 48 65 49 66 50 74 51 67 52 73 53 68 54 69 55
REMARK SMILES IDX 70 56 71 57 72 58 51 59 52 60 60 61 53 62 59 63 54 64 55 65
REMARK SMILES IDX 56 66 57 67 58 68 6 69 7 70 8 71 9 73 10 74 11 75 12 76
REMARK SMILES IDX 13 77 14 78 18 79 15 80 17 81 16 82 19 83 20 84 25 85 21 86
REMARK SMILES IDX 22 87 23 88 24 89
REMARK H PARENT 3 6 79 24 49 35 7 72
REMARK Flexibility Score: inf
ROOT
ATOM      1  C   UNL A   1      32.387  27.712  27.296  1.00  0.00     0.042 C 
ENDROOT
BRANCH   1   2
ATOM      2  C   UNL A   1      33.631  28.486  26.914  1.00  0.00     0.118 C 
BRANCH   2   3
ATOM      3  N   UNL A   1      33.580  29.866  27.389  1.00  0.00    -0.352 N 
ATOM      4  O   UNL A   1      34.103  31.703  28.559  1.00  0.00    -0.269 OA
ATOM      5  C   UNL A   1      34.479  30.626  28.103  1.00  0.00     0.251 C 
ATOM      6  H   UNL A   1      32.750  30.341  27.157  1.00  0.00     0.163 HD
BRANCH   5   7
ATOM      7  C   UNL A   1      35.869  30.167  28.343  1.00  0.00     0.039 A 
ATOM      8  C   UNL A   1      36.853  30.302  27.367  1.00  0.00     0.014 A 
ATOM      9  C   UNL A   1      36.222  29.643  29.594  1.00  0.00     0.014 A 
ATOM     10  C   UNL A   1      38.110  29.748  27.551  1.00  0.00     0.010 A 
ATOM     11  C   UNL A   1      37.537  29.223  29.836  1.00  0.00     0.010 A 
ATOM     12  C   UNL A   1      38.489  29.256  28.807  1.00  0.00    -0.014 A 
BRANCH  12  13
ATOM     13  C   UNL A   1      39.918  28.926  29.036  1.00  0.00     0.031 A 
ATOM     14  C   UNL A   1      40.500  27.608  28.613  1.00  0.00     0.074 A 
ATOM     15  C   UNL A   1      40.696  29.861  29.625  1.00  0.00     0.049 A 
ATOM     16  N   UNL A   1      41.726  27.175  28.756  1.00  0.00    -0.248 NA
ATOM     17  C   UNL A   1      39.598  26.650  27.955  1.00  0.00     0.031 C 
ATOM     18  C   UNL A   1      40.234  31.178  30.081  1.00  0.00     0.029 A 
ATOM     19  N   UNL A   1      42.033  29.864  29.928  1.00  0.00    -0.354 N 
ATOM     20  C   UNL A   1      41.739  25.885  28.238  1.00  0.00     0.074 A 
ATOM     21  C   UNL A   1      40.394  25.601  27.784  1.00  0.00     0.031 C 
ATOM     22  C   UNL A   1      41.274  31.876  30.554  1.00  0.00     0.029 A 
ATOM     23  C   UNL A   1      42.456  31.026  30.531  1.00  0.00     0.049 A 
ATOM     24  H   UNL A   1      42.632  29.108  29.733  1.00  0.00     0.167 HD
ATOM     25  C   UNL A   1      42.779  25.021  28.159  1.00  0.00     0.031 A 
ATOM     26  C   UNL A   1      43.649  31.364  31.054  1.00  0.00     0.031 A 
ATOM     27  C   UNL A   1      44.112  25.323  28.615  1.00  0.00     0.049 A 
ATOM     28  C   UNL A   1      44.765  30.366  30.994  1.00  0.00     0.074 A 
ATOM     29  C   UNL A   1      45.246  24.533  28.530  1.00  0.00     0.029 A 
ATOM     30  N   UNL A   1      44.489  26.495  29.253  1.00  0.00    -0.354 N 
ATOM     31  N   UNL A   1      44.771  29.174  30.446  1.00  0.00    -0.248 NA
ATOM     32  C   UNL A   1      46.032  30.750  31.626  1.00  0.00     0.031 C 
ATOM     33  C   UNL A   1      46.288  25.195  29.186  1.00  0.00     0.029 A 
ATOM     34  C   UNL A   1      45.826  26.429  29.611  1.00  0.00     0.049 A 
ATOM     35  H   UNL A   1      43.895  27.261  29.427  1.00  0.00     0.167 HD
ATOM     36  C   UNL A   1      46.046  28.670  30.656  1.00  0.00     0.074 A 
ATOM     37  C   UNL A   1      46.793  29.696  31.354  1.00  0.00     0.031 C 
ATOM     38  C   UNL A   1      46.553  27.462  30.307  1.00  0.00     0.031 A 
BRANCH  25  39
ATOM     39  C   UNL A   1      42.521  23.644  27.600  1.00  0.00    -0.014 A 
ATOM     40  C   UNL A   1      42.807  23.325  26.261  1.00  0.00     0.010 A 
ATOM     41  C   UNL A   1      42.062  22.627  28.460  1.00  0.00     0.010 A 
ATOM     42  C   UNL A   1      42.615  22.023  25.787  1.00  0.00     0.020 A 
ATOM     43  C   UNL A   1      41.895  21.319  27.998  1.00  0.00     0.020 A 
ATOM     44  C   UNL A   1      42.161  21.028  26.660  1.00  0.00     0.054 A 
BRANCH  44  45
ATOM     45  S   UNL A   1      41.964  19.339  26.026  1.00  0.00     0.124 S 
ATOM     46  O   UNL A   1      42.819  19.360  24.842  1.00  0.00    -0.237 OA
ATOM     47  O   UNL A   1      42.448  18.523  27.136  1.00  0.00    -0.237 OA
ATOM     48  O   UNL A   1      40.531  19.234  25.755  1.00  0.00    -0.744 OA
ENDBRANCH  44  45
ENDBRANCH  25  39
BRANCH  26  49
ATOM     49  C   UNL A   1      43.816  32.677  31.734  1.00  0.00    -0.014 A 
ATOM     50  C   UNL A   1      44.229  33.815  31.021  1.00  0.00     0.010 A 
ATOM     51  C   UNL A   1      43.549  32.795  33.113  1.00  0.00     0.010 A 
ATOM     52  C   UNL A   1      44.398  35.037  31.678  1.00  0.00     0.020 A 
ATOM     53  C   UNL A   1      43.680  34.022  33.765  1.00  0.00     0.020 A 
ATOM     54  C   UNL A   1      44.122  35.132  33.045  1.00  0.00     0.054 A 
BRANCH  54  55
ATOM     55  S   UNL A   1      44.322  36.736  33.870  1.00  0.00     0.124 S 
ATOM     56  O   UNL A   1      45.007  36.358  35.102  1.00  0.00    -0.237 OA
ATOM     57  O   UNL A   1      45.120  37.488  32.905  1.00  0.00    -0.237 OA
ATOM     58  O   UNL A   1      42.948  37.208  34.036  1.00  0.00    -0.744 OA
ENDBRANCH  54  55
ENDBRANCH  26  49
BRANCH  38  59
ATOM     59  C   UNL A   1      47.991  27.192  30.655  1.00  0.00    -0.014 A 
ATOM     60  C   UNL A   1      49.033  27.590  29.797  1.00  0.00     0.010 A 
ATOM     61  C   UNL A   1      48.306  26.592  31.887  1.00  0.00     0.010 A 
ATOM     62  C   UNL A   1      50.363  27.375  30.161  1.00  0.00     0.020 A 
ATOM     63  C   UNL A   1      49.635  26.404  32.268  1.00  0.00     0.020 A 
ATOM     64  C   UNL A   1      50.657  26.790  31.397  1.00  0.00     0.054 A 
BRANCH  64  65
ATOM     65  S   UNL A   1      52.395  26.589  31.873  1.00  0.00     0.124 S 
ATOM     66  O   UNL A   1      53.085  26.802  30.604  1.00  0.00    -0.237 OA
ATOM     67  O   UNL A   1      52.575  27.639  32.872  1.00  0.00    -0.237 OA
ATOM     68  O   UNL A   1      52.456  25.224  32.393  1.00  0.00    -0.744 OA
ENDBRANCH  64  65
ENDBRANCH  38  59
ENDBRANCH  12  13
ENDBRANCH   5   7
ENDBRANCH   2   3
ENDBRANCH   1   2
BRANCH   1  69
ATOM     69  C   UNL A   1      31.493  27.359  26.113  1.00  0.00     0.117 C 
BRANCH  69  70
ATOM     70  N   UNL A   1      30.676  26.210  26.411  1.00  0.00    -0.356 N 
ATOM     71  C   UNL A   1      30.925  24.896  26.191  1.00  0.00     0.223 C 
ATOM     72  H   UNL A   1      29.811  26.409  26.837  1.00  0.00     0.163 HD
ATOM     73  O   UNL A   1      30.078  24.093  26.597  1.00  0.00    -0.275 OA
BRANCH  71  74
ATOM     74  C   UNL A   1      32.245  24.383  25.578  1.00  0.00     0.083 C 
BRANCH  74  75
ATOM     75  C   UNL A   1      33.247  23.702  26.568  1.00  0.00     0.018 C 
BRANCH  75  76
ATOM     76  C   UNL A   1      34.133  22.433  26.422  1.00  0.00     0.036 C 
BRANCH  76  77
ATOM     77  C   UNL A   1      35.588  22.507  26.035  1.00  0.00    -0.048 A 
ATOM     78  C   UNL A   1      36.269  21.362  25.597  1.00  0.00     0.004 A 
ATOM     79  C   UNL A   1      36.322  23.701  26.130  1.00  0.00     0.004 A 
ATOM     80  C   UNL A   1      37.660  21.377  25.444  1.00  0.00     0.000 A 
ATOM     81  C   UNL A   1      37.713  23.715  26.003  1.00  0.00     0.000 A 
ATOM     82  C   UNL A   1      38.386  22.542  25.693  1.00  0.00     0.000 A 
ENDBRANCH  76  77
ENDBRANCH  75  76
ENDBRANCH  74  75
BRANCH  74  83
ATOM     83  C   UNL A   1      31.991  23.973  24.088  1.00  0.00     0.017 C 
ATOM     84  C   UNL A   1      33.100  23.281  23.312  1.00  0.00     0.021 C 
ATOM     85  C   UNL A   1      31.704  25.208  23.188  1.00  0.00     0.141 C 
ATOM     86  C   UNL A   1      34.199  24.298  23.054  1.00  0.00     0.137 C 
ATOM     87  S   UNL A   1      33.307  25.764  22.588  1.00  0.00     0.150 S 
ATOM     88  O   UNL A   1      33.769  26.866  23.410  1.00  0.00    -0.229 OA
ATOM     89  O   UNL A   1      33.273  25.838  21.145  1.00  0.00    -0.229 OA
ENDBRANCH  74  83
ENDBRANCH  71  74
ENDBRANCH  69  70
ENDBRANCH   1  69
TORSDOF 17
ENDMDL
MODEL 2
REMARK VINA RESULT:     -10.7      1.716      3.733
REMARK SMILES O=C(NCCCNC(=O)[C@@H](CCc1ccccc1)[C@@H]1CCS(=O)(=O)C1)c1ccc(-c2c3nc(c(-c4ccc(S(=O)(=O)[O-])cc4)c4ccc([nH]4)c(-c4ccc(S(=O)(=O)[O-])cc4)c4nc(c(-c5ccc(S(=O)(=O)[O-])cc5)c5ccc2[nH]5)C=C4)C=C3)cc1
REMARK SMILES IDX 5 1 4 2 3 3 1 4 2 5 26 7 27 8 85 9 28 10 84 11 29 12 30 13
REMARK SMILES IDX 31 14 78 15 32 16 83 17 77 18 79 19 33 20 82 21 76 22 75 23
REMARK SMILES IDX 34 25 64 26 45 27 63 28 46 29 49 30 62 31 80 32 47 33 48 34
REMARK SMILES IDX 61 36 81 37 50 38 35 39 36 40 44 41 37 42 43 43 38 44 39 45
REMARK SMILES IDX 40 46 41 47 42 48 65 49 66 50 74 51 67 52 73 53 68 54 69 55
REMARK SMILES IDX 70 56 71 57 72 58 51 59 52 60 60 61 53 62 59 63 54 64 55 65
REMARK SMILES IDX 56 66 57 67 58 68 6 69 7 70 8 71 9 73 10 74 11 75 12 76
REMARK SMILES IDX 13 77 14 78 18 79 15 80 17 81 16 82 19 83 20 84 25 85 21 86
REMARK SMILES IDX 22 87 23 88 24 89
REMARK H PARENT 3 6 79 24 49 35 7 72
REMARK Flexibility Score: inf
ROOT
ATOM      1  C   UNL A   1      33.677  28.002  25.885  1.00  0.00     0.042 C 
ENDROOT
BRANCH   1   2
ATOM      2  C   UNL A   1      33.498  28.324  27.353  1.00  0.00     0.118 C 
BRANCH   2   3
ATOM      3  N   UNL A   1      33.491  29.763  27.597  1.00  0.00    -0.352 N 
ATOM      4  O   UNL A   1      34.099  31.756  28.421  1.00  0.00    -0.269 OA
ATOM      5  C   UNL A   1      34.437  30.610  28.130  1.00  0.00     0.251 C 
ATOM      6  H   UNL A   1      32.656  30.211  27.332  1.00  0.00     0.163 HD
BRANCH   5   7
ATOM      7  C   UNL A   1      35.831  30.166  28.372  1.00  0.00     0.039 A 
ATOM      8  C   UNL A   1      36.811  30.297  27.391  1.00  0.00     0.014 A 
ATOM      9  C   UNL A   1      36.192  29.663  29.629  1.00  0.00     0.014 A 
ATOM     10  C   UNL A   1      38.073  29.756  27.579  1.00  0.00     0.010 A 
ATOM     11  C   UNL A   1      37.512  29.259  29.873  1.00  0.00     0.010 A 
ATOM     12  C   UNL A   1      38.460  29.285  28.840  1.00  0.00    -0.014 A 
BRANCH  12  13
ATOM     13  C   UNL A   1      39.893  28.971  29.069  1.00  0.00     0.031 A 
ATOM     14  C   UNL A   1      40.489  27.659  28.649  1.00  0.00     0.074 A 
ATOM     15  C   UNL A   1      40.662  29.915  29.657  1.00  0.00     0.049 A 
ATOM     16  N   UNL A   1      41.720  27.239  28.792  1.00  0.00    -0.248 NA
ATOM     17  C   UNL A   1      39.598  26.690  27.993  1.00  0.00     0.031 C 
ATOM     18  C   UNL A   1      40.186  31.229  30.111  1.00  0.00     0.029 A 
ATOM     19  N   UNL A   1      41.998  29.933  29.959  1.00  0.00    -0.354 N 
ATOM     20  C   UNL A   1      41.746  25.948  28.276  1.00  0.00     0.074 A 
ATOM     21  C   UNL A   1      40.405  25.650  27.823  1.00  0.00     0.031 C 
ATOM     22  C   UNL A   1      41.218  31.938  30.582  1.00  0.00     0.029 A 
ATOM     23  C   UNL A   1      42.409  31.101  30.560  1.00  0.00     0.049 A 
ATOM     24  H   UNL A   1      42.606  29.184  29.766  1.00  0.00     0.167 HD
ATOM     25  C   UNL A   1      42.796  25.095  28.199  1.00  0.00     0.031 A 
ATOM     26  C   UNL A   1      43.598  31.452  31.082  1.00  0.00     0.031 A 
ATOM     27  C   UNL A   1      44.126  25.412  28.654  1.00  0.00     0.049 A 
ATOM     28  C   UNL A   1      44.725  30.466  31.024  1.00  0.00     0.074 A 
ATOM     29  C   UNL A   1      45.268  24.634  28.570  1.00  0.00     0.029 A 
ATOM     30  N   UNL A   1      44.490  26.590  29.290  1.00  0.00    -0.354 N 
ATOM     31  N   UNL A   1      44.743  29.273  30.478  1.00  0.00    -0.248 NA
ATOM     32  C   UNL A   1      45.989  30.865  31.654  1.00  0.00     0.031 C 
ATOM     33  C   UNL A   1      46.303  25.308  29.224  1.00  0.00     0.029 A 
ATOM     34  C   UNL A   1      45.828  26.539  29.648  1.00  0.00     0.049 A 
ATOM     35  H   UNL A   1      43.888  27.349  29.462  1.00  0.00     0.167 HD
ATOM     36  C   UNL A   1      46.024  28.783  30.688  1.00  0.00     0.074 A 
ATOM     37  C   UNL A   1      46.760  29.819  31.384  1.00  0.00     0.031 C 
ATOM     38  C   UNL A   1      46.543  27.581  30.342  1.00  0.00     0.031 A 
BRANCH  25  39
ATOM     39  C   UNL A   1      42.552  23.715  27.642  1.00  0.00    -0.014 A 
ATOM     40  C   UNL A   1      42.735  23.426  26.279  1.00  0.00     0.010 A 
ATOM     41  C   UNL A   1      42.215  22.668  28.522  1.00  0.00     0.010 A 
ATOM     42  C   UNL A   1      42.561  22.122  25.803  1.00  0.00     0.020 A 
ATOM     43  C   UNL A   1      42.068  21.359  28.056  1.00  0.00     0.020 A 
ATOM     44  C   UNL A   1      42.230  21.096  26.695  1.00  0.00     0.054 A 
BRANCH  44  45
ATOM     45  S   UNL A   1      42.055  19.408  26.054  1.00  0.00     0.124 S 
ATOM     46  O   UNL A   1      42.905  19.447  24.867  1.00  0.00    -0.237 OA
ATOM     47  O   UNL A   1      42.554  18.594  27.158  1.00  0.00    -0.237 OA
ATOM     48  O   UNL A   1      40.623  19.283  25.788  1.00  0.00    -0.744 OA
ENDBRANCH  44  45
ENDBRANCH  25  39
BRANCH  26  49
ATOM     49  C   UNL A   1      43.752  32.769  31.760  1.00  0.00    -0.014 A 
ATOM     50  C   UNL A   1      43.501  32.909  33.135  1.00  0.00     0.010 A 
ATOM     51  C   UNL A   1      44.166  33.896  31.023  1.00  0.00     0.010 A 
ATOM     52  C   UNL A   1      43.634  34.156  33.753  1.00  0.00     0.020 A 
ATOM     53  C   UNL A   1      44.337  35.134  31.644  1.00  0.00     0.020 A 
ATOM     54  C   UNL A   1      44.052  35.260  33.003  1.00  0.00     0.054 A 
BRANCH  54  55
ATOM     55  S   UNL A   1      44.244  36.861  33.834  1.00  0.00     0.124 S 
ATOM     56  O   UNL A   1      43.611  37.771  32.884  1.00  0.00    -0.237 OA
ATOM     57  O   UNL A   1      43.526  36.653  35.088  1.00  0.00    -0.237 OA
ATOM     58  O   UNL A   1      45.692  37.004  33.969  1.00  0.00    -0.744 OA
ENDBRANCH  54  55
ENDBRANCH  26  49
BRANCH  38  59
ATOM     59  C   UNL A   1      47.985  27.327  30.689  1.00  0.00    -0.014 A 
ATOM     60  C   UNL A   1      49.021  27.705  29.816  1.00  0.00     0.010 A 
ATOM     61  C   UNL A   1      48.308  26.762  31.936  1.00  0.00     0.010 A 
ATOM     62  C   UNL A   1      50.354  27.506  30.178  1.00  0.00     0.020 A 
ATOM     63  C   UNL A   1      49.641  26.591  32.314  1.00  0.00     0.020 A 
ATOM     64  C   UNL A   1      50.656  26.957  31.428  1.00  0.00     0.054 A 
BRANCH  64  65
ATOM     65  S   UNL A   1      52.397  26.777  31.901  1.00  0.00     0.124 S 
ATOM     66  O   UNL A   1      52.580  25.329  31.842  1.00  0.00    -0.237 OA
ATOM     67  O   UNL A   1      53.088  27.541  30.866  1.00  0.00    -0.237 OA
ATOM     68  O   UNL A   1      52.456  27.357  33.240  1.00  0.00    -0.744 OA
ENDBRANCH  64  65
ENDBRANCH  38  59
ENDBRANCH  12  13
ENDBRANCH   5   7
ENDBRANCH   2   3
ENDBRANCH   1   2
BRANCH   1  69
ATOM     69  C   UNL A   1      33.170  29.092  24.949  1.00  0.00     0.117 C 
BRANCH  69  70
ATOM     70  N   UNL A   1      33.833  29.022  23.671  1.00  0.00    -0.356 N 
ATOM     71  C   UNL A   1      33.724  28.089  22.694  1.00  0.00     0.223 C 
ATOM     72  H   UNL A   1      34.456  29.759  23.481  1.00  0.00     0.163 HD
ATOM     73  O   UNL A   1      34.364  28.291  21.657  1.00  0.00    -0.275 OA
BRANCH  71  74
ATOM     74  C   UNL A   1      32.764  26.884  22.788  1.00  0.00     0.083 C 
BRANCH  74  75
ATOM     75  C   UNL A   1      31.289  27.139  22.333  1.00  0.00     0.018 C 
BRANCH  75  76
ATOM     76  C   UNL A   1      29.981  27.339  23.149  1.00  0.00     0.036 C 
BRANCH  76  77
ATOM     77  C   UNL A   1      29.219  28.640  23.141  1.00  0.00    -0.048 A 
ATOM     78  C   UNL A   1      29.877  29.853  23.390  1.00  0.00     0.004 A 
ATOM     79  C   UNL A   1      27.832  28.687  22.923  1.00  0.00     0.004 A 
ATOM     80  C   UNL A   1      29.146  31.029  23.595  1.00  0.00     0.000 A 
ATOM     81  C   UNL A   1      27.097  29.853  23.152  1.00  0.00     0.000 A 
ATOM     82  C   UNL A   1      27.754  31.017  23.523  1.00  0.00     0.000 A 
ENDBRANCH  76  77
ENDBRANCH  75  76
ENDBRANCH  74  75
BRANCH  74  83
ATOM     83  C   UNL A   1      33.581  25.562  22.588  1.00  0.00     0.017 C 
ATOM     84  C   UNL A   1      32.873  24.331  22.047  1.00  0.00     0.021 C 
ATOM     85  C   UNL A   1      34.158  25.028  23.928  1.00  0.00     0.141 C 
ATOM     86  C   UNL A   1      31.931  23.819  23.124  1.00  0.00     0.137 C 
ATOM     87  S   UNL A   1      32.894  23.947  24.614  1.00  0.00     0.150 S 
ATOM     88  O   UNL A   1      32.123  24.677  25.601  1.00  0.00    -0.229 OA
ATOM     89  O   UNL A   1      33.476  22.653  24.892  1.00  0.00    -0.229 OA
ENDBRANCH  74  83
ENDBRANCH  71  74
ENDBRANCH  69  70
ENDBRANCH   1  69
TORSDOF 17
ENDMDL
MODEL 3
REMARK VINA RESULT:     -10.6      1.420      2.885
REMARK SMILES O=C(NCCCNC(=O)[C@@H](CCc1ccccc1)[C@@H]1CCS(=O)(=O)C1)c1ccc(-c2c3nc(c(-c4ccc(S(=O)(=O)[O-])cc4)c4ccc([nH]4)c(-c4ccc(S(=O)(=O)[O-])cc4)c4nc(c(-c5ccc(S(=O)(=O)[O-])cc5)c5ccc2[nH]5)C=C4)C=C3)cc1
REMARK SMILES IDX 5 1 4 2 3 3 1 4 2 5 26 7 27 8 85 9 28 10 84 11 29 12 30 13
REMARK SMILES IDX 31 14 78 15 32 16 83 17 77 18 79 19 33 20 82 21 76 22 75 23
REMARK SMILES IDX 34 25 64 26 45 27 63 28 46 29 49 30 62 31 80 32 47 33 48 34
REMARK SMILES IDX 61 36 81 37 50 38 35 39 36 40 44 41 37 42 43 43 38 44 39 45
REMARK SMILES IDX 40 46 41 47 42 48 65 49 66 50 74 51 67 52 73 53 68 54 69 55
REMARK SMILES IDX 70 56 71 57 72 58 51 59 52 60 60 61 53 62 59 63 54 64 55 65
REMARK SMILES IDX 56 66 57 67 58 68 6 69 7 70 8 71 9 73 10 74 11 75 12 76
REMARK SMILES IDX 13 77 14 78 18 79 15 80 17 81 16 82 19 83 20 84 25 85 21 86
REMARK SMILES IDX 22 87 23 88 24 89
REMARK H PARENT 3 6 79 24 49 35 7 72
REMARK Flexibility Score: inf
ROOT
ATOM      1  C   UNL A   1      32.263  27.831  27.114  1.00  0.00     0.042 C 
ENDROOT
BRANCH   1   2
ATOM      2  C   UNL A   1      33.655  28.423  27.152  1.00  0.00     0.118 C 
BRANCH   2   3
ATOM      3  N   UNL A   1      33.636  29.833  27.533  1.00  0.00    -0.352 N 
ATOM      4  O   UNL A   1      34.217  31.738  28.558  1.00  0.00    -0.269 OA
ATOM      5  C   UNL A   1      34.566  30.626  28.168  1.00  0.00     0.251 C 
ATOM      6  H   UNL A   1      32.807  30.304  27.290  1.00  0.00     0.163 HD
BRANCH   5   7
ATOM      7  C   UNL A   1      35.955  30.162  28.402  1.00  0.00     0.039 A 
ATOM      8  C   UNL A   1      36.945  30.335  27.438  1.00  0.00     0.014 A 
ATOM      9  C   UNL A   1      36.300  29.596  29.636  1.00  0.00     0.014 A 
ATOM     10  C   UNL A   1      38.203  29.778  27.611  1.00  0.00     0.010 A 
ATOM     11  C   UNL A   1      37.616  29.172  29.873  1.00  0.00     0.010 A 
ATOM     12  C   UNL A   1      38.574  29.244  28.852  1.00  0.00    -0.014 A 
BRANCH  12  13
ATOM     13  C   UNL A   1      40.003  28.910  29.080  1.00  0.00     0.031 A 
ATOM     14  C   UNL A   1      40.582  27.592  28.653  1.00  0.00     0.074 A 
ATOM     15  C   UNL A   1      40.783  29.842  29.672  1.00  0.00     0.049 A 
ATOM     16  N   UNL A   1      41.807  27.156  28.794  1.00  0.00    -0.248 NA
ATOM     17  C   UNL A   1      39.678  26.638  27.993  1.00  0.00     0.031 C 
ATOM     18  C   UNL A   1      40.324  31.159  30.132  1.00  0.00     0.029 A 
ATOM     19  N   UNL A   1      42.120  29.840  29.975  1.00  0.00    -0.354 N 
ATOM     20  C   UNL A   1      41.817  25.868  28.273  1.00  0.00     0.074 A 
ATOM     21  C   UNL A   1      40.472  25.588  27.818  1.00  0.00     0.031 C 
ATOM     22  C   UNL A   1      41.365  31.853  30.607  1.00  0.00     0.029 A 
ATOM     23  C   UNL A   1      42.546  31.000  30.581  1.00  0.00     0.049 A 
ATOM     24  H   UNL A   1      42.718  29.085  29.778  1.00  0.00     0.167 HD
ATOM     25  C   UNL A   1      42.855  25.001  28.191  1.00  0.00     0.031 A 
ATOM     26  C   UNL A   1      43.739  31.334  31.105  1.00  0.00     0.031 A 
ATOM     27  C   UNL A   1      44.190  25.299  28.648  1.00  0.00     0.049 A 
ATOM     28  C   UNL A   1      44.853  30.334  31.041  1.00  0.00     0.074 A 
ATOM     29  C   UNL A   1      45.321  24.507  28.560  1.00  0.00     0.029 A 
ATOM     30  N   UNL A   1      44.569  26.469  29.289  1.00  0.00    -0.354 N 
ATOM     31  N   UNL A   1      44.856  29.144  30.490  1.00  0.00    -0.248 NA
ATOM     32  C   UNL A   1      46.122  30.713  31.674  1.00  0.00     0.031 C 
ATOM     33  C   UNL A   1      46.365  25.165  29.218  1.00  0.00     0.029 A 
ATOM     34  C   UNL A   1      45.905  26.399  29.647  1.00  0.00     0.049 A 
ATOM     35  H   UNL A   1      43.977  27.235  29.465  1.00  0.00     0.167 HD
ATOM     36  C   UNL A   1      46.131  28.636  30.698  1.00  0.00     0.074 A 
ATOM     37  C   UNL A   1      46.880  29.659  31.399  1.00  0.00     0.031 C 
ATOM     38  C   UNL A   1      46.635  27.429  30.346  1.00  0.00     0.031 A 
BRANCH  25  39
ATOM     39  C   UNL A   1      42.594  23.627  27.628  1.00  0.00    -0.014 A 
ATOM     40  C   UNL A   1      42.811  23.332  26.271  1.00  0.00     0.010 A 
ATOM     41  C   UNL A   1      42.205  22.590  28.498  1.00  0.00     0.010 A 
ATOM     42  C   UNL A   1      42.619  22.032  25.790  1.00  0.00     0.020 A 
ATOM     43  C   UNL A   1      42.039  21.285  28.028  1.00  0.00     0.020 A 
ATOM     44  C   UNL A   1      42.235  21.016  26.673  1.00  0.00     0.054 A 
BRANCH  44  45
ATOM     45  S   UNL A   1      42.037  19.332  26.028  1.00  0.00     0.124 S 
ATOM     46  O   UNL A   1      42.900  19.358  24.849  1.00  0.00    -0.237 OA
ATOM     47  O   UNL A   1      42.511  18.508  27.135  1.00  0.00    -0.237 OA
ATOM     48  O   UNL A   1      40.606  19.233  25.747  1.00  0.00    -0.744 OA
ENDBRANCH  44  45
ENDBRANCH  25  39
BRANCH  26  49
ATOM     49  C   UNL A   1      43.910  32.645  31.789  1.00  0.00    -0.014 A 
ATOM     50  C   UNL A   1      44.357  33.776  31.086  1.00  0.00     0.010 A 
ATOM     51  C   UNL A   1      43.611  32.768  33.160  1.00  0.00     0.010 A 
ATOM     52  C   UNL A   1      44.528  34.996  31.747  1.00  0.00     0.020 A 
ATOM     53  C   UNL A   1      43.743  33.993  33.815  1.00  0.00     0.020 A 
ATOM     54  C   UNL A   1      44.220  35.096  33.107  1.00  0.00     0.054 A 
BRANCH  54  55
ATOM     55  S   UNL A   1      44.423  36.697  33.936  1.00  0.00     0.124 S 
ATOM     56  O   UNL A   1      45.008  36.302  35.214  1.00  0.00    -0.237 OA
ATOM     57  O   UNL A   1      45.313  37.411  33.025  1.00  0.00    -0.237 OA
ATOM     58  O   UNL A   1      43.061  37.221  34.005  1.00  0.00    -0.744 OA
ENDBRANCH  54  55
ENDBRANCH  26  49
BRANCH  38  59
ATOM     59  C   UNL A   1      48.073  27.155  30.692  1.00  0.00    -0.014 A 
ATOM     60  C   UNL A   1      48.423  26.524  31.899  1.00  0.00     0.010 A 
ATOM     61  C   UNL A   1      49.081  27.474  29.765  1.00  0.00     0.010 A 
ATOM     62  C   UNL A   1      49.759  26.234  32.180  1.00  0.00     0.020 A 
ATOM     63  C   UNL A   1      50.415  27.156  30.028  1.00  0.00     0.020 A 
ATOM     64  C   UNL A   1      50.746  26.545  31.239  1.00  0.00     0.054 A 
BRANCH  64  65
ATOM     65  S   UNL A   1      52.464  26.091  31.599  1.00  0.00     0.124 S 
ATOM     66  O   UNL A   1      52.319  24.737  32.125  1.00  0.00    -0.237 OA
ATOM     67  O   UNL A   1      53.101  26.194  30.289  1.00  0.00    -0.237 OA
ATOM     68  O   UNL A   1      52.891  27.094  32.573  1.00  0.00    -0.744 OA
ENDBRANCH  64  65
ENDBRANCH  38  59
ENDBRANCH  12  13
ENDBRANCH   5   7
ENDBRANCH   2   3
ENDBRANCH   1   2
BRANCH   1  69
ATOM     69  C   UNL A   1      32.130  26.627  26.190  1.00  0.00     0.117 C 
BRANCH  69  70
ATOM     70  N   UNL A   1      31.557  25.504  26.888  1.00  0.00    -0.356 N 
ATOM     71  C   UNL A   1      31.675  24.178  26.631  1.00  0.00     0.223 C 
ATOM     72  H   UNL A   1      30.997  25.733  27.664  1.00  0.00     0.163 HD
ATOM     73  O   UNL A   1      31.125  23.406  27.423  1.00  0.00    -0.275 OA
BRANCH  71  74
ATOM     74  C   UNL A   1      32.546  23.620  25.485  1.00  0.00     0.083 C 
BRANCH  74  75
ATOM     75  C   UNL A   1      31.818  23.372  24.123  1.00  0.00     0.018 C 
BRANCH  75  76
ATOM     76  C   UNL A   1      30.566  24.040  23.490  1.00  0.00     0.036 C 
BRANCH  76  77
ATOM     77  C   UNL A   1      30.441  25.535  23.339  1.00  0.00    -0.048 A 
ATOM     78  C   UNL A   1      29.302  26.205  23.807  1.00  0.00     0.004 A 
ATOM     79  C   UNL A   1      31.429  26.303  22.701  1.00  0.00     0.004 A 
ATOM     80  C   UNL A   1      29.084  27.550  23.482  1.00  0.00     0.000 A 
ATOM     81  C   UNL A   1      31.205  27.637  22.352  1.00  0.00     0.000 A 
ATOM     82  C   UNL A   1      30.014  28.250  22.714  1.00  0.00     0.000 A 
ENDBRANCH  76  77
ENDBRANCH  75  76
ENDBRANCH  74  75
BRANCH  74  83
ATOM     83  C   UNL A   1      34.018  24.121  25.673  1.00  0.00     0.017 C 
ATOM     84  C   UNL A   1      34.933  24.195  24.461  1.00  0.00     0.021 C 
ATOM     85  C   UNL A   1      34.829  23.196  26.621  1.00  0.00     0.141 C 
ATOM     86  C   UNL A   1      35.261  22.774  24.032  1.00  0.00     0.137 C 
ATOM     87  S   UNL A   1      35.568  21.936  25.571  1.00  0.00     0.150 S 
ATOM     88  O   UNL A   1      34.752  20.738  25.614  1.00  0.00    -0.229 OA
ATOM     89  O   UNL A   1      36.995  21.906  25.796  1.00  0.00    -0.229 OA
ENDBRANCH  74  83
ENDBRANCH  71  74
ENDBRANCH  69  70
ENDBRANCH   1  69
TORSDOF 17
ENDMDL
