MODEL 1
REMARK VINA RESULT:     -11.7      0.000      0.000
REMARK SMILES Cc1ccc2c(c1)C=C(C(=O)NCCCNC(=O)c1ccc(-c3c4nc(c(-c5ccc(S(=O)(=O)[O-])cc5)c5ccc([nH]5)c(-c5ccc(S(=O)(=O)[O-])cc5)c5nc(c(-c6ccc(S(=O)(=O)[O-])cc6)c6ccc3[nH]6)C=C5)C=C4)cc1)[C@@H](C(F)(F)F)O2
REMARK SMILES IDX 15 1 14 2 13 3 12 4 10 5 11 6 9 8 1 9 2 10 3 11 7 12 4 13
REMARK SMILES IDX 6 14 5 15 8 16 84 17 79 18 80 19 81 20 82 21 83 22 16 23
REMARK SMILES IDX 17 24 18 26 19 27 20 28 78 29 21 30 77 31 22 32 23 33 24 34
REMARK SMILES IDX 71 35 25 36 76 37 70 38 72 39 26 40 75 41 69 42 68 43 27 45
REMARK SMILES IDX 57 46 38 47 56 48 39 49 42 50 55 51 73 52 40 53 41 54 54 56
REMARK SMILES IDX 74 57 43 58 28 59 29 60 37 61 30 62 36 63 31 64 32 65 33 66
REMARK SMILES IDX 34 67 35 68 58 69 59 70 67 71 60 72 66 73 61 74 62 75 63 76
REMARK SMILES IDX 64 77 65 78 44 79 45 80 53 81 46 82 52 83 47 84 48 85 49 86
REMARK SMILES IDX 50 87 51 88
REMARK H PARENT 12 7 16 25 72 44 42 55
REMARK Flexibility Score: inf
ROOT
ATOM      1  C   UNL A   1      33.384  28.547  27.277  1.00  0.00     0.118 C 
ENDROOT
BRANCH   1   2
ATOM      2  C   UNL A   1      33.687  28.268  25.810  1.00  0.00     0.042 C 
BRANCH   2   3
ATOM      3  C   UNL A   1      32.458  27.819  25.035  1.00  0.00     0.118 C 
BRANCH   3   4
ATOM      4  N   UNL A   1      31.714  26.785  25.738  1.00  0.00    -0.352 N 
ATOM      5  C   UNL A   1      31.808  25.449  25.926  1.00  0.00     0.251 C 
ATOM      6  O   UNL A   1      30.926  24.960  26.640  1.00  0.00    -0.270 OA
ATOM      7  H   UNL A   1      30.931  27.159  26.202  1.00  0.00     0.163 HD
BRANCH   5   8
ATOM      8  C   UNL A   1      32.868  24.568  25.357  1.00  0.00     0.067 C 
ATOM      9  C   UNL A   1      38.804  23.062  26.193  1.00  0.00     0.044 C 
ATOM     10  C   UNL A   1      37.428  22.958  25.606  1.00  0.00    -0.050 A 
ATOM     11  C   UNL A   1      37.154  22.051  24.575  1.00  0.00     0.007 A 
ATOM     12  C   UNL A   1      36.397  23.778  26.091  1.00  0.00     0.015 A 
ATOM     13  C   UNL A   1      35.871  21.963  24.037  1.00  0.00     0.047 A 
ATOM     14  C   UNL A   1      35.111  23.698  25.545  1.00  0.00     0.017 A 
ATOM     15  C   UNL A   1      34.861  22.793  24.514  1.00  0.00     0.128 A 
ATOM     16  C   UNL A   1      34.019  24.516  26.054  1.00  0.00     0.025 C 
ATOM     17  O   UNL A   1      33.623  22.646  23.954  1.00  0.00    -0.475 OA
ATOM     18  C   UNL A   1      32.735  23.791  24.075  1.00  0.00     0.314 C 
BRANCH  18  19
ATOM     19  C   UNL A   1      32.888  24.684  22.827  1.00  0.00     0.429 C 
ATOM     20  F   UNL A   1      31.729  25.339  22.565  1.00  0.00    -0.167 F 
ATOM     21  F   UNL A   1      33.839  25.638  22.981  1.00  0.00    -0.167 F 
ATOM     22  F   UNL A   1      33.218  23.986  21.717  1.00  0.00    -0.167 F 
ENDBRANCH  18  19
ENDBRANCH   5   8
ENDBRANCH   3   4
ENDBRANCH   2   3
ENDBRANCH   1   2
BRANCH   1  23
ATOM     23  N   UNL A   1      33.421  29.975  27.590  1.00  0.00    -0.352 N 
ATOM     24  C   UNL A   1      34.408  30.735  28.172  1.00  0.00     0.251 C 
ATOM     25  H   UNL A   1      32.608  30.472  27.344  1.00  0.00     0.163 HD
ATOM     26  O   UNL A   1      34.156  31.880  28.538  1.00  0.00    -0.269 OA
BRANCH  24  27
ATOM     27  C   UNL A   1      35.758  30.168  28.377  1.00  0.00     0.039 A 
ATOM     28  C   UNL A   1      36.108  29.618  29.608  1.00  0.00     0.014 A 
ATOM     29  C   UNL A   1      36.688  30.192  27.332  1.00  0.00     0.014 A 
ATOM     30  C   UNL A   1      37.432  29.292  29.860  1.00  0.00     0.010 A 
ATOM     31  C   UNL A   1      37.996  29.751  27.556  1.00  0.00     0.010 A 
ATOM     32  C   UNL A   1      38.395  29.349  28.839  1.00  0.00    -0.014 A 
BRANCH  32  33
ATOM     33  C   UNL A   1      39.797  28.973  29.161  1.00  0.00     0.031 A 
ATOM     34  C   UNL A   1      40.642  29.829  30.067  1.00  0.00     0.074 A 
ATOM     35  C   UNL A   1      40.269  27.791  28.714  1.00  0.00     0.049 A 
ATOM     36  N   UNL A   1      41.844  29.591  30.529  1.00  0.00    -0.248 NA
ATOM     37  C   UNL A   1      40.079  31.115  30.511  1.00  0.00     0.031 C 
ATOM     38  C   UNL A   1      39.531  26.872  27.842  1.00  0.00     0.029 A 
ATOM     39  N   UNL A   1      41.441  27.128  28.976  1.00  0.00    -0.354 N 
ATOM     40  C   UNL A   1      42.184  30.697  31.299  1.00  0.00     0.074 A 
ATOM     41  C   UNL A   1      41.077  31.623  31.221  1.00  0.00     0.031 C 
ATOM     42  C   UNL A   1      40.220  25.728  27.726  1.00  0.00     0.029 A 
ATOM     43  C   UNL A   1      41.483  25.859  28.444  1.00  0.00     0.049 A 
ATOM     44  H   UNL A   1      42.180  27.521  29.494  1.00  0.00     0.167 HD
ATOM     45  C   UNL A   1      43.313  30.913  32.017  1.00  0.00     0.031 A 
ATOM     46  C   UNL A   1      42.426  24.900  28.521  1.00  0.00     0.031 A 
ATOM     47  C   UNL A   1      44.402  29.975  32.106  1.00  0.00     0.049 A 
ATOM     48  C   UNL A   1      43.676  25.173  29.305  1.00  0.00     0.074 A 
ATOM     49  C   UNL A   1      45.585  30.103  32.813  1.00  0.00     0.029 A 
ATOM     50  N   UNL A   1      44.442  28.738  31.481  1.00  0.00    -0.354 N 
ATOM     51  N   UNL A   1      43.982  26.232  30.014  1.00  0.00    -0.248 NA
ATOM     52  C   UNL A   1      44.711  24.131  29.292  1.00  0.00     0.031 C 
ATOM     53  C   UNL A   1      46.363  28.968  32.571  1.00  0.00     0.029 A 
ATOM     54  C   UNL A   1      45.638  28.102  31.769  1.00  0.00     0.049 A 
ATOM     55  H   UNL A   1      43.725  28.366  30.918  1.00  0.00     0.167 HD
ATOM     56  C   UNL A   1      45.248  25.989  30.529  1.00  0.00     0.074 A 
ATOM     57  C   UNL A   1      45.637  24.668  30.078  1.00  0.00     0.031 C 
ATOM     58  C   UNL A   1      46.021  26.794  31.298  1.00  0.00     0.031 A 
BRANCH  45  59
ATOM     59  C   UNL A   1      43.445  32.211  32.770  1.00  0.00    -0.014 A 
ATOM     60  C   UNL A   1      42.891  32.331  34.059  1.00  0.00     0.010 A 
ATOM     61  C   UNL A   1      44.012  33.347  32.163  1.00  0.00     0.010 A 
ATOM     62  C   UNL A   1      42.877  33.564  34.715  1.00  0.00     0.020 A 
ATOM     63  C   UNL A   1      44.022  34.577  32.828  1.00  0.00     0.020 A 
ATOM     64  C   UNL A   1      43.434  34.683  34.090  1.00  0.00     0.054 A 
BRANCH  64  65
ATOM     65  S   UNL A   1      43.389  36.281  34.949  1.00  0.00     0.124 S 
ATOM     66  O   UNL A   1      44.800  36.519  35.232  1.00  0.00    -0.237 OA
ATOM     67  O   UNL A   1      42.786  37.164  33.953  1.00  0.00    -0.237 OA
ATOM     68  O   UNL A   1      42.551  36.015  36.118  1.00  0.00    -0.744 OA
ENDBRANCH  64  65
ENDBRANCH  45  59
BRANCH  46  69
ATOM     69  C   UNL A   1      42.188  23.596  27.845  1.00  0.00    -0.014 A 
ATOM     70  C   UNL A   1      41.593  22.531  28.548  1.00  0.00     0.010 A 
ATOM     71  C   UNL A   1      42.648  23.376  26.535  1.00  0.00     0.010 A 
ATOM     72  C   UNL A   1      41.527  21.255  27.983  1.00  0.00     0.020 A 
ATOM     73  C   UNL A   1      42.554  22.108  25.953  1.00  0.00     0.020 A 
ATOM     74  C   UNL A   1      42.025  21.048  26.695  1.00  0.00     0.054 A 
BRANCH  74  75
ATOM     75  S   UNL A   1      41.991  19.370  26.006  1.00  0.00     0.124 S 
ATOM     76  O   UNL A   1      40.568  19.194  25.724  1.00  0.00    -0.237 OA
ATOM     77  O   UNL A   1      42.854  19.485  24.834  1.00  0.00    -0.237 OA
ATOM     78  O   UNL A   1      42.521  18.547  27.088  1.00  0.00    -0.744 OA
ENDBRANCH  74  75
ENDBRANCH  46  69
BRANCH  58  79
ATOM     79  C   UNL A   1      47.382  26.290  31.696  1.00  0.00    -0.014 A 
ATOM     80  C   UNL A   1      48.463  26.413  30.805  1.00  0.00     0.010 A 
ATOM     81  C   UNL A   1      47.562  25.594  32.904  1.00  0.00     0.010 A 
ATOM     82  C   UNL A   1      49.694  25.824  31.099  1.00  0.00     0.020 A 
ATOM     83  C   UNL A   1      48.801  25.026  33.215  1.00  0.00     0.020 A 
ATOM     84  C   UNL A   1      49.852  25.126  32.300  1.00  0.00     0.054 A 
BRANCH  84  85
ATOM     85  S   UNL A   1      51.451  24.351  32.660  1.00  0.00     0.124 S 
ATOM     86  O   UNL A   1      52.372  25.168  31.875  1.00  0.00    -0.237 OA
ATOM     87  O   UNL A   1      51.562  24.495  34.109  1.00  0.00    -0.237 OA
ATOM     88  O   UNL A   1      51.278  22.977  32.191  1.00  0.00    -0.744 OA
ENDBRANCH  84  85
ENDBRANCH  58  79
ENDBRANCH  32  33
ENDBRANCH  24  27
ENDBRANCH   1  23
TORSDOF 14
ENDMDL
MODEL 2
REMARK VINA RESULT:     -11.6      1.313      8.369
REMARK SMILES Cc1ccc2c(c1)C=C(C(=O)NCCCNC(=O)c1ccc(-c3c4nc(c(-c5ccc(S(=O)(=O)[O-])cc5)c5ccc([nH]5)c(-c5ccc(S(=O)(=O)[O-])cc5)c5nc(c(-c6ccc(S(=O)(=O)[O-])cc6)c6ccc3[nH]6)C=C5)C=C4)cc1)[C@@H](C(F)(F)F)O2
REMARK SMILES IDX 15 1 14 2 13 3 12 4 10 5 11 6 9 8 1 9 2 10 3 11 7 12 4 13
REMARK SMILES IDX 6 14 5 15 8 16 84 17 79 18 80 19 81 20 82 21 83 22 16 23
REMARK SMILES IDX 17 24 18 26 19 27 20 28 78 29 21 30 77 31 22 32 23 33 24 34
REMARK SMILES IDX 71 35 25 36 76 37 70 38 72 39 26 40 75 41 69 42 68 43 27 45
REMARK SMILES IDX 57 46 38 47 56 48 39 49 42 50 55 51 73 52 40 53 41 54 54 56
REMARK SMILES IDX 74 57 43 58 28 59 29 60 37 61 30 62 36 63 31 64 32 65 33 66
REMARK SMILES IDX 34 67 35 68 58 69 59 70 67 71 60 72 66 73 61 74 62 75 63 76
REMARK SMILES IDX 64 77 65 78 44 79 45 80 53 81 46 82 52 83 47 84 48 85 49 86
REMARK SMILES IDX 50 87 51 88
REMARK H PARENT 12 7 16 25 72 44 42 55
REMARK Flexibility Score: inf
ROOT
ATOM      1  C   UNL A   1      33.542  28.618  27.285  1.00  0.00     0.118 C 
ENDROOT
BRANCH   1   2
ATOM      2  C   UNL A   1      33.512  28.457  25.770  1.00  0.00     0.042 C 
BRANCH   2   3
ATOM      3  C   UNL A   1      32.097  28.358  25.222  1.00  0.00     0.118 C 
BRANCH   3   4
ATOM      4  N   UNL A   1      31.376  27.217  25.767  1.00  0.00    -0.352 N 
ATOM      5  C   UNL A   1      31.508  25.871  25.774  1.00  0.00     0.251 C 
ATOM      6  O   UNL A   1      30.634  25.265  26.402  1.00  0.00    -0.270 OA
ATOM      7  H   UNL A   1      30.577  27.502  26.265  1.00  0.00     0.163 HD
BRANCH   5   8
ATOM      8  C   UNL A   1      32.601  25.105  25.107  1.00  0.00     0.067 C 
ATOM      9  C   UNL A   1      38.432  23.283  26.040  1.00  0.00     0.044 C 
ATOM     10  C   UNL A   1      37.107  23.349  25.342  1.00  0.00    -0.050 A 
ATOM     11  C   UNL A   1      36.906  22.698  24.119  1.00  0.00     0.007 A 
ATOM     12  C   UNL A   1      36.050  24.072  25.915  1.00  0.00     0.015 A 
ATOM     13  C   UNL A   1      35.670  22.766  23.478  1.00  0.00     0.047 A 
ATOM     14  C   UNL A   1      34.811  24.151  25.270  1.00  0.00     0.017 A 
ATOM     15  C   UNL A   1      34.635  23.501  24.048  1.00  0.00     0.128 A 
ATOM     16  C   UNL A   1      33.691  24.870  25.861  1.00  0.00     0.025 C 
ATOM     17  O   UNL A   1      33.445  23.516  23.377  1.00  0.00    -0.475 OA
ATOM     18  C   UNL A   1      32.562  24.633  23.679  1.00  0.00     0.314 C 
BRANCH  18  19
ATOM     19  C   UNL A   1      32.826  25.771  22.674  1.00  0.00     0.429 C 
ATOM     20  F   UNL A   1      31.719  26.541  22.526  1.00  0.00    -0.167 F 
ATOM     21  F   UNL A   1      33.818  26.604  23.076  1.00  0.00    -0.167 F 
ATOM     22  F   UNL A   1      33.173  25.323  21.447  1.00  0.00    -0.167 F 
ENDBRANCH  18  19
ENDBRANCH   5   8
ENDBRANCH   3   4
ENDBRANCH   2   3
ENDBRANCH   1   2
BRANCH   1  23
ATOM     23  N   UNL A   1      33.564  30.022  27.694  1.00  0.00    -0.352 N 
ATOM     24  C   UNL A   1      34.542  30.751  28.328  1.00  0.00     0.251 C 
ATOM     25  H   UNL A   1      32.746  30.527  27.480  1.00  0.00     0.163 HD
ATOM     26  O   UNL A   1      34.277  31.867  28.770  1.00  0.00    -0.269 OA
BRANCH  24  27
ATOM     27  C   UNL A   1      35.897  30.186  28.497  1.00  0.00     0.039 A 
ATOM     28  C   UNL A   1      36.286  29.652  29.724  1.00  0.00     0.014 A 
ATOM     29  C   UNL A   1      36.793  30.195  27.423  1.00  0.00     0.014 A 
ATOM     30  C   UNL A   1      37.617  29.328  29.938  1.00  0.00     0.010 A 
ATOM     31  C   UNL A   1      38.107  29.755  27.611  1.00  0.00     0.010 A 
ATOM     32  C   UNL A   1      38.546  29.370  28.886  1.00  0.00    -0.014 A 
BRANCH  32  33
ATOM     33  C   UNL A   1      39.959  28.997  29.168  1.00  0.00     0.031 A 
ATOM     34  C   UNL A   1      40.506  27.657  28.753  1.00  0.00     0.074 A 
ATOM     35  C   UNL A   1      40.777  29.924  29.707  1.00  0.00     0.049 A 
ATOM     36  N   UNL A   1      41.736  27.217  28.831  1.00  0.00    -0.248 NA
ATOM     37  C   UNL A   1      39.562  26.682  28.182  1.00  0.00     0.031 C 
ATOM     38  C   UNL A   1      40.358  31.263  30.134  1.00  0.00     0.029 A 
ATOM     39  N   UNL A   1      42.130  29.915  29.931  1.00  0.00    -0.354 N 
ATOM     40  C   UNL A   1      41.711  25.918  28.339  1.00  0.00     0.074 A 
ATOM     41  C   UNL A   1      40.339  25.624  27.991  1.00  0.00     0.031 C 
ATOM     42  C   UNL A   1      41.441  31.976  30.468  1.00  0.00     0.029 A 
ATOM     43  C   UNL A   1      42.622  31.126  30.362  1.00  0.00     0.049 A 
ATOM     44  H   UNL A   1      42.695  29.119  29.797  1.00  0.00     0.167 HD
ATOM     45  C   UNL A   1      42.742  25.053  28.179  1.00  0.00     0.031 A 
ATOM     46  C   UNL A   1      43.881  31.520  30.639  1.00  0.00     0.031 A 
ATOM     47  C   UNL A   1      44.109  25.362  28.509  1.00  0.00     0.049 A 
ATOM     48  C   UNL A   1      45.002  30.536  30.474  1.00  0.00     0.074 A 
ATOM     49  C   UNL A   1      45.224  24.552  28.378  1.00  0.00     0.029 A 
ATOM     50  N   UNL A   1      44.552  26.570  29.023  1.00  0.00    -0.354 N 
ATOM     51  N   UNL A   1      44.951  29.307  30.020  1.00  0.00    -0.248 NA
ATOM     52  C   UNL A   1      46.344  30.984  30.868  1.00  0.00     0.031 C 
ATOM     53  C   UNL A   1      46.331  25.251  28.864  1.00  0.00     0.029 A 
ATOM     54  C   UNL A   1      45.920  26.520  29.236  1.00  0.00     0.049 A 
ATOM     55  H   UNL A   1      43.979  27.350  29.209  1.00  0.00     0.167 HD
ATOM     56  C   UNL A   1      46.254  28.830  30.077  1.00  0.00     0.074 A 
ATOM     57  C   UNL A   1      47.075  29.914  30.578  1.00  0.00     0.031 C 
ATOM     58  C   UNL A   1      46.722  27.601  29.752  1.00  0.00     0.031 A 
BRANCH  45  59
ATOM     59  C   UNL A   1      42.448  23.684  27.624  1.00  0.00    -0.014 A 
ATOM     60  C   UNL A   1      42.155  22.623  28.503  1.00  0.00     0.010 A 
ATOM     61  C   UNL A   1      42.573  23.415  26.249  1.00  0.00     0.010 A 
ATOM     62  C   UNL A   1      42.019  21.318  28.023  1.00  0.00     0.020 A 
ATOM     63  C   UNL A   1      42.413  22.114  25.761  1.00  0.00     0.020 A 
ATOM     64  C   UNL A   1      42.161  21.070  26.655  1.00  0.00     0.054 A 
BRANCH  64  65
ATOM     65  S   UNL A   1      42.002  19.367  26.050  1.00  0.00     0.124 S 
ATOM     66  O   UNL A   1      42.510  18.591  27.177  1.00  0.00    -0.237 OA
ATOM     67  O   UNL A   1      40.568  19.249  25.796  1.00  0.00    -0.237 OA
ATOM     68  O   UNL A   1      42.839  19.352  24.852  1.00  0.00    -0.744 OA
ENDBRANCH  64  65
ENDBRANCH  45  59
BRANCH  46  69
ATOM     69  C   UNL A   1      44.120  32.921  31.079  1.00  0.00    -0.014 A 
ATOM     70  C   UNL A   1      43.962  33.276  32.432  1.00  0.00     0.010 A 
ATOM     71  C   UNL A   1      44.400  33.927  30.138  1.00  0.00     0.010 A 
ATOM     72  C   UNL A   1      44.008  34.615  32.826  1.00  0.00     0.020 A 
ATOM     73  C   UNL A   1      44.480  35.266  30.534  1.00  0.00     0.020 A 
ATOM     74  C   UNL A   1      44.249  35.604  31.870  1.00  0.00     0.054 A 
BRANCH  74  75
ATOM     75  S   UNL A   1      44.239  37.342  32.391  1.00  0.00     0.124 S 
ATOM     76  O   UNL A   1      45.632  37.543  32.783  1.00  0.00    -0.237 OA
ATOM     77  O   UNL A   1      43.821  38.039  31.178  1.00  0.00    -0.237 OA
ATOM     78  O   UNL A   1      43.272  37.364  33.484  1.00  0.00    -0.744 OA
ENDBRANCH  74  75
ENDBRANCH  46  69
BRANCH  58  79
ATOM     79  C   UNL A   1      48.192  27.337  29.942  1.00  0.00    -0.014 A 
ATOM     80  C   UNL A   1      48.659  26.813  31.160  1.00  0.00     0.010 A 
ATOM     81  C   UNL A   1      49.120  27.715  28.955  1.00  0.00     0.010 A 
ATOM     82  C   UNL A   1      50.029  26.698  31.403  1.00  0.00     0.020 A 
ATOM     83  C   UNL A   1      50.492  27.575  29.184  1.00  0.00     0.020 A 
ATOM     84  C   UNL A   1      50.938  27.089  30.415  1.00  0.00     0.054 A 
BRANCH  84  85
ATOM     85  S   UNL A   1      52.714  26.950  30.753  1.00  0.00     0.124 S 
ATOM     86  O   UNL A   1      53.213  26.337  29.526  1.00  0.00    -0.237 OA
ATOM     87  O   UNL A   1      53.112  28.339  30.969  1.00  0.00    -0.237 OA
ATOM     88  O   UNL A   1      52.770  26.103  31.943  1.00  0.00    -0.744 OA
ENDBRANCH  84  85
ENDBRANCH  58  79
ENDBRANCH  32  33
ENDBRANCH  24  27
ENDBRANCH   1  23
TORSDOF 14
ENDMDL
MODEL 3
REMARK VINA RESULT:     -11.3      2.821      9.451
REMARK SMILES Cc1ccc2c(c1)C=C(C(=O)NCCCNC(=O)c1ccc(-c3c4nc(c(-c5ccc(S(=O)(=O)[O-])cc5)c5ccc([nH]5)c(-c5ccc(S(=O)(=O)[O-])cc5)c5nc(c(-c6ccc(S(=O)(=O)[O-])cc6)c6ccc3[nH]6)C=C5)C=C4)cc1)[C@@H](C(F)(F)F)O2
REMARK SMILES IDX 15 1 14 2 13 3 12 4 10 5 11 6 9 8 1 9 2 10 3 11 7 12 4 13
REMARK SMILES IDX 6 14 5 15 8 16 84 17 79 18 80 19 81 20 82 21 83 22 16 23
REMARK SMILES IDX 17 24 18 26 19 27 20 28 78 29 21 30 77 31 22 32 23 33 24 34
REMARK SMILES IDX 71 35 25 36 76 37 70 38 72 39 26 40 75 41 69 42 68 43 27 45
REMARK SMILES IDX 57 46 38 47 56 48 39 49 42 50 55 51 73 52 40 53 41 54 54 56
REMARK SMILES IDX 74 57 43 58 28 59 29 60 37 61 30 62 36 63 31 64 32 65 33 66
REMARK SMILES IDX 34 67 35 68 58 69 59 70 67 71 60 72 66 73 61 74 62 75 63 76
REMARK SMILES IDX 64 77 65 78 44 79 45 80 53 81 46 82 52 83 47 84 48 85 49 86
REMARK SMILES IDX 50 87 51 88
REMARK H PARENT 12 7 16 25 72 44 42 55
REMARK Flexibility Score: inf
ROOT
ATOM      1  C   UNL A   1      37.029  23.454  25.381  1.00  0.00     0.118 C 
ENDROOT
BRANCH   1   2
ATOM      2  C   UNL A   1      36.548  23.330  23.941  1.00  0.00     0.042 C 
BRANCH   2   3
ATOM      3  C   UNL A   1      35.159  22.718  23.840  1.00  0.00     0.118 C 
BRANCH   3   4
ATOM      4  N   UNL A   1      34.358  23.347  22.802  1.00  0.00    -0.352 N 
ATOM      5  C   UNL A   1      33.438  24.336  22.720  1.00  0.00     0.251 C 
ATOM      6  O   UNL A   1      33.009  24.556  21.583  1.00  0.00    -0.270 OA
ATOM      7  H   UNL A   1      34.531  22.945  21.921  1.00  0.00     0.163 HD
BRANCH   5   8
ATOM      8  C   UNL A   1      32.936  25.147  23.867  1.00  0.00     0.067 C 
ATOM      9  C   UNL A   1      34.545  29.959  27.396  1.00  0.00     0.044 C 
ATOM     10  C   UNL A   1      33.644  28.886  26.860  1.00  0.00    -0.050 A 
ATOM     11  C   UNL A   1      32.374  28.674  27.410  1.00  0.00     0.007 A 
ATOM     12  C   UNL A   1      34.074  28.080  25.795  1.00  0.00     0.015 A 
ATOM     13  C   UNL A   1      31.545  27.674  26.904  1.00  0.00     0.047 A 
ATOM     14  C   UNL A   1      33.248  27.069  25.292  1.00  0.00     0.017 A 
ATOM     15  C   UNL A   1      31.989  26.870  25.859  1.00  0.00     0.128 A 
ATOM     16  C   UNL A   1      33.660  26.241  24.167  1.00  0.00     0.025 C 
ATOM     17  O   UNL A   1      31.123  25.917  25.400  1.00  0.00    -0.475 OA
ATOM     18  C   UNL A   1      31.729  24.799  24.695  1.00  0.00     0.314 C 
BRANCH  18  19
ATOM     19  C   UNL A   1      32.011  23.662  25.698  1.00  0.00     0.429 C 
ATOM     20  F   UNL A   1      31.115  23.694  26.717  1.00  0.00    -0.167 F 
ATOM     21  F   UNL A   1      31.906  22.433  25.136  1.00  0.00    -0.167 F 
ATOM     22  F   UNL A   1      33.246  23.733  26.243  1.00  0.00    -0.167 F 
ENDBRANCH  18  19
ENDBRANCH   5   8
ENDBRANCH   3   4
ENDBRANCH   2   3
ENDBRANCH   1   2
BRANCH   1  23
ATOM     23  N   UNL A   1      38.181  22.596  25.658  1.00  0.00    -0.352 N 
ATOM     24  C   UNL A   1      39.396  22.892  26.231  1.00  0.00     0.251 C 
ATOM     25  H   UNL A   1      38.068  21.655  25.392  1.00  0.00     0.163 HD
ATOM     26  O   UNL A   1      40.307  22.069  26.181  1.00  0.00    -0.269 OA
BRANCH  24  27
ATOM     27  C   UNL A   1      39.610  24.201  26.883  1.00  0.00     0.039 A 
ATOM     28  C   UNL A   1      40.268  25.223  26.203  1.00  0.00     0.014 A 
ATOM     29  C   UNL A   1      39.157  24.409  28.189  1.00  0.00     0.014 A 
ATOM     30  C   UNL A   1      40.659  26.362  26.891  1.00  0.00     0.010 A 
ATOM     31  C   UNL A   1      39.450  25.610  28.843  1.00  0.00     0.010 A 
ATOM     32  C   UNL A   1      40.252  26.576  28.218  1.00  0.00    -0.014 A 
BRANCH  32  33
ATOM     33  C   UNL A   1      40.686  27.823  28.904  1.00  0.00     0.031 A 
ATOM     34  C   UNL A   1      42.132  28.052  29.257  1.00  0.00     0.074 A 
ATOM     35  C   UNL A   1      39.777  28.798  29.108  1.00  0.00     0.049 A 
ATOM     36  N   UNL A   1      42.689  29.124  29.760  1.00  0.00    -0.248 NA
ATOM     37  C   UNL A   1      43.075  26.947  29.023  1.00  0.00     0.031 C 
ATOM     38  C   UNL A   1      38.349  28.691  28.790  1.00  0.00     0.029 A 
ATOM     39  N   UNL A   1      39.917  30.084  29.565  1.00  0.00    -0.354 N 
ATOM     40  C   UNL A   1      44.035  28.818  29.917  1.00  0.00     0.074 A 
ATOM     41  C   UNL A   1      44.211  27.450  29.486  1.00  0.00     0.031 C 
ATOM     42  C   UNL A   1      37.769  29.886  28.963  1.00  0.00     0.029 A 
ATOM     43  C   UNL A   1      38.760  30.824  29.483  1.00  0.00     0.049 A 
ATOM     44  H   UNL A   1      40.764  30.442  29.918  1.00  0.00     0.167 HD
ATOM     45  C   UNL A   1      45.037  29.612  30.368  1.00  0.00     0.031 A 
ATOM     46  C   UNL A   1      38.512  32.114  29.786  1.00  0.00     0.031 A 
ATOM     47  C   UNL A   1      44.856  30.981  30.777  1.00  0.00     0.049 A 
ATOM     48  C   UNL A   1      39.633  32.965  30.304  1.00  0.00     0.074 A 
ATOM     49  C   UNL A   1      45.812  31.867  31.244  1.00  0.00     0.029 A 
ATOM     50  N   UNL A   1      43.651  31.666  30.759  1.00  0.00    -0.354 N 
ATOM     51  N   UNL A   1      40.897  32.649  30.459  1.00  0.00    -0.248 NA
ATOM     52  C   UNL A   1      39.298  34.339  30.700  1.00  0.00     0.031 C 
ATOM     53  C   UNL A   1      45.175  33.069  31.561  1.00  0.00     0.029 A 
ATOM     54  C   UNL A   1      43.835  32.956  31.229  1.00  0.00     0.049 A 
ATOM     55  H   UNL A   1      42.792  31.292  30.457  1.00  0.00     0.167 HD
ATOM     56  C   UNL A   1      41.509  33.783  30.974  1.00  0.00     0.074 A 
ATOM     57  C   UNL A   1      40.485  34.803  31.074  1.00  0.00     0.031 C 
ATOM     58  C   UNL A   1      42.802  33.957  31.340  1.00  0.00     0.031 A 
BRANCH  45  59
ATOM     59  C   UNL A   1      46.425  29.034  30.453  1.00  0.00    -0.014 A 
ATOM     60  C   UNL A   1      47.307  29.171  29.364  1.00  0.00     0.010 A 
ATOM     61  C   UNL A   1      46.822  28.258  31.557  1.00  0.00     0.010 A 
ATOM     62  C   UNL A   1      48.544  28.523  29.364  1.00  0.00     0.020 A 
ATOM     63  C   UNL A   1      48.071  27.629  31.572  1.00  0.00     0.020 A 
ATOM     64  C   UNL A   1      48.914  27.747  30.465  1.00  0.00     0.054 A 
BRANCH  64  65
ATOM     65  S   UNL A   1      50.517  26.896  30.440  1.00  0.00     0.124 S 
ATOM     66  O   UNL A   1      50.442  26.134  29.197  1.00  0.00    -0.237 OA
ATOM     67  O   UNL A   1      51.469  28.004  30.446  1.00  0.00    -0.237 OA
ATOM     68  O   UNL A   1      50.497  26.098  31.665  1.00  0.00    -0.744 OA
ENDBRANCH  64  65
ENDBRANCH  45  59
BRANCH  46  69
ATOM     69  C   UNL A   1      37.142  32.655  29.577  1.00  0.00    -0.014 A 
ATOM     70  C   UNL A   1      36.753  33.131  28.310  1.00  0.00     0.010 A 
ATOM     71  C   UNL A   1      36.258  32.797  30.660  1.00  0.00     0.010 A 
ATOM     72  C   UNL A   1      35.540  33.802  28.144  1.00  0.00     0.020 A 
ATOM     73  C   UNL A   1      35.026  33.439  30.491  1.00  0.00     0.020 A 
ATOM     74  C   UNL A   1      34.692  33.967  29.241  1.00  0.00     0.054 A 
BRANCH  74  75
ATOM     75  S   UNL A   1      33.150  34.899  29.020  1.00  0.00     0.124 S 
ATOM     76  O   UNL A   1      32.602  34.893  30.374  1.00  0.00    -0.237 OA
ATOM     77  O   UNL A   1      33.623  36.194  28.539  1.00  0.00    -0.237 OA
ATOM     78  O   UNL A   1      32.412  34.106  28.041  1.00  0.00    -0.744 OA
ENDBRANCH  74  75
ENDBRANCH  46  69
BRANCH  58  79
ATOM     79  C   UNL A   1      43.198  35.294  31.906  1.00  0.00    -0.014 A 
ATOM     80  C   UNL A   1      42.921  35.596  33.251  1.00  0.00     0.010 A 
ATOM     81  C   UNL A   1      43.740  36.291  31.075  1.00  0.00     0.010 A 
ATOM     82  C   UNL A   1      43.151  36.880  33.751  1.00  0.00     0.020 A 
ATOM     83  C   UNL A   1      43.997  37.569  31.578  1.00  0.00     0.020 A 
ATOM     84  C   UNL A   1      43.679  37.861  32.908  1.00  0.00     0.054 A 
BRANCH  84  85
ATOM     85  S   UNL A   1      43.955  39.528  33.566  1.00  0.00     0.124 S 
ATOM     86  O   UNL A   1      44.860  40.104  32.577  1.00  0.00    -0.237 OA
ATOM     87  O   UNL A   1      42.608  40.092  33.592  1.00  0.00    -0.237 OA
ATOM     88  O   UNL A   1      44.542  39.282  34.882  1.00  0.00    -0.744 OA
ENDBRANCH  84  85
ENDBRANCH  58  79
ENDBRANCH  32  33
ENDBRANCH  24  27
ENDBRANCH   1  23
TORSDOF 14
ENDMDL
