MODEL 1
REMARK VINA RESULT:     -10.4      0.000      0.000
REMARK SMILES Cc1cnc(N2CCO[C@H](CC(=O)NCCCNC(=O)c3ccc(-c4c5nc(c(-c6ccc(S(=O)(=O)[O-])cc6)c6ccc([nH]6)c(-c6ccc(S(=O)(=O)[O-])cc6)c6nc(c(-c7ccc(S(=O)(=O)[O-])cc7)c7ccc4[nH]7)C=C6)C=C5)cc3)C2)c([N+](=O)[O-])c1
REMARK SMILES IDX 16 1 15 2 14 3 12 4 13 5 11 7 10 8 6 9 7 10 81 11 8 12 9 13
REMARK SMILES IDX 5 14 1 15 2 16 3 17 86 18 4 19 82 20 83 21 84 22 85 23 17 24
REMARK SMILES IDX 18 25 19 26 20 28 21 29 22 30 80 31 23 32 79 33 24 34 25 35
REMARK SMILES IDX 26 36 73 37 27 38 78 39 72 40 74 41 28 42 77 43 71 44 70 45
REMARK SMILES IDX 29 47 59 48 40 49 58 50 41 51 44 52 57 53 75 54 42 55 43 56
REMARK SMILES IDX 56 58 76 59 45 60 30 61 31 62 39 63 32 64 38 65 33 66 34 67
REMARK SMILES IDX 35 68 36 69 37 70 60 71 61 72 69 73 62 74 68 75 63 76 64 77
REMARK SMILES IDX 65 78 66 79 67 80 46 81 47 82 55 83 48 84 54 85 49 86 50 87
REMARK SMILES IDX 51 88 52 89 53 90
REMARK H PARENT 14 6 18 27 74 46 44 57
REMARK Flexibility Score: inf
ROOT
ATOM      1  C   UNL A   1      41.314  20.542  26.050  1.00  0.00     0.042 C 
ENDROOT
BRANCH   1   2
ATOM      2  C   UNL A   1      42.697  20.452  26.681  1.00  0.00     0.117 C 
BRANCH   2   3
ATOM      3  N   UNL A   1      43.553  19.545  25.942  1.00  0.00    -0.356 N 
ATOM      4  C   UNL A   1      44.659  19.839  25.209  1.00  0.00     0.222 C 
ATOM      5  O   UNL A   1      45.173  18.960  24.517  1.00  0.00    -0.275 OA
ATOM      6  H   UNL A   1      43.301  18.594  25.975  1.00  0.00     0.163 HD
BRANCH   4   7
ATOM      7  C   UNL A   1      45.257  21.217  25.289  1.00  0.00     0.133 C 
BRANCH   7   8
ATOM      8  C   UNL A   1      44.960  22.061  24.038  1.00  0.00     0.147 C 
ATOM      9  N   UNL A   1      45.802  24.046  25.099  1.00  0.00    -0.346 N 
ATOM     10  C   UNL A   1      44.507  24.727  25.082  1.00  0.00     0.147 C 
ATOM     11  C   UNL A   1      46.006  23.191  23.928  1.00  0.00     0.151 C 
ATOM     12  C   UNL A   1      43.400  23.656  25.024  1.00  0.00     0.182 C 
ATOM     13  O   UNL A   1      43.625  22.629  24.033  1.00  0.00    -0.374 OA
BRANCH   9  14
ATOM     14  C   UNL A   1      46.891  24.526  25.772  1.00  0.00     0.208 A 
ATOM     15  C   UNL A   1      49.894  26.193  28.342  1.00  0.00     0.046 C 
ATOM     16  C   UNL A   1      48.878  25.620  27.408  1.00  0.00    -0.026 A 
ATOM     17  C   UNL A   1      48.022  24.608  27.816  1.00  0.00     0.117 A 
ATOM     18  C   UNL A   1      48.728  26.088  26.108  1.00  0.00     0.094 A 
ATOM     19  N   UNL A   1      47.052  24.071  27.039  1.00  0.00    -0.233 NA
ATOM     20  C   UNL A   1      47.728  25.536  25.291  1.00  0.00     0.311 A 
BRANCH  20  21
ATOM     21  N   UNL A   1      47.504  26.173  24.006  1.00  0.00     0.066 N 
ATOM     22  O   UNL A   1      48.156  25.788  23.028  1.00  0.00    -0.258 OA
ATOM     23  O   UNL A   1      46.716  27.131  23.985  1.00  0.00    -0.258 OA
ENDBRANCH  20  21
ENDBRANCH   9  14
ENDBRANCH   7   8
ENDBRANCH   4   7
ENDBRANCH   2   3
ENDBRANCH   1   2
BRANCH   1  24
ATOM     24  C   UNL A   1      40.399  21.534  26.757  1.00  0.00     0.118 C 
BRANCH  24  25
ATOM     25  N   UNL A   1      39.328  22.012  25.892  1.00  0.00    -0.352 N 
ATOM     26  C   UNL A   1      38.680  23.222  25.887  1.00  0.00     0.251 C 
ATOM     27  H   UNL A   1      39.023  21.371  25.210  1.00  0.00     0.163 HD
ATOM     28  O   UNL A   1      37.665  23.364  25.213  1.00  0.00    -0.269 OA
BRANCH  26  29
ATOM     29  C   UNL A   1      39.197  24.340  26.702  1.00  0.00     0.039 A 
ATOM     30  C   UNL A   1      40.047  25.273  26.106  1.00  0.00     0.014 A 
ATOM     31  C   UNL A   1      38.856  24.460  28.053  1.00  0.00     0.014 A 
ATOM     32  C   UNL A   1      40.510  26.359  26.851  1.00  0.00     0.010 A 
ATOM     33  C   UNL A   1      39.252  25.584  28.768  1.00  0.00     0.010 A 
ATOM     34  C   UNL A   1      40.090  26.541  28.178  1.00  0.00    -0.014 A 
BRANCH  34  35
ATOM     35  C   UNL A   1      40.514  27.724  28.966  1.00  0.00     0.031 A 
ATOM     36  C   UNL A   1      41.844  27.728  29.668  1.00  0.00     0.074 A 
ATOM     37  C   UNL A   1      39.672  28.768  29.104  1.00  0.00     0.049 A 
ATOM     38  N   UNL A   1      42.363  28.645  30.445  1.00  0.00    -0.248 NA
ATOM     39  C   UNL A   1      42.689  26.537  29.496  1.00  0.00     0.031 C 
ATOM     40  C   UNL A   1      38.341  28.867  28.500  1.00  0.00     0.029 A 
ATOM     41  N   UNL A   1      39.810  29.943  29.797  1.00  0.00    -0.354 N 
ATOM     42  C   UNL A   1      43.585  28.134  30.867  1.00  0.00     0.074 A 
ATOM     43  C   UNL A   1      43.704  26.806  30.304  1.00  0.00     0.031 C 
ATOM     44  C   UNL A   1      37.801  30.053  28.823  1.00  0.00     0.029 A 
ATOM     45  C   UNL A   1      38.722  30.776  29.693  1.00  0.00     0.049 A 
ATOM     46  H   UNL A   1      40.612  30.168  30.322  1.00  0.00     0.167 HD
ATOM     47  C   UNL A   1      44.532  28.722  31.637  1.00  0.00     0.031 A 
ATOM     48  C   UNL A   1      38.488  31.985  30.238  1.00  0.00     0.031 A 
ATOM     49  C   UNL A   1      44.406  30.042  32.197  1.00  0.00     0.049 A 
ATOM     50  C   UNL A   1      39.541  32.611  31.110  1.00  0.00     0.074 A 
ATOM     51  C   UNL A   1      45.327  30.750  32.949  1.00  0.00     0.029 A 
ATOM     52  N   UNL A   1      43.286  30.852  32.071  1.00  0.00    -0.354 N 
ATOM     53  N   UNL A   1      40.719  32.140  31.447  1.00  0.00    -0.248 NA
ATOM     54  C   UNL A   1      39.238  33.936  31.668  1.00  0.00     0.031 C 
ATOM     55  C   UNL A   1      44.742  31.964  33.328  1.00  0.00     0.029 A 
ATOM     56  C   UNL A   1      43.481  32.040  32.755  1.00  0.00     0.049 A 
ATOM     57  H   UNL A   1      42.472  30.616  31.569  1.00  0.00     0.167 HD
ATOM     58  C   UNL A   1      41.309  33.122  32.233  1.00  0.00     0.074 A 
ATOM     59  C   UNL A   1      40.364  34.218  32.312  1.00  0.00     0.031 C 
ATOM     60  C   UNL A   1      42.527  33.120  32.832  1.00  0.00     0.031 A 
BRANCH  47  61
ATOM     61  C   UNL A   1      45.777  27.925  31.932  1.00  0.00    -0.014 A 
ATOM     62  C   UNL A   1      46.892  27.968  31.074  1.00  0.00     0.010 A 
ATOM     63  C   UNL A   1      45.837  27.121  33.085  1.00  0.00     0.010 A 
ATOM     64  C   UNL A   1      48.015  27.178  31.330  1.00  0.00     0.020 A 
ATOM     65  C   UNL A   1      46.972  26.354  33.362  1.00  0.00     0.020 A 
ATOM     66  C   UNL A   1      48.044  26.368  32.468  1.00  0.00     0.054 A 
BRANCH  66  67
ATOM     67  S   UNL A   1      49.510  25.344  32.769  1.00  0.00     0.124 S 
ATOM     68  O   UNL A   1      49.852  24.904  31.418  1.00  0.00    -0.237 OA
ATOM     69  O   UNL A   1      50.444  26.288  33.377  1.00  0.00    -0.237 OA
ATOM     70  O   UNL A   1      49.023  24.293  33.660  1.00  0.00    -0.744 OA
ENDBRANCH  66  67
ENDBRANCH  47  61
BRANCH  48  71
ATOM     71  C   UNL A   1      37.212  32.692  29.944  1.00  0.00    -0.014 A 
ATOM     72  C   UNL A   1      36.079  32.473  30.745  1.00  0.00     0.010 A 
ATOM     73  C   UNL A   1      37.135  33.621  28.889  1.00  0.00     0.010 A 
ATOM     74  C   UNL A   1      34.891  33.165  30.496  1.00  0.00     0.020 A 
ATOM     75  C   UNL A   1      35.957  34.334  28.653  1.00  0.00     0.020 A 
ATOM     76  C   UNL A   1      34.839  34.097  29.456  1.00  0.00     0.054 A 
BRANCH  76  77
ATOM     77  S   UNL A   1      33.307  35.037  29.201  1.00  0.00     0.124 S 
ATOM     78  O   UNL A   1      32.748  35.078  30.548  1.00  0.00    -0.237 OA
ATOM     79  O   UNL A   1      33.802  36.308  28.681  1.00  0.00    -0.237 OA
ATOM     80  O   UNL A   1      32.565  34.225  28.239  1.00  0.00    -0.744 OA
ENDBRANCH  76  77
ENDBRANCH  48  71
BRANCH  60  81
ATOM     81  C   UNL A   1      42.926  34.353  33.599  1.00  0.00    -0.014 A 
ATOM     82  C   UNL A   1      42.723  34.448  34.987  1.00  0.00     0.010 A 
ATOM     83  C   UNL A   1      43.565  35.410  32.926  1.00  0.00     0.010 A 
ATOM     84  C   UNL A   1      43.127  35.591  35.683  1.00  0.00     0.020 A 
ATOM     85  C   UNL A   1      43.997  36.541  33.622  1.00  0.00     0.020 A 
ATOM     86  C   UNL A   1      43.764  36.630  34.995  1.00  0.00     0.054 A 
BRANCH  86  87
ATOM     87  S   UNL A   1      44.321  38.081  35.929  1.00  0.00     0.124 S 
ATOM     88  O   UNL A   1      43.580  37.941  37.180  1.00  0.00    -0.237 OA
ATOM     89  O   UNL A   1      45.763  37.865  36.026  1.00  0.00    -0.237 OA
ATOM     90  O   UNL A   1      43.921  39.209  35.090  1.00  0.00    -0.744 OA
ENDBRANCH  86  87
ENDBRANCH  60  81
ENDBRANCH  34  35
ENDBRANCH  26  29
ENDBRANCH  24  25
ENDBRANCH   1  24
TORSDOF 16
ENDMDL
MODEL 2
REMARK VINA RESULT:     -10.1      4.677     11.576
REMARK SMILES Cc1cnc(N2CCO[C@H](CC(=O)NCCCNC(=O)c3ccc(-c4c5nc(c(-c6ccc(S(=O)(=O)[O-])cc6)c6ccc([nH]6)c(-c6ccc(S(=O)(=O)[O-])cc6)c6nc(c(-c7ccc(S(=O)(=O)[O-])cc7)c7ccc4[nH]7)C=C6)C=C5)cc3)C2)c([N+](=O)[O-])c1
REMARK SMILES IDX 16 1 15 2 14 3 12 4 13 5 11 7 10 8 6 9 7 10 81 11 8 12 9 13
REMARK SMILES IDX 5 14 1 15 2 16 3 17 86 18 4 19 82 20 83 21 84 22 85 23 17 24
REMARK SMILES IDX 18 25 19 26 20 28 21 29 22 30 80 31 23 32 79 33 24 34 25 35
REMARK SMILES IDX 26 36 73 37 27 38 78 39 72 40 74 41 28 42 77 43 71 44 70 45
REMARK SMILES IDX 29 47 59 48 40 49 58 50 41 51 44 52 57 53 75 54 42 55 43 56
REMARK SMILES IDX 56 58 76 59 45 60 30 61 31 62 39 63 32 64 38 65 33 66 34 67
REMARK SMILES IDX 35 68 36 69 37 70 60 71 61 72 69 73 62 74 68 75 63 76 64 77
REMARK SMILES IDX 65 78 66 79 67 80 46 81 47 82 55 83 48 84 54 85 49 86 50 87
REMARK SMILES IDX 51 88 52 89 53 90
REMARK H PARENT 14 6 18 27 74 46 44 57
REMARK Flexibility Score: inf
ROOT
ATOM      1  C   UNL A   1      38.001  20.235  25.014  1.00  0.00     0.042 C 
ENDROOT
BRANCH   1   2
ATOM      2  C   UNL A   1      36.853  21.231  25.105  1.00  0.00     0.117 C 
BRANCH   2   3
ATOM      3  N   UNL A   1      35.578  20.553  25.239  1.00  0.00    -0.356 N 
ATOM      4  C   UNL A   1      34.341  21.100  25.356  1.00  0.00     0.222 C 
ATOM      5  O   UNL A   1      33.383  20.372  25.621  1.00  0.00    -0.275 OA
ATOM      6  H   UNL A   1      35.615  19.569  25.248  1.00  0.00     0.163 HD
BRANCH   4   7
ATOM      7  C   UNL A   1      34.157  22.574  25.119  1.00  0.00     0.133 C 
BRANCH   7   8
ATOM      8  C   UNL A   1      34.106  22.928  23.623  1.00  0.00     0.147 C 
ATOM      9  N   UNL A   1      32.586  24.743  24.038  1.00  0.00    -0.346 N 
ATOM     10  C   UNL A   1      31.494  24.137  23.276  1.00  0.00     0.147 C 
ATOM     11  C   UNL A   1      33.903  24.450  23.468  1.00  0.00     0.151 C 
ATOM     12  C   UNL A   1      31.717  22.612  23.245  1.00  0.00     0.182 C 
ATOM     13  O   UNL A   1      33.065  22.220  22.902  1.00  0.00    -0.374 OA
BRANCH   9  14
ATOM     14  C   UNL A   1      32.428  25.857  24.815  1.00  0.00     0.208 A 
ATOM     15  C   UNL A   1      32.572  29.374  27.265  1.00  0.00     0.046 C 
ATOM     16  C   UNL A   1      32.477  28.140  26.429  1.00  0.00    -0.026 A 
ATOM     17  C   UNL A   1      33.101  28.063  25.193  1.00  0.00     0.117 A 
ATOM     18  C   UNL A   1      31.785  27.013  26.858  1.00  0.00     0.094 A 
ATOM     19  N   UNL A   1      33.091  26.965  24.402  1.00  0.00    -0.233 NA
ATOM     20  C   UNL A   1      31.764  25.869  26.044  1.00  0.00     0.311 A 
BRANCH  20  21
ATOM     21  N   UNL A   1      31.174  24.671  26.610  1.00  0.00     0.066 N 
ATOM     22  O   UNL A   1      29.974  24.443  26.408  1.00  0.00    -0.258 OA
ATOM     23  O   UNL A   1      31.902  23.978  27.339  1.00  0.00    -0.258 OA
ENDBRANCH  20  21
ENDBRANCH   9  14
ENDBRANCH   7   8
ENDBRANCH   4   7
ENDBRANCH   2   3
ENDBRANCH   1   2
BRANCH   1  24
ATOM     24  C   UNL A   1      39.192  20.617  25.884  1.00  0.00     0.118 C 
BRANCH  24  25
ATOM     25  N   UNL A   1      40.149  19.528  26.021  1.00  0.00    -0.352 N 
ATOM     26  C   UNL A   1      41.513  19.572  26.170  1.00  0.00     0.251 C 
ATOM     27  H   UNL A   1      39.760  18.624  26.002  1.00  0.00     0.163 HD
ATOM     28  O   UNL A   1      42.169  18.541  26.065  1.00  0.00    -0.269 OA
BRANCH  26  29
ATOM     29  C   UNL A   1      42.184  20.860  26.440  1.00  0.00     0.039 A 
ATOM     30  C   UNL A   1      42.572  21.658  25.362  1.00  0.00     0.014 A 
ATOM     31  C   UNL A   1      42.443  21.272  27.751  1.00  0.00     0.014 A 
ATOM     32  C   UNL A   1      43.168  22.897  25.601  1.00  0.00     0.010 A 
ATOM     33  C   UNL A   1      42.964  22.540  27.986  1.00  0.00     0.010 A 
ATOM     34  C   UNL A   1      43.339  23.362  26.914  1.00  0.00    -0.014 A 
BRANCH  34  35
ATOM     35  C   UNL A   1      43.907  24.705  27.190  1.00  0.00     0.031 A 
ATOM     36  C   UNL A   1      43.020  25.816  27.677  1.00  0.00     0.074 A 
ATOM     37  C   UNL A   1      45.211  24.939  26.937  1.00  0.00     0.049 A 
ATOM     38  N   UNL A   1      43.322  27.066  27.920  1.00  0.00    -0.248 NA
ATOM     39  C   UNL A   1      41.602  25.487  27.895  1.00  0.00     0.031 C 
ATOM     40  C   UNL A   1      46.166  23.952  26.429  1.00  0.00     0.029 A 
ATOM     41  N   UNL A   1      45.955  26.083  27.070  1.00  0.00    -0.354 N 
ATOM     42  C   UNL A   1      42.132  27.674  28.302  1.00  0.00     0.074 A 
ATOM     43  C   UNL A   1      41.095  26.670  28.206  1.00  0.00     0.031 C 
ATOM     44  C   UNL A   1      47.375  24.525  26.326  1.00  0.00     0.029 A 
ATOM     45  C   UNL A   1      47.273  25.928  26.714  1.00  0.00     0.049 A 
ATOM     46  H   UNL A   1      45.581  26.936  27.390  1.00  0.00     0.167 HD
ATOM     47  C   UNL A   1      41.923  28.949  28.714  1.00  0.00     0.031 A 
ATOM     48  C   UNL A   1      48.287  26.815  26.696  1.00  0.00     0.031 A 
ATOM     49  C   UNL A   1      42.959  29.944  28.805  1.00  0.00     0.049 A 
ATOM     50  C   UNL A   1      48.029  28.230  27.133  1.00  0.00     0.074 A 
ATOM     51  C   UNL A   1      42.863  31.248  29.257  1.00  0.00     0.029 A 
ATOM     52  N   UNL A   1      44.280  29.747  28.430  1.00  0.00    -0.354 N 
ATOM     53  N   UNL A   1      46.910  28.772  27.552  1.00  0.00    -0.248 NA
ATOM     54  C   UNL A   1      49.174  29.151  27.105  1.00  0.00     0.031 C 
ATOM     55  C   UNL A   1      44.112  31.858  29.101  1.00  0.00     0.029 A 
ATOM     56  C   UNL A   1      45.004  30.914  28.613  1.00  0.00     0.049 A 
ATOM     57  H   UNL A   1      44.649  28.903  28.084  1.00  0.00     0.167 HD
ATOM     58  C   UNL A   1      47.222  30.090  27.864  1.00  0.00     0.074 A 
ATOM     59  C   UNL A   1      48.636  30.260  27.597  1.00  0.00     0.031 C 
ATOM     60  C   UNL A   1      46.410  31.071  28.335  1.00  0.00     0.031 A 
BRANCH  47  61
ATOM     61  C   UNL A   1      40.511  29.335  29.077  1.00  0.00    -0.014 A 
ATOM     62  C   UNL A   1      39.569  29.670  28.086  1.00  0.00     0.010 A 
ATOM     63  C   UNL A   1      40.117  29.361  30.426  1.00  0.00     0.010 A 
ATOM     64  C   UNL A   1      38.283  30.083  28.441  1.00  0.00     0.020 A 
ATOM     65  C   UNL A   1      38.821  29.742  30.784  1.00  0.00     0.020 A 
ATOM     66  C   UNL A   1      37.920  30.125  29.789  1.00  0.00     0.054 A 
BRANCH  66  67
ATOM     67  S   UNL A   1      36.247  30.677  30.222  1.00  0.00     0.124 S 
ATOM     68  O   UNL A   1      36.429  32.122  30.342  1.00  0.00    -0.237 OA
ATOM     69  O   UNL A   1      35.456  30.236  29.076  1.00  0.00    -0.237 OA
ATOM     70  O   UNL A   1      35.965  29.980  31.475  1.00  0.00    -0.744 OA
ENDBRANCH  66  67
ENDBRANCH  47  61
BRANCH  48  71
ATOM     71  C   UNL A   1      49.645  26.374  26.276  1.00  0.00    -0.014 A 
ATOM     72  C   UNL A   1      50.096  26.616  24.967  1.00  0.00     0.010 A 
ATOM     73  C   UNL A   1      50.510  25.749  27.193  1.00  0.00     0.010 A 
ATOM     74  C   UNL A   1      51.385  26.238  24.581  1.00  0.00     0.020 A 
ATOM     75  C   UNL A   1      51.809  25.394  26.818  1.00  0.00     0.020 A 
ATOM     76  C   UNL A   1      52.237  25.636  25.511  1.00  0.00     0.054 A 
BRANCH  76  77
ATOM     77  S   UNL A   1      53.930  25.224  25.006  1.00  0.00     0.124 S 
ATOM     78  O   UNL A   1      54.717  25.764  26.111  1.00  0.00    -0.237 OA
ATOM     79  O   UNL A   1      53.885  23.768  24.913  1.00  0.00    -0.237 OA
ATOM     80  O   UNL A   1      54.084  25.918  23.730  1.00  0.00    -0.744 OA
ENDBRANCH  76  77
ENDBRANCH  48  71
BRANCH  60  81
ATOM     81  C   UNL A   1      47.036  32.409  28.626  1.00  0.00    -0.014 A 
ATOM     82  C   UNL A   1      47.633  32.683  29.869  1.00  0.00     0.010 A 
ATOM     83  C   UNL A   1      47.077  33.388  27.617  1.00  0.00     0.010 A 
ATOM     84  C   UNL A   1      48.233  33.923  30.106  1.00  0.00     0.020 A 
ATOM     85  C   UNL A   1      47.701  34.617  27.839  1.00  0.00     0.020 A 
ATOM     86  C   UNL A   1      48.265  34.882  29.088  1.00  0.00     0.054 A 
BRANCH  86  87
ATOM     87  S   UNL A   1      49.092  36.465  29.405  1.00  0.00     0.124 S 
ATOM     88  O   UNL A   1      50.476  36.162  29.052  1.00  0.00    -0.237 OA
ATOM     89  O   UNL A   1      48.397  37.376  28.499  1.00  0.00    -0.237 OA
ATOM     90  O   UNL A   1      48.849  36.704  30.826  1.00  0.00    -0.744 OA
ENDBRANCH  86  87
ENDBRANCH  60  81
ENDBRANCH  34  35
ENDBRANCH  26  29
ENDBRANCH  24  25
ENDBRANCH   1  24
TORSDOF 16
ENDMDL
MODEL 3
REMARK VINA RESULT:     -10.0      4.207     11.038
REMARK SMILES Cc1cnc(N2CCO[C@H](CC(=O)NCCCNC(=O)c3ccc(-c4c5nc(c(-c6ccc(S(=O)(=O)[O-])cc6)c6ccc([nH]6)c(-c6ccc(S(=O)(=O)[O-])cc6)c6nc(c(-c7ccc(S(=O)(=O)[O-])cc7)c7ccc4[nH]7)C=C6)C=C5)cc3)C2)c([N+](=O)[O-])c1
REMARK SMILES IDX 16 1 15 2 14 3 12 4 13 5 11 7 10 8 6 9 7 10 81 11 8 12 9 13
REMARK SMILES IDX 5 14 1 15 2 16 3 17 86 18 4 19 82 20 83 21 84 22 85 23 17 24
REMARK SMILES IDX 18 25 19 26 20 28 21 29 22 30 80 31 23 32 79 33 24 34 25 35
REMARK SMILES IDX 26 36 73 37 27 38 78 39 72 40 74 41 28 42 77 43 71 44 70 45
REMARK SMILES IDX 29 47 59 48 40 49 58 50 41 51 44 52 57 53 75 54 42 55 43 56
REMARK SMILES IDX 56 58 76 59 45 60 30 61 31 62 39 63 32 64 38 65 33 66 34 67
REMARK SMILES IDX 35 68 36 69 37 70 60 71 61 72 69 73 62 74 68 75 63 76 64 77
REMARK SMILES IDX 65 78 66 79 67 80 46 81 47 82 55 83 48 84 54 85 49 86 50 87
REMARK SMILES IDX 51 88 52 89 53 90
REMARK H PARENT 14 6 18 27 74 46 44 57
REMARK Flexibility Score: inf
ROOT
ATOM      1  C   UNL A   1      39.055  22.664  26.637  1.00  0.00     0.042 C 
ENDROOT
BRANCH   1   2
ATOM      2  C   UNL A   1      37.939  23.535  26.077  1.00  0.00     0.117 C 
BRANCH   2   3
ATOM      3  N   UNL A   1      37.743  23.291  24.661  1.00  0.00    -0.356 N 
ATOM      4  C   UNL A   1      36.588  23.346  23.948  1.00  0.00     0.222 C 
ATOM      5  O   UNL A   1      36.581  22.953  22.781  1.00  0.00    -0.275 OA
ATOM      6  H   UNL A   1      38.551  23.053  24.151  1.00  0.00     0.163 HD
BRANCH   4   7
ATOM      7  C   UNL A   1      35.352  23.925  24.582  1.00  0.00     0.133 C 
BRANCH   7   8
ATOM      8  C   UNL A   1      34.058  23.406  23.933  1.00  0.00     0.147 C 
ATOM      9  N   UNL A   1      32.730  24.980  25.171  1.00  0.00    -0.346 N 
ATOM     10  C   UNL A   1      32.014  23.944  25.917  1.00  0.00     0.147 C 
ATOM     11  C   UNL A   1      33.053  24.569  23.803  1.00  0.00     0.151 C 
ATOM     12  C   UNL A   1      32.895  22.680  25.951  1.00  0.00     0.182 C 
ATOM     13  O   UNL A   1      33.449  22.313  24.667  1.00  0.00    -0.374 OA
BRANCH   9  14
ATOM     14  C   UNL A   1      32.635  26.312  25.462  1.00  0.00     0.208 A 
ATOM     15  C   UNL A   1      32.402  30.315  26.985  1.00  0.00     0.046 C 
ATOM     16  C   UNL A   1      32.460  28.936  26.415  1.00  0.00    -0.026 A 
ATOM     17  C   UNL A   1      33.530  28.096  26.679  1.00  0.00     0.117 A 
ATOM     18  C   UNL A   1      31.439  28.426  25.620  1.00  0.00     0.094 A 
ATOM     19  N   UNL A   1      33.629  26.822  26.229  1.00  0.00    -0.233 NA
ATOM     20  C   UNL A   1      31.531  27.108  25.145  1.00  0.00     0.311 A 
BRANCH  20  21
ATOM     21  N   UNL A   1      30.367  26.572  24.465  1.00  0.00     0.066 N 
ATOM     22  O   UNL A   1      29.477  26.036  25.138  1.00  0.00    -0.258 OA
ATOM     23  O   UNL A   1      30.373  26.614  23.225  1.00  0.00    -0.258 OA
ENDBRANCH  20  21
ENDBRANCH   9  14
ENDBRANCH   7   8
ENDBRANCH   4   7
ENDBRANCH   2   3
ENDBRANCH   1   2
BRANCH   1  24
ATOM     24  C   UNL A   1      40.254  23.469  27.122  1.00  0.00     0.118 C 
BRANCH  24  25
ATOM     25  N   UNL A   1      40.827  24.296  26.069  1.00  0.00    -0.352 N 
ATOM     26  C   UNL A   1      41.097  25.642  26.059  1.00  0.00     0.251 C 
ATOM     27  H   UNL A   1      41.055  23.818  25.239  1.00  0.00     0.163 HD
ATOM     28  O   UNL A   1      41.392  26.194  25.004  1.00  0.00    -0.269 OA
BRANCH  26  29
ATOM     29  C   UNL A   1      41.015  26.420  27.312  1.00  0.00     0.039 A 
ATOM     30  C   UNL A   1      41.981  27.396  27.564  1.00  0.00     0.014 A 
ATOM     31  C   UNL A   1      39.998  26.179  28.241  1.00  0.00     0.014 A 
ATOM     32  C   UNL A   1      41.894  28.169  28.723  1.00  0.00     0.010 A 
ATOM     33  C   UNL A   1      39.868  27.003  29.352  1.00  0.00     0.010 A 
ATOM     34  C   UNL A   1      40.818  28.002  29.609  1.00  0.00    -0.014 A 
BRANCH  34  35
ATOM     35  C   UNL A   1      40.668  28.859  30.811  1.00  0.00     0.031 A 
ATOM     36  C   UNL A   1      39.613  29.931  30.848  1.00  0.00     0.074 A 
ATOM     37  C   UNL A   1      41.525  28.716  31.842  1.00  0.00     0.049 A 
ATOM     38  N   UNL A   1      39.365  30.811  31.784  1.00  0.00    -0.248 NA
ATOM     39  C   UNL A   1      38.741  30.045  29.669  1.00  0.00     0.031 C 
ATOM     40  C   UNL A   1      42.612  27.736  31.909  1.00  0.00     0.029 A 
ATOM     41  N   UNL A   1      41.618  29.397  33.028  1.00  0.00    -0.354 N 
ATOM     42  C   UNL A   1      38.323  31.592  31.301  1.00  0.00     0.074 A 
ATOM     43  C   UNL A   1      38.022  31.116  29.968  1.00  0.00     0.031 C 
ATOM     44  C   UNL A   1      43.239  27.858  33.089  1.00  0.00     0.029 A 
ATOM     45  C   UNL A   1      42.633  28.952  33.841  1.00  0.00     0.049 A 
ATOM     46  H   UNL A   1      41.015  30.135  33.275  1.00  0.00     0.167 HD
ATOM     47  C   UNL A   1      37.661  32.602  31.916  1.00  0.00     0.031 A 
ATOM     48  C   UNL A   1      43.036  29.378  35.054  1.00  0.00     0.031 A 
ATOM     49  C   UNL A   1      37.967  33.073  33.242  1.00  0.00     0.049 A 
ATOM     50  C   UNL A   1      42.305  30.516  35.709  1.00  0.00     0.074 A 
ATOM     51  C   UNL A   1      37.326  34.055  33.976  1.00  0.00     0.029 A 
ATOM     52  N   UNL A   1      39.006  32.598  34.030  1.00  0.00    -0.354 N 
ATOM     53  N   UNL A   1      41.279  31.203  35.264  1.00  0.00    -0.248 NA
ATOM     54  C   UNL A   1      42.779  30.931  37.036  1.00  0.00     0.031 C 
ATOM     55  C   UNL A   1      38.013  34.216  35.184  1.00  0.00     0.029 A 
ATOM     56  C   UNL A   1      39.043  33.287  35.231  1.00  0.00     0.049 A 
ATOM     57  H   UNL A   1      39.626  31.879  33.772  1.00  0.00     0.167 HD
ATOM     58  C   UNL A   1      40.967  32.112  36.267  1.00  0.00     0.074 A 
ATOM     59  C   UNL A   1      41.905  31.880  37.347  1.00  0.00     0.031 C 
ATOM     60  C   UNL A   1      39.988  33.051  36.294  1.00  0.00     0.031 A 
BRANCH  47  61
ATOM     61  C   UNL A   1      36.554  33.275  31.145  1.00  0.00    -0.014 A 
ATOM     62  C   UNL A   1      36.805  33.913  29.915  1.00  0.00     0.010 A 
ATOM     63  C   UNL A   1      35.242  33.267  31.652  1.00  0.00     0.010 A 
ATOM     64  C   UNL A   1      35.781  34.583  29.241  1.00  0.00     0.020 A 
ATOM     65  C   UNL A   1      34.208  33.909  30.964  1.00  0.00     0.020 A 
ATOM     66  C   UNL A   1      34.490  34.584  29.776  1.00  0.00     0.054 A 
BRANCH  66  67
ATOM     67  S   UNL A   1      33.182  35.472  28.886  1.00  0.00     0.124 S 
ATOM     68  O   UNL A   1      32.388  36.016  29.985  1.00  0.00    -0.237 OA
ATOM     69  O   UNL A   1      33.932  36.454  28.106  1.00  0.00    -0.237 OA
ATOM     70  O   UNL A   1      32.525  34.428  28.102  1.00  0.00    -0.744 OA
ENDBRANCH  66  67
ENDBRANCH  47  61
BRANCH  48  71
ATOM     71  C   UNL A   1      44.172  28.698  35.734  1.00  0.00    -0.014 A 
ATOM     72  C   UNL A   1      43.945  27.562  36.530  1.00  0.00     0.010 A 
ATOM     73  C   UNL A   1      45.490  29.156  35.555  1.00  0.00     0.010 A 
ATOM     74  C   UNL A   1      45.014  26.898  37.138  1.00  0.00     0.020 A 
ATOM     75  C   UNL A   1      46.565  28.479  36.139  1.00  0.00     0.020 A 
ATOM     76  C   UNL A   1      46.318  27.356  36.933  1.00  0.00     0.054 A 
BRANCH  76  77
ATOM     77  S   UNL A   1      47.694  26.432  37.672  1.00  0.00     0.124 S 
ATOM     78  O   UNL A   1      47.034  25.729  38.767  1.00  0.00    -0.237 OA
ATOM     79  O   UNL A   1      48.144  25.597  36.562  1.00  0.00    -0.237 OA
ATOM     80  O   UNL A   1      48.631  27.479  38.074  1.00  0.00    -0.744 OA
ENDBRANCH  76  77
ENDBRANCH  48  71
BRANCH  60  81
ATOM     81  C   UNL A   1      39.856  33.880  37.545  1.00  0.00    -0.014 A 
ATOM     82  C   UNL A   1      40.585  35.070  37.714  1.00  0.00     0.010 A 
ATOM     83  C   UNL A   1      38.944  33.488  38.541  1.00  0.00     0.010 A 
ATOM     84  C   UNL A   1      40.425  35.838  38.871  1.00  0.00     0.020 A 
ATOM     85  C   UNL A   1      38.758  34.268  39.685  1.00  0.00     0.020 A 
ATOM     86  C   UNL A   1      39.510  35.432  39.849  1.00  0.00     0.054 A 
BRANCH  86  87
ATOM     87  S   UNL A   1      39.286  36.471  41.318  1.00  0.00     0.124 S 
ATOM     88  O   UNL A   1      38.810  37.723  40.737  1.00  0.00    -0.237 OA
ATOM     89  O   UNL A   1      38.299  35.722  42.092  1.00  0.00    -0.237 OA
ATOM     90  O   UNL A   1      40.621  36.527  41.911  1.00  0.00    -0.744 OA
ENDBRANCH  86  87
ENDBRANCH  60  81
ENDBRANCH  34  35
ENDBRANCH  26  29
ENDBRANCH  24  25
ENDBRANCH   1  24
TORSDOF 16
ENDMDL
