MODEL 1
REMARK VINA RESULT:     -11.3      0.000      0.000
REMARK SMILES [NH3+]CCC1=c2cc([N+](=O)[O-])ccc2=N[C@H]1C(=O)NCCCNC(=O)c1ccc(-c2c3nc(c(-c4ccc(S(=O)(=O)[O-])cc4)c4ccc([nH]4)c(-c4ccc(S(=O)(=O)[O-])cc4)c4nc(c(-c5ccc(S(=O)(=O)[O-])cc5)c5ccc2[nH]5)C=C4)C=C3)cc1
REMARK SMILES IDX 20 1 19 2 18 3 16 4 17 5 15 7 4 8 5 9 6 10 13 11 14 12 7 13
REMARK SMILES IDX 12 14 11 15 3 16 2 17 1 18 8 22 9 23 10 24 21 25 22 26 23 27
REMARK SMILES IDX 24 29 25 30 26 31 84 32 27 33 83 34 28 35 29 36 30 37 77 38
REMARK SMILES IDX 31 39 82 40 76 41 78 42 32 43 81 44 75 45 74 46 33 48 63 49
REMARK SMILES IDX 44 50 62 51 45 52 48 53 61 54 79 55 46 56 47 57 60 59 80 60
REMARK SMILES IDX 49 61 34 62 35 63 43 64 36 65 42 66 37 67 38 68 39 69 40 70
REMARK SMILES IDX 41 71 64 72 65 73 73 74 66 75 72 76 67 77 68 78 69 79 70 80
REMARK SMILES IDX 71 81 50 82 51 83 59 84 52 85 58 86 53 87 54 88 55 89 56 90
REMARK SMILES IDX 57 91
REMARK H PARENT 18 6 1 19 1 20 1 21 22 28 78 47 48 58
REMARK Flexibility Score: inf
ROOT
ATOM      1  C   UNL A   1      35.909  23.805  25.752  1.00  0.00     0.042 C 
ENDROOT
BRANCH   1   2
ATOM      2  C   UNL A   1      34.696  24.356  25.001  1.00  0.00     0.117 C 
BRANCH   2   3
ATOM      3  N   UNL A   1      34.429  25.759  25.281  1.00  0.00    -0.354 N 
ATOM      4  C   UNL A   1      33.588  26.698  24.765  1.00  0.00     0.249 C 
ATOM      5  O   UNL A   1      33.625  27.803  25.327  1.00  0.00    -0.272 OA
ATOM      6  H   UNL A   1      34.984  26.110  26.015  1.00  0.00     0.163 HD
BRANCH   4   7
ATOM      7  C   UNL A   1      32.607  26.478  23.576  1.00  0.00     0.222 C 
ATOM      8  C   UNL A   1      31.152  26.220  23.842  1.00  0.00    -0.021 C 
ATOM      9  C   UNL A   1      30.425  27.265  23.431  1.00  0.00     0.009 A 
ATOM     10  C   UNL A   1      29.052  27.655  23.549  1.00  0.00     0.096 A 
ATOM     11  C   UNL A   1      31.414  28.123  22.757  1.00  0.00     0.067 A 
ATOM     12  N   UNL A   1      32.647  27.741  22.770  1.00  0.00    -0.267 NA
ATOM     13  C   UNL A   1      28.682  28.839  23.018  1.00  0.00     0.270 A 
ATOM     14  C   UNL A   1      30.905  29.343  22.100  1.00  0.00     0.035 A 
ATOM     15  C   UNL A   1      29.608  29.661  22.243  1.00  0.00     0.088 A 
BRANCH   8  16
ATOM     16  C   UNL A   1      30.608  24.953  24.440  1.00  0.00     0.096 C 
BRANCH  16  17
ATOM     17  C   UNL A   1      30.414  24.827  25.969  1.00  0.00     0.263 C 
BRANCH  17  18
ATOM     18  N   UNL A   1      30.966  25.868  26.820  1.00  0.00    -0.357 N 
ATOM     19  H   UNL A   1      30.291  26.109  27.545  1.00  0.00     0.344 HD
ATOM     20  H   UNL A   1      31.171  26.695  26.259  1.00  0.00     0.344 HD
ATOM     21  H   UNL A   1      31.825  25.532  27.255  1.00  0.00     0.344 HD
ENDBRANCH  17  18
ENDBRANCH  16  17
ENDBRANCH   8  16
BRANCH  13  22
ATOM     22  N   UNL A   1      27.323  29.322  23.292  1.00  0.00     0.062 N 
ATOM     23  O   UNL A   1      27.160  30.531  23.501  1.00  0.00    -0.258 OA
ATOM     24  O   UNL A   1      26.411  28.483  23.267  1.00  0.00    -0.258 OA
ENDBRANCH  13  22
ENDBRANCH   4   7
ENDBRANCH   2   3
ENDBRANCH   1   2
BRANCH   1  25
ATOM     25  C   UNL A   1      37.105  23.452  24.877  1.00  0.00     0.118 C 
BRANCH  25  26
ATOM     26  N   UNL A   1      37.988  22.492  25.514  1.00  0.00    -0.352 N 
ATOM     27  C   UNL A   1      39.086  22.714  26.316  1.00  0.00     0.251 C 
ATOM     28  H   UNL A   1      37.771  21.546  25.349  1.00  0.00     0.163 HD
ATOM     29  O   UNL A   1      39.838  21.782  26.574  1.00  0.00    -0.269 OA
BRANCH  27  30
ATOM     30  C   UNL A   1      39.375  24.073  26.838  1.00  0.00     0.039 A 
ATOM     31  C   UNL A   1      40.047  25.020  26.063  1.00  0.00     0.014 A 
ATOM     32  C   UNL A   1      38.956  24.407  28.129  1.00  0.00     0.014 A 
ATOM     33  C   UNL A   1      40.448  26.228  26.633  1.00  0.00     0.010 A 
ATOM     34  C   UNL A   1      39.280  25.658  28.667  1.00  0.00     0.010 A 
ATOM     35  C   UNL A   1      40.076  26.561  27.945  1.00  0.00    -0.014 A 
BRANCH  35  36
ATOM     36  C   UNL A   1      40.540  27.842  28.550  1.00  0.00     0.031 A 
ATOM     37  C   UNL A   1      41.992  28.033  28.916  1.00  0.00     0.074 A 
ATOM     38  C   UNL A   1      39.668  28.854  28.734  1.00  0.00     0.049 A 
ATOM     39  N   UNL A   1      42.576  29.081  29.441  1.00  0.00    -0.248 NA
ATOM     40  C   UNL A   1      42.906  26.908  28.662  1.00  0.00     0.031 C 
ATOM     41  C   UNL A   1      38.243  28.804  28.400  1.00  0.00     0.029 A 
ATOM     42  N   UNL A   1      39.849  30.125  29.221  1.00  0.00    -0.354 N 
ATOM     43  C   UNL A   1      43.915  28.738  29.592  1.00  0.00     0.074 A 
ATOM     44  C   UNL A   1      44.052  27.370  29.143  1.00  0.00     0.031 C 
ATOM     45  C   UNL A   1      37.694  30.004  28.640  1.00  0.00     0.029 A 
ATOM     46  C   UNL A   1      38.704  30.889  29.212  1.00  0.00     0.049 A 
ATOM     47  H   UNL A   1      40.717  30.459  29.547  1.00  0.00     0.167 HD
ATOM     48  C   UNL A   1      44.940  29.499  30.043  1.00  0.00     0.031 A 
ATOM     49  C   UNL A   1      38.479  32.156  29.622  1.00  0.00     0.031 A 
ATOM     50  C   UNL A   1      44.801  30.867  30.472  1.00  0.00     0.049 A 
ATOM     51  C   UNL A   1      39.623  32.966  30.166  1.00  0.00     0.074 A 
ATOM     52  C   UNL A   1      45.789  31.723  30.930  1.00  0.00     0.029 A 
ATOM     53  N   UNL A   1      43.614  31.584  30.489  1.00  0.00    -0.354 N 
ATOM     54  N   UNL A   1      40.884  32.625  30.288  1.00  0.00    -0.248 NA
ATOM     55  C   UNL A   1      39.324  34.333  30.613  1.00  0.00     0.031 C 
ATOM     56  C   UNL A   1      45.188  32.928  31.294  1.00  0.00     0.029 A 
ATOM     57  C   UNL A   1      43.841  32.862  30.973  1.00  0.00     0.049 A 
ATOM     58  H   UNL A   1      42.739  31.237  30.199  1.00  0.00     0.167 HD
ATOM     59  C   UNL A   1      41.534  33.745  30.797  1.00  0.00     0.074 A 
ATOM     60  C   UNL A   1      40.529  34.778  30.950  1.00  0.00     0.031 C 
ATOM     61  C   UNL A   1      42.844  33.896  31.108  1.00  0.00     0.031 A 
BRANCH  48  62
ATOM     62  C   UNL A   1      46.322  28.892  30.094  1.00  0.00    -0.014 A 
ATOM     63  C   UNL A   1      47.142  28.922  28.950  1.00  0.00     0.010 A 
ATOM     64  C   UNL A   1      46.756  28.173  31.223  1.00  0.00     0.010 A 
ATOM     65  C   UNL A   1      48.347  28.215  28.918  1.00  0.00     0.020 A 
ATOM     66  C   UNL A   1      47.977  27.493  31.207  1.00  0.00     0.020 A 
ATOM     67  C   UNL A   1      48.751  27.495  30.045  1.00  0.00     0.054 A 
BRANCH  67  68
ATOM     68  S   UNL A   1      50.297  26.549  29.971  1.00  0.00     0.124 S 
ATOM     69  O   UNL A   1      49.821  25.172  30.069  1.00  0.00    -0.237 OA
ATOM     70  O   UNL A   1      50.847  26.938  28.674  1.00  0.00    -0.237 OA
ATOM     71  O   UNL A   1      51.051  27.034  31.126  1.00  0.00    -0.744 OA
ENDBRANCH  67  68
ENDBRANCH  48  62
BRANCH  49  72
ATOM     72  C   UNL A   1      37.108  32.729  29.487  1.00  0.00    -0.014 A 
ATOM     73  C   UNL A   1      36.612  33.100  28.222  1.00  0.00     0.010 A 
ATOM     74  C   UNL A   1      36.330  32.995  30.627  1.00  0.00     0.010 A 
ATOM     75  C   UNL A   1      35.402  33.788  28.106  1.00  0.00     0.020 A 
ATOM     76  C   UNL A   1      35.099  33.650  30.511  1.00  0.00     0.020 A 
ATOM     77  C   UNL A   1      34.660  34.072  29.254  1.00  0.00     0.054 A 
BRANCH  77  78
ATOM     78  S   UNL A   1      33.129  35.030  29.084  1.00  0.00     0.124 S 
ATOM     79  O   UNL A   1      32.423  34.283  28.046  1.00  0.00    -0.237 OA
ATOM     80  O   UNL A   1      32.552  34.946  30.423  1.00  0.00    -0.237 OA
ATOM     81  O   UNL A   1      33.595  36.357  28.690  1.00  0.00    -0.744 OA
ENDBRANCH  77  78
ENDBRANCH  49  72
BRANCH  61  82
ATOM     82  C   UNL A   1      43.317  35.235  31.621  1.00  0.00    -0.014 A 
ATOM     83  C   UNL A   1      43.099  35.572  32.971  1.00  0.00     0.010 A 
ATOM     84  C   UNL A   1      43.828  36.212  30.749  1.00  0.00     0.010 A 
ATOM     85  C   UNL A   1      43.333  36.871  33.428  1.00  0.00     0.020 A 
ATOM     86  C   UNL A   1      44.098  37.504  31.211  1.00  0.00     0.020 A 
ATOM     87  C   UNL A   1      43.820  37.833  32.540  1.00  0.00     0.054 A 
BRANCH  87  88
ATOM     88  S   UNL A   1      44.063  39.528  33.138  1.00  0.00     0.124 S 
ATOM     89  O   UNL A   1      45.244  39.388  33.985  1.00  0.00    -0.237 OA
ATOM     90  O   UNL A   1      44.260  40.280  31.901  1.00  0.00    -0.237 OA
ATOM     91  O   UNL A   1      42.819  39.824  33.847  1.00  0.00    -0.744 OA
ENDBRANCH  87  88
ENDBRANCH  61  82
ENDBRANCH  35  36
ENDBRANCH  27  30
ENDBRANCH  25  26
ENDBRANCH   1  25
TORSDOF 17
ENDMDL
MODEL 2
REMARK VINA RESULT:     -11.2      3.411     10.042
REMARK SMILES [NH3+]CCC1=c2cc([N+](=O)[O-])ccc2=N[C@H]1C(=O)NCCCNC(=O)c1ccc(-c2c3nc(c(-c4ccc(S(=O)(=O)[O-])cc4)c4ccc([nH]4)c(-c4ccc(S(=O)(=O)[O-])cc4)c4nc(c(-c5ccc(S(=O)(=O)[O-])cc5)c5ccc2[nH]5)C=C4)C=C3)cc1
REMARK SMILES IDX 20 1 19 2 18 3 16 4 17 5 15 7 4 8 5 9 6 10 13 11 14 12 7 13
REMARK SMILES IDX 12 14 11 15 3 16 2 17 1 18 8 22 9 23 10 24 21 25 22 26 23 27
REMARK SMILES IDX 24 29 25 30 26 31 84 32 27 33 83 34 28 35 29 36 30 37 77 38
REMARK SMILES IDX 31 39 82 40 76 41 78 42 32 43 81 44 75 45 74 46 33 48 63 49
REMARK SMILES IDX 44 50 62 51 45 52 48 53 61 54 79 55 46 56 47 57 60 59 80 60
REMARK SMILES IDX 49 61 34 62 35 63 43 64 36 65 42 66 37 67 38 68 39 69 40 70
REMARK SMILES IDX 41 71 64 72 65 73 73 74 66 75 72 76 67 77 68 78 69 79 70 80
REMARK SMILES IDX 71 81 50 82 51 83 59 84 52 85 58 86 53 87 54 88 55 89 56 90
REMARK SMILES IDX 57 91
REMARK H PARENT 18 6 1 19 1 20 1 21 22 28 78 47 48 58
REMARK Flexibility Score: inf
ROOT
ATOM      1  C   UNL A   1      33.984  27.453  25.117  1.00  0.00     0.042 C 
ENDROOT
BRANCH   1   2
ATOM      2  C   UNL A   1      33.548  26.030  24.761  1.00  0.00     0.117 C 
BRANCH   2   3
ATOM      3  N   UNL A   1      33.735  25.078  25.847  1.00  0.00    -0.354 N 
ATOM      4  C   UNL A   1      34.162  23.787  25.929  1.00  0.00     0.249 C 
ATOM      5  O   UNL A   1      34.229  23.328  27.078  1.00  0.00    -0.272 OA
ATOM      6  H   UNL A   1      33.500  25.456  26.725  1.00  0.00     0.163 HD
BRANCH   4   7
ATOM      7  C   UNL A   1      34.574  22.893  24.722  1.00  0.00     0.222 C 
ATOM      8  C   UNL A   1      35.305  21.603  24.959  1.00  0.00    -0.021 C 
ATOM      9  C   UNL A   1      34.514  20.571  24.649  1.00  0.00     0.009 A 
ATOM     10  C   UNL A   1      34.595  19.149  24.802  1.00  0.00     0.096 A 
ATOM     11  C   UNL A   1      33.328  21.216  24.062  1.00  0.00     0.067 A 
ATOM     12  N   UNL A   1      33.296  22.507  24.040  1.00  0.00    -0.267 NA
ATOM     13  C   UNL A   1      33.547  18.408  24.386  1.00  0.00     0.270 A 
ATOM     14  C   UNL A   1      32.279  20.328  23.525  1.00  0.00     0.035 A 
ATOM     15  C   UNL A   1      32.405  19.001  23.694  1.00  0.00     0.088 A 
BRANCH   8  16
ATOM     16  C   UNL A   1      36.729  21.508  25.432  1.00  0.00     0.096 C 
BRANCH  16  17
ATOM     17  C   UNL A   1      37.646  22.753  25.418  1.00  0.00     0.263 C 
BRANCH  17  18
ATOM     18  N   UNL A   1      38.406  23.062  26.618  1.00  0.00    -0.357 N 
ATOM     19  H   UNL A   1      39.294  22.562  26.597  1.00  0.00     0.344 HD
ATOM     20  H   UNL A   1      37.875  22.776  27.440  1.00  0.00     0.344 HD
ATOM     21  H   UNL A   1      38.582  24.066  26.660  1.00  0.00     0.344 HD
ENDBRANCH  17  18
ENDBRANCH  16  17
ENDBRANCH   8  16
BRANCH  13  22
ATOM     22  N   UNL A   1      33.551  16.973  24.703  1.00  0.00     0.062 N 
ATOM     23  O   UNL A   1      32.978  16.598  25.735  1.00  0.00    -0.258 OA
ATOM     24  O   UNL A   1      34.106  16.219  23.893  1.00  0.00    -0.258 OA
ENDBRANCH  13  22
ENDBRANCH   4   7
ENDBRANCH   2   3
ENDBRANCH   1   2
BRANCH   1  25
ATOM     25  C   UNL A   1      33.996  27.771  26.606  1.00  0.00     0.118 C 
BRANCH  25  26
ATOM     26  N   UNL A   1      33.610  29.144  26.877  1.00  0.00    -0.352 N 
ATOM     27  C   UNL A   1      34.274  30.111  27.599  1.00  0.00     0.251 C 
ATOM     28  H   UNL A   1      32.750  29.425  26.489  1.00  0.00     0.163 HD
ATOM     29  O   UNL A   1      33.684  31.140  27.908  1.00  0.00    -0.269 OA
BRANCH  27  30
ATOM     30  C   UNL A   1      35.679  29.900  28.029  1.00  0.00     0.039 A 
ATOM     31  C   UNL A   1      36.746  30.126  27.158  1.00  0.00     0.014 A 
ATOM     32  C   UNL A   1      35.932  29.475  29.336  1.00  0.00     0.014 A 
ATOM     33  C   UNL A   1      38.040  29.766  27.533  1.00  0.00     0.010 A 
ATOM     34  C   UNL A   1      37.244  29.201  29.741  1.00  0.00     0.010 A 
ATOM     35  C   UNL A   1      38.306  29.292  28.828  1.00  0.00    -0.014 A 
BRANCH  35  36
ATOM     36  C   UNL A   1      39.688  28.880  29.203  1.00  0.00     0.031 A 
ATOM     37  C   UNL A   1      40.549  29.777  30.059  1.00  0.00     0.074 A 
ATOM     38  C   UNL A   1      40.161  27.679  28.812  1.00  0.00     0.049 A 
ATOM     39  N   UNL A   1      41.769  29.578  30.491  1.00  0.00    -0.248 NA
ATOM     40  C   UNL A   1      39.970  31.061  30.486  1.00  0.00     0.031 C 
ATOM     41  C   UNL A   1      39.421  26.709  28.003  1.00  0.00     0.029 A 
ATOM     42  N   UNL A   1      41.361  27.056  29.059  1.00  0.00    -0.354 N 
ATOM     43  C   UNL A   1      42.106  30.710  31.224  1.00  0.00     0.074 A 
ATOM     44  C   UNL A   1      40.979  31.614  31.145  1.00  0.00     0.031 C 
ATOM     45  C   UNL A   1      40.159  25.597  27.866  1.00  0.00     0.029 A 
ATOM     46  C   UNL A   1      41.452  25.796  28.515  1.00  0.00     0.049 A 
ATOM     47  H   UNL A   1      42.088  27.473  29.577  1.00  0.00     0.167 HD
ATOM     48  C   UNL A   1      43.240  30.966  31.917  1.00  0.00     0.031 A 
ATOM     49  C   UNL A   1      42.458  24.896  28.523  1.00  0.00     0.031 A 
ATOM     50  C   UNL A   1      44.353  30.055  32.008  1.00  0.00     0.049 A 
ATOM     51  C   UNL A   1      43.729  25.222  29.258  1.00  0.00     0.074 A 
ATOM     52  C   UNL A   1      45.539  30.223  32.701  1.00  0.00     0.029 A 
ATOM     53  N   UNL A   1      44.418  28.809  31.402  1.00  0.00    -0.354 N 
ATOM     54  N   UNL A   1      44.021  26.295  29.954  1.00  0.00    -0.248 NA
ATOM     55  C   UNL A   1      44.801  24.217  29.224  1.00  0.00     0.031 C 
ATOM     56  C   UNL A   1      46.350  29.116  32.453  1.00  0.00     0.029 A 
ATOM     57  C   UNL A   1      45.635  28.211  31.685  1.00  0.00     0.049 A 
ATOM     58  H   UNL A   1      43.706  28.409  30.852  1.00  0.00     0.167 HD
ATOM     59  C   UNL A   1      45.296  26.081  30.467  1.00  0.00     0.074 A 
ATOM     60  C   UNL A   1      45.716  24.771  30.009  1.00  0.00     0.031 C 
ATOM     61  C   UNL A   1      46.046  26.899  31.245  1.00  0.00     0.031 A 
BRANCH  48  62
ATOM     62  C   UNL A   1      43.356  32.279  32.654  1.00  0.00    -0.014 A 
ATOM     63  C   UNL A   1      42.816  32.404  33.949  1.00  0.00     0.010 A 
ATOM     64  C   UNL A   1      43.872  33.424  32.019  1.00  0.00     0.010 A 
ATOM     65  C   UNL A   1      42.753  33.651  34.577  1.00  0.00     0.020 A 
ATOM     66  C   UNL A   1      43.842  34.666  32.658  1.00  0.00     0.020 A 
ATOM     67  C   UNL A   1      43.257  34.777  33.922  1.00  0.00     0.054 A 
BRANCH  67  68
ATOM     68  S   UNL A   1      43.129  36.394  34.734  1.00  0.00     0.124 S 
ATOM     69  O   UNL A   1      44.421  36.507  35.402  1.00  0.00    -0.237 OA
ATOM     70  O   UNL A   1      42.917  37.300  33.608  1.00  0.00    -0.237 OA
ATOM     71  O   UNL A   1      41.977  36.240  35.621  1.00  0.00    -0.744 OA
ENDBRANCH  67  68
ENDBRANCH  48  62
BRANCH  49  72
ATOM     72  C   UNL A   1      42.266  23.586  27.835  1.00  0.00    -0.014 A 
ATOM     73  C   UNL A   1      41.752  22.480  28.539  1.00  0.00     0.010 A 
ATOM     74  C   UNL A   1      42.682  23.411  26.503  1.00  0.00     0.010 A 
ATOM     75  C   UNL A   1      41.725  21.213  27.951  1.00  0.00     0.020 A 
ATOM     76  C   UNL A   1      42.621  22.150  25.899  1.00  0.00     0.020 A 
ATOM     77  C   UNL A   1      42.175  21.054  26.639  1.00  0.00     0.054 A 
BRANCH  77  78
ATOM     78  S   UNL A   1      42.198  19.386  25.925  1.00  0.00     0.124 S 
ATOM     79  O   UNL A   1      42.778  18.603  27.013  1.00  0.00    -0.237 OA
ATOM     80  O   UNL A   1      40.783  19.137  25.656  1.00  0.00    -0.237 OA
ATOM     81  O   UNL A   1      43.040  19.530  24.741  1.00  0.00    -0.744 OA
ENDBRANCH  77  78
ENDBRANCH  49  72
BRANCH  61  82
ATOM     82  C   UNL A   1      47.402  26.421  31.703  1.00  0.00    -0.014 A 
ATOM     83  C   UNL A   1      48.526  26.644  30.883  1.00  0.00     0.010 A 
ATOM     84  C   UNL A   1      47.545  25.624  32.852  1.00  0.00     0.010 A 
ATOM     85  C   UNL A   1      49.751  26.039  31.173  1.00  0.00     0.020 A 
ATOM     86  C   UNL A   1      48.779  25.045  33.165  1.00  0.00     0.020 A 
ATOM     87  C   UNL A   1      49.866  25.232  32.307  1.00  0.00     0.054 A 
BRANCH  87  88
ATOM     88  S   UNL A   1      51.449  24.411  32.635  1.00  0.00     0.124 S 
ATOM     89  O   UNL A   1      51.687  24.749  34.034  1.00  0.00    -0.237 OA
ATOM     90  O   UNL A   1      51.143  23.007  32.369  1.00  0.00    -0.237 OA
ATOM     91  O   UNL A   1      52.363  25.032  31.679  1.00  0.00    -0.744 OA
ENDBRANCH  87  88
ENDBRANCH  61  82
ENDBRANCH  35  36
ENDBRANCH  27  30
ENDBRANCH  25  26
ENDBRANCH   1  25
TORSDOF 17
ENDMDL
MODEL 3
REMARK VINA RESULT:     -11.1      2.792      9.452
REMARK SMILES [NH3+]CCC1=c2cc([N+](=O)[O-])ccc2=N[C@H]1C(=O)NCCCNC(=O)c1ccc(-c2c3nc(c(-c4ccc(S(=O)(=O)[O-])cc4)c4ccc([nH]4)c(-c4ccc(S(=O)(=O)[O-])cc4)c4nc(c(-c5ccc(S(=O)(=O)[O-])cc5)c5ccc2[nH]5)C=C4)C=C3)cc1
REMARK SMILES IDX 20 1 19 2 18 3 16 4 17 5 15 7 4 8 5 9 6 10 13 11 14 12 7 13
REMARK SMILES IDX 12 14 11 15 3 16 2 17 1 18 8 22 9 23 10 24 21 25 22 26 23 27
REMARK SMILES IDX 24 29 25 30 26 31 84 32 27 33 83 34 28 35 29 36 30 37 77 38
REMARK SMILES IDX 31 39 82 40 76 41 78 42 32 43 81 44 75 45 74 46 33 48 63 49
REMARK SMILES IDX 44 50 62 51 45 52 48 53 61 54 79 55 46 56 47 57 60 59 80 60
REMARK SMILES IDX 49 61 34 62 35 63 43 64 36 65 42 66 37 67 38 68 39 69 40 70
REMARK SMILES IDX 41 71 64 72 65 73 73 74 66 75 72 76 67 77 68 78 69 79 70 80
REMARK SMILES IDX 71 81 50 82 51 83 59 84 52 85 58 86 53 87 54 88 55 89 56 90
REMARK SMILES IDX 57 91
REMARK H PARENT 18 6 1 19 1 20 1 21 22 28 78 47 48 58
REMARK Flexibility Score: inf
ROOT
ATOM      1  C   UNL A   1      32.534  28.360  26.276  1.00  0.00     0.042 C 
ENDROOT
BRANCH   1   2
ATOM      2  C   UNL A   1      32.884  28.930  24.901  1.00  0.00     0.117 C 
BRANCH   2   3
ATOM      3  N   UNL A   1      31.733  29.455  24.181  1.00  0.00    -0.354 N 
ATOM      4  C   UNL A   1      30.700  28.900  23.486  1.00  0.00     0.249 C 
ATOM      5  O   UNL A   1      29.868  29.708  23.048  1.00  0.00    -0.272 OA
ATOM      6  H   UNL A   1      31.689  30.438  24.202  1.00  0.00     0.163 HD
BRANCH   4   7
ATOM      7  C   UNL A   1      30.495  27.377  23.234  1.00  0.00     0.222 C 
ATOM      8  C   UNL A   1      31.673  26.447  23.255  1.00  0.00    -0.021 C 
ATOM      9  C   UNL A   1      31.597  25.644  24.320  1.00  0.00     0.009 A 
ATOM     10  C   UNL A   1      32.468  24.688  24.936  1.00  0.00     0.096 A 
ATOM     11  C   UNL A   1      30.278  25.962  24.892  1.00  0.00     0.067 A 
ATOM     12  N   UNL A   1      29.589  26.897  24.328  1.00  0.00    -0.267 NA
ATOM     13  C   UNL A   1      32.045  24.078  26.062  1.00  0.00     0.270 A 
ATOM     14  C   UNL A   1      29.841  25.165  26.055  1.00  0.00     0.035 A 
ATOM     15  C   UNL A   1      30.699  24.282  26.592  1.00  0.00     0.088 A 
BRANCH   8  16
ATOM     16  C   UNL A   1      32.746  26.410  22.202  1.00  0.00     0.096 C 
BRANCH  16  17
ATOM     17  C   UNL A   1      32.742  25.308  21.117  1.00  0.00     0.263 C 
BRANCH  17  18
ATOM     18  N   UNL A   1      32.339  25.671  19.768  1.00  0.00    -0.357 N 
ATOM     19  H   UNL A   1      31.707  26.471  19.805  1.00  0.00     0.344 HD
ATOM     20  H   UNL A   1      31.862  24.883  19.332  1.00  0.00     0.344 HD
ATOM     21  H   UNL A   1      33.164  25.915  19.221  1.00  0.00     0.344 HD
ENDBRANCH  17  18
ENDBRANCH  16  17
ENDBRANCH   8  16
BRANCH  13  22
ATOM     22  N   UNL A   1      33.003  23.236  26.790  1.00  0.00     0.062 N 
ATOM     23  O   UNL A   1      32.591  22.578  27.756  1.00  0.00    -0.258 OA
ATOM     24  O   UNL A   1      34.167  23.213  26.369  1.00  0.00    -0.258 OA
ENDBRANCH  13  22
ENDBRANCH   4   7
ENDBRANCH   2   3
ENDBRANCH   1   2
BRANCH   1  25
ATOM     25  C   UNL A   1      33.554  28.643  27.371  1.00  0.00     0.118 C 
BRANCH  25  26
ATOM     26  N   UNL A   1      33.582  30.045  27.748  1.00  0.00    -0.352 N 
ATOM     27  C   UNL A   1      34.583  30.764  28.361  1.00  0.00     0.251 C 
ATOM     28  H   UNL A   1      32.768  30.555  27.532  1.00  0.00     0.163 HD
ATOM     29  O   UNL A   1      34.335  31.881  28.803  1.00  0.00    -0.269 OA
BRANCH  27  30
ATOM     30  C   UNL A   1      35.940  30.185  28.518  1.00  0.00     0.039 A 
ATOM     31  C   UNL A   1      36.347  29.603  29.720  1.00  0.00     0.014 A 
ATOM     32  C   UNL A   1      36.821  30.217  27.433  1.00  0.00     0.014 A 
ATOM     33  C   UNL A   1      37.674  29.214  29.892  1.00  0.00     0.010 A 
ATOM     34  C   UNL A   1      38.129  29.740  27.580  1.00  0.00     0.010 A 
ATOM     35  C   UNL A   1      38.586  29.283  28.826  1.00  0.00    -0.014 A 
BRANCH  35  36
ATOM     36  C   UNL A   1      40.010  28.894  29.035  1.00  0.00     0.031 A 
ATOM     37  C   UNL A   1      40.968  29.836  29.722  1.00  0.00     0.074 A 
ATOM     38  C   UNL A   1      40.438  27.676  28.646  1.00  0.00     0.049 A 
ATOM     39  N   UNL A   1      42.236  29.663  29.998  1.00  0.00    -0.248 NA
ATOM     40  C   UNL A   1      40.438  31.140  30.156  1.00  0.00     0.031 C 
ATOM     41  C   UNL A   1      39.606  26.664  27.993  1.00  0.00     0.029 A 
ATOM     42  N   UNL A   1      41.665  27.069  28.763  1.00  0.00    -0.354 N 
ATOM     43  C   UNL A   1      42.656  30.832  30.621  1.00  0.00     0.074 A 
ATOM     44  C   UNL A   1      41.521  31.728  30.646  1.00  0.00     0.031 C 
ATOM     45  C   UNL A   1      40.329  25.548  27.816  1.00  0.00     0.029 A 
ATOM     46  C   UNL A   1      41.695  25.783  28.276  1.00  0.00     0.049 A 
ATOM     47  H   UNL A   1      42.450  27.514  29.158  1.00  0.00     0.167 HD
ATOM     48  C   UNL A   1      43.870  31.127  31.143  1.00  0.00     0.031 A 
ATOM     49  C   UNL A   1      42.702  24.887  28.197  1.00  0.00     0.031 A 
ATOM     50  C   UNL A   1      44.994  30.224  31.132  1.00  0.00     0.049 A 
ATOM     51  C   UNL A   1      44.056  25.254  28.739  1.00  0.00     0.074 A 
ATOM     52  C   UNL A   1      46.260  30.431  31.652  1.00  0.00     0.029 A 
ATOM     53  N   UNL A   1      44.990  28.949  30.586  1.00  0.00    -0.354 N 
ATOM     54  N   UNL A   1      44.428  26.362  29.335  1.00  0.00    -0.248 NA
ATOM     55  C   UNL A   1      45.123  24.251  28.614  1.00  0.00     0.031 C 
ATOM     56  C   UNL A   1      47.041  29.314  31.355  1.00  0.00     0.029 A 
ATOM     57  C   UNL A   1      46.239  28.369  30.735  1.00  0.00     0.049 A 
ATOM     58  H   UNL A   1      44.214  28.519  30.157  1.00  0.00     0.167 HD
ATOM     59  C   UNL A   1      45.762  26.178  29.683  1.00  0.00     0.074 A 
ATOM     60  C   UNL A   1      46.129  24.848  29.241  1.00  0.00     0.031 C 
ATOM     61  C   UNL A   1      46.600  27.037  30.312  1.00  0.00     0.031 A 
BRANCH  48  62
ATOM     62  C   UNL A   1      44.070  32.476  31.790  1.00  0.00    -0.014 A 
ATOM     63  C   UNL A   1      43.790  32.643  33.160  1.00  0.00     0.010 A 
ATOM     64  C   UNL A   1      44.401  33.607  31.021  1.00  0.00     0.010 A 
ATOM     65  C   UNL A   1      43.797  33.915  33.739  1.00  0.00     0.020 A 
ATOM     66  C   UNL A   1      44.443  34.877  31.604  1.00  0.00     0.020 A 
ATOM     67  C   UNL A   1      44.113  35.026  32.953  1.00  0.00     0.054 A 
BRANCH  67  68
ATOM     68  S   UNL A   1      44.075  36.674  33.710  1.00  0.00     0.124 S 
ATOM     69  O   UNL A   1      42.643  36.904  33.877  1.00  0.00    -0.237 OA
ATOM     70  O   UNL A   1      44.831  36.474  34.945  1.00  0.00    -0.237 OA
ATOM     71  O   UNL A   1      44.734  37.522  32.719  1.00  0.00    -0.744 OA
ENDBRANCH  67  68
ENDBRANCH  48  62
BRANCH  49  72
ATOM     72  C   UNL A   1      42.433  23.543  27.608  1.00  0.00    -0.014 A 
ATOM     73  C   UNL A   1      41.945  22.496  28.414  1.00  0.00     0.010 A 
ATOM     74  C   UNL A   1      42.750  23.275  26.264  1.00  0.00     0.010 A 
ATOM     75  C   UNL A   1      41.848  21.196  27.911  1.00  0.00     0.020 A 
ATOM     76  C   UNL A   1      42.618  21.982  25.747  1.00  0.00     0.020 A 
ATOM     77  C   UNL A   1      42.201  20.945  26.584  1.00  0.00     0.054 A 
BRANCH  77  78
ATOM     78  S   UNL A   1      42.136  19.236  25.977  1.00  0.00     0.124 S 
ATOM     79  O   UNL A   1      40.706  19.059  25.737  1.00  0.00    -0.237 OA
ATOM     80  O   UNL A   1      42.972  19.293  24.780  1.00  0.00    -0.237 OA
ATOM     81  O   UNL A   1      42.685  18.457  27.083  1.00  0.00    -0.744 OA
ENDBRANCH  77  78
ENDBRANCH  49  72
BRANCH  61  82
ATOM     82  C   UNL A   1      48.009  26.587  30.610  1.00  0.00    -0.014 A 
ATOM     83  C   UNL A   1      48.297  26.005  31.861  1.00  0.00     0.010 A 
ATOM     84  C   UNL A   1      49.069  26.874  29.732  1.00  0.00     0.010 A 
ATOM     85  C   UNL A   1      49.618  25.769  32.249  1.00  0.00     0.020 A 
ATOM     86  C   UNL A   1      50.390  26.606  30.103  1.00  0.00     0.020 A 
ATOM     87  C   UNL A   1      50.658  26.083  31.371  1.00  0.00     0.054 A 
BRANCH  87  88
ATOM     88  S   UNL A   1      52.367  25.821  31.917  1.00  0.00     0.124 S 
ATOM     89  O   UNL A   1      52.507  26.814  32.978  1.00  0.00    -0.237 OA
ATOM     90  O   UNL A   1      52.354  24.428  32.356  1.00  0.00    -0.237 OA
ATOM     91  O   UNL A   1      53.156  26.079  30.713  1.00  0.00    -0.744 OA
ENDBRANCH  87  88
ENDBRANCH  61  82
ENDBRANCH  35  36
ENDBRANCH  27  30
ENDBRANCH  25  26
ENDBRANCH   1  25
TORSDOF 17
ENDMDL
