MODEL 1
REMARK VINA RESULT:     -10.2      0.000      0.000
REMARK SMILES O=C(CCc1nc(-c2ccccc2)c(-c2ccccc2)o1)NCCCNC(=O)c1ccc(-c2c3nc(c(-c4ccc(S(=O)(=O)[O-])cc4)c4ccc([nH]4)c(-c4ccc(S(=O)(=O)[O-])cc4)c4nc(c(-c5ccc(S(=O)(=O)[O-])cc5)c5ccc2[nH]5)C=C4)C=C3)cc1
REMARK SMILES IDX 24 1 23 2 22 3 1 4 2 5 3 7 4 8 5 9 6 10 21 11 7 12 14 13
REMARK SMILES IDX 8 14 9 15 13 16 10 17 12 18 11 19 15 20 16 21 20 22 17 23
REMARK SMILES IDX 19 24 18 25 25 26 26 27 27 28 28 30 29 31 30 32 88 33 31 34
REMARK SMILES IDX 87 35 32 36 33 37 34 38 81 39 35 40 86 41 80 42 82 43 36 44
REMARK SMILES IDX 85 45 79 46 78 47 37 49 67 50 48 51 66 52 49 53 52 54 65 55
REMARK SMILES IDX 83 56 50 57 51 58 64 60 84 61 53 62 38 63 39 64 47 65 40 66
REMARK SMILES IDX 46 67 41 68 42 69 43 70 44 71 45 72 68 73 69 74 77 75 70 76
REMARK SMILES IDX 76 77 71 78 72 79 73 80 74 81 75 82 54 83 55 84 63 85 56 86
REMARK SMILES IDX 62 87 57 88 58 89 59 90 60 91 61 92
REMARK H PARENT 22 6 26 29 82 48 52 59
REMARK Flexibility Score: inf
ROOT
ATOM      1  C   UNL A   1      41.936  21.666  26.671  1.00  0.00     0.042 C 
ENDROOT
BRANCH   1   2
ATOM      2  C   UNL A   1      42.342  20.272  26.210  1.00  0.00     0.117 C 
BRANCH   2   3
ATOM      3  N   UNL A   1      43.779  20.107  26.143  1.00  0.00    -0.356 N 
ATOM      4  O   UNL A   1      43.773  18.435  24.566  1.00  0.00    -0.275 OA
ATOM      5  C   UNL A   1      44.382  19.216  25.288  1.00  0.00     0.220 C 
ATOM      6  H   UNL A   1      44.345  20.655  26.733  1.00  0.00     0.163 HD
BRANCH   5   7
ATOM      7  C   UNL A   1      45.894  19.295  25.279  1.00  0.00     0.110 C 
BRANCH   7   8
ATOM      8  C   UNL A   1      46.381  20.353  24.294  1.00  0.00     0.107 C 
BRANCH   8   9
ATOM      9  C   UNL A   1      46.223  21.729  24.839  1.00  0.00     0.196 A 
ATOM     10  N   UNL A   1      46.373  22.877  24.213  1.00  0.00    -0.213 NA
ATOM     11  O   UNL A   1      45.999  21.836  26.185  1.00  0.00    -0.440 OA
ATOM     12  C   UNL A   1      46.217  23.816  25.208  1.00  0.00     0.117 A 
ATOM     13  C   UNL A   1      45.973  23.187  26.416  1.00  0.00     0.162 A 
BRANCH  12  14
ATOM     14  C   UNL A   1      46.339  25.245  24.999  1.00  0.00     0.004 A 
ATOM     15  C   UNL A   1      45.247  26.095  25.221  1.00  0.00     0.010 A 
ATOM     16  C   UNL A   1      47.541  25.787  24.537  1.00  0.00     0.010 A 
ATOM     17  C   UNL A   1      45.348  27.464  24.973  1.00  0.00     0.001 A 
ATOM     18  C   UNL A   1      47.638  27.158  24.276  1.00  0.00     0.001 A 
ATOM     19  C   UNL A   1      46.542  27.994  24.494  1.00  0.00     0.000 A 
ENDBRANCH  12  14
BRANCH  13  20
ATOM     20  C   UNL A   1      45.722  23.620  27.780  1.00  0.00     0.020 A 
ATOM     21  C   UNL A   1      46.561  24.551  28.403  1.00  0.00     0.012 A 
ATOM     22  C   UNL A   1      44.582  23.171  28.464  1.00  0.00     0.012 A 
ATOM     23  C   UNL A   1      46.233  25.068  29.659  1.00  0.00     0.001 A 
ATOM     24  C   UNL A   1      44.264  23.676  29.726  1.00  0.00     0.001 A 
ATOM     25  C   UNL A   1      45.082  24.635  30.316  1.00  0.00     0.000 A 
ENDBRANCH  13  20
ENDBRANCH   8   9
ENDBRANCH   7   8
ENDBRANCH   5   7
ENDBRANCH   2   3
ENDBRANCH   1   2
BRANCH   1  26
ATOM     26  C   UNL A   1      40.660  21.724  27.505  1.00  0.00     0.118 C 
BRANCH  26  27
ATOM     27  N   UNL A   1      39.461  21.919  26.706  1.00  0.00    -0.352 N 
ATOM     28  C   UNL A   1      38.749  23.059  26.434  1.00  0.00     0.251 C 
ATOM     29  H   UNL A   1      39.103  21.100  26.292  1.00  0.00     0.163 HD
ATOM     30  O   UNL A   1      37.677  22.961  25.834  1.00  0.00    -0.269 OA
BRANCH  28  31
ATOM     31  C   UNL A   1      39.223  24.393  26.864  1.00  0.00     0.039 A 
ATOM     32  C   UNL A   1      38.873  24.827  28.148  1.00  0.00     0.014 A 
ATOM     33  C   UNL A   1      39.973  25.230  26.033  1.00  0.00     0.014 A 
ATOM     34  C   UNL A   1      39.333  26.058  28.618  1.00  0.00     0.010 A 
ATOM     35  C   UNL A   1      40.493  26.425  26.527  1.00  0.00     0.010 A 
ATOM     36  C   UNL A   1      40.184  26.846  27.827  1.00  0.00    -0.014 A 
BRANCH  36  37
ATOM     37  C   UNL A   1      40.787  28.084  28.378  1.00  0.00     0.031 A 
ATOM     38  C   UNL A   1      42.273  28.196  28.573  1.00  0.00     0.074 A 
ATOM     39  C   UNL A   1      39.974  29.096  28.740  1.00  0.00     0.049 A 
ATOM     40  N   UNL A   1      42.969  29.211  29.016  1.00  0.00    -0.248 NA
ATOM     41  C   UNL A   1      43.082  27.009  28.249  1.00  0.00     0.031 C 
ATOM     42  C   UNL A   1      38.511  29.077  28.648  1.00  0.00     0.029 A 
ATOM     43  N   UNL A   1      40.257  30.336  29.251  1.00  0.00    -0.354 N 
ATOM     44  C   UNL A   1      44.292  28.789  29.027  1.00  0.00     0.074 A 
ATOM     45  C   UNL A   1      44.297  27.407  28.598  1.00  0.00     0.031 C 
ATOM     46  C   UNL A   1      38.029  30.264  29.051  1.00  0.00     0.029 A 
ATOM     47  C   UNL A   1      39.142  31.112  29.464  1.00  0.00     0.049 A 
ATOM     48  H   UNL A   1      41.172  30.643  29.447  1.00  0.00     0.167 HD
ATOM     49  C   UNL A   1      45.404  29.495  29.348  1.00  0.00     0.031 A 
ATOM     50  C   UNL A   1      39.025  32.367  29.938  1.00  0.00     0.031 A 
ATOM     51  C   UNL A   1      45.386  30.868  29.782  1.00  0.00     0.049 A 
ATOM     52  C   UNL A   1      40.273  33.127  30.290  1.00  0.00     0.074 A 
ATOM     53  C   UNL A   1      46.457  31.691  30.083  1.00  0.00     0.029 A 
ATOM     54  N   UNL A   1      44.238  31.620  29.986  1.00  0.00    -0.354 N 
ATOM     55  N   UNL A   1      41.524  32.737  30.217  1.00  0.00    -0.248 NA
ATOM     56  C   UNL A   1      40.096  34.503  30.771  1.00  0.00     0.031 C 
ATOM     57  C   UNL A   1      45.955  32.919  30.525  1.00  0.00     0.029 A 
ATOM     58  C   UNL A   1      44.573  32.887  30.433  1.00  0.00     0.049 A 
ATOM     59  H   UNL A   1      43.318  31.300  29.834  1.00  0.00     0.167 HD
ATOM     60  C   UNL A   1      42.284  33.829  30.617  1.00  0.00     0.074 A 
ATOM     61  C   UNL A   1      41.353  34.901  30.909  1.00  0.00     0.031 C 
ATOM     62  C   UNL A   1      43.632  33.939  30.730  1.00  0.00     0.031 A 
BRANCH  49  63
ATOM     63  C   UNL A   1      46.733  28.790  29.246  1.00  0.00    -0.014 A 
ATOM     64  C   UNL A   1      47.419  28.361  30.397  1.00  0.00     0.010 A 
ATOM     65  C   UNL A   1      47.286  28.514  27.981  1.00  0.00     0.010 A 
ATOM     66  C   UNL A   1      48.650  27.708  30.288  1.00  0.00     0.020 A 
ATOM     67  C   UNL A   1      48.502  27.833  27.867  1.00  0.00     0.020 A 
ATOM     68  C   UNL A   1      49.185  27.449  29.022  1.00  0.00     0.054 A 
BRANCH  68  69
ATOM     69  S   UNL A   1      50.773  26.580  28.913  1.00  0.00     0.124 S 
ATOM     70  O   UNL A   1      50.850  25.931  30.220  1.00  0.00    -0.237 OA
ATOM     71  O   UNL A   1      50.570  25.684  27.778  1.00  0.00    -0.237 OA
ATOM     72  O   UNL A   1      51.742  27.651  28.693  1.00  0.00    -0.744 OA
ENDBRANCH  68  69
ENDBRANCH  49  63
BRANCH  50  73
ATOM     73  C   UNL A   1      37.678  32.986  30.079  1.00  0.00    -0.014 A 
ATOM     74  C   UNL A   1      37.055  33.064  31.337  1.00  0.00     0.010 A 
ATOM     75  C   UNL A   1      37.018  33.517  28.956  1.00  0.00     0.010 A 
ATOM     76  C   UNL A   1      35.787  33.641  31.466  1.00  0.00     0.020 A 
ATOM     77  C   UNL A   1      35.766  34.123  29.086  1.00  0.00     0.020 A 
ATOM     78  C   UNL A   1      35.152  34.170  30.339  1.00  0.00     0.054 A 
BRANCH  78  79
ATOM     79  S   UNL A   1      33.529  34.955  30.537  1.00  0.00     0.124 S 
ATOM     80  O   UNL A   1      32.782  34.397  29.415  1.00  0.00    -0.237 OA
ATOM     81  O   UNL A   1      33.118  34.497  31.862  1.00  0.00    -0.237 OA
ATOM     82  O   UNL A   1      33.826  36.382  30.445  1.00  0.00    -0.744 OA
ENDBRANCH  78  79
ENDBRANCH  50  73
BRANCH  62  83
ATOM     83  C   UNL A   1      44.179  35.274  31.160  1.00  0.00    -0.014 A 
ATOM     84  C   UNL A   1      44.505  36.270  30.221  1.00  0.00     0.010 A 
ATOM     85  C   UNL A   1      44.345  35.545  32.531  1.00  0.00     0.010 A 
ATOM     86  C   UNL A   1      45.032  37.493  30.644  1.00  0.00     0.020 A 
ATOM     87  C   UNL A   1      44.839  36.779  32.959  1.00  0.00     0.020 A 
ATOM     88  C   UNL A   1      45.198  37.738  32.010  1.00  0.00     0.054 A 
BRANCH  88  89
ATOM     89  S   UNL A   1      45.865  39.341  32.534  1.00  0.00     0.124 S 
ATOM     90  O   UNL A   1      47.300  39.073  32.579  1.00  0.00    -0.237 OA
ATOM     91  O   UNL A   1      45.426  40.235  31.465  1.00  0.00    -0.237 OA
ATOM     92  O   UNL A   1      45.233  39.574  33.831  1.00  0.00    -0.744 OA
ENDBRANCH  88  89
ENDBRANCH  62  83
ENDBRANCH  36  37
ENDBRANCH  28  31
ENDBRANCH  26  27
ENDBRANCH   1  26
TORSDOF 17
ENDMDL
MODEL 2
REMARK VINA RESULT:     -10.1      3.398     12.184
REMARK SMILES O=C(CCc1nc(-c2ccccc2)c(-c2ccccc2)o1)NCCCNC(=O)c1ccc(-c2c3nc(c(-c4ccc(S(=O)(=O)[O-])cc4)c4ccc([nH]4)c(-c4ccc(S(=O)(=O)[O-])cc4)c4nc(c(-c5ccc(S(=O)(=O)[O-])cc5)c5ccc2[nH]5)C=C4)C=C3)cc1
REMARK SMILES IDX 24 1 23 2 22 3 1 4 2 5 3 7 4 8 5 9 6 10 21 11 7 12 14 13
REMARK SMILES IDX 8 14 9 15 13 16 10 17 12 18 11 19 15 20 16 21 20 22 17 23
REMARK SMILES IDX 19 24 18 25 25 26 26 27 27 28 28 30 29 31 30 32 88 33 31 34
REMARK SMILES IDX 87 35 32 36 33 37 34 38 81 39 35 40 86 41 80 42 82 43 36 44
REMARK SMILES IDX 85 45 79 46 78 47 37 49 67 50 48 51 66 52 49 53 52 54 65 55
REMARK SMILES IDX 83 56 50 57 51 58 64 60 84 61 53 62 38 63 39 64 47 65 40 66
REMARK SMILES IDX 46 67 41 68 42 69 43 70 44 71 45 72 68 73 69 74 77 75 70 76
REMARK SMILES IDX 76 77 71 78 72 79 73 80 74 81 75 82 54 83 55 84 63 85 56 86
REMARK SMILES IDX 62 87 57 88 58 89 59 90 60 91 61 92
REMARK H PARENT 22 6 26 29 82 48 52 59
REMARK Flexibility Score: inf
ROOT
ATOM      1  C   UNL A   1      34.212  34.415  28.053  1.00  0.00     0.042 C 
ENDROOT
BRANCH   1   2
ATOM      2  C   UNL A   1      33.326  35.107  29.081  1.00  0.00     0.117 C 
BRANCH   2   3
ATOM      3  N   UNL A   1      33.893  35.075  30.413  1.00  0.00    -0.356 N 
ATOM      4  O   UNL A   1      32.373  36.505  31.376  1.00  0.00    -0.275 OA
ATOM      5  C   UNL A   1      33.339  35.757  31.470  1.00  0.00     0.220 C 
ATOM      6  H   UNL A   1      34.707  34.543  30.566  1.00  0.00     0.163 HD
BRANCH   5   7
ATOM      7  C   UNL A   1      34.007  35.483  32.800  1.00  0.00     0.110 C 
BRANCH   7   8
ATOM      8  C   UNL A   1      33.940  33.999  33.151  1.00  0.00     0.107 C 
BRANCH   8   9
ATOM      9  C   UNL A   1      35.262  33.478  33.595  1.00  0.00     0.196 A 
ATOM     10  N   UNL A   1      35.943  32.462  33.108  1.00  0.00    -0.213 NA
ATOM     11  O   UNL A   1      35.803  34.044  34.717  1.00  0.00    -0.440 OA
ATOM     12  C   UNL A   1      37.025  32.358  33.954  1.00  0.00     0.117 A 
ATOM     13  C   UNL A   1      36.955  33.333  34.932  1.00  0.00     0.162 A 
BRANCH  12  14
ATOM     14  C   UNL A   1      38.049  31.340  33.835  1.00  0.00     0.004 A 
ATOM     15  C   UNL A   1      39.343  31.568  34.324  1.00  0.00     0.010 A 
ATOM     16  C   UNL A   1      37.766  30.129  33.198  1.00  0.00     0.010 A 
ATOM     17  C   UNL A   1      40.344  30.608  34.167  1.00  0.00     0.001 A 
ATOM     18  C   UNL A   1      38.773  29.173  33.029  1.00  0.00     0.001 A 
ATOM     19  C   UNL A   1      40.059  29.413  33.514  1.00  0.00     0.000 A 
ENDBRANCH  12  14
BRANCH  13  20
ATOM     20  C   UNL A   1      37.775  33.730  36.063  1.00  0.00     0.020 A 
ATOM     21  C   UNL A   1      37.580  33.159  37.327  1.00  0.00     0.012 A 
ATOM     22  C   UNL A   1      38.832  34.636  35.886  1.00  0.00     0.012 A 
ATOM     23  C   UNL A   1      38.464  33.439  38.372  1.00  0.00     0.001 A 
ATOM     24  C   UNL A   1      39.704  34.928  36.936  1.00  0.00     0.001 A 
ATOM     25  C   UNL A   1      39.527  34.319  38.174  1.00  0.00     0.000 A 
ENDBRANCH  13  20
ENDBRANCH   8   9
ENDBRANCH   7   8
ENDBRANCH   5   7
ENDBRANCH   2   3
ENDBRANCH   1   2
BRANCH   1  26
ATOM     26  C   UNL A   1      34.769  33.064  28.488  1.00  0.00     0.118 C 
BRANCH  26  27
ATOM     27  N   UNL A   1      33.989  31.937  28.000  1.00  0.00    -0.352 N 
ATOM     28  C   UNL A   1      34.352  30.635  27.776  1.00  0.00     0.251 C 
ATOM     29  H   UNL A   1      33.047  32.144  27.799  1.00  0.00     0.163 HD
ATOM     30  O   UNL A   1      33.548  29.879  27.228  1.00  0.00    -0.269 OA
BRANCH  28  31
ATOM     31  C   UNL A   1      35.690  30.125  28.151  1.00  0.00     0.039 A 
ATOM     32  C   UNL A   1      36.696  30.155  27.179  1.00  0.00     0.014 A 
ATOM     33  C   UNL A   1      35.967  29.597  29.416  1.00  0.00     0.014 A 
ATOM     34  C   UNL A   1      37.986  29.728  27.497  1.00  0.00     0.010 A 
ATOM     35  C   UNL A   1      37.271  29.239  29.755  1.00  0.00     0.010 A 
ATOM     36  C   UNL A   1      38.293  29.309  28.801  1.00  0.00    -0.014 A 
BRANCH  36  37
ATOM     37  C   UNL A   1      39.693  28.991  29.176  1.00  0.00     0.031 A 
ATOM     38  C   UNL A   1      40.544  29.996  29.900  1.00  0.00     0.074 A 
ATOM     39  C   UNL A   1      40.203  27.795  28.821  1.00  0.00     0.049 A 
ATOM     40  N   UNL A   1      41.774  29.874  30.327  1.00  0.00    -0.248 NA
ATOM     41  C   UNL A   1      39.945  31.315  30.161  1.00  0.00     0.031 C 
ATOM     42  C   UNL A   1      39.487  26.762  28.067  1.00  0.00     0.029 A 
ATOM     43  N   UNL A   1      41.437  27.242  29.048  1.00  0.00    -0.354 N 
ATOM     44  C   UNL A   1      42.099  31.096  30.903  1.00  0.00     0.074 A 
ATOM     45  C   UNL A   1      40.955  31.964  30.723  1.00  0.00     0.031 C 
ATOM     46  C   UNL A   1      40.280  25.688  27.929  1.00  0.00     0.029 A 
ATOM     47  C   UNL A   1      41.570  25.968  28.550  1.00  0.00     0.049 A 
ATOM     48  H   UNL A   1      42.159  27.713  29.524  1.00  0.00     0.167 HD
ATOM     49  C   UNL A   1      43.240  31.456  31.541  1.00  0.00     0.031 A 
ATOM     50  C   UNL A   1      42.613  25.117  28.588  1.00  0.00     0.031 A 
ATOM     51  C   UNL A   1      44.376  30.586  31.706  1.00  0.00     0.049 A 
ATOM     52  C   UNL A   1      43.869  25.541  29.297  1.00  0.00     0.074 A 
ATOM     53  C   UNL A   1      45.560  30.833  32.378  1.00  0.00     0.029 A 
ATOM     54  N   UNL A   1      44.473  29.302  31.187  1.00  0.00    -0.354 N 
ATOM     55  N   UNL A   1      44.128  26.674  29.908  1.00  0.00    -0.248 NA
ATOM     56  C   UNL A   1      44.966  24.566  29.340  1.00  0.00     0.031 C 
ATOM     57  C   UNL A   1      46.396  29.723  32.215  1.00  0.00     0.029 A 
ATOM     58  C   UNL A   1      45.706  28.756  31.501  1.00  0.00     0.049 A 
ATOM     59  H   UNL A   1      43.768  28.846  30.671  1.00  0.00     0.167 HD
ATOM     60  C   UNL A   1      45.408  26.537  30.430  1.00  0.00     0.074 A 
ATOM     61  C   UNL A   1      45.860  25.203  30.083  1.00  0.00     0.031 C 
ATOM     62  C   UNL A   1      46.144  27.430  31.137  1.00  0.00     0.031 A 
BRANCH  49  63
ATOM     63  C   UNL A   1      43.317  32.853  32.101  1.00  0.00    -0.014 A 
ATOM     64  C   UNL A   1      42.961  33.122  33.436  1.00  0.00     0.010 A 
ATOM     65  C   UNL A   1      43.792  33.906  31.298  1.00  0.00     0.010 A 
ATOM     66  C   UNL A   1      43.038  34.422  33.943  1.00  0.00     0.020 A 
ATOM     67  C   UNL A   1      43.901  35.202  31.811  1.00  0.00     0.020 A 
ATOM     68  C   UNL A   1      43.506  35.455  33.126  1.00  0.00     0.054 A 
BRANCH  68  69
ATOM     69  S   UNL A   1      43.617  37.128  33.820  1.00  0.00     0.124 S 
ATOM     70  O   UNL A   1      42.261  37.334  34.322  1.00  0.00    -0.237 OA
ATOM     71  O   UNL A   1      44.650  36.983  34.841  1.00  0.00    -0.237 OA
ATOM     72  O   UNL A   1      43.987  37.956  32.675  1.00  0.00    -0.744 OA
ENDBRANCH  68  69
ENDBRANCH  49  63
BRANCH  50  73
ATOM     73  C   UNL A   1      42.500  23.773  27.957  1.00  0.00    -0.014 A 
ATOM     74  C   UNL A   1      42.988  23.549  26.657  1.00  0.00     0.010 A 
ATOM     75  C   UNL A   1      41.917  22.703  28.661  1.00  0.00     0.010 A 
ATOM     76  C   UNL A   1      42.874  22.287  26.065  1.00  0.00     0.020 A 
ATOM     77  C   UNL A   1      41.831  21.433  28.085  1.00  0.00     0.020 A 
ATOM     78  C   UNL A   1      42.299  21.236  26.784  1.00  0.00     0.054 A 
BRANCH  78  79
ATOM     79  S   UNL A   1      42.205  19.597  26.013  1.00  0.00     0.124 S 
ATOM     80  O   UNL A   1      42.660  18.727  27.092  1.00  0.00    -0.237 OA
ATOM     81  O   UNL A   1      40.788  19.492  25.671  1.00  0.00    -0.237 OA
ATOM     82  O   UNL A   1      43.107  19.704  24.870  1.00  0.00    -0.744 OA
ENDBRANCH  78  79
ENDBRANCH  50  73
BRANCH  62  83
ATOM     83  C   UNL A   1      47.503  26.983  31.608  1.00  0.00    -0.014 A 
ATOM     84  C   UNL A   1      47.679  26.366  32.860  1.00  0.00     0.010 A 
ATOM     85  C   UNL A   1      48.618  27.160  30.769  1.00  0.00     0.010 A 
ATOM     86  C   UNL A   1      48.954  25.979  33.282  1.00  0.00     0.020 A 
ATOM     87  C   UNL A   1      49.889  26.744  31.174  1.00  0.00     0.020 A 
ATOM     88  C   UNL A   1      50.051  26.174  32.437  1.00  0.00     0.054 A 
BRANCH  88  89
ATOM     89  S   UNL A   1      51.691  25.644  33.002  1.00  0.00     0.124 S 
ATOM     90  O   UNL A   1      52.533  26.001  31.863  1.00  0.00    -0.237 OA
ATOM     91  O   UNL A   1      51.889  26.446  34.207  1.00  0.00    -0.237 OA
ATOM     92  O   UNL A   1      51.532  24.210  33.234  1.00  0.00    -0.744 OA
ENDBRANCH  88  89
ENDBRANCH  62  83
ENDBRANCH  36  37
ENDBRANCH  28  31
ENDBRANCH  26  27
ENDBRANCH   1  26
TORSDOF 17
ENDMDL
MODEL 3
REMARK VINA RESULT:      -9.6      2.435      8.449
REMARK SMILES O=C(CCc1nc(-c2ccccc2)c(-c2ccccc2)o1)NCCCNC(=O)c1ccc(-c2c3nc(c(-c4ccc(S(=O)(=O)[O-])cc4)c4ccc([nH]4)c(-c4ccc(S(=O)(=O)[O-])cc4)c4nc(c(-c5ccc(S(=O)(=O)[O-])cc5)c5ccc2[nH]5)C=C4)C=C3)cc1
REMARK SMILES IDX 24 1 23 2 22 3 1 4 2 5 3 7 4 8 5 9 6 10 21 11 7 12 14 13
REMARK SMILES IDX 8 14 9 15 13 16 10 17 12 18 11 19 15 20 16 21 20 22 17 23
REMARK SMILES IDX 19 24 18 25 25 26 26 27 27 28 28 30 29 31 30 32 88 33 31 34
REMARK SMILES IDX 87 35 32 36 33 37 34 38 81 39 35 40 86 41 80 42 82 43 36 44
REMARK SMILES IDX 85 45 79 46 78 47 37 49 67 50 48 51 66 52 49 53 52 54 65 55
REMARK SMILES IDX 83 56 50 57 51 58 64 60 84 61 53 62 38 63 39 64 47 65 40 66
REMARK SMILES IDX 46 67 41 68 42 69 43 70 44 71 45 72 68 73 69 74 77 75 70 76
REMARK SMILES IDX 76 77 71 78 72 79 73 80 74 81 75 82 54 83 55 84 63 85 56 86
REMARK SMILES IDX 62 87 57 88 58 89 59 90 60 91 61 92
REMARK H PARENT 22 6 26 29 82 48 52 59
REMARK Flexibility Score: inf
ROOT
ATOM      1  C   UNL A   1      42.243  22.333  26.936  1.00  0.00     0.042 C 
ENDROOT
BRANCH   1   2
ATOM      2  C   UNL A   1      42.780  21.006  26.414  1.00  0.00     0.117 C 
BRANCH   2   3
ATOM      3  N   UNL A   1      44.200  21.053  26.138  1.00  0.00    -0.356 N 
ATOM      4  O   UNL A   1      44.107  19.952  24.121  1.00  0.00    -0.275 OA
ATOM      5  C   UNL A   1      44.747  20.547  24.982  1.00  0.00     0.220 C 
ATOM      6  H   UNL A   1      44.798  21.463  26.804  1.00  0.00     0.163 HD
BRANCH   5   7
ATOM      7  C   UNL A   1      46.228  20.816  24.829  1.00  0.00     0.110 C 
BRANCH   7   8
ATOM      8  C   UNL A   1      46.477  22.220  24.287  1.00  0.00     0.107 C 
BRANCH   8   9
ATOM      9  C   UNL A   1      45.871  23.263  25.158  1.00  0.00     0.196 A 
ATOM     10  N   UNL A   1      45.211  24.344  24.799  1.00  0.00    -0.213 NA
ATOM     11  O   UNL A   1      46.109  23.159  26.502  1.00  0.00    -0.440 OA
ATOM     12  C   UNL A   1      44.977  24.996  25.989  1.00  0.00     0.117 A 
ATOM     13  C   UNL A   1      45.510  24.269  27.038  1.00  0.00     0.162 A 
BRANCH  12  14
ATOM     14  C   UNL A   1      44.304  26.275  26.092  1.00  0.00     0.004 A 
ATOM     15  C   UNL A   1      43.310  26.636  25.172  1.00  0.00     0.010 A 
ATOM     16  C   UNL A   1      44.666  27.181  27.092  1.00  0.00     0.010 A 
ATOM     17  C   UNL A   1      42.695  27.887  25.240  1.00  0.00     0.001 A 
ATOM     18  C   UNL A   1      44.059  28.440  27.153  1.00  0.00     0.001 A 
ATOM     19  C   UNL A   1      43.075  28.791  26.227  1.00  0.00     0.000 A 
ENDBRANCH  12  14
BRANCH  13  20
ATOM     20  C   UNL A   1      45.574  24.423  28.481  1.00  0.00     0.020 A 
ATOM     21  C   UNL A   1      46.558  25.223  29.074  1.00  0.00     0.012 A 
ATOM     22  C   UNL A   1      44.597  23.835  29.298  1.00  0.00     0.012 A 
ATOM     23  C   UNL A   1      46.527  25.481  30.447  1.00  0.00     0.001 A 
ATOM     24  C   UNL A   1      44.577  24.079  30.673  1.00  0.00     0.001 A 
ATOM     25  C   UNL A   1      45.533  24.913  31.243  1.00  0.00     0.000 A 
ENDBRANCH  13  20
ENDBRANCH   8   9
ENDBRANCH   7   8
ENDBRANCH   5   7
ENDBRANCH   2   3
ENDBRANCH   1   2
BRANCH   1  26
ATOM     26  C   UNL A   1      40.876  22.256  27.607  1.00  0.00     0.118 C 
BRANCH  26  27
ATOM     27  N   UNL A   1      39.775  22.531  26.698  1.00  0.00    -0.352 N 
ATOM     28  C   UNL A   1      39.001  23.653  26.550  1.00  0.00     0.251 C 
ATOM     29  H   UNL A   1      39.549  21.791  26.088  1.00  0.00     0.163 HD
ATOM     30  O   UNL A   1      38.028  23.609  25.796  1.00  0.00    -0.269 OA
BRANCH  28  31
ATOM     31  C   UNL A   1      39.292  24.900  27.291  1.00  0.00     0.039 A 
ATOM     32  C   UNL A   1      38.780  25.024  28.587  1.00  0.00     0.014 A 
ATOM     33  C   UNL A   1      40.027  25.953  26.735  1.00  0.00     0.014 A 
ATOM     34  C   UNL A   1      39.065  26.161  29.344  1.00  0.00     0.010 A 
ATOM     35  C   UNL A   1      40.372  27.055  27.515  1.00  0.00     0.010 A 
ATOM     36  C   UNL A   1      39.900  27.166  28.829  1.00  0.00    -0.014 A 
BRANCH  36  37
ATOM     37  C   UNL A   1      40.318  28.305  29.683  1.00  0.00     0.031 A 
ATOM     38  C   UNL A   1      39.432  29.506  29.852  1.00  0.00     0.074 A 
ATOM     39  C   UNL A   1      41.528  28.260  30.274  1.00  0.00     0.049 A 
ATOM     40  N   UNL A   1      39.629  30.575  30.580  1.00  0.00    -0.248 NA
ATOM     41  C   UNL A   1      38.171  29.521  29.092  1.00  0.00     0.031 C 
ATOM     42  C   UNL A   1      42.497  27.169  30.135  1.00  0.00     0.029 A 
ATOM     43  N   UNL A   1      42.151  29.149  31.113  1.00  0.00    -0.354 N 
ATOM     44  C   UNL A   1      38.524  31.390  30.366  1.00  0.00     0.074 A 
ATOM     45  C   UNL A   1      37.685  30.716  29.398  1.00  0.00     0.031 C 
ATOM     46  C   UNL A   1      43.572  27.435  30.894  1.00  0.00     0.029 A 
ATOM     47  C   UNL A   1      43.388  28.729  31.541  1.00  0.00     0.049 A 
ATOM     48  H   UNL A   1      41.749  30.007  31.383  1.00  0.00     0.167 HD
ATOM     49  C   UNL A   1      38.226  32.582  30.938  1.00  0.00     0.031 A 
ATOM     50  C   UNL A   1      44.275  29.317  32.366  1.00  0.00     0.031 A 
ATOM     51  C   UNL A   1      39.074  33.248  31.894  1.00  0.00     0.049 A 
ATOM     52  C   UNL A   1      43.924  30.641  32.984  1.00  0.00     0.074 A 
ATOM     53  C   UNL A   1      38.844  34.432  32.571  1.00  0.00     0.029 A 
ATOM     54  N   UNL A   1      40.319  32.791  32.303  1.00  0.00    -0.354 N 
ATOM     55  N   UNL A   1      42.835  31.359  32.831  1.00  0.00    -0.248 NA
ATOM     56  C   UNL A   1      44.910  31.226  33.900  1.00  0.00     0.031 C 
ATOM     57  C   UNL A   1      39.973  34.721  33.344  1.00  0.00     0.029 A 
ATOM     58  C   UNL A   1      40.879  33.682  33.203  1.00  0.00     0.049 A 
ATOM     59  H   UNL A   1      40.742  31.955  31.999  1.00  0.00     0.167 HD
ATOM     60  C   UNL A   1      42.996  32.467  33.653  1.00  0.00     0.074 A 
ATOM     61  C   UNL A   1      44.275  32.312  34.318  1.00  0.00     0.031 C 
ATOM     62  C   UNL A   1      42.160  33.518  33.846  1.00  0.00     0.031 A 
BRANCH  49  63
ATOM     63  C   UNL A   1      36.933  33.245  30.539  1.00  0.00    -0.014 A 
ATOM     64  C   UNL A   1      35.850  33.326  31.434  1.00  0.00     0.010 A 
ATOM     65  C   UNL A   1      36.811  33.837  29.268  1.00  0.00     0.010 A 
ATOM     66  C   UNL A   1      34.657  33.944  31.052  1.00  0.00     0.020 A 
ATOM     67  C   UNL A   1      35.630  34.484  28.892  1.00  0.00     0.020 A 
ATOM     68  C   UNL A   1      34.553  34.519  29.781  1.00  0.00     0.054 A 
BRANCH  68  69
ATOM     69  S   UNL A   1      33.000  35.335  29.322  1.00  0.00     0.124 S 
ATOM     70  O   UNL A   1      32.282  35.350  30.594  1.00  0.00    -0.237 OA
ATOM     71  O   UNL A   1      33.453  36.637  28.841  1.00  0.00    -0.237 OA
ATOM     72  O   UNL A   1      32.435  34.458  28.300  1.00  0.00    -0.744 OA
ENDBRANCH  68  69
ENDBRANCH  49  63
BRANCH  50  73
ATOM     73  C   UNL A   1      45.568  28.642  32.669  1.00  0.00    -0.014 A 
ATOM     74  C   UNL A   1      46.725  28.946  31.931  1.00  0.00     0.010 A 
ATOM     75  C   UNL A   1      45.651  27.702  33.713  1.00  0.00     0.010 A 
ATOM     76  C   UNL A   1      47.936  28.305  32.215  1.00  0.00     0.020 A 
ATOM     77  C   UNL A   1      46.866  27.084  34.021  1.00  0.00     0.020 A 
ATOM     78  C   UNL A   1      47.999  27.381  33.260  1.00  0.00     0.054 A 
BRANCH  78  79
ATOM     79  S   UNL A   1      49.590  26.598  33.641  1.00  0.00     0.124 S 
ATOM     80  O   UNL A   1      50.463  27.173  32.623  1.00  0.00    -0.237 OA
ATOM     81  O   UNL A   1      49.838  27.041  35.011  1.00  0.00    -0.237 OA
ATOM     82  O   UNL A   1      49.313  25.171  33.497  1.00  0.00    -0.744 OA
ENDBRANCH  78  79
ENDBRANCH  50  73
BRANCH  62  83
ATOM     83  C   UNL A   1      42.590  34.566  34.838  1.00  0.00    -0.014 A 
ATOM     84  C   UNL A   1      42.471  34.358  36.224  1.00  0.00     0.010 A 
ATOM     85  C   UNL A   1      43.148  35.771  34.372  1.00  0.00     0.010 A 
ATOM     86  C   UNL A   1      42.858  35.355  37.123  1.00  0.00     0.020 A 
ATOM     87  C   UNL A   1      43.568  36.756  35.269  1.00  0.00     0.020 A 
ATOM     88  C   UNL A   1      43.401  36.549  36.639  1.00  0.00     0.054 A 
BRANCH  88  89
ATOM     89  S   UNL A   1      43.914  37.819  37.828  1.00  0.00     0.124 S 
ATOM     90  O   UNL A   1      42.658  38.118  38.512  1.00  0.00    -0.237 OA
ATOM     91  O   UNL A   1      44.916  37.121  38.629  1.00  0.00    -0.237 OA
ATOM     92  O   UNL A   1      44.435  38.892  36.985  1.00  0.00    -0.744 OA
ENDBRANCH  88  89
ENDBRANCH  62  83
ENDBRANCH  36  37
ENDBRANCH  28  31
ENDBRANCH  26  27
ENDBRANCH   1  26
TORSDOF 17
ENDMDL
