MODEL 1
REMARK VINA RESULT:      -9.8      0.000      0.000
REMARK SMILES C/C(=N\O)[C@@H]1C[C@@H](CC(=O)NCCCNC(=O)c2ccc(-c3c4nc(c(-c5ccc(S(=O)(=O)[O-])cc5)c5ccc([nH]5)c(-c5ccc(S(=O)(=O)[O-])cc5)c5nc(c(-c6ccc(S(=O)(=O)[O-])cc6)c6ccc3[nH]6)C=C5)C=C4)cc2)C1(C)C
REMARK SMILES IDX 13 1 12 2 11 3 9 4 10 5 8 7 7 8 5 9 6 10 78 11 79 12 80 13
REMARK SMILES IDX 2 14 1 15 3 16 4 17 14 19 15 20 16 21 17 23 18 24 19 25
REMARK SMILES IDX 77 26 20 27 76 28 21 29 22 30 23 31 70 32 24 33 75 34 69 35
REMARK SMILES IDX 71 36 25 37 74 38 68 39 67 40 26 42 56 43 37 44 55 45 38 46
REMARK SMILES IDX 41 47 54 48 72 49 39 50 40 51 53 53 73 54 42 55 27 56 28 57
REMARK SMILES IDX 36 58 29 59 35 60 30 61 31 62 32 63 33 64 34 65 57 66 58 67
REMARK SMILES IDX 66 68 59 69 65 70 60 71 61 72 62 73 63 74 64 75 43 76 44 77
REMARK SMILES IDX 52 78 45 79 51 80 46 81 47 82 48 83 49 84 50 85
REMARK H PARENT 11 6 4 18 15 22 71 41 41 52
REMARK Flexibility Score: inf
ROOT
ATOM      1  C   UNL A   1      41.025  20.195  26.239  1.00  0.00     0.042 C 
ENDROOT
BRANCH   1   2
ATOM      2  C   UNL A   1      42.541  20.130  26.439  1.00  0.00     0.117 C 
BRANCH   2   3
ATOM      3  N   UNL A   1      43.279  20.208  25.189  1.00  0.00    -0.356 N 
ATOM      4  C   UNL A   1      44.467  20.792  24.872  1.00  0.00     0.220 C 
ATOM      5  O   UNL A   1      44.872  20.667  23.713  1.00  0.00    -0.275 OA
ATOM      6  H   UNL A   1      42.840  19.756  24.432  1.00  0.00     0.163 HD
BRANCH   4   7
ATOM      7  C   UNL A   1      45.279  21.589  25.881  1.00  0.00     0.104 C 
BRANCH   7   8
ATOM      8  C   UNL A   1      45.305  23.090  25.572  1.00  0.00     0.005 C 
ATOM      9  C   UNL A   1      45.121  25.071  26.494  1.00  0.00     0.043 C 
ATOM     10  C   UNL A   1      46.250  24.023  26.364  1.00  0.00     0.015 C 
ATOM     11  C   UNL A   1      44.100  23.964  26.053  1.00  0.00    -0.024 C 
ATOM     12  C   UNL A   1      43.308  23.559  27.297  1.00  0.00     0.012 C 
ATOM     13  C   UNL A   1      43.207  24.272  24.847  1.00  0.00     0.012 C 
BRANCH   9  14
ATOM     14  C   UNL A   1      45.063  26.405  25.683  1.00  0.00     0.058 C 
ATOM     15  C   UNL A   1      44.088  27.484  26.072  1.00  0.00     0.066 C 
ATOM     16  N   UNL A   1      45.921  26.487  24.707  1.00  0.00    -0.099 NA
BRANCH  16  17
ATOM     17  O   UNL A   1      45.888  27.722  24.062  1.00  0.00    -0.411 OA
ATOM     18  H   UNL A   1      45.100  28.011  23.645  1.00  0.00     0.330 HD
ENDBRANCH  16  17
ENDBRANCH   9  14
ENDBRANCH   7   8
ENDBRANCH   4   7
ENDBRANCH   2   3
ENDBRANCH   1   2
BRANCH   1  19
ATOM     19  C   UNL A   1      40.344  21.384  26.905  1.00  0.00     0.118 C 
BRANCH  19  20
ATOM     20  N   UNL A   1      39.309  21.934  26.043  1.00  0.00    -0.352 N 
ATOM     21  C   UNL A   1      38.671  23.152  26.082  1.00  0.00     0.251 C 
ATOM     22  H   UNL A   1      39.017  21.338  25.317  1.00  0.00     0.163 HD
ATOM     23  O   UNL A   1      37.602  23.268  25.488  1.00  0.00    -0.269 OA
BRANCH  21  24
ATOM     24  C   UNL A   1      39.237  24.322  26.806  1.00  0.00     0.039 A 
ATOM     25  C   UNL A   1      38.864  24.534  28.140  1.00  0.00     0.014 A 
ATOM     26  C   UNL A   1      40.026  25.279  26.164  1.00  0.00     0.014 A 
ATOM     27  C   UNL A   1      39.289  25.681  28.825  1.00  0.00     0.010 A 
ATOM     28  C   UNL A   1      40.515  26.381  26.870  1.00  0.00     0.010 A 
ATOM     29  C   UNL A   1      40.127  26.614  28.200  1.00  0.00    -0.014 A 
BRANCH  29  30
ATOM     30  C   UNL A   1      40.551  27.875  28.874  1.00  0.00     0.031 A 
ATOM     31  C   UNL A   1      41.917  27.958  29.514  1.00  0.00     0.074 A 
ATOM     32  C   UNL A   1      39.707  28.920  28.974  1.00  0.00     0.049 A 
ATOM     33  N   UNL A   1      42.423  28.901  30.269  1.00  0.00    -0.248 NA
ATOM     34  C   UNL A   1      42.820  26.817  29.297  1.00  0.00     0.031 C 
ATOM     35  C   UNL A   1      38.356  28.980  28.414  1.00  0.00     0.029 A 
ATOM     36  N   UNL A   1      39.860  30.135  29.600  1.00  0.00    -0.354 N 
ATOM     37  C   UNL A   1      43.682  28.447  30.652  1.00  0.00     0.074 A 
ATOM     38  C   UNL A   1      43.848  27.132  30.073  1.00  0.00     0.031 C 
ATOM     39  C   UNL A   1      37.811  30.172  28.708  1.00  0.00     0.029 A 
ATOM     40  C   UNL A   1      38.751  30.945  29.515  1.00  0.00     0.049 A 
ATOM     41  H   UNL A   1      40.686  30.401  30.065  1.00  0.00     0.167 HD
ATOM     42  C   UNL A   1      44.622  29.070  31.403  1.00  0.00     0.031 A 
ATOM     43  C   UNL A   1      38.508  32.163  30.039  1.00  0.00     0.031 A 
ATOM     44  C   UNL A   1      44.477  30.393  31.948  1.00  0.00     0.049 A 
ATOM     45  C   UNL A   1      39.569  32.841  30.864  1.00  0.00     0.074 A 
ATOM     46  C   UNL A   1      45.394  31.128  32.678  1.00  0.00     0.029 A 
ATOM     47  N   UNL A   1      43.348  31.186  31.810  1.00  0.00    -0.354 N 
ATOM     48  N   UNL A   1      40.761  32.404  31.192  1.00  0.00    -0.248 NA
ATOM     49  C   UNL A   1      39.254  34.181  31.383  1.00  0.00     0.031 C 
ATOM     50  C   UNL A   1      44.806  32.352  33.013  1.00  0.00     0.029 A 
ATOM     51  C   UNL A   1      43.541  32.398  32.450  1.00  0.00     0.049 A 
ATOM     52  H   UNL A   1      42.530  30.924  31.329  1.00  0.00     0.167 HD
ATOM     53  C   UNL A   1      41.350  33.428  31.927  1.00  0.00     0.074 A 
ATOM     54  C   UNL A   1      40.386  34.507  31.993  1.00  0.00     0.031 C 
ATOM     55  C   UNL A   1      42.581  33.470  32.494  1.00  0.00     0.031 A 
BRANCH  42  56
ATOM     56  C   UNL A   1      45.895  28.316  31.688  1.00  0.00    -0.014 A 
ATOM     57  C   UNL A   1      46.997  28.389  30.817  1.00  0.00     0.010 A 
ATOM     58  C   UNL A   1      46.001  27.542  32.859  1.00  0.00     0.010 A 
ATOM     59  C   UNL A   1      48.160  27.661  31.083  1.00  0.00     0.020 A 
ATOM     60  C   UNL A   1      47.172  26.835  33.144  1.00  0.00     0.020 A 
ATOM     61  C   UNL A   1      48.236  26.882  32.242  1.00  0.00     0.054 A 
BRANCH  61  62
ATOM     62  S   UNL A   1      49.759  25.950  32.565  1.00  0.00     0.124 S 
ATOM     63  O   UNL A   1      49.417  25.237  33.794  1.00  0.00    -0.237 OA
ATOM     64  O   UNL A   1      49.888  25.117  31.372  1.00  0.00    -0.237 OA
ATOM     65  O   UNL A   1      50.777  26.988  32.711  1.00  0.00    -0.744 OA
ENDBRANCH  61  62
ENDBRANCH  42  56
BRANCH  43  66
ATOM     66  C   UNL A   1      37.202  32.831  29.786  1.00  0.00    -0.014 A 
ATOM     67  C   UNL A   1      36.222  32.878  30.794  1.00  0.00     0.010 A 
ATOM     68  C   UNL A   1      36.939  33.436  28.544  1.00  0.00     0.010 A 
ATOM     69  C   UNL A   1      34.997  33.508  30.559  1.00  0.00     0.020 A 
ATOM     70  C   UNL A   1      35.724  34.088  28.315  1.00  0.00     0.020 A 
ATOM     71  C   UNL A   1      34.757  34.112  29.322  1.00  0.00     0.054 A 
BRANCH  71  72
ATOM     72  S   UNL A   1      33.183  34.978  29.061  1.00  0.00     0.124 S 
ATOM     73  O   UNL A   1      32.580  34.919  30.389  1.00  0.00    -0.237 OA
ATOM     74  O   UNL A   1      33.618  36.301  28.621  1.00  0.00    -0.237 OA
ATOM     75  O   UNL A   1      32.520  34.176  28.035  1.00  0.00    -0.744 OA
ENDBRANCH  71  72
ENDBRANCH  43  66
BRANCH  55  76
ATOM     76  C   UNL A   1      42.988  34.740  33.191  1.00  0.00    -0.014 A 
ATOM     77  C   UNL A   1      42.730  34.938  34.558  1.00  0.00     0.010 A 
ATOM     78  C   UNL A   1      43.715  35.713  32.481  1.00  0.00     0.010 A 
ATOM     79  C   UNL A   1      43.177  36.097  35.199  1.00  0.00     0.020 A 
ATOM     80  C   UNL A   1      44.182  36.862  33.124  1.00  0.00     0.020 A 
ATOM     81  C   UNL A   1      43.902  37.051  34.478  1.00  0.00     0.054 A 
BRANCH  81  82
ATOM     82  S   UNL A   1      44.530  38.515  35.347  1.00  0.00     0.124 S 
ATOM     83  O   UNL A   1      43.750  39.589  34.737  1.00  0.00    -0.237 OA
ATOM     84  O   UNL A   1      44.213  38.222  36.742  1.00  0.00    -0.237 OA
ATOM     85  O   UNL A   1      45.956  38.522  35.028  1.00  0.00    -0.744 OA
ENDBRANCH  81  82
ENDBRANCH  55  76
ENDBRANCH  29  30
ENDBRANCH  21  24
ENDBRANCH  19  20
ENDBRANCH   1  19
TORSDOF 16
ENDMDL
MODEL 2
REMARK VINA RESULT:      -9.7      3.731     10.614
REMARK SMILES C/C(=N\O)[C@@H]1C[C@@H](CC(=O)NCCCNC(=O)c2ccc(-c3c4nc(c(-c5ccc(S(=O)(=O)[O-])cc5)c5ccc([nH]5)c(-c5ccc(S(=O)(=O)[O-])cc5)c5nc(c(-c6ccc(S(=O)(=O)[O-])cc6)c6ccc3[nH]6)C=C5)C=C4)cc2)C1(C)C
REMARK SMILES IDX 13 1 12 2 11 3 9 4 10 5 8 7 7 8 5 9 6 10 78 11 79 12 80 13
REMARK SMILES IDX 2 14 1 15 3 16 4 17 14 19 15 20 16 21 17 23 18 24 19 25
REMARK SMILES IDX 77 26 20 27 76 28 21 29 22 30 23 31 70 32 24 33 75 34 69 35
REMARK SMILES IDX 71 36 25 37 74 38 68 39 67 40 26 42 56 43 37 44 55 45 38 46
REMARK SMILES IDX 41 47 54 48 72 49 39 50 40 51 53 53 73 54 42 55 27 56 28 57
REMARK SMILES IDX 36 58 29 59 35 60 30 61 31 62 32 63 33 64 34 65 57 66 58 67
REMARK SMILES IDX 66 68 59 69 65 70 60 71 61 72 62 73 63 74 64 75 43 76 44 77
REMARK SMILES IDX 52 78 45 79 51 80 46 81 47 82 48 83 49 84 50 85
REMARK H PARENT 11 6 4 18 15 22 71 41 41 52
REMARK Flexibility Score: inf
ROOT
ATOM      1  C   UNL A   1      33.831  27.936  25.899  1.00  0.00     0.042 C 
ENDROOT
BRANCH   1   2
ATOM      2  C   UNL A   1      32.841  27.958  24.732  1.00  0.00     0.117 C 
BRANCH   2   3
ATOM      3  N   UNL A   1      33.429  27.501  23.484  1.00  0.00    -0.356 N 
ATOM      4  C   UNL A   1      33.202  26.393  22.727  1.00  0.00     0.220 C 
ATOM      5  O   UNL A   1      33.840  26.280  21.677  1.00  0.00    -0.275 OA
ATOM      6  H   UNL A   1      34.118  28.103  23.119  1.00  0.00     0.163 HD
BRANCH   4   7
ATOM      7  C   UNL A   1      32.219  25.309  23.141  1.00  0.00     0.104 C 
BRANCH   7   8
ATOM      8  C   UNL A   1      32.902  24.101  23.792  1.00  0.00     0.005 C 
ATOM      9  C   UNL A   1      32.623  22.531  25.296  1.00  0.00     0.043 C 
ATOM     10  C   UNL A   1      32.181  22.735  23.829  1.00  0.00     0.015 C 
ATOM     11  C   UNL A   1      32.991  24.056  25.353  1.00  0.00    -0.024 C 
ATOM     12  C   UNL A   1      31.923  24.747  26.202  1.00  0.00     0.012 C 
ATOM     13  C   UNL A   1      34.419  24.418  25.774  1.00  0.00     0.012 C 
BRANCH   9  14
ATOM     14  C   UNL A   1      33.750  21.547  25.746  1.00  0.00     0.058 C 
ATOM     15  C   UNL A   1      34.031  21.337  27.208  1.00  0.00     0.066 C 
ATOM     16  N   UNL A   1      34.366  20.942  24.771  1.00  0.00    -0.099 NA
BRANCH  16  17
ATOM     17  O   UNL A   1      35.308  20.018  25.218  1.00  0.00    -0.411 OA
ATOM     18  H   UNL A   1      36.214  20.137  25.014  1.00  0.00     0.330 HD
ENDBRANCH  16  17
ENDBRANCH   9  14
ENDBRANCH   7   8
ENDBRANCH   4   7
ENDBRANCH   2   3
ENDBRANCH   1   2
BRANCH   1  19
ATOM     19  C   UNL A   1      33.250  28.377  27.237  1.00  0.00     0.118 C 
BRANCH  19  20
ATOM     20  N   UNL A   1      33.363  29.819  27.397  1.00  0.00    -0.352 N 
ATOM     21  C   UNL A   1      34.351  30.575  27.984  1.00  0.00     0.251 C 
ATOM     22  H   UNL A   1      32.612  30.335  27.027  1.00  0.00     0.163 HD
ATOM     23  O   UNL A   1      34.080  31.727  28.318  1.00  0.00    -0.269 OA
BRANCH  21  24
ATOM     24  C   UNL A   1      35.723  30.050  28.215  1.00  0.00     0.039 A 
ATOM     25  C   UNL A   1      36.064  29.597  29.497  1.00  0.00     0.014 A 
ATOM     26  C   UNL A   1      36.713  30.108  27.233  1.00  0.00     0.014 A 
ATOM     27  C   UNL A   1      37.375  29.193  29.785  1.00  0.00     0.010 A 
ATOM     28  C   UNL A   1      38.000  29.632  27.497  1.00  0.00     0.010 A 
ATOM     29  C   UNL A   1      38.357  29.198  28.784  1.00  0.00    -0.014 A 
BRANCH  29  30
ATOM     30  C   UNL A   1      39.776  28.834  29.065  1.00  0.00     0.031 A 
ATOM     31  C   UNL A   1      40.709  29.863  29.656  1.00  0.00     0.074 A 
ATOM     32  C   UNL A   1      40.251  27.615  28.741  1.00  0.00     0.049 A 
ATOM     33  N   UNL A   1      42.004  29.799  29.843  1.00  0.00    -0.248 NA
ATOM     34  C   UNL A   1      40.109  31.144  30.065  1.00  0.00     0.031 C 
ATOM     35  C   UNL A   1      39.470  26.524  28.156  1.00  0.00     0.029 A 
ATOM     36  N   UNL A   1      41.519  27.095  28.847  1.00  0.00    -0.354 N 
ATOM     37  C   UNL A   1      42.377  31.041  30.348  1.00  0.00     0.074 A 
ATOM     38  C   UNL A   1      41.179  31.849  30.406  1.00  0.00     0.031 C 
ATOM     39  C   UNL A   1      40.270  25.462  27.969  1.00  0.00     0.029 A 
ATOM     40  C   UNL A   1      41.630  25.807  28.376  1.00  0.00     0.049 A 
ATOM     41  H   UNL A   1      42.278  27.597  29.225  1.00  0.00     0.167 HD
ATOM     42  C   UNL A   1      43.601  31.470  30.741  1.00  0.00     0.031 A 
ATOM     43  C   UNL A   1      42.704  24.999  28.267  1.00  0.00     0.031 A 
ATOM     44  C   UNL A   1      44.788  30.658  30.722  1.00  0.00     0.049 A 
ATOM     45  C   UNL A   1      44.053  25.492  28.717  1.00  0.00     0.074 A 
ATOM     46  C   UNL A   1      46.063  30.988  31.148  1.00  0.00     0.029 A 
ATOM     47  N   UNL A   1      44.845  29.351  30.264  1.00  0.00    -0.354 N 
ATOM     48  N   UNL A   1      44.378  26.660  29.214  1.00  0.00    -0.248 NA
ATOM     49  C   UNL A   1      45.178  24.552  28.599  1.00  0.00     0.031 C 
ATOM     50  C   UNL A   1      46.899  29.891  30.915  1.00  0.00     0.029 A 
ATOM     51  C   UNL A   1      46.134  28.862  30.389  1.00  0.00     0.049 A 
ATOM     52  H   UNL A   1      44.081  28.846  29.903  1.00  0.00     0.167 HD
ATOM     53  C   UNL A   1      45.738  26.585  29.498  1.00  0.00     0.074 A 
ATOM     54  C   UNL A   1      46.173  25.256  29.121  1.00  0.00     0.031 C 
ATOM     55  C   UNL A   1      46.551  27.532  30.026  1.00  0.00     0.031 A 
BRANCH  42  56
ATOM     56  C   UNL A   1      43.717  32.894  31.220  1.00  0.00    -0.014 A 
ATOM     57  C   UNL A   1      44.026  33.940  30.332  1.00  0.00     0.010 A 
ATOM     58  C   UNL A   1      43.487  33.195  32.576  1.00  0.00     0.010 A 
ATOM     59  C   UNL A   1      44.156  35.251  30.799  1.00  0.00     0.020 A 
ATOM     60  C   UNL A   1      43.587  34.509  33.042  1.00  0.00     0.020 A 
ATOM     61  C   UNL A   1      43.944  35.525  32.153  1.00  0.00     0.054 A 
BRANCH  61  62
ATOM     62  S   UNL A   1      44.115  37.235  32.733  1.00  0.00     0.124 S 
ATOM     63  O   UNL A   1      43.063  37.316  33.744  1.00  0.00    -0.237 OA
ATOM     64  O   UNL A   1      45.482  37.268  33.247  1.00  0.00    -0.237 OA
ATOM     65  O   UNL A   1      43.885  38.034  31.531  1.00  0.00    -0.744 OA
ENDBRANCH  61  62
ENDBRANCH  42  56
BRANCH  43  66
ATOM     66  C   UNL A   1      42.543  23.626  27.716  1.00  0.00    -0.014 A 
ATOM     67  C   UNL A   1      42.828  23.364  26.364  1.00  0.00     0.010 A 
ATOM     68  C   UNL A   1      42.121  22.569  28.544  1.00  0.00     0.010 A 
ATOM     69  C   UNL A   1      42.682  22.075  25.847  1.00  0.00     0.020 A 
ATOM     70  C   UNL A   1      41.997  21.273  28.035  1.00  0.00     0.020 A 
ATOM     71  C   UNL A   1      42.270  21.037  26.686  1.00  0.00     0.054 A 
BRANCH  71  72
ATOM     72  S   UNL A   1      42.146  19.358  26.007  1.00  0.00     0.124 S 
ATOM     73  O   UNL A   1      42.681  18.549  27.099  1.00  0.00    -0.237 OA
ATOM     74  O   UNL A   1      40.714  19.220  25.760  1.00  0.00    -0.237 OA
ATOM     75  O   UNL A   1      42.975  19.415  24.805  1.00  0.00    -0.744 OA
ENDBRANCH  71  72
ENDBRANCH  43  66
BRANCH  55  76
ATOM     76  C   UNL A   1      47.986  27.160  30.285  1.00  0.00    -0.014 A 
ATOM     77  C   UNL A   1      49.002  27.491  29.373  1.00  0.00     0.010 A 
ATOM     78  C   UNL A   1      48.329  26.541  31.501  1.00  0.00     0.010 A 
ATOM     79  C   UNL A   1      50.337  27.193  29.666  1.00  0.00     0.020 A 
ATOM     80  C   UNL A   1      49.663  26.262  31.807  1.00  0.00     0.020 A 
ATOM     81  C   UNL A   1      50.659  26.582  30.883  1.00  0.00     0.054 A 
BRANCH  81  82
ATOM     82  S   UNL A   1      52.403  26.267  31.270  1.00  0.00     0.124 S 
ATOM     83  O   UNL A   1      52.775  27.475  32.001  1.00  0.00    -0.237 OA
ATOM     84  O   UNL A   1      52.339  25.044  32.068  1.00  0.00    -0.237 OA
ATOM     85  O   UNL A   1      53.027  26.113  29.958  1.00  0.00    -0.744 OA
ENDBRANCH  81  82
ENDBRANCH  55  76
ENDBRANCH  29  30
ENDBRANCH  21  24
ENDBRANCH  19  20
ENDBRANCH   1  19
TORSDOF 16
ENDMDL
MODEL 3
REMARK VINA RESULT:      -9.5      4.817     11.445
REMARK SMILES C/C(=N\O)[C@@H]1C[C@@H](CC(=O)NCCCNC(=O)c2ccc(-c3c4nc(c(-c5ccc(S(=O)(=O)[O-])cc5)c5ccc([nH]5)c(-c5ccc(S(=O)(=O)[O-])cc5)c5nc(c(-c6ccc(S(=O)(=O)[O-])cc6)c6ccc3[nH]6)C=C5)C=C4)cc2)C1(C)C
REMARK SMILES IDX 13 1 12 2 11 3 9 4 10 5 8 7 7 8 5 9 6 10 78 11 79 12 80 13
REMARK SMILES IDX 2 14 1 15 3 16 4 17 14 19 15 20 16 21 17 23 18 24 19 25
REMARK SMILES IDX 77 26 20 27 76 28 21 29 22 30 23 31 70 32 24 33 75 34 69 35
REMARK SMILES IDX 71 36 25 37 74 38 68 39 67 40 26 42 56 43 37 44 55 45 38 46
REMARK SMILES IDX 41 47 54 48 72 49 39 50 40 51 53 53 73 54 42 55 27 56 28 57
REMARK SMILES IDX 36 58 29 59 35 60 30 61 31 62 32 63 33 64 34 65 57 66 58 67
REMARK SMILES IDX 66 68 59 69 65 70 60 71 61 72 62 73 63 74 64 75 43 76 44 77
REMARK SMILES IDX 52 78 45 79 51 80 46 81 47 82 48 83 49 84 50 85
REMARK H PARENT 11 6 4 18 15 22 71 41 41 52
REMARK Flexibility Score: inf
ROOT
ATOM      1  C   UNL A   1      33.789  27.631  25.143  1.00  0.00     0.042 C 
ENDROOT
BRANCH   1   2
ATOM      2  C   UNL A   1      32.937  26.414  24.774  1.00  0.00     0.117 C 
BRANCH   2   3
ATOM      3  N   UNL A   1      31.913  26.122  25.763  1.00  0.00    -0.356 N 
ATOM      4  C   UNL A   1      30.569  25.939  25.651  1.00  0.00     0.220 C 
ATOM      5  O   UNL A   1      29.943  25.665  26.678  1.00  0.00    -0.275 OA
ATOM      6  H   UNL A   1      32.253  26.041  26.684  1.00  0.00     0.163 HD
BRANCH   4   7
ATOM      7  C   UNL A   1      29.835  26.076  24.326  1.00  0.00     0.104 C 
BRANCH   7   8
ATOM      8  C   UNL A   1      29.261  27.480  24.105  1.00  0.00     0.005 C 
ATOM      9  C   UNL A   1      28.800  28.960  22.554  1.00  0.00     0.043 C 
ATOM     10  C   UNL A   1      28.106  27.690  23.100  1.00  0.00     0.015 C 
ATOM     11  C   UNL A   1      30.112  28.505  23.286  1.00  0.00    -0.024 C 
ATOM     12  C   UNL A   1      31.081  28.011  22.211  1.00  0.00     0.012 C 
ATOM     13  C   UNL A   1      30.753  29.499  24.260  1.00  0.00     0.012 C 
BRANCH   9  14
ATOM     14  C   UNL A   1      28.328  30.418  22.857  1.00  0.00     0.058 C 
ATOM     15  C   UNL A   1      28.988  31.583  22.171  1.00  0.00     0.066 C 
ATOM     16  N   UNL A   1      27.339  30.506  23.698  1.00  0.00    -0.099 NA
BRANCH  16  17
ATOM     17  O   UNL A   1      26.900  31.817  23.879  1.00  0.00    -0.411 OA
ATOM     18  H   UNL A   1      26.030  32.058  23.630  1.00  0.00     0.330 HD
ENDBRANCH  16  17
ENDBRANCH   9  14
ENDBRANCH   7   8
ENDBRANCH   4   7
ENDBRANCH   2   3
ENDBRANCH   1   2
BRANCH   1  19
ATOM     19  C   UNL A   1      33.826  27.957  26.631  1.00  0.00     0.118 C 
BRANCH  19  20
ATOM     20  N   UNL A   1      33.615  29.380  26.851  1.00  0.00    -0.352 N 
ATOM     21  C   UNL A   1      34.325  30.278  27.615  1.00  0.00     0.251 C 
ATOM     22  H   UNL A   1      32.841  29.760  26.379  1.00  0.00     0.163 HD
ATOM     23  O   UNL A   1      33.776  31.330  27.934  1.00  0.00    -0.269 OA
BRANCH  21  24
ATOM     24  C   UNL A   1      35.723  30.020  28.051  1.00  0.00     0.039 A 
ATOM     25  C   UNL A   1      36.748  30.082  27.096  1.00  0.00     0.014 A 
ATOM     26  C   UNL A   1      36.029  29.599  29.346  1.00  0.00     0.014 A 
ATOM     27  C   UNL A   1      38.064  29.742  27.441  1.00  0.00     0.010 A 
ATOM     28  C   UNL A   1      37.353  29.336  29.710  1.00  0.00     0.010 A 
ATOM     29  C   UNL A   1      38.382  29.374  28.756  1.00  0.00    -0.014 A 
BRANCH  29  30
ATOM     30  C   UNL A   1      39.757  28.947  29.147  1.00  0.00     0.031 A 
ATOM     31  C   UNL A   1      40.673  29.925  29.845  1.00  0.00     0.074 A 
ATOM     32  C   UNL A   1      40.214  27.720  28.830  1.00  0.00     0.049 A 
ATOM     33  N   UNL A   1      41.943  29.805  30.140  1.00  0.00    -0.248 NA
ATOM     34  C   UNL A   1      40.087  31.217  30.237  1.00  0.00     0.031 C 
ATOM     35  C   UNL A   1      39.447  26.675  28.150  1.00  0.00     0.029 A 
ATOM     36  N   UNL A   1      41.449  27.148  29.029  1.00  0.00    -0.354 N 
ATOM     37  C   UNL A   1      42.317  31.019  30.710  1.00  0.00     0.074 A 
ATOM     38  C   UNL A   1      41.148  31.871  30.688  1.00  0.00     0.031 C 
ATOM     39  C   UNL A   1      40.222  25.587  28.002  1.00  0.00     0.029 A 
ATOM     40  C   UNL A   1      41.552  25.869  28.534  1.00  0.00     0.049 A 
ATOM     41  H   UNL A   1      42.189  27.610  29.485  1.00  0.00     0.167 HD
ATOM     42  C   UNL A   1      43.517  31.390  31.218  1.00  0.00     0.031 A 
ATOM     43  C   UNL A   1      42.601  25.023  28.494  1.00  0.00     0.031 A 
ATOM     44  C   UNL A   1      44.671  30.533  31.278  1.00  0.00     0.049 A 
ATOM     45  C   UNL A   1      43.924  25.451  29.071  1.00  0.00     0.074 A 
ATOM     46  C   UNL A   1      45.915  30.802  31.821  1.00  0.00     0.029 A 
ATOM     47  N   UNL A   1      44.719  29.237  30.790  1.00  0.00    -0.354 N 
ATOM     48  N   UNL A   1      44.247  26.593  29.627  1.00  0.00    -0.248 NA
ATOM     49  C   UNL A   1      45.019  24.472  29.023  1.00  0.00     0.031 C 
ATOM     50  C   UNL A   1      46.727  29.680  31.629  1.00  0.00     0.029 A 
ATOM     51  C   UNL A   1      45.974  28.695  31.011  1.00  0.00     0.049 A 
ATOM     52  H   UNL A   1      43.971  28.771  30.351  1.00  0.00     0.167 HD
ATOM     53  C   UNL A   1      45.574  26.458  30.025  1.00  0.00     0.074 A 
ATOM     54  C   UNL A   1      45.991  25.124  29.649  1.00  0.00     0.031 C 
ATOM     55  C   UNL A   1      46.372  27.360  30.648  1.00  0.00     0.031 A 
BRANCH  42  56
ATOM     56  C   UNL A   1      43.643  32.795  31.746  1.00  0.00    -0.014 A 
ATOM     57  C   UNL A   1      43.375  33.096  33.094  1.00  0.00     0.010 A 
ATOM     58  C   UNL A   1      44.062  33.829  30.887  1.00  0.00     0.010 A 
ATOM     59  C   UNL A   1      43.471  34.410  33.560  1.00  0.00     0.020 A 
ATOM     60  C   UNL A   1      44.187  35.140  31.355  1.00  0.00     0.020 A 
ATOM     61  C   UNL A   1      43.869  35.425  32.684  1.00  0.00     0.054 A 
BRANCH  61  62
ATOM     62  S   UNL A   1      43.989  37.121  33.314  1.00  0.00     0.124 S 
ATOM     63  O   UNL A   1      45.271  37.091  34.015  1.00  0.00    -0.237 OA
ATOM     64  O   UNL A   1      43.961  37.923  32.094  1.00  0.00    -0.237 OA
ATOM     65  O   UNL A   1      42.814  37.257  34.172  1.00  0.00    -0.744 OA
ENDBRANCH  61  62
ENDBRANCH  42  56
BRANCH  43  66
ATOM     66  C   UNL A   1      42.439  23.671  27.893  1.00  0.00    -0.014 A 
ATOM     67  C   UNL A   1      42.854  23.427  26.571  1.00  0.00     0.010 A 
ATOM     68  C   UNL A   1      41.885  22.618  28.643  1.00  0.00     0.010 A 
ATOM     69  C   UNL A   1      42.706  22.157  26.007  1.00  0.00     0.020 A 
ATOM     70  C   UNL A   1      41.758  21.341  28.089  1.00  0.00     0.020 A 
ATOM     71  C   UNL A   1      42.161  21.121  26.770  1.00  0.00     0.054 A 
BRANCH  71  72
ATOM     72  S   UNL A   1      42.036  19.465  26.037  1.00  0.00     0.124 S 
ATOM     73  O   UNL A   1      42.588  18.623  27.094  1.00  0.00    -0.237 OA
ATOM     74  O   UNL A   1      40.600  19.329  25.804  1.00  0.00    -0.237 OA
ATOM     75  O   UNL A   1      42.848  19.567  24.827  1.00  0.00    -0.744 OA
ENDBRANCH  71  72
ENDBRANCH  43  66
BRANCH  55  76
ATOM     76  C   UNL A   1      47.764  26.925  31.017  1.00  0.00    -0.014 A 
ATOM     77  C   UNL A   1      48.848  27.128  30.147  1.00  0.00     0.010 A 
ATOM     78  C   UNL A   1      48.000  26.379  32.293  1.00  0.00     0.010 A 
ATOM     79  C   UNL A   1      50.144  26.777  30.540  1.00  0.00     0.020 A 
ATOM     80  C   UNL A   1      49.295  26.048  32.697  1.00  0.00     0.020 A 
ATOM     81  C   UNL A   1      50.359  26.240  31.814  1.00  0.00     0.054 A 
BRANCH  81  82
ATOM     82  S   UNL A   1      52.056  25.854  32.326  1.00  0.00     0.124 S 
ATOM     83  O   UNL A   1      52.843  26.690  31.423  1.00  0.00    -0.237 OA
ATOM     84  O   UNL A   1      52.068  26.261  33.730  1.00  0.00    -0.237 OA
ATOM     85  O   UNL A   1      52.167  24.415  32.102  1.00  0.00    -0.744 OA
ENDBRANCH  81  82
ENDBRANCH  55  76
ENDBRANCH  29  30
ENDBRANCH  21  24
ENDBRANCH  19  20
ENDBRANCH   1  19
TORSDOF 16
ENDMDL
