MODEL 1
REMARK VINA RESULT:     -10.5      0.000      0.000
REMARK SMILES NS(=O)(=O)c1ccc(/N=N/c2ccc(O)c(C(=O)NCCCNC(=O)c3ccc(-c4c5nc(c(-c6ccc(S(=O)(=O)[O-])cc6)c6ccc([nH]6)c(-c6ccc(S(=O)(=O)[O-])cc6)c6nc(c(-c7ccc(S(=O)(=O)[O-])cc7)c7ccc4[nH]7)C=C6)C=C5)cc3)c2)cc1
REMARK SMILES IDX 20 1 19 2 17 3 18 4 16 6 11 7 12 8 86 9 13 10 14 11 10 12
REMARK SMILES IDX 9 13 8 14 5 15 6 16 88 17 7 18 87 19 2 20 3 21 4 22 1 23
REMARK SMILES IDX 15 26 21 28 22 29 23 30 24 31 25 33 26 34 27 35 85 36 28 37
REMARK SMILES IDX 84 38 29 39 30 40 31 41 78 42 32 43 83 44 77 45 79 46 33 47
REMARK SMILES IDX 82 48 76 49 75 50 34 52 64 53 45 54 63 55 46 56 49 57 62 58
REMARK SMILES IDX 80 59 47 60 48 61 61 63 81 64 50 65 35 66 36 67 44 68 37 69
REMARK SMILES IDX 43 70 38 71 39 72 40 73 41 74 42 75 65 76 66 77 74 78 67 79
REMARK SMILES IDX 73 80 68 81 69 82 70 83 71 84 72 85 51 86 52 87 60 88 53 89
REMARK SMILES IDX 59 90 54 91 55 92 56 93 57 94 58 95
REMARK H PARENT 19 5 1 24 1 25 15 27 23 32 79 51 49 62
REMARK Flexibility Score: inf
ROOT
ATOM      1  C   UNL A   1      34.823  34.997  28.468  1.00  0.00     0.118 C 
ENDROOT
BRANCH   1   2
ATOM      2  N   UNL A   1      33.523  35.482  28.927  1.00  0.00    -0.352 N 
ATOM      3  C   UNL A   1      33.012  35.774  30.169  1.00  0.00     0.255 C 
ATOM      4  O   UNL A   1      31.823  36.092  30.253  1.00  0.00    -0.269 OA
ATOM      5  H   UNL A   1      32.882  35.631  28.195  1.00  0.00     0.163 HD
BRANCH   3   6
ATOM      6  C   UNL A   1      33.786  35.660  31.432  1.00  0.00     0.083 A 
ATOM      7  C   UNL A   1      35.323  34.431  32.865  1.00  0.00     0.087 A 
ATOM      8  C   UNL A   1      34.983  35.260  33.937  1.00  0.00     0.034 A 
ATOM      9  C   UNL A   1      34.805  34.726  31.595  1.00  0.00     0.048 A 
ATOM     10  C   UNL A   1      34.093  36.320  33.752  1.00  0.00     0.049 A 
ATOM     11  C   UNL A   1      33.479  36.501  32.512  1.00  0.00     0.128 A 
BRANCH   7  12
ATOM     12  N   UNL A   1      36.099  33.269  33.088  1.00  0.00    -0.151 NA
ATOM     13  N   UNL A   1      37.256  33.619  33.425  1.00  0.00    -0.151 NA
BRANCH  13  14
ATOM     14  C   UNL A   1      38.161  32.552  33.494  1.00  0.00     0.086 A 
ATOM     15  C   UNL A   1      39.830  30.339  33.890  1.00  0.00     0.082 A 
ATOM     16  C   UNL A   1      38.576  30.163  33.298  1.00  0.00     0.024 A 
ATOM     17  C   UNL A   1      40.261  31.609  34.281  1.00  0.00     0.024 A 
ATOM     18  C   UNL A   1      37.744  31.270  33.111  1.00  0.00     0.031 A 
ATOM     19  C   UNL A   1      39.423  32.709  34.085  1.00  0.00     0.031 A 
BRANCH  15  20
ATOM     20  S   UNL A   1      40.879  28.934  34.135  1.00  0.00     0.238 S 
ATOM     21  O   UNL A   1      42.204  29.243  33.663  1.00  0.00    -0.207 OA
ATOM     22  O   UNL A   1      40.156  27.756  33.704  1.00  0.00    -0.207 OA
BRANCH  20  23
ATOM     23  N   UNL A   1      40.980  28.845  35.807  1.00  0.00    -0.225 NA
ATOM     24  H   UNL A   1      40.898  27.872  36.101  1.00  0.00     0.137 HD
ATOM     25  H   UNL A   1      40.226  29.391  36.223  1.00  0.00     0.137 HD
ENDBRANCH  20  23
ENDBRANCH  15  20
ENDBRANCH  13  14
ENDBRANCH   7  12
BRANCH  11  26
ATOM     26  O   UNL A   1      32.578  37.531  32.429  1.00  0.00    -0.507 OA
ATOM     27  H   UNL A   1      31.765  37.406  31.981  1.00  0.00     0.293 HD
ENDBRANCH  11  26
ENDBRANCH   3   6
ENDBRANCH   1   2
BRANCH   1  28
ATOM     28  C   UNL A   1      34.798  33.579  27.913  1.00  0.00     0.042 C 
BRANCH  28  29
ATOM     29  C   UNL A   1      34.389  32.508  28.913  1.00  0.00     0.118 C 
BRANCH  29  30
ATOM     30  N   UNL A   1      33.857  31.310  28.275  1.00  0.00    -0.352 N 
ATOM     31  C   UNL A   1      34.473  30.156  27.852  1.00  0.00     0.251 C 
ATOM     32  H   UNL A   1      32.886  31.330  28.120  1.00  0.00     0.163 HD
ATOM     33  O   UNL A   1      33.840  29.372  27.147  1.00  0.00    -0.269 OA
BRANCH  31  34
ATOM     34  C   UNL A   1      35.879  29.851  28.206  1.00  0.00     0.039 A 
ATOM     35  C   UNL A   1      36.169  29.388  29.496  1.00  0.00     0.014 A 
ATOM     36  C   UNL A   1      36.922  30.067  27.306  1.00  0.00     0.014 A 
ATOM     37  C   UNL A   1      37.486  29.074  29.850  1.00  0.00     0.010 A 
ATOM     38  C   UNL A   1      38.217  29.666  27.626  1.00  0.00     0.010 A 
ATOM     39  C   UNL A   1      38.516  29.172  28.903  1.00  0.00    -0.014 A 
BRANCH  39  40
ATOM     40  C   UNL A   1      39.920  28.796  29.221  1.00  0.00     0.031 A 
ATOM     41  C   UNL A   1      40.840  29.806  29.859  1.00  0.00     0.074 A 
ATOM     42  C   UNL A   1      40.393  27.586  28.863  1.00  0.00     0.049 A 
ATOM     43  N   UNL A   1      42.127  29.728  30.080  1.00  0.00    -0.248 NA
ATOM     44  C   UNL A   1      40.237  31.083  30.276  1.00  0.00     0.031 C 
ATOM     45  C   UNL A   1      39.616  26.527  28.214  1.00  0.00     0.029 A 
ATOM     46  N   UNL A   1      41.650  27.047  28.984  1.00  0.00    -0.354 N 
ATOM     47  C   UNL A   1      42.492  30.952  30.631  1.00  0.00     0.074 A 
ATOM     48  C   UNL A   1      41.300  31.770  30.667  1.00  0.00     0.031 C 
ATOM     49  C   UNL A   1      40.408  25.459  28.018  1.00  0.00     0.029 A 
ATOM     50  C   UNL A   1      41.754  25.771  28.482  1.00  0.00     0.049 A 
ATOM     51  H   UNL A   1      42.405  27.528  29.392  1.00  0.00     0.167 HD
ATOM     52  C   UNL A   1      43.703  31.354  31.085  1.00  0.00     0.031 A 
ATOM     53  C   UNL A   1      42.819  24.948  28.393  1.00  0.00     0.031 A 
ATOM     54  C   UNL A   1      44.882  30.530  31.075  1.00  0.00     0.049 A 
ATOM     55  C   UNL A   1      44.153  25.416  28.905  1.00  0.00     0.074 A 
ATOM     56  C   UNL A   1      46.148  30.832  31.544  1.00  0.00     0.029 A 
ATOM     57  N   UNL A   1      44.935  29.236  30.581  1.00  0.00    -0.354 N 
ATOM     58  N   UNL A   1      44.471  26.569  29.442  1.00  0.00    -0.248 NA
ATOM     59  C   UNL A   1      45.272  24.468  28.803  1.00  0.00     0.031 C 
ATOM     60  C   UNL A   1      46.976  29.728  31.309  1.00  0.00     0.029 A 
ATOM     61  C   UNL A   1      46.212  28.725  30.733  1.00  0.00     0.049 A 
ATOM     62  H   UNL A   1      44.177  28.751  30.182  1.00  0.00     0.167 HD
ATOM     63  C   UNL A   1      45.817  26.473  29.773  1.00  0.00     0.074 A 
ATOM     64  C   UNL A   1      46.252  25.147  29.382  1.00  0.00     0.031 C 
ATOM     65  C   UNL A   1      46.623  27.399  30.351  1.00  0.00     0.031 A 
BRANCH  52  66
ATOM     66  C   UNL A   1      43.806  32.750  31.641  1.00  0.00    -0.014 A 
ATOM     67  C   UNL A   1      44.269  33.811  30.842  1.00  0.00     0.010 A 
ATOM     68  C   UNL A   1      43.414  33.011  32.966  1.00  0.00     0.010 A 
ATOM     69  C   UNL A   1      44.382  35.098  31.372  1.00  0.00     0.020 A 
ATOM     70  C   UNL A   1      43.498  34.303  33.492  1.00  0.00     0.020 A 
ATOM     71  C   UNL A   1      44.001  35.335  32.697  1.00  0.00     0.054 A 
BRANCH  71  72
ATOM     72  S   UNL A   1      44.147  37.019  33.355  1.00  0.00     0.124 S 
ATOM     73  O   UNL A   1      45.515  37.024  33.867  1.00  0.00    -0.237 OA
ATOM     74  O   UNL A   1      43.916  37.848  32.175  1.00  0.00    -0.237 OA
ATOM     75  O   UNL A   1      43.101  37.085  34.373  1.00  0.00    -0.744 OA
ENDBRANCH  71  72
ENDBRANCH  52  66
BRANCH  53  76
ATOM     76  C   UNL A   1      42.663  23.586  27.817  1.00  0.00    -0.014 A 
ATOM     77  C   UNL A   1      42.944  23.356  26.458  1.00  0.00     0.010 A 
ATOM     78  C   UNL A   1      42.233  22.513  28.618  1.00  0.00     0.010 A 
ATOM     79  C   UNL A   1      42.777  22.084  25.904  1.00  0.00     0.020 A 
ATOM     80  C   UNL A   1      42.089  21.233  28.074  1.00  0.00     0.020 A 
ATOM     81  C   UNL A   1      42.351  21.030  26.717  1.00  0.00     0.054 A 
BRANCH  81  82
ATOM     82  S   UNL A   1      42.188  19.376  25.989  1.00  0.00     0.124 S 
ATOM     83  O   UNL A   1      43.019  19.487  24.795  1.00  0.00    -0.237 OA
ATOM     84  O   UNL A   1      42.707  18.512  27.047  1.00  0.00    -0.237 OA
ATOM     85  O   UNL A   1      40.752  19.254  25.746  1.00  0.00    -0.744 OA
ENDBRANCH  81  82
ENDBRANCH  53  76
BRANCH  65  86
ATOM     86  C   UNL A   1      48.042  26.996  30.642  1.00  0.00    -0.014 A 
ATOM     87  C   UNL A   1      49.062  27.185  29.695  1.00  0.00     0.010 A 
ATOM     88  C   UNL A   1      48.365  26.476  31.908  1.00  0.00     0.010 A 
ATOM     89  C   UNL A   1      50.380  26.837  30.001  1.00  0.00     0.020 A 
ATOM     90  C   UNL A   1      49.685  26.149  32.227  1.00  0.00     0.020 A 
ATOM     91  C   UNL A   1      50.682  26.321  31.265  1.00  0.00     0.054 A 
BRANCH  91  92
ATOM     92  S   UNL A   1      52.409  25.926  31.658  1.00  0.00     0.124 S 
ATOM     93  O   UNL A   1      52.720  26.915  32.686  1.00  0.00    -0.237 OA
ATOM     94  O   UNL A   1      52.326  24.543  32.121  1.00  0.00    -0.237 OA
ATOM     95  O   UNL A   1      53.104  26.110  30.385  1.00  0.00    -0.744 OA
ENDBRANCH  91  92
ENDBRANCH  65  86
ENDBRANCH  39  40
ENDBRANCH  31  34
ENDBRANCH  29  30
ENDBRANCH  28  29
ENDBRANCH   1  28
TORSDOF 18
ENDMDL
MODEL 2
REMARK VINA RESULT:     -10.0      4.454      7.772
REMARK SMILES NS(=O)(=O)c1ccc(/N=N/c2ccc(O)c(C(=O)NCCCNC(=O)c3ccc(-c4c5nc(c(-c6ccc(S(=O)(=O)[O-])cc6)c6ccc([nH]6)c(-c6ccc(S(=O)(=O)[O-])cc6)c6nc(c(-c7ccc(S(=O)(=O)[O-])cc7)c7ccc4[nH]7)C=C6)C=C5)cc3)c2)cc1
REMARK SMILES IDX 20 1 19 2 17 3 18 4 16 6 11 7 12 8 86 9 13 10 14 11 10 12
REMARK SMILES IDX 9 13 8 14 5 15 6 16 88 17 7 18 87 19 2 20 3 21 4 22 1 23
REMARK SMILES IDX 15 26 21 28 22 29 23 30 24 31 25 33 26 34 27 35 85 36 28 37
REMARK SMILES IDX 84 38 29 39 30 40 31 41 78 42 32 43 83 44 77 45 79 46 33 47
REMARK SMILES IDX 82 48 76 49 75 50 34 52 64 53 45 54 63 55 46 56 49 57 62 58
REMARK SMILES IDX 80 59 47 60 48 61 61 63 81 64 50 65 35 66 36 67 44 68 37 69
REMARK SMILES IDX 43 70 38 71 39 72 40 73 41 74 42 75 65 76 66 77 74 78 67 79
REMARK SMILES IDX 73 80 68 81 69 82 70 83 71 84 72 85 51 86 52 87 60 88 53 89
REMARK SMILES IDX 59 90 54 91 55 92 56 93 57 94 58 95
REMARK H PARENT 19 5 1 24 1 25 15 27 23 32 79 51 49 62
REMARK Flexibility Score: inf
ROOT
ATOM      1  C   UNL A   1      31.447  27.254  26.171  1.00  0.00     0.118 C 
ENDROOT
BRANCH   1   2
ATOM      2  N   UNL A   1      30.480  27.673  25.160  1.00  0.00    -0.352 N 
ATOM      3  C   UNL A   1      30.296  27.343  23.838  1.00  0.00     0.255 C 
ATOM      4  O   UNL A   1      29.424  27.939  23.201  1.00  0.00    -0.269 OA
ATOM      5  H   UNL A   1      29.823  28.325  25.495  1.00  0.00     0.163 HD
BRANCH   3   6
ATOM      6  C   UNL A   1      31.135  26.361  23.104  1.00  0.00     0.083 A 
ATOM      7  C   UNL A   1      31.801  24.061  22.666  1.00  0.00     0.087 A 
ATOM      8  C   UNL A   1      32.934  24.520  21.989  1.00  0.00     0.034 A 
ATOM      9  C   UNL A   1      30.854  24.998  23.107  1.00  0.00     0.048 A 
ATOM     10  C   UNL A   1      33.145  25.890  21.818  1.00  0.00     0.049 A 
ATOM     11  C   UNL A   1      32.263  26.803  22.396  1.00  0.00     0.128 A 
BRANCH   7  12
ATOM     12  N   UNL A   1      31.670  22.686  22.972  1.00  0.00    -0.151 NA
ATOM     13  N   UNL A   1      32.500  22.393  23.864  1.00  0.00    -0.151 NA
BRANCH  13  14
ATOM     14  C   UNL A   1      32.584  21.017  24.117  1.00  0.00     0.086 A 
ATOM     15  C   UNL A   1      33.050  18.294  24.571  1.00  0.00     0.082 A 
ATOM     16  C   UNL A   1      33.271  19.215  25.599  1.00  0.00     0.024 A 
ATOM     17  C   UNL A   1      32.594  18.719  23.321  1.00  0.00     0.024 A 
ATOM     18  C   UNL A   1      33.045  20.574  25.363  1.00  0.00     0.031 A 
ATOM     19  C   UNL A   1      32.367  20.079  23.098  1.00  0.00     0.031 A 
BRANCH  15  20
ATOM     20  S   UNL A   1      33.347  16.574  24.869  1.00  0.00     0.238 S 
ATOM     21  O   UNL A   1      33.351  15.870  23.612  1.00  0.00    -0.207 OA
ATOM     22  O   UNL A   1      32.524  16.166  25.986  1.00  0.00    -0.207 OA
BRANCH  20  23
ATOM     23  N   UNL A   1      34.932  16.571  25.417  1.00  0.00    -0.225 NA
ATOM     24  H   UNL A   1      35.538  16.987  24.710  1.00  0.00     0.137 HD
ATOM     25  H   UNL A   1      35.228  15.612  25.596  1.00  0.00     0.137 HD
ENDBRANCH  20  23
ENDBRANCH  15  20
ENDBRANCH  13  14
ENDBRANCH   7  12
BRANCH  11  26
ATOM     26  O   UNL A   1      32.571  28.129  22.228  1.00  0.00    -0.507 OA
ATOM     27  H   UNL A   1      32.671  28.480  21.365  1.00  0.00     0.293 HD
ENDBRANCH  11  26
ENDBRANCH   3   6
ENDBRANCH   1   2
BRANCH   1  28
ATOM     28  C   UNL A   1      32.833  27.858  25.995  1.00  0.00     0.042 C 
BRANCH  28  29
ATOM     29  C   UNL A   1      33.514  28.284  27.288  1.00  0.00     0.118 C 
BRANCH  29  30
ATOM     30  N   UNL A   1      33.512  29.729  27.480  1.00  0.00    -0.352 N 
ATOM     31  C   UNL A   1      34.455  30.576  28.012  1.00  0.00     0.251 C 
ATOM     32  H   UNL A   1      32.691  30.178  27.175  1.00  0.00     0.163 HD
ATOM     33  O   UNL A   1      34.134  31.737  28.261  1.00  0.00    -0.269 OA
BRANCH  31  34
ATOM     34  C   UNL A   1      35.833  30.118  28.309  1.00  0.00     0.039 A 
ATOM     35  C   UNL A   1      36.786  30.125  27.283  1.00  0.00     0.014 A 
ATOM     36  C   UNL A   1      36.184  29.628  29.567  1.00  0.00     0.014 A 
ATOM     37  C   UNL A   1      38.099  29.715  27.542  1.00  0.00     0.010 A 
ATOM     38  C   UNL A   1      37.510  29.311  29.849  1.00  0.00     0.010 A 
ATOM     39  C   UNL A   1      38.482  29.343  28.839  1.00  0.00    -0.014 A 
BRANCH  39  40
ATOM     40  C   UNL A   1      39.879  28.953  29.169  1.00  0.00     0.031 A 
ATOM     41  C   UNL A   1      40.809  29.959  29.799  1.00  0.00     0.074 A 
ATOM     42  C   UNL A   1      40.338  27.732  28.828  1.00  0.00     0.049 A 
ATOM     43  N   UNL A   1      42.094  29.867  30.026  1.00  0.00    -0.248 NA
ATOM     44  C   UNL A   1      40.221  31.248  30.197  1.00  0.00     0.031 C 
ATOM     45  C   UNL A   1      39.551  26.675  28.188  1.00  0.00     0.029 A 
ATOM     46  N   UNL A   1      41.588  27.178  28.961  1.00  0.00    -0.354 N 
ATOM     47  C   UNL A   1      42.472  31.093  30.564  1.00  0.00     0.074 A 
ATOM     48  C   UNL A   1      41.291  31.926  30.585  1.00  0.00     0.031 C 
ATOM     49  C   UNL A   1      40.329  25.595  28.009  1.00  0.00     0.029 A 
ATOM     50  C   UNL A   1      41.678  25.895  28.475  1.00  0.00     0.049 A 
ATOM     51  H   UNL A   1      42.347  27.655  29.367  1.00  0.00     0.167 HD
ATOM     52  C   UNL A   1      43.686  31.485  31.019  1.00  0.00     0.031 A 
ATOM     53  C   UNL A   1      42.732  25.058  28.402  1.00  0.00     0.031 A 
ATOM     54  C   UNL A   1      44.855  30.645  31.024  1.00  0.00     0.049 A 
ATOM     55  C   UNL A   1      44.070  25.515  28.914  1.00  0.00     0.074 A 
ATOM     56  C   UNL A   1      46.123  30.937  31.495  1.00  0.00     0.029 A 
ATOM     57  N   UNL A   1      44.893  29.345  30.546  1.00  0.00    -0.354 N 
ATOM     58  N   UNL A   1      44.400  26.671  29.439  1.00  0.00    -0.248 NA
ATOM     59  C   UNL A   1      45.176  24.552  28.829  1.00  0.00     0.031 C 
ATOM     60  C   UNL A   1      46.937  29.820  31.278  1.00  0.00     0.029 A 
ATOM     61  C   UNL A   1      46.163  28.820  30.711  1.00  0.00     0.049 A 
ATOM     62  H   UNL A   1      44.131  28.865  30.150  1.00  0.00     0.167 HD
ATOM     63  C   UNL A   1      45.744  26.561  29.777  1.00  0.00     0.074 A 
ATOM     64  C   UNL A   1      46.163  25.225  29.404  1.00  0.00     0.031 C 
ATOM     65  C   UNL A   1      46.558  27.484  30.347  1.00  0.00     0.031 A 
BRANCH  52  66
ATOM     66  C   UNL A   1      43.805  32.886  31.558  1.00  0.00    -0.014 A 
ATOM     67  C   UNL A   1      44.021  33.974  30.693  1.00  0.00     0.010 A 
ATOM     68  C   UNL A   1      43.675  33.122  32.938  1.00  0.00     0.010 A 
ATOM     69  C   UNL A   1      44.151  35.268  31.204  1.00  0.00     0.020 A 
ATOM     70  C   UNL A   1      43.776  34.419  33.450  1.00  0.00     0.020 A 
ATOM     71  C   UNL A   1      44.034  35.481  32.581  1.00  0.00     0.054 A 
BRANCH  71  72
ATOM     72  S   UNL A   1      44.195  37.173  33.215  1.00  0.00     0.124 S 
ATOM     73  O   UNL A   1      42.883  37.394  33.819  1.00  0.00    -0.237 OA
ATOM     74  O   UNL A   1      45.307  37.060  34.157  1.00  0.00    -0.237 OA
ATOM     75  O   UNL A   1      44.474  37.966  32.021  1.00  0.00    -0.744 OA
ENDBRANCH  71  72
ENDBRANCH  52  66
BRANCH  53  76
ATOM     76  C   UNL A   1      42.561  23.690  27.841  1.00  0.00    -0.014 A 
ATOM     77  C   UNL A   1      42.786  23.453  26.474  1.00  0.00     0.010 A 
ATOM     78  C   UNL A   1      42.172  22.621  28.667  1.00  0.00     0.010 A 
ATOM     79  C   UNL A   1      42.605  22.177  25.936  1.00  0.00     0.020 A 
ATOM     80  C   UNL A   1      42.014  21.336  28.138  1.00  0.00     0.020 A 
ATOM     81  C   UNL A   1      42.220  21.125  26.773  1.00  0.00     0.054 A 
BRANCH  81  82
ATOM     82  S   UNL A   1      42.038  19.465  26.063  1.00  0.00     0.124 S 
ATOM     83  O   UNL A   1      40.600  19.394  25.825  1.00  0.00    -0.237 OA
ATOM     84  O   UNL A   1      42.876  19.539  24.869  1.00  0.00    -0.237 OA
ATOM     85  O   UNL A   1      42.545  18.589  27.117  1.00  0.00    -0.744 OA
ENDBRANCH  81  82
ENDBRANCH  53  76
BRANCH  65  86
ATOM     86  C   UNL A   1      47.971  27.066  30.649  1.00  0.00    -0.014 A 
ATOM     87  C   UNL A   1      49.003  27.260  29.718  1.00  0.00     0.010 A 
ATOM     88  C   UNL A   1      48.275  26.527  31.913  1.00  0.00     0.010 A 
ATOM     89  C   UNL A   1      50.315  26.898  30.035  1.00  0.00     0.020 A 
ATOM     90  C   UNL A   1      49.588  26.185  32.242  1.00  0.00     0.020 A 
ATOM     91  C   UNL A   1      50.598  26.363  31.295  1.00  0.00     0.054 A 
BRANCH  91  92
ATOM     92  S   UNL A   1      52.317  25.950  31.703  1.00  0.00     0.124 S 
ATOM     93  O   UNL A   1      52.232  24.515  31.961  1.00  0.00    -0.237 OA
ATOM     94  O   UNL A   1      53.037  26.328  30.490  1.00  0.00    -0.237 OA
ATOM     95  O   UNL A   1      52.602  26.778  32.874  1.00  0.00    -0.744 OA
ENDBRANCH  91  92
ENDBRANCH  65  86
ENDBRANCH  39  40
ENDBRANCH  31  34
ENDBRANCH  29  30
ENDBRANCH  28  29
ENDBRANCH   1  28
TORSDOF 18
ENDMDL
MODEL 3
REMARK VINA RESULT:     -10.0      5.752     12.200
REMARK SMILES NS(=O)(=O)c1ccc(/N=N/c2ccc(O)c(C(=O)NCCCNC(=O)c3ccc(-c4c5nc(c(-c6ccc(S(=O)(=O)[O-])cc6)c6ccc([nH]6)c(-c6ccc(S(=O)(=O)[O-])cc6)c6nc(c(-c7ccc(S(=O)(=O)[O-])cc7)c7ccc4[nH]7)C=C6)C=C5)cc3)c2)cc1
REMARK SMILES IDX 20 1 19 2 17 3 18 4 16 6 11 7 12 8 86 9 13 10 14 11 10 12
REMARK SMILES IDX 9 13 8 14 5 15 6 16 88 17 7 18 87 19 2 20 3 21 4 22 1 23
REMARK SMILES IDX 15 26 21 28 22 29 23 30 24 31 25 33 26 34 27 35 85 36 28 37
REMARK SMILES IDX 84 38 29 39 30 40 31 41 78 42 32 43 83 44 77 45 79 46 33 47
REMARK SMILES IDX 82 48 76 49 75 50 34 52 64 53 45 54 63 55 46 56 49 57 62 58
REMARK SMILES IDX 80 59 47 60 48 61 61 63 81 64 50 65 35 66 36 67 44 68 37 69
REMARK SMILES IDX 43 70 38 71 39 72 40 73 41 74 42 75 65 76 66 77 74 78 67 79
REMARK SMILES IDX 73 80 68 81 69 82 70 83 71 84 72 85 51 86 52 87 60 88 53 89
REMARK SMILES IDX 59 90 54 91 55 92 56 93 57 94 58 95
REMARK H PARENT 19 5 1 24 1 25 15 27 23 32 79 51 49 62
REMARK Flexibility Score: inf
ROOT
ATOM      1  C   UNL A   1      36.848  22.243  25.758  1.00  0.00     0.118 C 
ENDROOT
BRANCH   1   2
ATOM      2  N   UNL A   1      35.756  22.117  26.720  1.00  0.00    -0.352 N 
ATOM      3  C   UNL A   1      34.400  21.934  26.587  1.00  0.00     0.255 C 
ATOM      4  O   UNL A   1      33.703  21.953  27.605  1.00  0.00    -0.269 OA
ATOM      5  H   UNL A   1      36.053  22.175  27.657  1.00  0.00     0.163 HD
BRANCH   3   6
ATOM      6  C   UNL A   1      33.708  21.788  25.281  1.00  0.00     0.083 A 
ATOM      7  C   UNL A   1      32.332  22.721  23.502  1.00  0.00     0.087 A 
ATOM      8  C   UNL A   1      32.118  21.436  22.997  1.00  0.00     0.034 A 
ATOM      9  C   UNL A   1      33.228  22.884  24.569  1.00  0.00     0.048 A 
ATOM     10  C   UNL A   1      32.737  20.333  23.591  1.00  0.00     0.049 A 
ATOM     11  C   UNL A   1      33.505  20.509  24.742  1.00  0.00     0.128 A 
BRANCH   7  12
ATOM     12  N   UNL A   1      31.586  23.811  22.998  1.00  0.00    -0.151 NA
ATOM     13  N   UNL A   1      31.718  24.783  23.779  1.00  0.00    -0.151 NA
BRANCH  13  14
ATOM     14  C   UNL A   1      30.876  25.861  23.475  1.00  0.00     0.086 A 
ATOM     15  C   UNL A   1      29.309  28.152  23.111  1.00  0.00     0.082 A 
ATOM     16  C   UNL A   1      30.629  28.137  22.652  1.00  0.00     0.024 A 
ATOM     17  C   UNL A   1      28.762  27.034  23.745  1.00  0.00     0.024 A 
ATOM     18  C   UNL A   1      31.409  26.993  22.845  1.00  0.00     0.031 A 
ATOM     19  C   UNL A   1      29.549  25.894  23.928  1.00  0.00     0.031 A 
BRANCH  15  20
ATOM     20  S   UNL A   1      28.326  29.606  22.876  1.00  0.00     0.238 S 
ATOM     21  O   UNL A   1      28.889  30.688  23.641  1.00  0.00    -0.207 OA
ATOM     22  O   UNL A   1      26.933  29.225  22.978  1.00  0.00    -0.207 OA
BRANCH  20  23
ATOM     23  N   UNL A   1      28.603  29.973  21.263  1.00  0.00    -0.225 NA
ATOM     24  H   UNL A   1      28.765  30.975  21.165  1.00  0.00     0.137 HD
ATOM     25  H   UNL A   1      27.790  29.704  20.708  1.00  0.00     0.137 HD
ENDBRANCH  20  23
ENDBRANCH  15  20
ENDBRANCH  13  14
ENDBRANCH   7  12
BRANCH  11  26
ATOM     26  O   UNL A   1      34.033  19.370  25.294  1.00  0.00    -0.507 OA
ATOM     27  H   UNL A   1      34.425  18.721  24.744  1.00  0.00     0.293 HD
ENDBRANCH  11  26
ENDBRANCH   3   6
ENDBRANCH   1   2
BRANCH   1  28
ATOM     28  C   UNL A   1      37.349  23.667  25.566  1.00  0.00     0.042 C 
BRANCH  28  29
ATOM     29  C   UNL A   1      38.456  24.090  26.520  1.00  0.00     0.118 C 
BRANCH  29  30
ATOM     30  N   UNL A   1      39.696  24.432  25.834  1.00  0.00    -0.352 N 
ATOM     31  C   UNL A   1      40.622  25.421  26.069  1.00  0.00     0.251 C 
ATOM     32  H   UNL A   1      39.908  23.853  25.067  1.00  0.00     0.163 HD
ATOM     33  O   UNL A   1      41.483  25.638  25.218  1.00  0.00    -0.269 OA
BRANCH  31  34
ATOM     34  C   UNL A   1      40.592  26.236  27.305  1.00  0.00     0.039 A 
ATOM     35  C   UNL A   1      41.415  27.365  27.395  1.00  0.00     0.014 A 
ATOM     36  C   UNL A   1      39.806  25.874  28.399  1.00  0.00     0.014 A 
ATOM     37  C   UNL A   1      41.391  28.162  28.545  1.00  0.00     0.010 A 
ATOM     38  C   UNL A   1      39.710  26.718  29.503  1.00  0.00     0.010 A 
ATOM     39  C   UNL A   1      40.507  27.867  29.593  1.00  0.00    -0.014 A 
BRANCH  39  40
ATOM     40  C   UNL A   1      40.410  28.720  30.808  1.00  0.00     0.031 A 
ATOM     41  C   UNL A   1      39.403  29.840  30.860  1.00  0.00     0.074 A 
ATOM     42  C   UNL A   1      41.277  28.545  31.826  1.00  0.00     0.049 A 
ATOM     43  N   UNL A   1      39.260  30.782  31.757  1.00  0.00    -0.248 NA
ATOM     44  C   UNL A   1      38.452  29.930  29.739  1.00  0.00     0.031 C 
ATOM     45  C   UNL A   1      42.318  27.517  31.891  1.00  0.00     0.029 A 
ATOM     46  N   UNL A   1      41.428  29.242  33.000  1.00  0.00    -0.354 N 
ATOM     47  C   UNL A   1      38.227  31.591  31.294  1.00  0.00     0.074 A 
ATOM     48  C   UNL A   1      37.813  31.056  30.017  1.00  0.00     0.031 C 
ATOM     49  C   UNL A   1      42.981  27.635  33.053  1.00  0.00     0.029 A 
ATOM     50  C   UNL A   1      42.447  28.772  33.794  1.00  0.00     0.049 A 
ATOM     51  H   UNL A   1      40.860  30.006  33.249  1.00  0.00     0.167 HD
ATOM     52  C   UNL A   1      37.660  32.669  31.887  1.00  0.00     0.031 A 
ATOM     53  C   UNL A   1      42.909  29.214  34.981  1.00  0.00     0.031 A 
ATOM     54  C   UNL A   1      38.054  33.184  33.171  1.00  0.00     0.049 A 
ATOM     55  C   UNL A   1      42.263  30.413  35.619  1.00  0.00     0.074 A 
ATOM     56  C   UNL A   1      37.519  34.249  33.873  1.00  0.00     0.029 A 
ATOM     57  N   UNL A   1      39.073  32.660  33.951  1.00  0.00    -0.354 N 
ATOM     58  N   UNL A   1      41.273  31.149  35.176  1.00  0.00    -0.248 NA
ATOM     59  C   UNL A   1      42.793  30.835  36.923  1.00  0.00     0.031 C 
ATOM     60  C   UNL A   1      38.233  34.387  35.069  1.00  0.00     0.029 A 
ATOM     61  C   UNL A   1      39.183  33.380  35.128  1.00  0.00     0.049 A 
ATOM     62  H   UNL A   1      39.635  31.889  33.706  1.00  0.00     0.167 HD
ATOM     63  C   UNL A   1      41.040  32.101  36.161  1.00  0.00     0.074 A 
ATOM     64  C   UNL A   1      41.987  31.843  37.227  1.00  0.00     0.031 C 
ATOM     65  C   UNL A   1      40.123  33.100  36.183  1.00  0.00     0.031 A 
BRANCH  52  66
ATOM     66  C   UNL A   1      36.542  33.357  31.149  1.00  0.00    -0.014 A 
ATOM     67  C   UNL A   1      36.770  33.964  29.900  1.00  0.00     0.010 A 
ATOM     68  C   UNL A   1      35.246  33.377  31.694  1.00  0.00     0.010 A 
ATOM     69  C   UNL A   1      35.732  34.619  29.232  1.00  0.00     0.020 A 
ATOM     70  C   UNL A   1      34.198  34.007  31.015  1.00  0.00     0.020 A 
ATOM     71  C   UNL A   1      34.454  34.641  29.798  1.00  0.00     0.054 A 
BRANCH  71  72
ATOM     72  S   UNL A   1      33.122  35.488  28.903  1.00  0.00     0.124 S 
ATOM     73  O   UNL A   1      32.339  36.056  29.998  1.00  0.00    -0.237 OA
ATOM     74  O   UNL A   1      33.848  36.456  28.084  1.00  0.00    -0.237 OA
ATOM     75  O   UNL A   1      32.467  34.415  28.159  1.00  0.00    -0.744 OA
ENDBRANCH  71  72
ENDBRANCH  52  66
BRANCH  53  76
ATOM     76  C   UNL A   1      44.030  28.506  35.656  1.00  0.00    -0.014 A 
ATOM     77  C   UNL A   1      43.764  27.544  36.646  1.00  0.00     0.010 A 
ATOM     78  C   UNL A   1      45.364  28.788  35.316  1.00  0.00     0.010 A 
ATOM     79  C   UNL A   1      44.812  26.892  37.301  1.00  0.00     0.020 A 
ATOM     80  C   UNL A   1      46.416  28.119  35.951  1.00  0.00     0.020 A 
ATOM     81  C   UNL A   1      46.132  27.184  36.948  1.00  0.00     0.054 A 
BRANCH  81  82
ATOM     82  S   UNL A   1      47.477  26.290  37.777  1.00  0.00     0.124 S 
ATOM     83  O   UNL A   1      48.642  27.087  37.409  1.00  0.00    -0.237 OA
ATOM     84  O   UNL A   1      47.080  26.356  39.182  1.00  0.00    -0.237 OA
ATOM     85  O   UNL A   1      47.413  24.957  37.183  1.00  0.00    -0.744 OA
ENDBRANCH  81  82
ENDBRANCH  53  76
BRANCH  65  86
ATOM     86  C   UNL A   1      40.063  33.957  37.417  1.00  0.00    -0.014 A 
ATOM     87  C   UNL A   1      40.802  35.147  37.513  1.00  0.00     0.010 A 
ATOM     88  C   UNL A   1      39.204  33.592  38.470  1.00  0.00     0.010 A 
ATOM     89  C   UNL A   1      40.703  35.947  38.655  1.00  0.00     0.020 A 
ATOM     90  C   UNL A   1      39.084  34.400  39.602  1.00  0.00     0.020 A 
ATOM     91  C   UNL A   1      39.845  35.568  39.692  1.00  0.00     0.054 A 
BRANCH  91  92
ATOM     92  S   UNL A   1      39.692  36.649  41.141  1.00  0.00     0.124 S 
ATOM     93  O   UNL A   1      38.673  37.599  40.704  1.00  0.00    -0.237 OA
ATOM     94  O   UNL A   1      39.279  35.723  42.192  1.00  0.00    -0.237 OA
ATOM     95  O   UNL A   1      41.035  37.204  41.301  1.00  0.00    -0.744 OA
ENDBRANCH  91  92
ENDBRANCH  65  86
ENDBRANCH  39  40
ENDBRANCH  31  34
ENDBRANCH  29  30
ENDBRANCH  28  29
ENDBRANCH   1  28
TORSDOF 18
ENDMDL
