MODEL 1
REMARK VINA RESULT:     -13.7      0.000      0.000
REMARK SMILES Cc1ccc(S(=O)(=O)n2cc(C(=O)C(=O)N[C@@H](Cc3c[nH]c4ccccc34)C(=O)NCCCNC(=O)c3ccc(-c4c5nc(c(-c6ccc(S(=O)(=O)[O-])cc6)c6ccc([nH]6)c(-c6ccc(S(=O)(=O)[O-])cc6)c6nc(c(-c7ccc(S(=O)(=O)[O-])cc7)c7ccc4[nH]7)C=C6)C=C5)cc3)c3ccccc32)cc1
REMARK SMILES IDX 31 1 30 2 28 3 29 4 17 6 16 7 14 8 15 9 12 11 13 12 11 13
REMARK SMILES IDX 9 14 10 15 102 16 97 17 101 18 98 19 100 20 99 21 6 22 7 23
REMARK SMILES IDX 8 24 5 25 1 26 2 27 3 28 104 29 4 30 103 31 18 32 19 33
REMARK SMILES IDX 20 34 27 35 21 36 22 37 26 38 23 40 25 41 24 42 32 43 33 44
REMARK SMILES IDX 34 45 35 46 36 48 37 49 38 50 96 51 39 52 95 53 40 54 41 55
REMARK SMILES IDX 42 56 89 57 43 58 94 59 88 60 90 61 44 62 93 63 87 64 86 65
REMARK SMILES IDX 45 67 75 68 56 69 74 70 57 71 60 72 73 73 91 74 58 75 59 76
REMARK SMILES IDX 72 78 92 79 61 80 46 81 47 82 55 83 48 84 54 85 49 86 50 87
REMARK SMILES IDX 51 88 52 89 53 90 76 91 77 92 85 93 78 94 84 95 79 96 80 97
REMARK SMILES IDX 81 98 82 99 83 100 62 101 63 102 71 103 64 104 70 105 65 106
REMARK SMILES IDX 66 107 67 108 68 109 69 110
REMARK H PARENT 30 5 16 10 21 39 34 47 90 66 60 77
REMARK Flexibility Score: inf
ROOT
ATOM      1  C   UNL A   1      33.787  25.087  25.979  1.00  0.00     0.117 C 
ENDROOT
BRANCH   1   2
ATOM      2  N   UNL A   1      33.258  23.996  26.806  1.00  0.00    -0.354 N 
ATOM      3  C   UNL A   1      33.706  22.689  26.679  1.00  0.00     0.242 C 
ATOM      4  O   UNL A   1      33.902  22.011  27.692  1.00  0.00    -0.273 OA
ATOM      5  H   UNL A   1      32.562  24.199  27.473  1.00  0.00     0.163 HD
BRANCH   3   6
ATOM      6  C   UNL A   1      34.049  22.113  25.256  1.00  0.00     0.176 C 
BRANCH   6   7
ATOM      7  N   UNL A   1      34.934  20.926  25.353  1.00  0.00    -0.337 N 
ATOM      8  C   UNL A   1      36.287  20.768  25.060  1.00  0.00     0.293 C 
ATOM      9  O   UNL A   1      36.816  19.660  25.116  1.00  0.00    -0.265 OA
ATOM     10  H   UNL A   1      34.489  20.111  25.679  1.00  0.00     0.164 HD
BRANCH   8  11
ATOM     11  C   UNL A   1      37.153  21.966  24.661  1.00  0.00     0.252 C 
ATOM     12  O   UNL A   1      37.017  22.370  23.508  1.00  0.00    -0.283 OA
BRANCH  11  13
ATOM     13  C   UNL A   1      38.200  22.522  25.544  1.00  0.00     0.054 A 
ATOM     14  N   UNL A   1      39.494  23.722  26.963  1.00  0.00    -0.240 N 
ATOM     15  C   UNL A   1      38.425  23.807  26.069  1.00  0.00     0.117 A 
ATOM     16  C   UNL A   1      39.792  22.353  27.124  1.00  0.00     0.065 A 
ATOM     17  C   UNL A   1      39.319  21.746  25.967  1.00  0.00     0.012 A 
ATOM     18  C   UNL A   1      40.713  21.707  27.972  1.00  0.00     0.028 A 
ATOM     19  C   UNL A   1      39.941  20.559  25.528  1.00  0.00     0.011 A 
ATOM     20  C   UNL A   1      41.377  20.589  27.471  1.00  0.00     0.002 A 
ATOM     21  C   UNL A   1      41.028  20.048  26.242  1.00  0.00     0.001 A 
BRANCH  14  22
ATOM     22  S   UNL A   1      40.963  24.650  27.022  1.00  0.00     0.268 S 
ATOM     23  O   UNL A   1      41.076  24.975  28.436  1.00  0.00    -0.201 OA
ATOM     24  O   UNL A   1      40.667  25.688  26.038  1.00  0.00    -0.201 OA
BRANCH  22  25
ATOM     25  C   UNL A   1      42.612  24.280  26.556  1.00  0.00     0.088 A 
ATOM     26  C   UNL A   1      46.059  22.350  24.797  1.00  0.00     0.044 C 
ATOM     27  C   UNL A   1      44.905  23.095  25.404  1.00  0.00    -0.051 A 
ATOM     28  C   UNL A   1      43.692  23.008  24.741  1.00  0.00     0.005 A 
ATOM     29  C   UNL A   1      44.970  23.818  26.619  1.00  0.00     0.005 A 
ATOM     30  C   UNL A   1      42.582  23.604  25.304  1.00  0.00     0.022 A 
ATOM     31  C   UNL A   1      43.820  24.412  27.213  1.00  0.00     0.022 A 
ENDBRANCH  22  25
ENDBRANCH  14  22
ENDBRANCH  11  13
ENDBRANCH   8  11
ENDBRANCH   6   7
BRANCH   6  32
ATOM     32  C   UNL A   1      32.812  21.973  24.259  1.00  0.00     0.072 C 
BRANCH  32  33
ATOM     33  C   UNL A   1      32.459  23.033  23.188  1.00  0.00    -0.020 A 
ATOM     34  C   UNL A   1      33.214  23.290  22.044  1.00  0.00     0.087 A 
ATOM     35  C   UNL A   1      31.487  24.118  23.255  1.00  0.00     0.003 A 
ATOM     36  N   UNL A   1      32.830  24.500  21.512  1.00  0.00    -0.361 N 
ATOM     37  C   UNL A   1      31.844  25.067  22.287  1.00  0.00     0.046 A 
ATOM     38  C   UNL A   1      30.505  24.493  24.201  1.00  0.00     0.010 A 
ATOM     39  H   UNL A   1      33.207  24.902  20.696  1.00  0.00     0.166 HD
ATOM     40  C   UNL A   1      31.346  26.386  22.283  1.00  0.00     0.026 A 
ATOM     41  C   UNL A   1      30.041  25.816  24.241  1.00  0.00     0.001 A 
ATOM     42  C   UNL A   1      30.474  26.755  23.311  1.00  0.00     0.002 A 
ENDBRANCH  32  33
ENDBRANCH   6  32
ENDBRANCH   3   6
ENDBRANCH   1   2
BRANCH   1  43
ATOM     43  C   UNL A   1      33.183  26.518  25.912  1.00  0.00     0.042 C 
BRANCH  43  44
ATOM     44  C   UNL A   1      34.247  27.816  26.016  1.00  0.00     0.118 C 
BRANCH  44  45
ATOM     45  N   UNL A   1      35.057  28.920  27.091  1.00  0.00    -0.352 N 
ATOM     46  C   UNL A   1      36.296  29.435  27.914  1.00  0.00     0.251 C 
ATOM     47  H   UNL A   1      34.360  29.583  27.297  1.00  0.00     0.163 HD
ATOM     48  O   UNL A   1      36.331  30.688  27.856  1.00  0.00    -0.269 OA
BRANCH  46  49
ATOM     49  C   UNL A   1      37.698  28.835  28.751  1.00  0.00     0.039 A 
ATOM     50  C   UNL A   1      37.724  28.462  30.114  1.00  0.00     0.014 A 
ATOM     51  C   UNL A   1      39.006  28.795  28.292  1.00  0.00     0.014 A 
ATOM     52  C   UNL A   1      38.737  29.036  30.971  1.00  0.00     0.010 A 
ATOM     53  C   UNL A   1      39.980  29.472  29.087  1.00  0.00     0.010 A 
ATOM     54  C   UNL A   1      39.720  29.840  30.408  1.00  0.00    -0.014 A 
BRANCH  54  55
ATOM     55  C   UNL A   1      40.429  31.005  31.076  1.00  0.00     0.031 A 
ATOM     56  C   UNL A   1      41.472  30.684  32.028  1.00  0.00     0.074 A 
ATOM     57  C   UNL A   1      40.364  32.361  30.885  1.00  0.00     0.049 A 
ATOM     58  N   UNL A   1      41.398  30.916  33.294  1.00  0.00    -0.248 NA
ATOM     59  C   UNL A   1      42.714  30.082  31.568  1.00  0.00     0.031 C 
ATOM     60  C   UNL A   1      41.055  33.507  31.515  1.00  0.00     0.029 A 
ATOM     61  N   UNL A   1      39.577  33.057  29.992  1.00  0.00    -0.354 N 
ATOM     62  C   UNL A   1      42.693  30.781  33.732  1.00  0.00     0.074 A 
ATOM     63  C   UNL A   1      43.381  30.005  32.718  1.00  0.00     0.031 C 
ATOM     64  C   UNL A   1      40.332  34.635  31.304  1.00  0.00     0.029 A 
ATOM     65  C   UNL A   1      39.160  34.261  30.543  1.00  0.00     0.049 A 
ATOM     66  H   UNL A   1      39.344  32.743  29.088  1.00  0.00     0.167 HD
ATOM     67  C   UNL A   1      43.223  31.628  34.660  1.00  0.00     0.031 A 
ATOM     68  C   UNL A   1      37.830  34.381  30.851  1.00  0.00     0.031 A 
ATOM     69  C   UNL A   1      42.374  32.807  34.891  1.00  0.00     0.049 A 
ATOM     70  C   UNL A   1      37.612  34.387  32.337  1.00  0.00     0.074 A 
ATOM     71  C   UNL A   1      42.545  34.157  34.606  1.00  0.00     0.029 A 
ATOM     72  N   UNL A   1      41.028  32.662  35.196  1.00  0.00    -0.354 N 
ATOM     73  N   UNL A   1      38.581  34.276  33.195  1.00  0.00    -0.248 NA
ATOM     74  C   UNL A   1      36.311  34.452  32.987  1.00  0.00     0.031 C 
ATOM     75  C   UNL A   1      41.294  34.815  34.755  1.00  0.00     0.029 A 
ATOM     76  C   UNL A   1      40.363  33.875  35.154  1.00  0.00     0.049 A 
ATOM     77  H   UNL A   1      40.600  31.803  35.415  1.00  0.00     0.167 HD
ATOM     78  C   UNL A   1      38.090  34.161  34.460  1.00  0.00     0.074 A 
ATOM     79  C   UNL A   1      36.654  34.300  34.281  1.00  0.00     0.031 C 
ATOM     80  C   UNL A   1      38.943  33.935  35.505  1.00  0.00     0.031 A 
BRANCH  67  81
ATOM     81  C   UNL A   1      44.674  31.540  35.084  1.00  0.00    -0.014 A 
ATOM     82  C   UNL A   1      45.683  32.134  34.305  1.00  0.00     0.010 A 
ATOM     83  C   UNL A   1      45.096  30.934  36.289  1.00  0.00     0.010 A 
ATOM     84  C   UNL A   1      47.036  32.057  34.660  1.00  0.00     0.020 A 
ATOM     85  C   UNL A   1      46.447  30.797  36.629  1.00  0.00     0.020 A 
ATOM     86  C   UNL A   1      47.413  31.372  35.814  1.00  0.00     0.054 A 
BRANCH  86  87
ATOM     87  S   UNL A   1      49.162  31.311  36.273  1.00  0.00     0.124 S 
ATOM     88  O   UNL A   1      49.113  31.380  37.731  1.00  0.00    -0.237 OA
ATOM     89  O   UNL A   1      49.583  30.027  35.717  1.00  0.00    -0.237 OA
ATOM     90  O   UNL A   1      49.737  32.485  35.619  1.00  0.00    -0.744 OA
ENDBRANCH  86  87
ENDBRANCH  67  81
BRANCH  68  91
ATOM     91  C   UNL A   1      36.919  33.710  29.829  1.00  0.00    -0.014 A 
ATOM     92  C   UNL A   1      35.982  32.838  30.394  1.00  0.00     0.010 A 
ATOM     93  C   UNL A   1      36.384  34.507  28.837  1.00  0.00     0.010 A 
ATOM     94  C   UNL A   1      34.674  33.316  30.646  1.00  0.00     0.020 A 
ATOM     95  C   UNL A   1      35.008  34.817  28.935  1.00  0.00     0.020 A 
ATOM     96  C   UNL A   1      34.221  34.502  30.036  1.00  0.00     0.054 A 
BRANCH  96  97
ATOM     97  S   UNL A   1      32.858  35.914  30.915  1.00  0.00     0.124 S 
ATOM     98  O   UNL A   1      33.511  37.051  31.445  1.00  0.00    -0.237 OA
ATOM     99  O   UNL A   1      32.072  36.413  29.792  1.00  0.00    -0.237 OA
ATOM    100  O   UNL A   1      32.191  35.313  32.028  1.00  0.00    -0.744 OA
ENDBRANCH  96  97
ENDBRANCH  68  91
BRANCH  80 101
ATOM    101  C   UNL A   1      38.580  33.744  36.961  1.00  0.00    -0.014 A 
ATOM    102  C   UNL A   1      37.711  32.765  37.454  1.00  0.00     0.010 A 
ATOM    103  C   UNL A   1      39.115  34.647  37.915  1.00  0.00     0.010 A 
ATOM    104  C   UNL A   1      37.443  32.654  38.826  1.00  0.00     0.020 A 
ATOM    105  C   UNL A   1      38.861  34.550  39.281  1.00  0.00     0.020 A 
ATOM    106  C   UNL A   1      38.028  33.540  39.731  1.00  0.00     0.054 A 
BRANCH 106 107
ATOM    107  S   UNL A   1      37.662  33.370  41.488  1.00  0.00     0.124 S 
ATOM    108  O   UNL A   1      36.206  33.243  41.487  1.00  0.00    -0.237 OA
ATOM    109  O   UNL A   1      38.396  32.156  41.839  1.00  0.00    -0.237 OA
ATOM    110  O   UNL A   1      38.178  34.602  42.079  1.00  0.00    -0.744 OA
ENDBRANCH 106 107
ENDBRANCH  80 101
ENDBRANCH  54  55
ENDBRANCH  46  49
ENDBRANCH  44  45
ENDBRANCH  43  44
ENDBRANCH   1  43
TORSDOF 20
ENDMDL
MODEL 2
REMARK VINA RESULT:     -13.3      4.057      8.043
REMARK SMILES Cc1ccc(S(=O)(=O)n2cc(C(=O)C(=O)N[C@@H](Cc3c[nH]c4ccccc34)C(=O)NCCCNC(=O)c3ccc(-c4c5nc(c(-c6ccc(S(=O)(=O)[O-])cc6)c6ccc([nH]6)c(-c6ccc(S(=O)(=O)[O-])cc6)c6nc(c(-c7ccc(S(=O)(=O)[O-])cc7)c7ccc4[nH]7)C=C6)C=C5)cc3)c3ccccc32)cc1
REMARK SMILES IDX 31 1 30 2 28 3 29 4 17 6 16 7 14 8 15 9 12 11 13 12 11 13
REMARK SMILES IDX 9 14 10 15 102 16 97 17 101 18 98 19 100 20 99 21 6 22 7 23
REMARK SMILES IDX 8 24 5 25 1 26 2 27 3 28 104 29 4 30 103 31 18 32 19 33
REMARK SMILES IDX 20 34 27 35 21 36 22 37 26 38 23 40 25 41 24 42 32 43 33 44
REMARK SMILES IDX 34 45 35 46 36 48 37 49 38 50 96 51 39 52 95 53 40 54 41 55
REMARK SMILES IDX 42 56 89 57 43 58 94 59 88 60 90 61 44 62 93 63 87 64 86 65
REMARK SMILES IDX 45 67 75 68 56 69 74 70 57 71 60 72 73 73 91 74 58 75 59 76
REMARK SMILES IDX 72 78 92 79 61 80 46 81 47 82 55 83 48 84 54 85 49 86 50 87
REMARK SMILES IDX 51 88 52 89 53 90 76 91 77 92 85 93 78 94 84 95 79 96 80 97
REMARK SMILES IDX 81 98 82 99 83 100 62 101 63 102 71 103 64 104 70 105 65 106
REMARK SMILES IDX 66 107 67 108 68 109 69 110
REMARK H PARENT 30 5 16 10 21 39 34 47 90 66 60 77
REMARK Flexibility Score: inf
ROOT
ATOM      1  C   UNL A   1      31.971  30.092  25.029  1.00  0.00     0.117 C 
ENDROOT
BRANCH   1   2
ATOM      2  N   UNL A   1      33.273  29.695  24.479  1.00  0.00    -0.354 N 
ATOM      3  C   UNL A   1      33.447  28.512  23.775  1.00  0.00     0.242 C 
ATOM      4  O   UNL A   1      34.148  28.506  22.758  1.00  0.00    -0.273 OA
ATOM      5  H   UNL A   1      34.047  30.288  24.614  1.00  0.00     0.163 HD
BRANCH   3   6
ATOM      6  C   UNL A   1      32.679  27.214  24.221  1.00  0.00     0.176 C 
BRANCH   6   7
ATOM      7  N   UNL A   1      32.409  27.221  25.680  1.00  0.00    -0.337 N 
ATOM      8  C   UNL A   1      31.891  26.237  26.519  1.00  0.00     0.293 C 
ATOM      9  O   UNL A   1      31.649  26.481  27.699  1.00  0.00    -0.265 OA
ATOM     10  H   UNL A   1      32.634  28.066  26.132  1.00  0.00     0.164 HD
BRANCH   8  11
ATOM     11  C   UNL A   1      31.607  24.826  25.998  1.00  0.00     0.252 C 
ATOM     12  O   UNL A   1      30.422  24.534  25.847  1.00  0.00    -0.283 OA
BRANCH  11  13
ATOM     13  C   UNL A   1      32.668  23.811  25.824  1.00  0.00     0.054 A 
ATOM     14  N   UNL A   1      34.421  22.387  25.990  1.00  0.00    -0.240 N 
ATOM     15  C   UNL A   1      33.889  23.581  26.481  1.00  0.00     0.117 A 
ATOM     16  C   UNL A   1      33.433  21.798  25.174  1.00  0.00     0.065 A 
ATOM     17  C   UNL A   1      32.629  22.855  24.766  1.00  0.00     0.012 A 
ATOM     18  C   UNL A   1      33.411  20.556  24.509  1.00  0.00     0.028 A 
ATOM     19  C   UNL A   1      31.948  22.747  23.535  1.00  0.00     0.011 A 
ATOM     20  C   UNL A   1      32.809  20.506  23.254  1.00  0.00     0.002 A 
ATOM     21  C   UNL A   1      32.125  21.604  22.751  1.00  0.00     0.001 A 
BRANCH  14  22
ATOM     22  S   UNL A   1      35.994  22.071  25.320  1.00  0.00     0.268 S 
ATOM     23  O   UNL A   1      35.937  22.761  24.040  1.00  0.00    -0.201 OA
ATOM     24  O   UNL A   1      36.026  20.612  25.380  1.00  0.00    -0.201 OA
BRANCH  22  25
ATOM     25  C   UNL A   1      37.613  22.414  25.896  1.00  0.00     0.088 A 
ATOM     26  C   UNL A   1      41.287  24.479  26.863  1.00  0.00     0.044 C 
ATOM     27  C   UNL A   1      40.027  23.709  26.593  1.00  0.00    -0.051 A 
ATOM     28  C   UNL A   1      38.843  24.427  26.614  1.00  0.00     0.005 A 
ATOM     29  C   UNL A   1      39.986  22.331  26.269  1.00  0.00     0.005 A 
ATOM     30  C   UNL A   1      37.668  23.781  26.287  1.00  0.00     0.022 A 
ATOM     31  C   UNL A   1      38.777  21.670  25.909  1.00  0.00     0.022 A 
ENDBRANCH  22  25
ENDBRANCH  14  22
ENDBRANCH  11  13
ENDBRANCH   8  11
ENDBRANCH   6   7
BRANCH   6  32
ATOM     32  C   UNL A   1      31.453  26.791  23.293  1.00  0.00     0.072 C 
BRANCH  32  33
ATOM     33  C   UNL A   1      30.033  27.389  23.436  1.00  0.00    -0.020 A 
ATOM     34  C   UNL A   1      28.911  26.679  23.863  1.00  0.00     0.087 A 
ATOM     35  C   UNL A   1      29.515  28.656  22.934  1.00  0.00     0.003 A 
ATOM     36  N   UNL A   1      27.778  27.389  23.538  1.00  0.00    -0.361 N 
ATOM     37  C   UNL A   1      28.117  28.553  22.887  1.00  0.00     0.046 A 
ATOM     38  C   UNL A   1      30.106  29.766  22.288  1.00  0.00     0.010 A 
ATOM     39  H   UNL A   1      26.857  27.105  23.742  1.00  0.00     0.166 HD
ATOM     40  C   UNL A   1      27.305  29.440  22.151  1.00  0.00     0.026 A 
ATOM     41  C   UNL A   1      29.317  30.626  21.509  1.00  0.00     0.001 A 
ATOM     42  C   UNL A   1      27.939  30.450  21.422  1.00  0.00     0.002 A 
ENDBRANCH  32  33
ENDBRANCH   6  32
ENDBRANCH   3   6
ENDBRANCH   1   2
BRANCH   1  43
ATOM     43  C   UNL A   1      31.730  30.525  26.502  1.00  0.00     0.042 C 
BRANCH  43  44
ATOM     44  C   UNL A   1      32.819  31.613  27.179  1.00  0.00     0.118 C 
BRANCH  44  45
ATOM     45  N   UNL A   1      34.274  31.783  28.120  1.00  0.00    -0.352 N 
ATOM     46  C   UNL A   1      35.641  31.272  28.709  1.00  0.00     0.251 C 
ATOM     47  H   UNL A   1      34.202  32.695  28.481  1.00  0.00     0.163 HD
ATOM     48  O   UNL A   1      36.469  32.214  28.693  1.00  0.00    -0.269 OA
BRANCH  46  49
ATOM     49  C   UNL A   1      36.414  29.806  29.238  1.00  0.00     0.039 A 
ATOM     50  C   UNL A   1      36.676  29.476  30.587  1.00  0.00     0.014 A 
ATOM     51  C   UNL A   1      37.035  28.845  28.455  1.00  0.00     0.014 A 
ATOM     52  C   UNL A   1      38.020  29.095  30.960  1.00  0.00     0.010 A 
ATOM     53  C   UNL A   1      38.403  28.566  28.755  1.00  0.00     0.010 A 
ATOM     54  C   UNL A   1      38.980  28.953  29.966  1.00  0.00    -0.014 A 
BRANCH  54  55
ATOM     55  C   UNL A   1      40.471  29.205  30.105  1.00  0.00     0.031 A 
ATOM     56  C   UNL A   1      41.347  28.510  29.185  1.00  0.00     0.074 A 
ATOM     57  C   UNL A   1      41.195  30.071  30.883  1.00  0.00     0.049 A 
ATOM     58  N   UNL A   1      42.183  27.591  29.529  1.00  0.00    -0.248 NA
ATOM     59  C   UNL A   1      41.335  28.855  27.771  1.00  0.00     0.031 C 
ATOM     60  C   UNL A   1      42.642  30.339  31.022  1.00  0.00     0.029 A 
ATOM     61  N   UNL A   1      40.724  30.980  31.806  1.00  0.00    -0.354 N 
ATOM     62  C   UNL A   1      43.012  27.473  28.440  1.00  0.00     0.074 A 
ATOM     63  C   UNL A   1      42.287  28.041  27.319  1.00  0.00     0.031 C 
ATOM     64  C   UNL A   1      42.872  30.944  32.215  1.00  0.00     0.029 A 
ATOM     65  C   UNL A   1      41.595  31.081  32.883  1.00  0.00     0.049 A 
ATOM     66  H   UNL A   1      39.885  31.489  31.715  1.00  0.00     0.167 HD
ATOM     67  C   UNL A   1      44.357  27.301  28.584  1.00  0.00     0.031 A 
ATOM     68  C   UNL A   1      41.167  30.579  34.083  1.00  0.00     0.031 A 
ATOM     69  C   UNL A   1      44.808  27.545  29.963  1.00  0.00     0.049 A 
ATOM     70  C   UNL A   1      41.911  29.328  34.449  1.00  0.00     0.074 A 
ATOM     71  C   UNL A   1      45.594  28.540  30.531  1.00  0.00     0.029 A 
ATOM     72  N   UNL A   1      44.200  26.900  31.031  1.00  0.00    -0.354 N 
ATOM     73  N   UNL A   1      42.829  28.803  33.694  1.00  0.00    -0.248 NA
ATOM     74  C   UNL A   1      41.659  28.526  35.639  1.00  0.00     0.031 C 
ATOM     75  C   UNL A   1      45.459  28.475  31.944  1.00  0.00     0.029 A 
ATOM     76  C   UNL A   1      44.611  27.426  32.244  1.00  0.00     0.049 A 
ATOM     77  H   UNL A   1      43.557  26.159  30.938  1.00  0.00     0.167 HD
ATOM     78  C   UNL A   1      43.231  27.600  34.191  1.00  0.00     0.074 A 
ATOM     79  C   UNL A   1      42.480  27.479  35.431  1.00  0.00     0.031 C 
ATOM     80  C   UNL A   1      44.122  26.836  33.491  1.00  0.00     0.031 A 
BRANCH  67  81
ATOM     81  C   UNL A   1      45.288  27.256  27.390  1.00  0.00    -0.014 A 
ATOM     82  C   UNL A   1      46.075  28.371  27.056  1.00  0.00     0.010 A 
ATOM     83  C   UNL A   1      45.475  26.103  26.595  1.00  0.00     0.010 A 
ATOM     84  C   UNL A   1      46.935  28.368  25.949  1.00  0.00     0.020 A 
ATOM     85  C   UNL A   1      46.284  26.102  25.452  1.00  0.00     0.020 A 
ATOM     86  C   UNL A   1      47.021  27.236  25.141  1.00  0.00     0.054 A 
BRANCH  86  87
ATOM     87  S   UNL A   1      48.158  27.240  23.735  1.00  0.00     0.124 S 
ATOM     88  O   UNL A   1      47.416  27.990  22.725  1.00  0.00    -0.237 OA
ATOM     89  O   UNL A   1      49.331  27.915  24.285  1.00  0.00    -0.237 OA
ATOM     90  O   UNL A   1      48.348  25.822  23.433  1.00  0.00    -0.744 OA
ENDBRANCH  86  87
ENDBRANCH  67  81
BRANCH  68  91
ATOM     91  C   UNL A   1      39.686  30.831  34.340  1.00  0.00    -0.014 A 
ATOM     92  C   UNL A   1      39.334  30.805  35.694  1.00  0.00     0.010 A 
ATOM     93  C   UNL A   1      39.088  31.865  33.648  1.00  0.00     0.010 A 
ATOM     94  C   UNL A   1      39.249  32.030  36.398  1.00  0.00     0.020 A 
ATOM     95  C   UNL A   1      38.774  33.032  34.382  1.00  0.00     0.020 A 
ATOM     96  C   UNL A   1      39.172  33.248  35.695  1.00  0.00     0.054 A 
BRANCH  96  97
ATOM     97  S   UNL A   1      40.009  35.119  36.348  1.00  0.00     0.124 S 
ATOM     98  O   UNL A   1      39.472  36.231  35.659  1.00  0.00    -0.237 OA
ATOM     99  O   UNL A   1      39.552  35.264  37.726  1.00  0.00    -0.237 OA
ATOM    100  O   UNL A   1      41.411  35.145  36.066  1.00  0.00    -0.744 OA
ENDBRANCH  96  97
ENDBRANCH  68  91
BRANCH  80 101
ATOM    101  C   UNL A   1      44.649  25.468  33.865  1.00  0.00    -0.014 A 
ATOM    102  C   UNL A   1      45.933  25.202  34.349  1.00  0.00     0.010 A 
ATOM    103  C   UNL A   1      43.806  24.343  33.672  1.00  0.00     0.010 A 
ATOM    104  C   UNL A   1      46.331  23.900  34.684  1.00  0.00     0.020 A 
ATOM    105  C   UNL A   1      44.185  23.043  34.000  1.00  0.00     0.020 A 
ATOM    106  C   UNL A   1      45.450  22.831  34.517  1.00  0.00     0.054 A 
BRANCH 106 107
ATOM    107  S   UNL A   1      45.994  21.169  34.955  1.00  0.00     0.124 S 
ATOM    108  O   UNL A   1      46.468  21.353  36.325  1.00  0.00    -0.237 OA
ATOM    109  O   UNL A   1      44.761  20.396  34.818  1.00  0.00    -0.237 OA
ATOM    110  O   UNL A   1      47.031  20.865  33.973  1.00  0.00    -0.744 OA
ENDBRANCH 106 107
ENDBRANCH  80 101
ENDBRANCH  54  55
ENDBRANCH  46  49
ENDBRANCH  44  45
ENDBRANCH  43  44
ENDBRANCH   1  43
TORSDOF 20
ENDMDL
MODEL 3
REMARK VINA RESULT:     -12.9      3.867      7.884
REMARK SMILES Cc1ccc(S(=O)(=O)n2cc(C(=O)C(=O)N[C@@H](Cc3c[nH]c4ccccc34)C(=O)NCCCNC(=O)c3ccc(-c4c5nc(c(-c6ccc(S(=O)(=O)[O-])cc6)c6ccc([nH]6)c(-c6ccc(S(=O)(=O)[O-])cc6)c6nc(c(-c7ccc(S(=O)(=O)[O-])cc7)c7ccc4[nH]7)C=C6)C=C5)cc3)c3ccccc32)cc1
REMARK SMILES IDX 31 1 30 2 28 3 29 4 17 6 16 7 14 8 15 9 12 11 13 12 11 13
REMARK SMILES IDX 9 14 10 15 102 16 97 17 101 18 98 19 100 20 99 21 6 22 7 23
REMARK SMILES IDX 8 24 5 25 1 26 2 27 3 28 104 29 4 30 103 31 18 32 19 33
REMARK SMILES IDX 20 34 27 35 21 36 22 37 26 38 23 40 25 41 24 42 32 43 33 44
REMARK SMILES IDX 34 45 35 46 36 48 37 49 38 50 96 51 39 52 95 53 40 54 41 55
REMARK SMILES IDX 42 56 89 57 43 58 94 59 88 60 90 61 44 62 93 63 87 64 86 65
REMARK SMILES IDX 45 67 75 68 56 69 74 70 57 71 60 72 73 73 91 74 58 75 59 76
REMARK SMILES IDX 72 78 92 79 61 80 46 81 47 82 55 83 48 84 54 85 49 86 50 87
REMARK SMILES IDX 51 88 52 89 53 90 76 91 77 92 85 93 78 94 84 95 79 96 80 97
REMARK SMILES IDX 81 98 82 99 83 100 62 101 63 102 71 103 64 104 70 105 65 106
REMARK SMILES IDX 66 107 67 108 68 109 69 110
REMARK H PARENT 30 5 16 10 21 39 34 47 90 66 60 77
REMARK Flexibility Score: inf
ROOT
ATOM      1  C   UNL A   1      32.700  27.076  26.310  1.00  0.00     0.117 C 
ENDROOT
BRANCH   1   2
ATOM      2  N   UNL A   1      31.633  26.092  26.531  1.00  0.00    -0.354 N 
ATOM      3  C   UNL A   1      31.878  24.727  26.544  1.00  0.00     0.242 C 
ATOM      4  O   UNL A   1      31.326  24.017  27.390  1.00  0.00    -0.273 OA
ATOM      5  H   UNL A   1      30.713  26.413  26.675  1.00  0.00     0.163 HD
BRANCH   3   6
ATOM      6  C   UNL A   1      32.924  24.109  25.545  1.00  0.00     0.176 C 
BRANCH   6   7
ATOM      7  N   UNL A   1      33.576  22.906  26.122  1.00  0.00    -0.337 N 
ATOM      8  C   UNL A   1      34.920  22.605  26.329  1.00  0.00     0.293 C 
ATOM      9  O   UNL A   1      35.261  21.496  26.735  1.00  0.00    -0.265 OA
ATOM     10  H   UNL A   1      32.951  22.200  26.406  1.00  0.00     0.164 HD
BRANCH   8  11
ATOM     11  C   UNL A   1      36.012  23.644  26.058  1.00  0.00     0.252 C 
ATOM     12  O   UNL A   1      35.623  24.761  25.721  1.00  0.00    -0.283 OA
BRANCH  11  13
ATOM     13  C   UNL A   1      37.451  23.306  26.051  1.00  0.00     0.054 A 
ATOM     14  N   UNL A   1      39.539  22.513  25.677  1.00  0.00    -0.240 N 
ATOM     15  C   UNL A   1      38.182  22.245  25.489  1.00  0.00     0.117 A 
ATOM     16  C   UNL A   1      39.635  23.826  26.182  1.00  0.00     0.065 A 
ATOM     17  C   UNL A   1      38.408  24.069  26.784  1.00  0.00     0.012 A 
ATOM     18  C   UNL A   1      40.764  24.622  26.462  1.00  0.00     0.028 A 
ATOM     19  C   UNL A   1      38.353  24.987  27.854  1.00  0.00     0.011 A 
ATOM     20  C   UNL A   1      40.709  25.451  27.580  1.00  0.00     0.002 A 
ATOM     21  C   UNL A   1      39.529  25.596  28.297  1.00  0.00     0.001 A 
BRANCH  14  22
ATOM     22  S   UNL A   1      40.773  21.520  26.394  1.00  0.00     0.268 S 
ATOM     23  O   UNL A   1      40.129  20.217  26.466  1.00  0.00    -0.201 OA
ATOM     24  O   UNL A   1      41.059  22.279  27.609  1.00  0.00    -0.201 OA
BRANCH  22  25
ATOM     25  C   UNL A   1      42.412  21.138  25.906  1.00  0.00     0.088 A 
ATOM     26  C   UNL A   1      46.159  19.055  25.338  1.00  0.00     0.044 C 
ATOM     27  C   UNL A   1      44.874  19.821  25.462  1.00  0.00    -0.051 A 
ATOM     28  C   UNL A   1      43.710  19.074  25.537  1.00  0.00     0.005 A 
ATOM     29  C   UNL A   1      44.789  21.231  25.562  1.00  0.00     0.005 A 
ATOM     30  C   UNL A   1      42.511  19.728  25.738  1.00  0.00     0.022 A 
ATOM     31  C   UNL A   1      43.556  21.904  25.794  1.00  0.00     0.022 A 
ENDBRANCH  22  25
ENDBRANCH  14  22
ENDBRANCH  11  13
ENDBRANCH   8  11
ENDBRANCH   6   7
BRANCH   6  32
ATOM     32  C   UNL A   1      32.429  23.970  24.036  1.00  0.00     0.072 C 
BRANCH  32  33
ATOM     33  C   UNL A   1      32.165  25.184  23.113  1.00  0.00    -0.020 A 
ATOM     34  C   UNL A   1      33.142  25.848  22.373  1.00  0.00     0.087 A 
ATOM     35  C   UNL A   1      30.978  26.026  23.022  1.00  0.00     0.003 A 
ATOM     36  N   UNL A   1      32.647  27.064  21.961  1.00  0.00    -0.361 N 
ATOM     37  C   UNL A   1      31.362  27.235  22.425  1.00  0.00     0.046 A 
ATOM     38  C   UNL A   1      29.694  25.973  23.611  1.00  0.00     0.010 A 
ATOM     39  H   UNL A   1      33.141  27.718  21.414  1.00  0.00     0.166 HD
ATOM     40  C   UNL A   1      30.575  28.403  22.477  1.00  0.00     0.026 A 
ATOM     41  C   UNL A   1      28.922  27.140  23.717  1.00  0.00     0.001 A 
ATOM     42  C   UNL A   1      29.368  28.343  23.179  1.00  0.00     0.002 A 
ENDBRANCH  32  33
ENDBRANCH   6  32
ENDBRANCH   3   6
ENDBRANCH   1   2
BRANCH   1  43
ATOM     43  C   UNL A   1      32.466  28.592  26.057  1.00  0.00     0.042 C 
BRANCH  43  44
ATOM     44  C   UNL A   1      33.033  29.669  27.217  1.00  0.00     0.118 C 
BRANCH  44  45
ATOM     45  N   UNL A   1      34.449  30.356  27.962  1.00  0.00    -0.352 N 
ATOM     46  C   UNL A   1      35.981  30.387  28.318  1.00  0.00     0.251 C 
ATOM     47  H   UNL A   1      34.101  31.166  28.397  1.00  0.00     0.163 HD
ATOM     48  O   UNL A   1      36.389  31.572  28.262  1.00  0.00    -0.269 OA
BRANCH  46  49
ATOM     49  C   UNL A   1      37.313  29.310  28.623  1.00  0.00     0.039 A 
ATOM     50  C   UNL A   1      37.517  28.604  29.830  1.00  0.00     0.014 A 
ATOM     51  C   UNL A   1      38.441  29.114  27.840  1.00  0.00     0.014 A 
ATOM     52  C   UNL A   1      38.799  28.711  30.489  1.00  0.00     0.010 A 
ATOM     53  C   UNL A   1      39.701  29.342  28.470  1.00  0.00     0.010 A 
ATOM     54  C   UNL A   1      39.824  29.406  29.859  1.00  0.00    -0.014 A 
BRANCH  54  55
ATOM     55  C   UNL A   1      40.940  30.183  30.536  1.00  0.00     0.031 A 
ATOM     56  C   UNL A   1      40.551  31.231  31.456  1.00  0.00     0.074 A 
ATOM     57  C   UNL A   1      42.302  30.030  30.542  1.00  0.00     0.049 A 
ATOM     58  N   UNL A   1      40.750  32.488  31.254  1.00  0.00    -0.248 NA
ATOM     59  C   UNL A   1      39.912  30.887  32.717  1.00  0.00     0.031 C 
ATOM     60  C   UNL A   1      43.401  30.767  31.203  1.00  0.00     0.029 A 
ATOM     61  N   UNL A   1      43.054  29.080  29.883  1.00  0.00    -0.354 N 
ATOM     62  C   UNL A   1      40.551  33.058  32.488  1.00  0.00     0.074 A 
ATOM     63  C   UNL A   1      39.775  32.099  33.253  1.00  0.00     0.031 C 
ATOM     64  C   UNL A   1      44.563  30.515  30.551  1.00  0.00     0.029 A 
ATOM     65  C   UNL A   1      44.259  29.621  29.454  1.00  0.00     0.049 A 
ATOM     66  H   UNL A   1      42.775  28.147  29.738  1.00  0.00     0.167 HD
ATOM     67  C   UNL A   1      41.350  34.064  32.946  1.00  0.00     0.031 A 
ATOM     68  C   UNL A   1      44.424  29.788  28.105  1.00  0.00     0.031 A 
ATOM     69  C   UNL A   1      42.556  34.240  32.122  1.00  0.00     0.049 A 
ATOM     70  C   UNL A   1      44.398  31.242  27.727  1.00  0.00     0.074 A 
ATOM     71  C   UNL A   1      43.904  34.018  32.374  1.00  0.00     0.029 A 
ATOM     72  N   UNL A   1      42.457  34.394  30.746  1.00  0.00    -0.354 N 
ATOM     73  N   UNL A   1      44.224  32.195  28.593  1.00  0.00    -0.248 NA
ATOM     74  C   UNL A   1      44.498  31.751  26.367  1.00  0.00     0.031 C 
ATOM     75  C   UNL A   1      44.609  34.053  31.140  1.00  0.00     0.029 A 
ATOM     76  C   UNL A   1      43.697  34.320  30.136  1.00  0.00     0.049 A 
ATOM     77  H   UNL A   1      41.610  34.539  30.265  1.00  0.00     0.167 HD
ATOM     78  C   UNL A   1      44.094  33.397  27.964  1.00  0.00     0.074 A 
ATOM     79  C   UNL A   1      44.297  33.069  26.562  1.00  0.00     0.031 C 
ATOM     80  C   UNL A   1      43.804  34.518  28.689  1.00  0.00     0.031 A 
BRANCH  67  81
ATOM     81  C   UNL A   1      41.191  34.638  34.339  1.00  0.00    -0.014 A 
ATOM     82  C   UNL A   1      40.149  35.537  34.625  1.00  0.00     0.010 A 
ATOM     83  C   UNL A   1      42.010  34.269  35.429  1.00  0.00     0.010 A 
ATOM     84  C   UNL A   1      39.984  36.099  35.899  1.00  0.00     0.020 A 
ATOM     85  C   UNL A   1      41.896  34.864  36.691  1.00  0.00     0.020 A 
ATOM     86  C   UNL A   1      40.871  35.771  36.923  1.00  0.00     0.054 A 
BRANCH  86  87
ATOM     87  S   UNL A   1      40.623  36.482  38.567  1.00  0.00     0.124 S 
ATOM     88  O   UNL A   1      40.587  35.299  39.424  1.00  0.00    -0.237 OA
ATOM     89  O   UNL A   1      41.800  37.333  38.718  1.00  0.00    -0.237 OA
ATOM     90  O   UNL A   1      39.353  37.197  38.452  1.00  0.00    -0.744 OA
ENDBRANCH  86  87
ENDBRANCH  67  81
BRANCH  68  91
ATOM     91  C   UNL A   1      43.820  28.655  27.285  1.00  0.00    -0.014 A 
ATOM     92  C   UNL A   1      44.435  28.464  26.043  1.00  0.00     0.010 A 
ATOM     93  C   UNL A   1      43.554  27.469  27.941  1.00  0.00     0.010 A 
ATOM     94  C   UNL A   1      45.439  27.474  25.925  1.00  0.00     0.020 A 
ATOM     95  C   UNL A   1      44.410  26.377  27.666  1.00  0.00     0.020 A 
ATOM     96  C   UNL A   1      45.572  26.478  26.912  1.00  0.00     0.054 A 
BRANCH  96  97
ATOM     97  S   UNL A   1      47.424  25.575  27.531  1.00  0.00     0.124 S 
ATOM     98  O   UNL A   1      48.541  26.071  26.819  1.00  0.00    -0.237 OA
ATOM     99  O   UNL A   1      47.612  26.030  28.904  1.00  0.00    -0.237 OA
ATOM    100  O   UNL A   1      47.394  24.173  27.251  1.00  0.00    -0.744 OA
ENDBRANCH  96  97
ENDBRANCH  68  91
BRANCH  80 101
ATOM    101  C   UNL A   1      43.588  35.920  28.164  1.00  0.00    -0.014 A 
ATOM    102  C   UNL A   1      42.344  36.531  27.980  1.00  0.00     0.010 A 
ATOM    103  C   UNL A   1      44.723  36.679  27.775  1.00  0.00     0.010 A 
ATOM    104  C   UNL A   1      42.240  37.844  27.499  1.00  0.00     0.020 A 
ATOM    105  C   UNL A   1      44.638  37.985  27.298  1.00  0.00     0.020 A 
ATOM    106  C   UNL A   1      43.388  38.565  27.171  1.00  0.00     0.054 A 
BRANCH 106 107
ATOM    107  S   UNL A   1      43.220  40.251  26.555  1.00  0.00     0.124 S 
ATOM    108  O   UNL A   1      41.891  40.223  25.947  1.00  0.00    -0.237 OA
ATOM    109  O   UNL A   1      43.331  41.039  27.780  1.00  0.00    -0.237 OA
ATOM    110  O   UNL A   1      44.330  40.399  25.617  1.00  0.00    -0.744 OA
ENDBRANCH 106 107
ENDBRANCH  80 101
ENDBRANCH  54  55
ENDBRANCH  46  49
ENDBRANCH  44  45
ENDBRANCH  43  44
ENDBRANCH   1  43
TORSDOF 20
ENDMDL
