MODEL 1
REMARK VINA RESULT:     -11.6      0.000      0.000
REMARK SMILES C=Cc1cc(Cl)cc2c1O[C@H](C(F)(F)F)C(C(=O)NCCCNC(=O)c1ccc(-c3c4nc(c(-c5ccc(S(=O)(=O)[O-])cc5)c5ccc([nH]5)c(-c5ccc(S(=O)(=O)[O-])cc5)c5nc(c(-c6ccc(S(=O)(=O)[O-])cc6)c6ccc3[nH]6)C=C5)C=C4)cc1)=C2
REMARK SMILES IDX 22 1 21 2 20 3 19 4 17 5 18 6 16 8 3 9 4 10 9 11 5 12 8 13
REMARK SMILES IDX 10 14 6 15 7 16 86 17 11 18 2 19 1 20 12 21 13 22 14 23
REMARK SMILES IDX 15 24 23 25 24 26 25 28 26 29 27 30 85 31 28 32 84 33 29 34
REMARK SMILES IDX 30 35 31 36 78 37 32 38 83 39 77 40 79 41 33 42 82 43 76 44
REMARK SMILES IDX 75 45 34 47 64 48 45 49 63 50 46 51 49 52 62 53 80 54 47 55
REMARK SMILES IDX 48 56 61 58 81 59 50 60 35 61 36 62 44 63 37 64 43 65 38 66
REMARK SMILES IDX 39 67 40 68 41 69 42 70 65 71 66 72 74 73 67 74 73 75 68 76
REMARK SMILES IDX 69 77 70 78 71 79 72 80 51 81 52 82 60 83 53 84 59 85 54 86
REMARK SMILES IDX 55 87 56 88 57 89 58 90
REMARK H PARENT 19 7 23 27 79 46 49 57
REMARK Flexibility Score: inf
ROOT
ATOM      1  C   UNL A   1      33.441  28.667  27.305  1.00  0.00     0.118 C 
ENDROOT
BRANCH   1   2
ATOM      2  C   UNL A   1      32.076  28.062  27.613  1.00  0.00     0.042 C 
BRANCH   2   3
ATOM      3  C   UNL A   1      31.461  27.391  26.393  1.00  0.00     0.118 C 
BRANCH   3   4
ATOM      4  N   UNL A   1      32.259  27.611  25.194  1.00  0.00    -0.352 N 
ATOM      5  C   UNL A   1      33.107  26.899  24.418  1.00  0.00     0.251 C 
ATOM      6  O   UNL A   1      33.587  27.518  23.462  1.00  0.00    -0.270 OA
ATOM      7  H   UNL A   1      32.152  28.529  24.856  1.00  0.00     0.163 HD
BRANCH   5   8
ATOM      8  C   UNL A   1      33.473  25.468  24.628  1.00  0.00     0.067 C 
ATOM      9  C   UNL A   1      34.612  21.499  25.457  1.00  0.00     0.018 A 
ATOM     10  C   UNL A   1      35.972  21.206  25.619  1.00  0.00     0.032 A 
ATOM     11  C   UNL A   1      34.230  22.833  25.234  1.00  0.00     0.135 A 
ATOM     12  C   UNL A   1      36.918  22.231  25.589  1.00  0.00     0.042 A 
ATOM     13  C   UNL A   1      35.179  23.861  25.214  1.00  0.00     0.019 A 
ATOM     14  O   UNL A   1      32.892  23.100  25.097  1.00  0.00    -0.475 OA
ATOM     15  Cl  UNL A   1      38.586  21.855  25.787  1.00  0.00    -0.084 Cl
ATOM     16  C   UNL A   1      36.529  23.556  25.395  1.00  0.00     0.032 A 
ATOM     17  C   UNL A   1      34.738  25.240  25.030  1.00  0.00     0.025 C 
ATOM     18  C   UNL A   1      32.546  24.314  24.382  1.00  0.00     0.314 C 
BRANCH   9  19
ATOM     19  C   UNL A   1      33.604  20.428  25.452  1.00  0.00     0.004 C 
ATOM     20  C   UNL A   1      33.627  19.387  24.612  1.00  0.00     0.009 C 
ENDBRANCH   9  19
BRANCH  18  21
ATOM     21  C   UNL A   1      32.385  23.993  22.883  1.00  0.00     0.429 C 
ATOM     22  F   UNL A   1      31.407  24.756  22.334  1.00  0.00    -0.167 F 
ATOM     23  F   UNL A   1      33.510  24.241  22.173  1.00  0.00    -0.167 F 
ATOM     24  F   UNL A   1      32.062  22.699  22.659  1.00  0.00    -0.167 F 
ENDBRANCH  18  21
ENDBRANCH   5   8
ENDBRANCH   3   4
ENDBRANCH   2   3
ENDBRANCH   1   2
BRANCH   1  25
ATOM     25  N   UNL A   1      33.492  30.091  27.632  1.00  0.00    -0.352 N 
ATOM     26  C   UNL A   1      34.483  30.824  28.240  1.00  0.00     0.251 C 
ATOM     27  H   UNL A   1      32.692  30.604  27.377  1.00  0.00     0.163 HD
ATOM     28  O   UNL A   1      34.239  31.954  28.657  1.00  0.00    -0.269 OA
BRANCH  26  29
ATOM     29  C   UNL A   1      35.830  30.242  28.407  1.00  0.00     0.039 A 
ATOM     30  C   UNL A   1      36.188  29.647  29.617  1.00  0.00     0.014 A 
ATOM     31  C   UNL A   1      36.743  30.297  27.352  1.00  0.00     0.014 A 
ATOM     32  C   UNL A   1      37.509  29.291  29.842  1.00  0.00     0.010 A 
ATOM     33  C   UNL A   1      38.048  29.836  27.545  1.00  0.00     0.010 A 
ATOM     34  C   UNL A   1      38.454  29.374  28.808  1.00  0.00    -0.014 A 
BRANCH  34  35
ATOM     35  C   UNL A   1      39.858  28.966  29.069  1.00  0.00     0.031 A 
ATOM     36  C   UNL A   1      40.784  29.861  29.845  1.00  0.00     0.074 A 
ATOM     37  C   UNL A   1      40.271  27.749  28.662  1.00  0.00     0.049 A 
ATOM     38  N   UNL A   1      42.042  29.672  30.148  1.00  0.00    -0.248 NA
ATOM     39  C   UNL A   1      40.231  31.129  30.350  1.00  0.00     0.031 C 
ATOM     40  C   UNL A   1      39.437  26.773  27.954  1.00  0.00     0.029 A 
ATOM     41  N   UNL A   1      41.472  27.107  28.815  1.00  0.00    -0.354 N 
ATOM     42  C   UNL A   1      42.434  30.797  30.863  1.00  0.00     0.074 A 
ATOM     43  C   UNL A   1      41.292  31.679  30.926  1.00  0.00     0.031 C 
ATOM     44  C   UNL A   1      40.124  25.634  27.805  1.00  0.00     0.029 A 
ATOM     45  C   UNL A   1      41.478  25.826  28.316  1.00  0.00     0.049 A 
ATOM     46  H   UNL A   1      42.255  27.523  29.243  1.00  0.00     0.167 HD
ATOM     47  C   UNL A   1      43.638  31.060  31.425  1.00  0.00     0.031 A 
ATOM     48  C   UNL A   1      42.463  24.909  28.249  1.00  0.00     0.031 A 
ATOM     49  C   UNL A   1      44.765  30.168  31.358  1.00  0.00     0.049 A 
ATOM     50  C   UNL A   1      43.817  25.265  28.781  1.00  0.00     0.074 A 
ATOM     51  C   UNL A   1      46.031  30.348  31.884  1.00  0.00     0.029 A 
ATOM     52  N   UNL A   1      44.761  28.929  30.735  1.00  0.00    -0.354 N 
ATOM     53  N   UNL A   1      44.184  26.353  29.415  1.00  0.00    -0.248 NA
ATOM     54  C   UNL A   1      44.898  24.292  28.573  1.00  0.00     0.031 C 
ATOM     55  C   UNL A   1      46.811  29.246  31.526  1.00  0.00     0.029 A 
ATOM     56  C   UNL A   1      46.014  28.347  30.834  1.00  0.00     0.049 A 
ATOM     57  H   UNL A   1      43.984  28.522  30.288  1.00  0.00     0.167 HD
ATOM     58  C   UNL A   1      45.539  26.200  29.678  1.00  0.00     0.074 A 
ATOM     59  C   UNL A   1      45.923  24.904  29.153  1.00  0.00     0.031 C 
ATOM     60  C   UNL A   1      46.385  27.061  30.292  1.00  0.00     0.031 A 
BRANCH  47  61
ATOM     61  C   UNL A   1      43.814  32.369  32.150  1.00  0.00    -0.014 A 
ATOM     62  C   UNL A   1      43.568  32.442  33.535  1.00  0.00     0.010 A 
ATOM     63  C   UNL A   1      44.135  33.548  31.453  1.00  0.00     0.010 A 
ATOM     64  C   UNL A   1      43.624  33.665  34.206  1.00  0.00     0.020 A 
ATOM     65  C   UNL A   1      44.219  34.772  32.125  1.00  0.00     0.020 A 
ATOM     66  C   UNL A   1      43.945  34.825  33.495  1.00  0.00     0.054 A 
BRANCH  66  67
ATOM     67  S   UNL A   1      44.026  36.406  34.382  1.00  0.00     0.124 S 
ATOM     68  O   UNL A   1      45.117  37.090  33.694  1.00  0.00    -0.237 OA
ATOM     69  O   UNL A   1      42.694  36.966  34.167  1.00  0.00    -0.237 OA
ATOM     70  O   UNL A   1      44.307  36.007  35.759  1.00  0.00    -0.744 OA
ENDBRANCH  66  67
ENDBRANCH  47  61
BRANCH  48  71
ATOM     71  C   UNL A   1      42.165  23.582  27.644  1.00  0.00    -0.014 A 
ATOM     72  C   UNL A   1      41.752  22.507  28.456  1.00  0.00     0.010 A 
ATOM     73  C   UNL A   1      42.438  23.348  26.285  1.00  0.00     0.010 A 
ATOM     74  C   UNL A   1      41.702  21.210  27.943  1.00  0.00     0.020 A 
ATOM     75  C   UNL A   1      42.360  22.053  25.761  1.00  0.00     0.020 A 
ATOM     76  C   UNL A   1      42.032  20.988  26.604  1.00  0.00     0.054 A 
BRANCH  76  77
ATOM     77  S   UNL A   1      42.066  19.282  25.987  1.00  0.00     0.124 S 
ATOM     78  O   UNL A   1      40.658  19.049  25.677  1.00  0.00    -0.237 OA
ATOM     79  O   UNL A   1      42.957  19.377  24.833  1.00  0.00    -0.237 OA
ATOM     80  O   UNL A   1      42.592  18.521  27.117  1.00  0.00    -0.744 OA
ENDBRANCH  76  77
ENDBRANCH  48  71
BRANCH  60  81
ATOM     81  C   UNL A   1      47.829  26.665  30.426  1.00  0.00    -0.014 A 
ATOM     82  C   UNL A   1      48.254  25.946  31.558  1.00  0.00     0.010 A 
ATOM     83  C   UNL A   1      48.785  27.157  29.521  1.00  0.00     0.010 A 
ATOM     84  C   UNL A   1      49.615  25.776  31.815  1.00  0.00     0.020 A 
ATOM     85  C   UNL A   1      50.148  26.966  29.763  1.00  0.00     0.020 A 
ATOM     86  C   UNL A   1      50.555  26.306  30.925  1.00  0.00     0.054 A 
BRANCH  86  87
ATOM     87  S   UNL A   1      52.317  26.149  31.321  1.00  0.00     0.124 S 
ATOM     88  O   UNL A   1      52.527  27.271  32.230  1.00  0.00    -0.237 OA
ATOM     89  O   UNL A   1      52.392  24.822  31.929  1.00  0.00    -0.237 OA
ATOM     90  O   UNL A   1      52.973  26.268  30.021  1.00  0.00    -0.744 OA
ENDBRANCH  86  87
ENDBRANCH  60  81
ENDBRANCH  34  35
ENDBRANCH  26  29
ENDBRANCH   1  25
TORSDOF 15
ENDMDL
MODEL 2
REMARK VINA RESULT:     -11.6      2.939      9.371
REMARK SMILES C=Cc1cc(Cl)cc2c1O[C@H](C(F)(F)F)C(C(=O)NCCCNC(=O)c1ccc(-c3c4nc(c(-c5ccc(S(=O)(=O)[O-])cc5)c5ccc([nH]5)c(-c5ccc(S(=O)(=O)[O-])cc5)c5nc(c(-c6ccc(S(=O)(=O)[O-])cc6)c6ccc3[nH]6)C=C5)C=C4)cc1)=C2
REMARK SMILES IDX 22 1 21 2 20 3 19 4 17 5 18 6 16 8 3 9 4 10 9 11 5 12 8 13
REMARK SMILES IDX 10 14 6 15 7 16 86 17 11 18 2 19 1 20 12 21 13 22 14 23
REMARK SMILES IDX 15 24 23 25 24 26 25 28 26 29 27 30 85 31 28 32 84 33 29 34
REMARK SMILES IDX 30 35 31 36 78 37 32 38 83 39 77 40 79 41 33 42 82 43 76 44
REMARK SMILES IDX 75 45 34 47 64 48 45 49 63 50 46 51 49 52 62 53 80 54 47 55
REMARK SMILES IDX 48 56 61 58 81 59 50 60 35 61 36 62 44 63 37 64 43 65 38 66
REMARK SMILES IDX 39 67 40 68 41 69 42 70 65 71 66 72 74 73 67 74 73 75 68 76
REMARK SMILES IDX 69 77 70 78 71 79 72 80 51 81 52 82 60 83 53 84 59 85 54 86
REMARK SMILES IDX 55 87 56 88 57 89 58 90
REMARK H PARENT 19 7 23 27 79 46 49 57
REMARK Flexibility Score: inf
ROOT
ATOM      1  C   UNL A   1      36.504  23.299  25.736  1.00  0.00     0.118 C 
ENDROOT
BRANCH   1   2
ATOM      2  C   UNL A   1      35.299  22.874  26.568  1.00  0.00     0.042 C 
BRANCH   2   3
ATOM      3  C   UNL A   1      34.001  22.961  25.780  1.00  0.00     0.118 C 
BRANCH   3   4
ATOM      4  N   UNL A   1      34.244  23.164  24.358  1.00  0.00    -0.352 N 
ATOM      5  C   UNL A   1      33.947  24.092  23.420  1.00  0.00     0.251 C 
ATOM      6  O   UNL A   1      34.365  23.841  22.284  1.00  0.00    -0.270 OA
ATOM      7  H   UNL A   1      34.767  22.425  23.974  1.00  0.00     0.163 HD
BRANCH   5   8
ATOM      8  C   UNL A   1      33.190  25.355  23.664  1.00  0.00     0.067 C 
ATOM      9  C   UNL A   1      31.279  29.053  24.300  1.00  0.00     0.018 A 
ATOM     10  C   UNL A   1      31.736  29.881  25.332  1.00  0.00     0.032 A 
ATOM     11  C   UNL A   1      31.952  27.844  24.055  1.00  0.00     0.135 A 
ATOM     12  C   UNL A   1      32.859  29.518  26.078  1.00  0.00     0.042 A 
ATOM     13  C   UNL A   1      33.084  27.486  24.796  1.00  0.00     0.019 A 
ATOM     14  O   UNL A   1      31.500  27.058  23.026  1.00  0.00    -0.475 OA
ATOM     15  Cl  UNL A   1      33.407  30.545  27.346  1.00  0.00    -0.084 Cl
ATOM     16  C   UNL A   1      33.539  28.330  25.811  1.00  0.00     0.032 A 
ATOM     17  C   UNL A   1      33.786  26.247  24.478  1.00  0.00     0.025 C 
ATOM     18  C   UNL A   1      31.831  25.647  23.099  1.00  0.00     0.314 C 
BRANCH   9  19
ATOM     19  C   UNL A   1      30.078  29.403  23.526  1.00  0.00     0.004 C 
ATOM     20  C   UNL A   1      29.447  30.579  23.621  1.00  0.00     0.009 C 
ENDBRANCH   9  19
BRANCH  18  21
ATOM     21  C   UNL A   1      30.708  24.898  23.840  1.00  0.00     0.429 C 
ATOM     22  F   UNL A   1      29.615  25.691  23.978  1.00  0.00    -0.167 F 
ATOM     23  F   UNL A   1      30.297  23.789  23.181  1.00  0.00    -0.167 F 
ATOM     24  F   UNL A   1      31.076  24.499  25.079  1.00  0.00    -0.167 F 
ENDBRANCH  18  21
ENDBRANCH   5   8
ENDBRANCH   3   4
ENDBRANCH   2   3
ENDBRANCH   1   2
BRANCH   1  25
ATOM     25  N   UNL A   1      37.654  22.424  25.954  1.00  0.00    -0.352 N 
ATOM     26  C   UNL A   1      38.937  22.730  26.343  1.00  0.00     0.251 C 
ATOM     27  H   UNL A   1      37.484  21.468  25.798  1.00  0.00     0.163 HD
ATOM     28  O   UNL A   1      39.827  21.891  26.226  1.00  0.00    -0.269 OA
BRANCH  26  29
ATOM     29  C   UNL A   1      39.241  24.070  26.881  1.00  0.00     0.039 A 
ATOM     30  C   UNL A   1      39.864  25.022  26.073  1.00  0.00     0.014 A 
ATOM     31  C   UNL A   1      38.910  24.378  28.204  1.00  0.00     0.014 A 
ATOM     32  C   UNL A   1      40.333  26.199  26.636  1.00  0.00     0.010 A 
ATOM     33  C   UNL A   1      39.289  25.611  28.740  1.00  0.00     0.010 A 
ATOM     34  C   UNL A   1      40.047  26.512  27.974  1.00  0.00    -0.014 A 
BRANCH  34  35
ATOM     35  C   UNL A   1      40.544  27.789  28.546  1.00  0.00     0.031 A 
ATOM     36  C   UNL A   1      42.012  27.994  28.800  1.00  0.00     0.074 A 
ATOM     37  C   UNL A   1      39.669  28.789  28.770  1.00  0.00     0.049 A 
ATOM     38  N   UNL A   1      42.617  29.035  29.311  1.00  0.00    -0.248 NA
ATOM     39  C   UNL A   1      42.921  26.895  28.431  1.00  0.00     0.031 C 
ATOM     40  C   UNL A   1      38.230  28.720  28.502  1.00  0.00     0.029 A 
ATOM     41  N   UNL A   1      39.857  30.066  29.231  1.00  0.00    -0.354 N 
ATOM     42  C   UNL A   1      43.969  28.714  29.339  1.00  0.00     0.074 A 
ATOM     43  C   UNL A   1      44.097  27.371  28.821  1.00  0.00     0.031 C 
ATOM     44  C   UNL A   1      37.682  29.921  28.727  1.00  0.00     0.029 A 
ATOM     45  C   UNL A   1      38.708  30.819  29.251  1.00  0.00     0.049 A 
ATOM     46  H   UNL A   1      40.734  30.411  29.520  1.00  0.00     0.167 HD
ATOM     47  C   UNL A   1      45.008  29.479  29.749  1.00  0.00     0.031 A 
ATOM     48  C   UNL A   1      38.487  32.083  29.664  1.00  0.00     0.031 A 
ATOM     49  C   UNL A   1      44.864  30.818  30.257  1.00  0.00     0.049 A 
ATOM     50  C   UNL A   1      39.634  32.873  30.215  1.00  0.00     0.074 A 
ATOM     51  C   UNL A   1      45.853  31.672  30.711  1.00  0.00     0.029 A 
ATOM     52  N   UNL A   1      43.661  31.499  30.374  1.00  0.00    -0.354 N 
ATOM     53  N   UNL A   1      40.900  32.537  30.277  1.00  0.00    -0.248 NA
ATOM     54  C   UNL A   1      39.330  34.196  30.776  1.00  0.00     0.031 C 
ATOM     55  C   UNL A   1      45.242  32.845  31.159  1.00  0.00     0.029 A 
ATOM     56  C   UNL A   1      43.879  32.751  30.923  1.00  0.00     0.049 A 
ATOM     57  H   UNL A   1      42.783  31.146  30.105  1.00  0.00     0.167 HD
ATOM     58  C   UNL A   1      41.546  33.603  30.887  1.00  0.00     0.074 A 
ATOM     59  C   UNL A   1      40.534  34.606  31.157  1.00  0.00     0.031 C 
ATOM     60  C   UNL A   1      42.857  33.733  31.200  1.00  0.00     0.031 A 
BRANCH  47  61
ATOM     61  C   UNL A   1      46.394  28.892  29.686  1.00  0.00    -0.014 A 
ATOM     62  C   UNL A   1      47.151  29.009  28.505  1.00  0.00     0.010 A 
ATOM     63  C   UNL A   1      46.916  28.146  30.758  1.00  0.00     0.010 A 
ATOM     64  C   UNL A   1      48.394  28.383  28.389  1.00  0.00     0.020 A 
ATOM     65  C   UNL A   1      48.172  27.539  30.657  1.00  0.00     0.020 A 
ATOM     66  C   UNL A   1      48.895  27.646  29.466  1.00  0.00     0.054 A 
BRANCH  66  67
ATOM     67  S   UNL A   1      50.517  26.848  29.307  1.00  0.00     0.124 S 
ATOM     68  O   UNL A   1      51.113  27.098  30.615  1.00  0.00    -0.237 OA
ATOM     69  O   UNL A   1      50.166  25.458  29.026  1.00  0.00    -0.237 OA
ATOM     70  O   UNL A   1      51.136  27.560  28.190  1.00  0.00    -0.744 OA
ENDBRANCH  66  67
ENDBRANCH  47  61
BRANCH  48  71
ATOM     71  C   UNL A   1      37.111  32.639  29.558  1.00  0.00    -0.014 A 
ATOM     72  C   UNL A   1      36.678  33.244  28.362  1.00  0.00     0.010 A 
ATOM     73  C   UNL A   1      36.285  32.701  30.694  1.00  0.00     0.010 A 
ATOM     74  C   UNL A   1      35.489  33.976  28.328  1.00  0.00     0.020 A 
ATOM     75  C   UNL A   1      35.078  33.408  30.653  1.00  0.00     0.020 A 
ATOM     76  C   UNL A   1      34.709  34.073  29.482  1.00  0.00     0.054 A 
BRANCH  76  77
ATOM     77  S   UNL A   1      33.226  35.118  29.445  1.00  0.00     0.124 S 
ATOM     78  O   UNL A   1      32.713  34.954  30.803  1.00  0.00    -0.237 OA
ATOM     79  O   UNL A   1      33.771  36.437  29.133  1.00  0.00    -0.237 OA
ATOM     80  O   UNL A   1      32.411  34.517  28.392  1.00  0.00    -0.744 OA
ENDBRANCH  76  77
ENDBRANCH  48  71
BRANCH  60  81
ATOM     81  C   UNL A   1      43.302  34.990  31.895  1.00  0.00    -0.014 A 
ATOM     82  C   UNL A   1      43.173  35.099  33.291  1.00  0.00     0.010 A 
ATOM     83  C   UNL A   1      43.680  36.118  31.146  1.00  0.00     0.010 A 
ATOM     84  C   UNL A   1      43.356  36.330  33.922  1.00  0.00     0.020 A 
ATOM     85  C   UNL A   1      43.889  37.346  31.778  1.00  0.00     0.020 A 
ATOM     86  C   UNL A   1      43.694  37.451  33.158  1.00  0.00     0.054 A 
BRANCH  86  87
ATOM     87  S   UNL A   1      43.842  39.058  33.984  1.00  0.00     0.124 S 
ATOM     88  O   UNL A   1      45.157  39.510  33.541  1.00  0.00    -0.237 OA
ATOM     89  O   UNL A   1      42.705  39.802  33.446  1.00  0.00    -0.237 OA
ATOM     90  O   UNL A   1      43.743  38.724  35.403  1.00  0.00    -0.744 OA
ENDBRANCH  86  87
ENDBRANCH  60  81
ENDBRANCH  34  35
ENDBRANCH  26  29
ENDBRANCH   1  25
TORSDOF 15
ENDMDL
MODEL 3
REMARK VINA RESULT:     -11.2      2.934      8.432
REMARK SMILES C=Cc1cc(Cl)cc2c1O[C@H](C(F)(F)F)C(C(=O)NCCCNC(=O)c1ccc(-c3c4nc(c(-c5ccc(S(=O)(=O)[O-])cc5)c5ccc([nH]5)c(-c5ccc(S(=O)(=O)[O-])cc5)c5nc(c(-c6ccc(S(=O)(=O)[O-])cc6)c6ccc3[nH]6)C=C5)C=C4)cc1)=C2
REMARK SMILES IDX 22 1 21 2 20 3 19 4 17 5 18 6 16 8 3 9 4 10 9 11 5 12 8 13
REMARK SMILES IDX 10 14 6 15 7 16 86 17 11 18 2 19 1 20 12 21 13 22 14 23
REMARK SMILES IDX 15 24 23 25 24 26 25 28 26 29 27 30 85 31 28 32 84 33 29 34
REMARK SMILES IDX 30 35 31 36 78 37 32 38 83 39 77 40 79 41 33 42 82 43 76 44
REMARK SMILES IDX 75 45 34 47 64 48 45 49 63 50 46 51 49 52 62 53 80 54 47 55
REMARK SMILES IDX 48 56 61 58 81 59 50 60 35 61 36 62 44 63 37 64 43 65 38 66
REMARK SMILES IDX 39 67 40 68 41 69 42 70 65 71 66 72 74 73 67 74 73 75 68 76
REMARK SMILES IDX 69 77 70 78 71 79 72 80 51 81 52 82 60 83 53 84 59 85 54 86
REMARK SMILES IDX 55 87 56 88 57 89 58 90
REMARK H PARENT 19 7 23 27 79 46 49 57
REMARK Flexibility Score: inf
ROOT
ATOM      1  C   UNL A   1      36.817  23.597  25.355  1.00  0.00     0.118 C 
ENDROOT
BRANCH   1   2
ATOM      2  C   UNL A   1      35.698  23.432  26.376  1.00  0.00     0.042 C 
BRANCH   2   3
ATOM      3  C   UNL A   1      34.374  23.072  25.718  1.00  0.00     0.118 C 
BRANCH   3   4
ATOM      4  N   UNL A   1      34.420  23.253  24.273  1.00  0.00    -0.352 N 
ATOM      5  C   UNL A   1      33.973  24.153  23.369  1.00  0.00     0.251 C 
ATOM      6  O   UNL A   1      34.244  23.891  22.192  1.00  0.00    -0.270 OA
ATOM      7  H   UNL A   1      34.911  22.522  23.836  1.00  0.00     0.163 HD
BRANCH   5   8
ATOM      8  C   UNL A   1      33.214  25.397  23.691  1.00  0.00     0.067 C 
ATOM      9  C   UNL A   1      31.284  29.049  24.509  1.00  0.00     0.018 A 
ATOM     10  C   UNL A   1      31.859  29.924  25.439  1.00  0.00     0.032 A 
ATOM     11  C   UNL A   1      31.957  27.856  24.197  1.00  0.00     0.135 A 
ATOM     12  C   UNL A   1      33.093  29.621  26.016  1.00  0.00     0.042 A 
ATOM     13  C   UNL A   1      33.199  27.558  24.769  1.00  0.00     0.019 A 
ATOM     14  O   UNL A   1      31.385  27.023  23.270  1.00  0.00    -0.475 OA
ATOM     15  Cl  UNL A   1      33.787  30.706  27.159  1.00  0.00    -0.084 Cl
ATOM     16  C   UNL A   1      33.769  28.448  25.680  1.00  0.00     0.032 A 
ATOM     17  C   UNL A   1      33.891  26.333  24.382  1.00  0.00     0.025 C 
ATOM     18  C   UNL A   1      31.776  25.626  23.329  1.00  0.00     0.314 C 
BRANCH   9  19
ATOM     19  C   UNL A   1      29.968  29.334  23.917  1.00  0.00     0.004 C 
ATOM     20  C   UNL A   1      29.635  30.511  23.374  1.00  0.00     0.009 C 
ENDBRANCH   9  19
BRANCH  18  21
ATOM     21  C   UNL A   1      30.805  24.865  24.251  1.00  0.00     0.429 C 
ATOM     22  F   UNL A   1      31.360  24.671  25.474  1.00  0.00    -0.167 F 
ATOM     23  F   UNL A   1      29.647  25.536  24.457  1.00  0.00    -0.167 F 
ATOM     24  F   UNL A   1      30.467  23.649  23.764  1.00  0.00    -0.167 F 
ENDBRANCH  18  21
ENDBRANCH   5   8
ENDBRANCH   3   4
ENDBRANCH   2   3
ENDBRANCH   1   2
BRANCH   1  25
ATOM     25  N   UNL A   1      37.935  22.692  25.620  1.00  0.00    -0.352 N 
ATOM     26  C   UNL A   1      39.177  22.951  26.147  1.00  0.00     0.251 C 
ATOM     27  H   UNL A   1      37.771  21.751  25.384  1.00  0.00     0.163 HD
ATOM     28  O   UNL A   1      40.067  22.109  26.057  1.00  0.00    -0.269 OA
BRANCH  26  29
ATOM     29  C   UNL A   1      39.442  24.248  26.801  1.00  0.00     0.039 A 
ATOM     30  C   UNL A   1      40.123  25.252  26.111  1.00  0.00     0.014 A 
ATOM     31  C   UNL A   1      39.013  24.463  28.113  1.00  0.00     0.014 A 
ATOM     32  C   UNL A   1      40.550  26.383  26.790  1.00  0.00     0.010 A 
ATOM     33  C   UNL A   1      39.351  25.652  28.764  1.00  0.00     0.010 A 
ATOM     34  C   UNL A   1      40.165  26.601  28.122  1.00  0.00    -0.014 A 
BRANCH  34  35
ATOM     35  C   UNL A   1      40.618  27.831  28.820  1.00  0.00     0.031 A 
ATOM     36  C   UNL A   1      39.692  29.004  28.983  1.00  0.00     0.074 A 
ATOM     37  C   UNL A   1      41.849  27.856  29.367  1.00  0.00     0.049 A 
ATOM     38  N   UNL A   1      39.927  30.161  29.545  1.00  0.00    -0.248 NA
ATOM     39  C   UNL A   1      38.325  28.864  28.451  1.00  0.00     0.031 C 
ATOM     40  C   UNL A   1      42.809  26.749  29.322  1.00  0.00     0.029 A 
ATOM     41  N   UNL A   1      42.491  28.820  30.100  1.00  0.00    -0.354 N 
ATOM     42  C   UNL A   1      38.749  30.890  29.424  1.00  0.00     0.074 A 
ATOM     43  C   UNL A   1      37.808  30.059  28.709  1.00  0.00     0.031 C 
ATOM     44  C   UNL A   1      43.880  27.066  30.061  1.00  0.00     0.029 A 
ATOM     45  C   UNL A   1      43.731  28.434  30.550  1.00  0.00     0.049 A 
ATOM     46  H   UNL A   1      42.101  29.705  30.286  1.00  0.00     0.167 HD
ATOM     47  C   UNL A   1      38.479  32.136  29.881  1.00  0.00     0.031 A 
ATOM     48  C   UNL A   1      44.662  29.104  31.258  1.00  0.00     0.031 A 
ATOM     49  C   UNL A   1      39.427  32.948  30.597  1.00  0.00     0.049 A 
ATOM     50  C   UNL A   1      44.382  30.520  31.659  1.00  0.00     0.074 A 
ATOM     51  C   UNL A   1      39.255  34.229  31.090  1.00  0.00     0.029 A 
ATOM     52  N   UNL A   1      40.718  32.561  30.926  1.00  0.00    -0.354 N 
ATOM     53  N   UNL A   1      43.279  31.211  31.496  1.00  0.00    -0.248 NA
ATOM     54  C   UNL A   1      45.469  31.260  32.312  1.00  0.00     0.031 C 
ATOM     55  C   UNL A   1      40.460  34.639  31.664  1.00  0.00     0.029 A 
ATOM     56  C   UNL A   1      41.365  33.591  31.588  1.00  0.00     0.049 A 
ATOM     57  H   UNL A   1      41.115  31.684  30.721  1.00  0.00     0.167 HD
ATOM     58  C   UNL A   1      43.538  32.469  32.022  1.00  0.00     0.074 A 
ATOM     59  C   UNL A   1      44.897  32.439  32.528  1.00  0.00     0.031 C 
ATOM     60  C   UNL A   1      42.724  33.550  32.073  1.00  0.00     0.031 A 
BRANCH  47  61
ATOM     61  C   UNL A   1      37.114  32.712  29.612  1.00  0.00    -0.014 A 
ATOM     62  C   UNL A   1      36.870  33.407  28.412  1.00  0.00     0.010 A 
ATOM     63  C   UNL A   1      36.095  32.648  30.580  1.00  0.00     0.010 A 
ATOM     64  C   UNL A   1      35.645  34.039  28.189  1.00  0.00     0.020 A 
ATOM     65  C   UNL A   1      34.857  33.256  30.351  1.00  0.00     0.020 A 
ATOM     66  C   UNL A   1      34.646  33.963  29.164  1.00  0.00     0.054 A 
BRANCH  66  67
ATOM     67  S   UNL A   1      33.053  34.777  28.857  1.00  0.00     0.124 S 
ATOM     68  O   UNL A   1      32.442  33.895  27.868  1.00  0.00    -0.237 OA
ATOM     69  O   UNL A   1      32.430  34.776  30.178  1.00  0.00    -0.237 OA
ATOM     70  O   UNL A   1      33.438  36.099  28.364  1.00  0.00    -0.744 OA
ENDBRANCH  66  67
ENDBRANCH  47  61
BRANCH  48  71
ATOM     71  C   UNL A   1      45.931  28.410  31.608  1.00  0.00    -0.014 A 
ATOM     72  C   UNL A   1      46.934  28.229  30.636  1.00  0.00     0.010 A 
ATOM     73  C   UNL A   1      46.078  27.799  32.865  1.00  0.00     0.010 A 
ATOM     74  C   UNL A   1      48.014  27.379  30.881  1.00  0.00     0.020 A 
ATOM     75  C   UNL A   1      47.176  26.971  33.125  1.00  0.00     0.020 A 
ATOM     76  C   UNL A   1      48.114  26.736  32.117  1.00  0.00     0.054 A 
BRANCH  76  77
ATOM     77  S   UNL A   1      49.465  25.553  32.376  1.00  0.00     0.124 S 
ATOM     78  O   UNL A   1      49.769  25.144  31.008  1.00  0.00    -0.237 OA
ATOM     79  O   UNL A   1      50.485  26.370  33.030  1.00  0.00    -0.237 OA
ATOM     80  O   UNL A   1      48.861  24.523  33.218  1.00  0.00    -0.744 OA
ENDBRANCH  76  77
ENDBRANCH  48  71
BRANCH  60  81
ATOM     81  C   UNL A   1      43.263  34.819  32.674  1.00  0.00    -0.014 A 
ATOM     82  C   UNL A   1      42.993  35.123  34.021  1.00  0.00     0.010 A 
ATOM     83  C   UNL A   1      43.881  35.782  31.858  1.00  0.00     0.010 A 
ATOM     84  C   UNL A   1      43.278  36.391  34.528  1.00  0.00     0.020 A 
ATOM     85  C   UNL A   1      44.191  37.044  32.371  1.00  0.00     0.020 A 
ATOM     86  C   UNL A   1      43.858  37.351  33.692  1.00  0.00     0.054 A 
BRANCH  86  87
ATOM     87  S   UNL A   1      44.141  39.019  34.345  1.00  0.00     0.124 S 
ATOM     88  O   UNL A   1      44.257  38.771  35.779  1.00  0.00    -0.237 OA
ATOM     89  O   UNL A   1      45.375  39.421  33.674  1.00  0.00    -0.237 OA
ATOM     90  O   UNL A   1      42.948  39.756  33.934  1.00  0.00    -0.744 OA
ENDBRANCH  86  87
ENDBRANCH  60  81
ENDBRANCH  34  35
ENDBRANCH  26  29
ENDBRANCH   1  25
TORSDOF 15
ENDMDL
