MODEL 1
REMARK VINA RESULT:     -10.9      0.000      0.000
REMARK SMILES O=C(NCCCNC(=O)[C@H]1CCCC[N@H+]1Cc1ccc(F)cc1Cl)c1ccc(-c2c3nc(c(-c4ccc(S(=O)(=O)[O-])cc4)c4ccc([nH]4)c(-c4ccc(S(=O)(=O)[O-])cc4)c4nc(c(-c5ccc(S(=O)(=O)[O-])cc5)c5ccc2[nH]5)C=C4)C=C3)cc1
REMARK SMILES IDX 4 1 3 2 1 3 2 4 25 6 26 7 84 8 27 9 83 10 28 11 29 12 30 13
REMARK SMILES IDX 77 14 31 15 82 16 76 17 78 18 32 19 81 20 75 21 74 22 33 24
REMARK SMILES IDX 63 25 44 26 62 27 45 28 48 29 61 30 79 31 46 32 47 33 60 35
REMARK SMILES IDX 80 36 49 37 34 38 35 39 43 40 36 41 42 42 37 43 38 44 39 45
REMARK SMILES IDX 40 46 41 47 64 48 65 49 73 50 66 51 72 52 67 53 68 54 69 55
REMARK SMILES IDX 70 56 71 57 50 58 51 59 59 60 52 61 58 62 53 63 54 64 55 65
REMARK SMILES IDX 56 66 57 67 5 68 6 69 7 70 8 71 9 73 10 74 11 75 15 76 12 77
REMARK SMILES IDX 14 78 13 80 16 81 17 82 18 83 23 84 19 85 22 86 24 87 20 88
REMARK SMILES IDX 21 89
REMARK H PARENT 3 5 78 23 48 34 7 72 15 79
REMARK Flexibility Score: inf
ROOT
ATOM      1  C   UNL A   1      34.046  28.283  26.562  1.00  0.00     0.118 C 
ENDROOT
BRANCH   1   2
ATOM      2  N   UNL A   1      33.768  29.651  26.987  1.00  0.00    -0.352 N 
ATOM      3  O   UNL A   1      33.994  31.495  28.270  1.00  0.00    -0.269 OA
ATOM      4  C   UNL A   1      34.494  30.468  27.822  1.00  0.00     0.251 C 
ATOM      5  H   UNL A   1      32.943  30.046  26.624  1.00  0.00     0.163 HD
BRANCH   4   6
ATOM      6  C   UNL A   1      35.872  30.084  28.181  1.00  0.00     0.039 A 
ATOM      7  C   UNL A   1      36.898  30.275  27.256  1.00  0.00     0.014 A 
ATOM      8  C   UNL A   1      36.146  29.523  29.431  1.00  0.00     0.014 A 
ATOM      9  C   UNL A   1      38.146  29.731  27.494  1.00  0.00     0.010 A 
ATOM     10  C   UNL A   1      37.447  29.104  29.727  1.00  0.00     0.010 A 
ATOM     11  C   UNL A   1      38.452  29.186  28.750  1.00  0.00    -0.014 A 
BRANCH  11  12
ATOM     12  C   UNL A   1      39.865  28.839  29.031  1.00  0.00     0.031 A 
ATOM     13  C   UNL A   1      40.458  27.527  28.607  1.00  0.00     0.074 A 
ATOM     14  C   UNL A   1      40.622  29.778  29.638  1.00  0.00     0.049 A 
ATOM     15  N   UNL A   1      41.687  27.104  28.759  1.00  0.00    -0.248 NA
ATOM     16  C   UNL A   1      39.570  26.562  27.938  1.00  0.00     0.031 C 
ATOM     17  C   UNL A   1      40.135  31.085  30.098  1.00  0.00     0.029 A 
ATOM     18  N   UNL A   1      41.958  29.803  29.939  1.00  0.00    -0.354 N 
ATOM     19  C   UNL A   1      41.714  25.816  28.238  1.00  0.00     0.074 A 
ATOM     20  C   UNL A   1      40.378  25.522  27.767  1.00  0.00     0.031 C 
ATOM     21  C   UNL A   1      41.167  31.810  30.547  1.00  0.00     0.029 A 
ATOM     22  C   UNL A   1      42.368  30.990  30.501  1.00  0.00     0.049 A 
ATOM     23  H   UNL A   1      42.565  29.048  29.770  1.00  0.00     0.167 HD
ATOM     24  C   UNL A   1      42.762  24.961  28.169  1.00  0.00     0.031 A 
ATOM     25  C   UNL A   1      43.572  31.371  30.963  1.00  0.00     0.031 A 
ATOM     26  C   UNL A   1      44.090  25.278  28.631  1.00  0.00     0.049 A 
ATOM     27  C   UNL A   1      44.706  30.395  30.882  1.00  0.00     0.074 A 
ATOM     28  C   UNL A   1      45.229  24.493  28.576  1.00  0.00     0.029 A 
ATOM     29  N   UNL A   1      44.457  26.471  29.234  1.00  0.00    -0.354 N 
ATOM     30  N   UNL A   1      44.713  29.189  30.366  1.00  0.00    -0.248 NA
ATOM     31  C   UNL A   1      45.986  30.822  31.457  1.00  0.00     0.031 C 
ATOM     32  C   UNL A   1      46.272  25.192  29.192  1.00  0.00     0.029 A 
ATOM     33  C   UNL A   1      45.797  26.435  29.582  1.00  0.00     0.049 A 
ATOM     34  H   UNL A   1      43.854  27.234  29.393  1.00  0.00     0.167 HD
ATOM     35  C   UNL A   1      46.002  28.711  30.553  1.00  0.00     0.074 A 
ATOM     36  C   UNL A   1      46.753  29.772  31.196  1.00  0.00     0.031 C 
ATOM     37  C   UNL A   1      46.517  27.500  30.230  1.00  0.00     0.031 A 
BRANCH  24  38
ATOM     38  C   UNL A   1      42.524  23.585  27.604  1.00  0.00    -0.014 A 
ATOM     39  C   UNL A   1      42.768  23.298  26.250  1.00  0.00     0.010 A 
ATOM     40  C   UNL A   1      42.142  22.541  28.467  1.00  0.00     0.010 A 
ATOM     41  C   UNL A   1      42.619  21.993  25.767  1.00  0.00     0.020 A 
ATOM     42  C   UNL A   1      42.012  21.232  27.992  1.00  0.00     0.020 A 
ATOM     43  C   UNL A   1      42.245  20.968  26.642  1.00  0.00     0.054 A 
BRANCH  43  44
ATOM     44  S   UNL A   1      42.118  19.275  25.999  1.00  0.00     0.124 S 
ATOM     45  O   UNL A   1      40.685  19.159  25.740  1.00  0.00    -0.237 OA
ATOM     46  O   UNL A   1      42.967  19.319  24.812  1.00  0.00    -0.237 OA
ATOM     47  O   UNL A   1      42.622  18.449  27.093  1.00  0.00    -0.744 OA
ENDBRANCH  43  44
ENDBRANCH  24  38
BRANCH  25  48
ATOM     48  C   UNL A   1      43.738  32.708  31.590  1.00  0.00    -0.014 A 
ATOM     49  C   UNL A   1      44.113  33.825  30.826  1.00  0.00     0.010 A 
ATOM     50  C   UNL A   1      43.501  32.871  32.969  1.00  0.00     0.010 A 
ATOM     51  C   UNL A   1      44.272  35.075  31.433  1.00  0.00     0.020 A 
ATOM     52  C   UNL A   1      43.625  34.123  33.573  1.00  0.00     0.020 A 
ATOM     53  C   UNL A   1      44.029  35.215  32.802  1.00  0.00     0.054 A 
BRANCH  53  54
ATOM     54  S   UNL A   1      44.210  36.849  33.569  1.00  0.00     0.124 S 
ATOM     55  O   UNL A   1      45.161  36.573  34.641  1.00  0.00    -0.237 OA
ATOM     56  O   UNL A   1      44.717  37.663  32.466  1.00  0.00    -0.237 OA
ATOM     57  O   UNL A   1      42.853  37.174  34.001  1.00  0.00    -0.744 OA
ENDBRANCH  53  54
ENDBRANCH  25  48
BRANCH  37  58
ATOM     58  C   UNL A   1      47.966  27.274  30.559  1.00  0.00    -0.014 A 
ATOM     59  C   UNL A   1      48.350  26.762  31.809  1.00  0.00     0.010 A 
ATOM     60  C   UNL A   1      48.948  27.554  29.593  1.00  0.00     0.010 A 
ATOM     61  C   UNL A   1      49.701  26.568  32.104  1.00  0.00     0.020 A 
ATOM     62  C   UNL A   1      50.298  27.336  29.874  1.00  0.00     0.020 A 
ATOM     63  C   UNL A   1      50.666  26.859  31.134  1.00  0.00     0.054 A 
BRANCH  63  64
ATOM     64  S   UNL A   1      52.413  26.568  31.527  1.00  0.00     0.124 S 
ATOM     65  O   UNL A   1      53.067  26.911  30.268  1.00  0.00    -0.237 OA
ATOM     66  O   UNL A   1      52.652  27.492  32.633  1.00  0.00    -0.237 OA
ATOM     67  O   UNL A   1      52.454  25.152  31.887  1.00  0.00    -0.744 OA
ENDBRANCH  63  64
ENDBRANCH  37  58
ENDBRANCH  11  12
ENDBRANCH   4   6
ENDBRANCH   1   2
BRANCH   1  68
ATOM     68  C   UNL A   1      33.828  28.086  25.072  1.00  0.00     0.042 C 
BRANCH  68  69
ATOM     69  C   UNL A   1      32.378  27.845  24.711  1.00  0.00     0.118 C 
BRANCH  69  70
ATOM     70  N   UNL A   1      32.203  26.707  23.835  1.00  0.00    -0.351 N 
ATOM     71  C   UNL A   1      32.002  25.396  24.116  1.00  0.00     0.278 C 
ATOM     72  H   UNL A   1      32.236  26.920  22.874  1.00  0.00     0.163 HD
ATOM     73  O   UNL A   1      31.230  24.848  23.320  1.00  0.00    -0.268 OA
BRANCH  71  74
ATOM     74  C   UNL A   1      32.756  24.641  25.263  1.00  0.00     0.274 C 
ATOM     75  C   UNL A   1      32.024  24.573  26.608  1.00  0.00     0.076 C 
ATOM     76  N   UNL A   1      33.010  23.214  24.942  1.00  0.00    -0.321 N 
ATOM     77  C   UNL A   1      30.639  23.971  26.417  1.00  0.00     0.012 C 
ATOM     78  C   UNL A   1      31.791  22.445  24.687  1.00  0.00     0.263 C 
ATOM     79  H   UNL A   1      33.360  22.842  25.824  1.00  0.00     0.349 HD
ATOM     80  C   UNL A   1      30.769  22.565  25.834  1.00  0.00     0.062 C 
BRANCH  76  81
ATOM     81  C   UNL A   1      34.176  22.899  24.112  1.00  0.00     0.301 C 
BRANCH  81  82
ATOM     82  C   UNL A   1      35.518  22.730  24.789  1.00  0.00     0.025 A 
ATOM     83  C   UNL A   1      36.262  23.886  25.113  1.00  0.00     0.014 A 
ATOM     84  C   UNL A   1      36.083  21.474  25.077  1.00  0.00     0.052 A 
ATOM     85  C   UNL A   1      37.553  23.784  25.633  1.00  0.00     0.040 A 
ATOM     86  C   UNL A   1      37.375  21.375  25.599  1.00  0.00     0.060 A 
ATOM     87  Cl  UNL A   1      35.221  19.993  24.844  1.00  0.00    -0.084 Cl
ATOM     88  C   UNL A   1      38.101  22.529  25.855  1.00  0.00     0.124 A 
ATOM     89  F   UNL A   1      39.348  22.430  26.334  1.00  0.00    -0.207 F 
ENDBRANCH  81  82
ENDBRANCH  76  81
ENDBRANCH  71  74
ENDBRANCH  69  70
ENDBRANCH  68  69
ENDBRANCH   1  68
TORSDOF 15
ENDMDL
MODEL 2
REMARK VINA RESULT:     -10.7      1.766      2.504
REMARK SMILES O=C(NCCCNC(=O)[C@H]1CCCC[N@H+]1Cc1ccc(F)cc1Cl)c1ccc(-c2c3nc(c(-c4ccc(S(=O)(=O)[O-])cc4)c4ccc([nH]4)c(-c4ccc(S(=O)(=O)[O-])cc4)c4nc(c(-c5ccc(S(=O)(=O)[O-])cc5)c5ccc2[nH]5)C=C4)C=C3)cc1
REMARK SMILES IDX 4 1 3 2 1 3 2 4 25 6 26 7 84 8 27 9 83 10 28 11 29 12 30 13
REMARK SMILES IDX 77 14 31 15 82 16 76 17 78 18 32 19 81 20 75 21 74 22 33 24
REMARK SMILES IDX 63 25 44 26 62 27 45 28 48 29 61 30 79 31 46 32 47 33 60 35
REMARK SMILES IDX 80 36 49 37 34 38 35 39 43 40 36 41 42 42 37 43 38 44 39 45
REMARK SMILES IDX 40 46 41 47 64 48 65 49 73 50 66 51 72 52 67 53 68 54 69 55
REMARK SMILES IDX 70 56 71 57 50 58 51 59 59 60 52 61 58 62 53 63 54 64 55 65
REMARK SMILES IDX 56 66 57 67 5 68 6 69 7 70 8 71 9 73 10 74 11 75 15 76 12 77
REMARK SMILES IDX 14 78 13 80 16 81 17 82 18 83 23 84 19 85 22 86 24 87 20 88
REMARK SMILES IDX 21 89
REMARK H PARENT 3 5 78 23 48 34 7 72 15 79
REMARK Flexibility Score: inf
ROOT
ATOM      1  C   UNL A   1      34.068  28.539  26.339  1.00  0.00     0.118 C 
ENDROOT
BRANCH   1   2
ATOM      2  N   UNL A   1      33.778  29.886  26.820  1.00  0.00    -0.352 N 
ATOM      3  O   UNL A   1      33.951  31.660  28.207  1.00  0.00    -0.269 OA
ATOM      4  C   UNL A   1      34.467  30.653  27.731  1.00  0.00     0.251 C 
ATOM      5  H   UNL A   1      32.975  30.306  26.438  1.00  0.00     0.163 HD
BRANCH   4   6
ATOM      6  C   UNL A   1      35.823  30.239  28.138  1.00  0.00     0.039 A 
ATOM      7  C   UNL A   1      36.885  30.414  27.252  1.00  0.00     0.014 A 
ATOM      8  C   UNL A   1      36.040  29.666  29.393  1.00  0.00     0.014 A 
ATOM      9  C   UNL A   1      38.113  29.843  27.531  1.00  0.00     0.010 A 
ATOM     10  C   UNL A   1      37.320  29.219  29.734  1.00  0.00     0.010 A 
ATOM     11  C   UNL A   1      38.361  29.285  28.794  1.00  0.00    -0.014 A 
BRANCH  11  12
ATOM     12  C   UNL A   1      39.756  28.909  29.125  1.00  0.00     0.031 A 
ATOM     13  C   UNL A   1      40.344  27.594  28.700  1.00  0.00     0.074 A 
ATOM     14  C   UNL A   1      40.505  29.823  29.779  1.00  0.00     0.049 A 
ATOM     15  N   UNL A   1      41.558  27.147  28.892  1.00  0.00    -0.248 NA
ATOM     16  C   UNL A   1      39.467  26.658  27.977  1.00  0.00     0.031 C 
ATOM     17  C   UNL A   1      40.022  31.130  30.244  1.00  0.00     0.029 A 
ATOM     18  N   UNL A   1      41.827  29.819  30.133  1.00  0.00    -0.354 N 
ATOM     19  C   UNL A   1      41.584  25.869  28.348  1.00  0.00     0.074 A 
ATOM     20  C   UNL A   1      40.263  25.608  27.819  1.00  0.00     0.031 C 
ATOM     21  C   UNL A   1      41.047  31.828  30.747  1.00  0.00     0.029 A 
ATOM     22  C   UNL A   1      42.234  30.988  30.734  1.00  0.00     0.049 A 
ATOM     23  H   UNL A   1      42.428  29.057  29.973  1.00  0.00     0.167 HD
ATOM     24  C   UNL A   1      42.620  24.997  28.304  1.00  0.00     0.031 A 
ATOM     25  C   UNL A   1      43.426  31.339  31.250  1.00  0.00     0.031 A 
ATOM     26  C   UNL A   1      43.933  25.282  28.825  1.00  0.00     0.049 A 
ATOM     27  C   UNL A   1      44.545  30.345  31.196  1.00  0.00     0.074 A 
ATOM     28  C   UNL A   1      45.060  24.478  28.799  1.00  0.00     0.029 A 
ATOM     29  N   UNL A   1      44.296  26.457  29.464  1.00  0.00    -0.354 N 
ATOM     30  N   UNL A   1      44.552  29.148  30.657  1.00  0.00    -0.248 NA
ATOM     31  C   UNL A   1      45.808  30.738  31.828  1.00  0.00     0.031 C 
ATOM     32  C   UNL A   1      46.089  25.147  29.469  1.00  0.00     0.029 A 
ATOM     33  C   UNL A   1      45.620  26.390  29.864  1.00  0.00     0.049 A 
ATOM     34  H   UNL A   1      43.700  27.227  29.613  1.00  0.00     0.167 HD
ATOM     35  C   UNL A   1      45.825  28.645  30.886  1.00  0.00     0.074 A 
ATOM     36  C   UNL A   1      46.567  29.680  31.579  1.00  0.00     0.031 C 
ATOM     37  C   UNL A   1      46.332  27.431  30.561  1.00  0.00     0.031 A 
BRANCH  24  38
ATOM     38  C   UNL A   1      42.382  23.636  27.703  1.00  0.00    -0.014 A 
ATOM     39  C   UNL A   1      42.659  23.374  26.351  1.00  0.00     0.010 A 
ATOM     40  C   UNL A   1      41.963  22.579  28.534  1.00  0.00     0.010 A 
ATOM     41  C   UNL A   1      42.508  22.082  25.837  1.00  0.00     0.020 A 
ATOM     42  C   UNL A   1      41.832  21.282  28.027  1.00  0.00     0.020 A 
ATOM     43  C   UNL A   1      42.098  21.043  26.679  1.00  0.00     0.054 A 
BRANCH  43  44
ATOM     44  S   UNL A   1      41.969  19.366  25.997  1.00  0.00     0.124 S 
ATOM     45  O   UNL A   1      42.832  19.452  24.822  1.00  0.00    -0.237 OA
ATOM     46  O   UNL A   1      42.475  18.537  27.088  1.00  0.00    -0.237 OA
ATOM     47  O   UNL A   1      40.544  19.215  25.713  1.00  0.00    -0.744 OA
ENDBRANCH  43  44
ENDBRANCH  24  38
BRANCH  25  48
ATOM     48  C   UNL A   1      43.588  32.661  31.909  1.00  0.00    -0.014 A 
ATOM     49  C   UNL A   1      43.979  33.793  31.174  1.00  0.00     0.010 A 
ATOM     50  C   UNL A   1      43.333  32.795  33.287  1.00  0.00     0.010 A 
ATOM     51  C   UNL A   1      44.136  35.028  31.811  1.00  0.00     0.020 A 
ATOM     52  C   UNL A   1      43.455  34.033  33.920  1.00  0.00     0.020 A 
ATOM     53  C   UNL A   1      43.874  35.139  33.180  1.00  0.00     0.054 A 
BRANCH  53  54
ATOM     54  S   UNL A   1      44.052  36.755  33.984  1.00  0.00     0.124 S 
ATOM     55  O   UNL A   1      42.683  37.259  33.951  1.00  0.00    -0.237 OA
ATOM     56  O   UNL A   1      44.563  36.398  35.305  1.00  0.00    -0.237 OA
ATOM     57  O   UNL A   1      45.002  37.460  33.127  1.00  0.00    -0.744 OA
ENDBRANCH  53  54
ENDBRANCH  25  48
BRANCH  37  58
ATOM     58  C   UNL A   1      47.762  27.173  30.942  1.00  0.00    -0.014 A 
ATOM     59  C   UNL A   1      48.813  27.536  30.083  1.00  0.00     0.010 A 
ATOM     60  C   UNL A   1      48.054  26.585  32.184  1.00  0.00     0.010 A 
ATOM     61  C   UNL A   1      50.137  27.280  30.446  1.00  0.00     0.020 A 
ATOM     62  C   UNL A   1      49.377  26.351  32.563  1.00  0.00     0.020 A 
ATOM     63  C   UNL A   1      50.410  26.686  31.683  1.00  0.00     0.054 A 
BRANCH  63  64
ATOM     64  S   UNL A   1      52.138  26.392  32.147  1.00  0.00     0.124 S 
ATOM     65  O   UNL A   1      52.037  25.160  32.923  1.00  0.00    -0.237 OA
ATOM     66  O   UNL A   1      52.802  26.269  30.852  1.00  0.00    -0.237 OA
ATOM     67  O   UNL A   1      52.497  27.585  32.913  1.00  0.00    -0.744 OA
ENDBRANCH  63  64
ENDBRANCH  37  58
ENDBRANCH  11  12
ENDBRANCH   4   6
ENDBRANCH   1   2
BRANCH   1  68
ATOM     68  C   UNL A   1      33.095  27.509  26.883  1.00  0.00     0.042 C 
BRANCH  68  69
ATOM     69  C   UNL A   1      32.363  26.752  25.796  1.00  0.00     0.118 C 
BRANCH  69  70
ATOM     70  N   UNL A   1      31.657  25.595  26.302  1.00  0.00    -0.351 N 
ATOM     71  C   UNL A   1      32.001  24.283  26.314  1.00  0.00     0.278 C 
ATOM     72  H   UNL A   1      30.781  25.793  26.705  1.00  0.00     0.163 HD
ATOM     73  O   UNL A   1      31.630  23.699  27.340  1.00  0.00    -0.268 OA
BRANCH  71  74
ATOM     74  C   UNL A   1      32.697  23.570  25.105  1.00  0.00     0.274 C 
ATOM     75  C   UNL A   1      34.027  24.180  24.649  1.00  0.00     0.076 C 
ATOM     76  N   UNL A   1      33.052  22.159  25.398  1.00  0.00    -0.321 N 
ATOM     77  C   UNL A   1      34.991  24.263  25.825  1.00  0.00     0.012 C 
ATOM     78  C   UNL A   1      33.963  22.007  26.534  1.00  0.00     0.263 C 
ATOM     79  H   UNL A   1      33.615  21.894  24.590  1.00  0.00     0.349 HD
ATOM     80  C   UNL A   1      35.235  22.864  26.385  1.00  0.00     0.062 C 
BRANCH  76  81
ATOM     81  C   UNL A   1      32.002  21.147  25.253  1.00  0.00     0.301 C 
BRANCH  81  82
ATOM     82  C   UNL A   1      32.371  19.805  24.661  1.00  0.00     0.025 A 
ATOM     83  C   UNL A   1      32.724  18.755  25.536  1.00  0.00     0.014 A 
ATOM     84  C   UNL A   1      32.420  19.561  23.276  1.00  0.00     0.052 A 
ATOM     85  C   UNL A   1      33.183  17.533  25.041  1.00  0.00     0.040 A 
ATOM     86  C   UNL A   1      32.878  18.337  22.783  1.00  0.00     0.060 A 
ATOM     87  Cl  UNL A   1      31.893  20.724  22.109  1.00  0.00    -0.084 Cl
ATOM     88  C   UNL A   1      33.270  17.344  23.669  1.00  0.00     0.124 A 
ATOM     89  F   UNL A   1      33.730  16.179  23.191  1.00  0.00    -0.207 F 
ENDBRANCH  81  82
ENDBRANCH  76  81
ENDBRANCH  71  74
ENDBRANCH  69  70
ENDBRANCH  68  69
ENDBRANCH   1  68
TORSDOF 15
ENDMDL
MODEL 3
REMARK VINA RESULT:     -10.7      3.574      6.370
REMARK SMILES O=C(NCCCNC(=O)[C@H]1CCCC[N@H+]1Cc1ccc(F)cc1Cl)c1ccc(-c2c3nc(c(-c4ccc(S(=O)(=O)[O-])cc4)c4ccc([nH]4)c(-c4ccc(S(=O)(=O)[O-])cc4)c4nc(c(-c5ccc(S(=O)(=O)[O-])cc5)c5ccc2[nH]5)C=C4)C=C3)cc1
REMARK SMILES IDX 4 1 3 2 1 3 2 4 25 6 26 7 84 8 27 9 83 10 28 11 29 12 30 13
REMARK SMILES IDX 77 14 31 15 82 16 76 17 78 18 32 19 81 20 75 21 74 22 33 24
REMARK SMILES IDX 63 25 44 26 62 27 45 28 48 29 61 30 79 31 46 32 47 33 60 35
REMARK SMILES IDX 80 36 49 37 34 38 35 39 43 40 36 41 42 42 37 43 38 44 39 45
REMARK SMILES IDX 40 46 41 47 64 48 65 49 73 50 66 51 72 52 67 53 68 54 69 55
REMARK SMILES IDX 70 56 71 57 50 58 51 59 59 60 52 61 58 62 53 63 54 64 55 65
REMARK SMILES IDX 56 66 57 67 5 68 6 69 7 70 8 71 9 73 10 74 11 75 15 76 12 77
REMARK SMILES IDX 14 78 13 80 16 81 17 82 18 83 23 84 19 85 22 86 24 87 20 88
REMARK SMILES IDX 21 89
REMARK H PARENT 3 5 78 23 48 34 7 72 15 79
REMARK Flexibility Score: inf
ROOT
ATOM      1  C   UNL A   1      34.744  32.658  29.281  1.00  0.00     0.118 C 
ENDROOT
BRANCH   1   2
ATOM      2  N   UNL A   1      34.082  31.596  28.531  1.00  0.00    -0.352 N 
ATOM      3  O   UNL A   1      33.966  29.807  27.158  1.00  0.00    -0.269 OA
ATOM      4  C   UNL A   1      34.619  30.465  27.962  1.00  0.00     0.251 C 
ATOM      5  H   UNL A   1      33.110  31.704  28.417  1.00  0.00     0.163 HD
BRANCH   4   6
ATOM      6  C   UNL A   1      35.993  30.066  28.319  1.00  0.00     0.039 A 
ATOM      7  C   UNL A   1      37.027  30.285  27.410  1.00  0.00     0.014 A 
ATOM      8  C   UNL A   1      36.255  29.463  29.552  1.00  0.00     0.014 A 
ATOM      9  C   UNL A   1      38.272  29.729  27.639  1.00  0.00     0.010 A 
ATOM     10  C   UNL A   1      37.553  29.032  29.844  1.00  0.00     0.010 A 
ATOM     11  C   UNL A   1      38.566  29.143  28.879  1.00  0.00    -0.014 A 
BRANCH  11  12
ATOM     12  C   UNL A   1      39.976  28.784  29.161  1.00  0.00     0.031 A 
ATOM     13  C   UNL A   1      40.566  27.479  28.709  1.00  0.00     0.074 A 
ATOM     14  C   UNL A   1      40.734  29.704  29.794  1.00  0.00     0.049 A 
ATOM     15  N   UNL A   1      41.792  27.047  28.858  1.00  0.00    -0.248 NA
ATOM     16  C   UNL A   1      39.678  26.535  28.012  1.00  0.00     0.031 C 
ATOM     17  C   UNL A   1      40.249  31.003  30.281  1.00  0.00     0.029 A 
ATOM     18  N   UNL A   1      42.067  29.717  30.103  1.00  0.00    -0.354 N 
ATOM     19  C   UNL A   1      41.817  25.772  28.307  1.00  0.00     0.074 A 
ATOM     20  C   UNL A   1      40.482  25.496  27.821  1.00  0.00     0.031 C 
ATOM     21  C   UNL A   1      41.281  31.712  30.753  1.00  0.00     0.029 A 
ATOM     22  C   UNL A   1      42.479  30.888  30.695  1.00  0.00     0.049 A 
ATOM     23  H   UNL A   1      42.672  28.963  29.919  1.00  0.00     0.167 HD
ATOM     24  C   UNL A   1      42.862  24.915  28.223  1.00  0.00     0.031 A 
ATOM     25  C   UNL A   1      43.682  31.253  31.173  1.00  0.00     0.031 A 
ATOM     26  C   UNL A   1      44.188  25.215  28.701  1.00  0.00     0.049 A 
ATOM     27  C   UNL A   1      44.812  30.274  31.076  1.00  0.00     0.074 A 
ATOM     28  C   UNL A   1      45.325  24.427  28.633  1.00  0.00     0.029 A 
ATOM     29  N   UNL A   1      44.557  26.392  29.334  1.00  0.00    -0.354 N 
ATOM     30  N   UNL A   1      44.817  29.081  30.531  1.00  0.00    -0.248 NA
ATOM     31  C   UNL A   1      46.091  30.682  31.668  1.00  0.00     0.031 C 
ATOM     32  C   UNL A   1      46.366  25.106  29.272  1.00  0.00     0.029 A 
ATOM     33  C   UNL A   1      45.895  26.341  29.688  1.00  0.00     0.049 A 
ATOM     34  H   UNL A   1      43.956  27.153  29.507  1.00  0.00     0.167 HD
ATOM     35  C   UNL A   1      46.103  28.594  30.714  1.00  0.00     0.074 A 
ATOM     36  C   UNL A   1      46.855  29.635  31.387  1.00  0.00     0.031 C 
ATOM     37  C   UNL A   1      46.615  27.389  30.366  1.00  0.00     0.031 A 
BRANCH  24  38
ATOM     38  C   UNL A   1      42.622  23.554  27.625  1.00  0.00    -0.014 A 
ATOM     39  C   UNL A   1      42.977  23.266  26.295  1.00  0.00     0.010 A 
ATOM     40  C   UNL A   1      42.120  22.520  28.438  1.00  0.00     0.010 A 
ATOM     41  C   UNL A   1      42.821  21.971  25.787  1.00  0.00     0.020 A 
ATOM     42  C   UNL A   1      41.983  21.221  27.939  1.00  0.00     0.020 A 
ATOM     43  C   UNL A   1      42.327  20.956  26.614  1.00  0.00     0.054 A 
BRANCH  43  44
ATOM     44  S   UNL A   1      42.191  19.275  25.944  1.00  0.00     0.124 S 
ATOM     45  O   UNL A   1      42.704  18.468  27.049  1.00  0.00    -0.237 OA
ATOM     46  O   UNL A   1      40.759  19.147  25.688  1.00  0.00    -0.237 OA
ATOM     47  O   UNL A   1      43.035  19.306  24.753  1.00  0.00    -0.744 OA
ENDBRANCH  43  44
ENDBRANCH  24  38
BRANCH  25  48
ATOM     48  C   UNL A   1      43.849  32.575  31.833  1.00  0.00    -0.014 A 
ATOM     49  C   UNL A   1      44.291  33.694  31.109  1.00  0.00     0.010 A 
ATOM     50  C   UNL A   1      43.547  32.720  33.200  1.00  0.00     0.010 A 
ATOM     51  C   UNL A   1      44.451  34.929  31.746  1.00  0.00     0.020 A 
ATOM     52  C   UNL A   1      43.672  33.957  33.833  1.00  0.00     0.020 A 
ATOM     53  C   UNL A   1      44.142  35.051  33.104  1.00  0.00     0.054 A 
BRANCH  53  54
ATOM     54  S   UNL A   1      44.325  36.666  33.909  1.00  0.00     0.124 S 
ATOM     55  O   UNL A   1      44.646  36.283  35.281  1.00  0.00    -0.237 OA
ATOM     56  O   UNL A   1      45.415  37.277  33.152  1.00  0.00    -0.237 OA
ATOM     57  O   UNL A   1      43.019  37.291  33.721  1.00  0.00    -0.744 OA
ENDBRANCH  53  54
ENDBRANCH  25  48
BRANCH  37  58
ATOM     58  C   UNL A   1      48.061  27.148  30.697  1.00  0.00    -0.014 A 
ATOM     59  C   UNL A   1      49.082  27.644  29.869  1.00  0.00     0.010 A 
ATOM     60  C   UNL A   1      48.398  26.441  31.864  1.00  0.00     0.010 A 
ATOM     61  C   UNL A   1      50.421  27.403  30.184  1.00  0.00     0.020 A 
ATOM     62  C   UNL A   1      49.735  26.221  32.197  1.00  0.00     0.020 A 
ATOM     63  C   UNL A   1      50.738  26.690  31.345  1.00  0.00     0.054 A 
BRANCH  63  64
ATOM     64  S   UNL A   1      52.484  26.417  31.751  1.00  0.00     0.124 S 
ATOM     65  O   UNL A   1      53.113  26.471  30.434  1.00  0.00    -0.237 OA
ATOM     66  O   UNL A   1      52.787  27.536  32.640  1.00  0.00    -0.237 OA
ATOM     67  O   UNL A   1      52.488  25.103  32.391  1.00  0.00    -0.744 OA
ENDBRANCH  63  64
ENDBRANCH  37  58
ENDBRANCH  11  12
ENDBRANCH   4   6
ENDBRANCH   1   2
BRANCH   1  68
ATOM     68  C   UNL A   1      34.681  32.433  30.780  1.00  0.00     0.042 C 
BRANCH  68  69
ATOM     69  C   UNL A   1      35.801  33.119  31.532  1.00  0.00     0.118 C 
BRANCH  69  70
ATOM     70  N   UNL A   1      35.967  32.606  32.875  1.00  0.00    -0.351 N 
ATOM     71  C   UNL A   1      37.011  32.700  33.735  1.00  0.00     0.278 C 
ATOM     72  H   UNL A   1      35.193  32.106  33.221  1.00  0.00     0.163 HD
ATOM     73  O   UNL A   1      36.652  32.826  34.912  1.00  0.00    -0.268 OA
BRANCH  71  74
ATOM     74  C   UNL A   1      38.505  32.552  33.288  1.00  0.00     0.274 C 
ATOM     75  C   UNL A   1      39.258  33.864  33.039  1.00  0.00     0.076 C 
ATOM     76  N   UNL A   1      39.343  31.865  34.302  1.00  0.00    -0.321 N 
ATOM     77  C   UNL A   1      39.173  34.753  34.272  1.00  0.00     0.012 C 
ATOM     78  C   UNL A   1      39.376  32.549  35.595  1.00  0.00     0.263 C 
ATOM     79  H   UNL A   1      40.287  31.983  33.933  1.00  0.00     0.349 HD
ATOM     80  C   UNL A   1      39.788  34.029  35.467  1.00  0.00     0.062 C 
BRANCH  76  81
ATOM     81  C   UNL A   1      39.317  30.400  34.329  1.00  0.00     0.301 C 
BRANCH  81  82
ATOM     82  C   UNL A   1      40.619  29.653  34.142  1.00  0.00     0.025 A 
ATOM     83  C   UNL A   1      41.773  30.131  34.799  1.00  0.00     0.014 A 
ATOM     84  C   UNL A   1      40.747  28.525  33.310  1.00  0.00     0.052 A 
ATOM     85  C   UNL A   1      43.021  29.549  34.570  1.00  0.00     0.040 A 
ATOM     86  C   UNL A   1      41.997  27.943  33.084  1.00  0.00     0.060 A 
ATOM     87  Cl  UNL A   1      39.388  27.772  32.551  1.00  0.00    -0.084 Cl
ATOM     88  C   UNL A   1      43.121  28.471  33.702  1.00  0.00     0.124 A 
ATOM     89  F   UNL A   1      44.321  27.925  33.464  1.00  0.00    -0.207 F 
ENDBRANCH  81  82
ENDBRANCH  76  81
ENDBRANCH  71  74
ENDBRANCH  69  70
ENDBRANCH  68  69
ENDBRANCH   1  68
TORSDOF 15
ENDMDL
