MODEL 1
REMARK VINA RESULT:     -11.2      0.000      0.000
REMARK SMILES CN(CCc1cccs1)C(=O)c1cccn1CC(=O)NCCCNC(=O)c1ccc(-c2c3nc(c(-c4ccc(S(=O)(=O)[O-])cc4)c4ccc([nH]4)c(-c4ccc(S(=O)(=O)[O-])cc4)c4nc(c(-c5ccc(S(=O)(=O)[O-])cc5)c5ccc2[nH]5)C=C4)C=C3)cc1
REMARK SMILES IDX 18 1 19 2 20 3 17 5 16 6 12 7 13 8 14 9 15 10 10 11 11 12
REMARK SMILES IDX 2 13 1 14 3 15 4 16 5 17 6 18 9 19 7 20 8 21 21 22 22 23
REMARK SMILES IDX 23 24 24 25 25 26 26 28 27 29 28 30 86 31 29 32 85 33 30 34
REMARK SMILES IDX 31 35 32 36 79 37 33 38 84 39 78 40 80 41 34 42 83 43 77 44
REMARK SMILES IDX 76 45 35 47 65 48 46 49 64 50 47 51 50 52 63 53 81 54 48 55
REMARK SMILES IDX 49 56 62 58 82 59 51 60 36 61 37 62 45 63 38 64 44 65 39 66
REMARK SMILES IDX 40 67 41 68 42 69 43 70 66 71 67 72 75 73 68 74 74 75 69 76
REMARK SMILES IDX 70 77 71 78 72 79 73 80 52 81 53 82 61 83 54 84 60 85 55 86
REMARK SMILES IDX 56 87 57 88 58 89 59 90
REMARK H PARENT 20 4 24 27 80 46 50 57
REMARK Flexibility Score: inf
ROOT
ATOM      1  C   UNL A   1      32.508  25.545  25.893  1.00  0.00     0.239 C 
ATOM      2  O   UNL A   1      33.020  24.463  26.191  1.00  0.00    -0.273 OA
ATOM      3  N   UNL A   1      32.971  26.679  26.508  1.00  0.00    -0.354 N 
ATOM      4  H   UNL A   1      33.643  26.532  27.213  1.00  0.00     0.163 HD
ENDROOT
BRANCH   1   5
ATOM      5  C   UNL A   1      31.408  25.628  24.847  1.00  0.00     0.222 C 
BRANCH   5   6
ATOM      6  N   UNL A   1      31.963  25.585  23.502  1.00  0.00    -0.334 N 
ATOM      7  C   UNL A   1      32.387  24.453  22.801  1.00  0.00     0.107 A 
ATOM      8  C   UNL A   1      33.296  24.969  21.887  1.00  0.00     0.033 A 
ATOM      9  C   UNL A   1      33.200  26.378  21.851  1.00  0.00     0.020 A 
ATOM     10  C   UNL A   1      32.303  26.730  22.820  1.00  0.00     0.087 A 
BRANCH   7  11
ATOM     11  C   UNL A   1      31.898  23.103  23.110  1.00  0.00     0.270 C 
ATOM     12  O   UNL A   1      30.687  22.906  23.187  1.00  0.00    -0.267 OA
BRANCH  11  13
ATOM     13  N   UNL A   1      32.750  22.006  23.350  1.00  0.00    -0.340 N 
ATOM     14  C   UNL A   1      34.092  22.350  23.813  1.00  0.00     0.147 C 
BRANCH  13  15
ATOM     15  C   UNL A   1      32.437  20.575  23.322  1.00  0.00     0.125 C 
BRANCH  15  16
ATOM     16  C   UNL A   1      32.340  19.914  24.714  1.00  0.00     0.068 C 
BRANCH  16  17
ATOM     17  C   UNL A   1      32.642  18.443  24.711  1.00  0.00     0.006 A 
ATOM     18  C   UNL A   1      32.657  17.570  25.785  1.00  0.00     0.015 A 
ATOM     19  S   UNL A   1      33.057  17.639  23.253  1.00  0.00    -0.149 S 
ATOM     20  C   UNL A   1      33.191  16.295  25.434  1.00  0.00     0.012 A 
ATOM     21  C   UNL A   1      33.478  16.210  24.091  1.00  0.00     0.065 A 
ENDBRANCH  16  17
ENDBRANCH  15  16
ENDBRANCH  13  15
ENDBRANCH  11  13
ENDBRANCH   7  11
ENDBRANCH   5   6
ENDBRANCH   1   5
BRANCH   3  22
ATOM     22  C   UNL A   1      32.611  28.066  26.268  1.00  0.00     0.117 C 
BRANCH  22  23
ATOM     23  C   UNL A   1      33.330  29.045  27.203  1.00  0.00     0.042 C 
BRANCH  23  24
ATOM     24  C   UNL A   1      34.758  29.354  26.776  1.00  0.00     0.118 C 
BRANCH  24  25
ATOM     25  N   UNL A   1      35.177  30.671  27.232  1.00  0.00    -0.352 N 
ATOM     26  C   UNL A   1      36.224  31.031  28.042  1.00  0.00     0.251 C 
ATOM     27  H   UNL A   1      34.623  31.418  26.910  1.00  0.00     0.163 HD
ATOM     28  O   UNL A   1      36.237  32.167  28.510  1.00  0.00    -0.269 OA
BRANCH  26  29
ATOM     29  C   UNL A   1      37.293  30.072  28.405  1.00  0.00     0.039 A 
ATOM     30  C   UNL A   1      38.398  29.981  27.546  1.00  0.00     0.014 A 
ATOM     31  C   UNL A   1      37.216  29.241  29.526  1.00  0.00     0.014 A 
ATOM     32  C   UNL A   1      39.453  29.126  27.854  1.00  0.00     0.010 A 
ATOM     33  C   UNL A   1      38.282  28.406  29.854  1.00  0.00     0.010 A 
ATOM     34  C   UNL A   1      39.414  28.368  29.030  1.00  0.00    -0.014 A 
BRANCH  34  35
ATOM     35  C   UNL A   1      40.632  27.649  29.474  1.00  0.00     0.031 A 
ATOM     36  C   UNL A   1      40.901  26.369  28.674  1.00  0.00     0.074 A 
ATOM     37  C   UNL A   1      41.343  28.189  30.506  1.00  0.00     0.049 A 
ATOM     38  N   UNL A   1      41.640  25.346  28.978  1.00  0.00    -0.248 NA
ATOM     39  C   UNL A   1      40.207  26.165  27.373  1.00  0.00     0.031 C 
ATOM     40  C   UNL A   1      40.984  29.444  31.197  1.00  0.00     0.029 A 
ATOM     41  N   UNL A   1      42.493  27.816  31.174  1.00  0.00    -0.354 N 
ATOM     42  C   UNL A   1      41.636  24.472  27.868  1.00  0.00     0.074 A 
ATOM     43  C   UNL A   1      40.669  24.988  26.947  1.00  0.00     0.031 C 
ATOM     44  C   UNL A   1      41.847  29.699  32.203  1.00  0.00     0.029 A 
ATOM     45  C   UNL A   1      42.853  28.657  32.255  1.00  0.00     0.049 A 
ATOM     46  H   UNL A   1      43.023  27.028  30.918  1.00  0.00     0.167 HD
ATOM     47  C   UNL A   1      42.512  23.437  27.718  1.00  0.00     0.031 A 
ATOM     48  C   UNL A   1      43.874  28.532  33.153  1.00  0.00     0.031 A 
ATOM     49  C   UNL A   1      43.356  23.321  28.856  1.00  0.00     0.049 A 
ATOM     50  C   UNL A   1      44.727  27.422  32.703  1.00  0.00     0.074 A 
ATOM     51  C   UNL A   1      43.159  22.875  30.136  1.00  0.00     0.029 A 
ATOM     52  N   UNL A   1      44.562  23.976  28.792  1.00  0.00    -0.354 N 
ATOM     53  N   UNL A   1      45.523  27.472  31.682  1.00  0.00    -0.248 NA
ATOM     54  C   UNL A   1      44.715  26.155  33.444  1.00  0.00     0.031 C 
ATOM     55  C   UNL A   1      44.053  23.647  30.908  1.00  0.00     0.029 A 
ATOM     56  C   UNL A   1      44.821  24.446  30.054  1.00  0.00     0.049 A 
ATOM     57  H   UNL A   1      45.131  24.085  27.996  1.00  0.00     0.167 HD
ATOM     58  C   UNL A   1      45.768  26.145  31.430  1.00  0.00     0.074 A 
ATOM     59  C   UNL A   1      45.535  25.445  32.674  1.00  0.00     0.031 C 
ATOM     60  C   UNL A   1      45.572  25.676  30.171  1.00  0.00     0.031 A 
BRANCH  47  61
ATOM     61  C   UNL A   1      42.872  22.605  26.515  1.00  0.00    -0.014 A 
ATOM     62  C   UNL A   1      42.413  21.263  26.500  1.00  0.00     0.010 A 
ATOM     63  C   UNL A   1      43.891  22.952  25.616  1.00  0.00     0.010 A 
ATOM     64  C   UNL A   1      43.036  20.279  25.731  1.00  0.00     0.020 A 
ATOM     65  C   UNL A   1      44.497  21.974  24.809  1.00  0.00     0.020 A 
ATOM     66  C   UNL A   1      44.104  20.637  24.917  1.00  0.00     0.054 A 
BRANCH  66  67
ATOM     67  S   UNL A   1      45.024  19.319  24.075  1.00  0.00     0.124 S 
ATOM     68  O   UNL A   1      46.409  19.681  24.364  1.00  0.00    -0.237 OA
ATOM     69  O   UNL A   1      44.540  18.114  24.746  1.00  0.00    -0.237 OA
ATOM     70  O   UNL A   1      44.614  19.453  22.681  1.00  0.00    -0.744 OA
ENDBRANCH  66  67
ENDBRANCH  47  61
BRANCH  48  71
ATOM     71  C   UNL A   1      44.281  29.161  34.461  1.00  0.00    -0.014 A 
ATOM     72  C   UNL A   1      45.249  30.159  34.609  1.00  0.00     0.010 A 
ATOM     73  C   UNL A   1      43.483  28.884  35.609  1.00  0.00     0.010 A 
ATOM     74  C   UNL A   1      45.310  30.943  35.781  1.00  0.00     0.020 A 
ATOM     75  C   UNL A   1      43.492  29.690  36.749  1.00  0.00     0.020 A 
ATOM     76  C   UNL A   1      44.390  30.742  36.815  1.00  0.00     0.054 A 
BRANCH  76  77
ATOM     77  S   UNL A   1      44.226  31.949  38.161  1.00  0.00     0.124 S 
ATOM     78  O   UNL A   1      44.226  31.098  39.347  1.00  0.00    -0.237 OA
ATOM     79  O   UNL A   1      45.406  32.795  37.992  1.00  0.00    -0.237 OA
ATOM     80  O   UNL A   1      42.957  32.610  37.862  1.00  0.00    -0.744 OA
ENDBRANCH  76  77
ENDBRANCH  48  71
BRANCH  60  81
ATOM     81  C   UNL A   1      45.712  26.732  29.077  1.00  0.00    -0.014 A 
ATOM     82  C   UNL A   1      46.988  27.205  28.716  1.00  0.00     0.010 A 
ATOM     83  C   UNL A   1      44.599  27.363  28.487  1.00  0.00     0.010 A 
ATOM     84  C   UNL A   1      47.147  28.278  27.826  1.00  0.00     0.020 A 
ATOM     85  C   UNL A   1      44.746  28.431  27.586  1.00  0.00     0.020 A 
ATOM     86  C   UNL A   1      46.022  28.890  27.267  1.00  0.00     0.054 A 
BRANCH  86  87
ATOM     87  S   UNL A   1      46.256  30.306  26.152  1.00  0.00     0.124 S 
ATOM     88  O   UNL A   1      47.398  30.999  26.744  1.00  0.00    -0.237 OA
ATOM     89  O   UNL A   1      46.515  29.659  24.869  1.00  0.00    -0.237 OA
ATOM     90  O   UNL A   1      44.988  31.030  26.236  1.00  0.00    -0.744 OA
ENDBRANCH  86  87
ENDBRANCH  60  81
ENDBRANCH  34  35
ENDBRANCH  26  29
ENDBRANCH  24  25
ENDBRANCH  23  24
ENDBRANCH  22  23
ENDBRANCH   3  22
TORSDOF 19
ENDMDL
MODEL 2
REMARK VINA RESULT:     -11.0      3.897      8.427
REMARK SMILES CN(CCc1cccs1)C(=O)c1cccn1CC(=O)NCCCNC(=O)c1ccc(-c2c3nc(c(-c4ccc(S(=O)(=O)[O-])cc4)c4ccc([nH]4)c(-c4ccc(S(=O)(=O)[O-])cc4)c4nc(c(-c5ccc(S(=O)(=O)[O-])cc5)c5ccc2[nH]5)C=C4)C=C3)cc1
REMARK SMILES IDX 18 1 19 2 20 3 17 5 16 6 12 7 13 8 14 9 15 10 10 11 11 12
REMARK SMILES IDX 2 13 1 14 3 15 4 16 5 17 6 18 9 19 7 20 8 21 21 22 22 23
REMARK SMILES IDX 23 24 24 25 25 26 26 28 27 29 28 30 86 31 29 32 85 33 30 34
REMARK SMILES IDX 31 35 32 36 79 37 33 38 84 39 78 40 80 41 34 42 83 43 77 44
REMARK SMILES IDX 76 45 35 47 65 48 46 49 64 50 47 51 50 52 63 53 81 54 48 55
REMARK SMILES IDX 49 56 62 58 82 59 51 60 36 61 37 62 45 63 38 64 44 65 39 66
REMARK SMILES IDX 40 67 41 68 42 69 43 70 66 71 67 72 75 73 68 74 74 75 69 76
REMARK SMILES IDX 70 77 71 78 72 79 73 80 52 81 53 82 61 83 54 84 60 85 55 86
REMARK SMILES IDX 56 87 57 88 58 89 59 90
REMARK H PARENT 20 4 24 27 80 46 50 57
REMARK Flexibility Score: inf
ROOT
ATOM      1  C   UNL A   1      34.856  21.861  26.180  1.00  0.00     0.239 C 
ATOM      2  O   UNL A   1      34.003  21.329  26.894  1.00  0.00    -0.273 OA
ATOM      3  N   UNL A   1      35.966  21.134  25.835  1.00  0.00    -0.354 N 
ATOM      4  H   UNL A   1      36.035  20.246  26.254  1.00  0.00     0.163 HD
ENDROOT
BRANCH   1   5
ATOM      5  C   UNL A   1      34.674  23.282  25.669  1.00  0.00     0.222 C 
BRANCH   5   6
ATOM      6  N   UNL A   1      33.798  23.308  24.506  1.00  0.00    -0.334 N 
ATOM      7  C   UNL A   1      32.402  23.362  24.503  1.00  0.00     0.107 A 
ATOM      8  C   UNL A   1      32.066  22.817  23.271  1.00  0.00     0.033 A 
ATOM      9  C   UNL A   1      33.218  22.712  22.458  1.00  0.00     0.020 A 
ATOM     10  C   UNL A   1      34.275  23.098  23.233  1.00  0.00     0.087 A 
BRANCH   7  11
ATOM     11  C   UNL A   1      31.629  23.884  25.638  1.00  0.00     0.270 C 
ATOM     12  O   UNL A   1      31.023  23.097  26.363  1.00  0.00    -0.267 OA
BRANCH  11  13
ATOM     13  N   UNL A   1      31.518  25.257  25.935  1.00  0.00    -0.340 N 
ATOM     14  C   UNL A   1      30.157  25.787  25.928  1.00  0.00     0.147 C 
BRANCH  13  15
ATOM     15  C   UNL A   1      32.560  26.190  26.371  1.00  0.00     0.125 C 
BRANCH  15  16
ATOM     16  C   UNL A   1      32.739  27.422  25.458  1.00  0.00     0.068 C 
BRANCH  16  17
ATOM     17  C   UNL A   1      33.325  28.616  26.156  1.00  0.00     0.006 A 
ATOM     18  C   UNL A   1      34.495  28.688  26.890  1.00  0.00     0.015 A 
ATOM     19  S   UNL A   1      32.516  30.129  26.129  1.00  0.00    -0.149 S 
ATOM     20  C   UNL A   1      34.623  29.930  27.580  1.00  0.00     0.012 A 
ATOM     21  C   UNL A   1      33.595  30.794  27.276  1.00  0.00     0.065 A 
ENDBRANCH  16  17
ENDBRANCH  15  16
ENDBRANCH  13  15
ENDBRANCH  11  13
ENDBRANCH   7  11
ENDBRANCH   5   6
ENDBRANCH   1   5
BRANCH   3  22
ATOM     22  C   UNL A   1      37.054  21.489  24.940  1.00  0.00     0.117 C 
BRANCH  22  23
ATOM     23  C   UNL A   1      38.404  20.907  25.373  1.00  0.00     0.042 C 
BRANCH  23  24
ATOM     24  C   UNL A   1      39.274  21.894  26.138  1.00  0.00     0.118 C 
BRANCH  24  25
ATOM     25  N   UNL A   1      40.673  21.777  25.758  1.00  0.00    -0.352 N 
ATOM     26  C   UNL A   1      41.680  22.707  25.809  1.00  0.00     0.251 C 
ATOM     27  H   UNL A   1      40.938  20.895  25.410  1.00  0.00     0.163 HD
ATOM     28  O   UNL A   1      42.719  22.478  25.194  1.00  0.00    -0.269 OA
BRANCH  26  29
ATOM     29  C   UNL A   1      41.520  23.991  26.531  1.00  0.00     0.039 A 
ATOM     30  C   UNL A   1      40.927  23.948  27.801  1.00  0.00     0.014 A 
ATOM     31  C   UNL A   1      41.889  25.221  25.978  1.00  0.00     0.014 A 
ATOM     32  C   UNL A   1      40.785  25.117  28.545  1.00  0.00     0.010 A 
ATOM     33  C   UNL A   1      41.775  26.389  26.730  1.00  0.00     0.010 A 
ATOM     34  C   UNL A   1      41.246  26.332  28.026  1.00  0.00    -0.014 A 
BRANCH  34  35
ATOM     35  C   UNL A   1      41.313  27.521  28.908  1.00  0.00     0.031 A 
ATOM     36  C   UNL A   1      42.543  27.526  29.822  1.00  0.00     0.074 A 
ATOM     37  C   UNL A   1      40.306  28.438  28.809  1.00  0.00     0.049 A 
ATOM     38  N   UNL A   1      42.757  28.192  30.916  1.00  0.00    -0.248 NA
ATOM     39  C   UNL A   1      43.683  26.621  29.511  1.00  0.00     0.031 C 
ATOM     40  C   UNL A   1      39.167  28.325  27.874  1.00  0.00     0.029 A 
ATOM     41  N   UNL A   1      40.032  29.632  29.447  1.00  0.00    -0.354 N 
ATOM     42  C   UNL A   1      44.081  27.922  31.328  1.00  0.00     0.074 A 
ATOM     43  C   UNL A   1      44.571  26.884  30.473  1.00  0.00     0.031 C 
ATOM     44  C   UNL A   1      38.312  29.356  28.038  1.00  0.00     0.029 A 
ATOM     45  C   UNL A   1      38.812  30.243  29.070  1.00  0.00     0.049 A 
ATOM     46  H   UNL A   1      40.640  30.030  30.111  1.00  0.00     0.167 HD
ATOM     47  C   UNL A   1      44.740  28.650  32.274  1.00  0.00     0.031 A 
ATOM     48  C   UNL A   1      38.217  31.372  29.556  1.00  0.00     0.031 A 
ATOM     49  C   UNL A   1      43.890  29.644  32.831  1.00  0.00     0.049 A 
ATOM     50  C   UNL A   1      39.174  32.023  30.463  1.00  0.00     0.074 A 
ATOM     51  C   UNL A   1      42.832  29.603  33.701  1.00  0.00     0.029 A 
ATOM     52  N   UNL A   1      43.941  30.888  32.249  1.00  0.00    -0.354 N 
ATOM     53  N   UNL A   1      40.242  32.651  30.081  1.00  0.00    -0.248 NA
ATOM     54  C   UNL A   1      38.933  31.993  31.910  1.00  0.00     0.031 C 
ATOM     55  C   UNL A   1      42.017  30.683  33.300  1.00  0.00     0.029 A 
ATOM     56  C   UNL A   1      42.664  31.388  32.279  1.00  0.00     0.049 A 
ATOM     57  H   UNL A   1      44.739  31.334  31.884  1.00  0.00     0.167 HD
ATOM     58  C   UNL A   1      40.980  32.712  31.235  1.00  0.00     0.074 A 
ATOM     59  C   UNL A   1      40.039  32.603  32.328  1.00  0.00     0.031 C 
ATOM     60  C   UNL A   1      42.265  32.274  31.208  1.00  0.00     0.031 A 
BRANCH  47  61
ATOM     61  C   UNL A   1      46.202  28.729  32.629  1.00  0.00    -0.014 A 
ATOM     62  C   UNL A   1      47.085  29.190  31.620  1.00  0.00     0.010 A 
ATOM     63  C   UNL A   1      46.764  28.067  33.731  1.00  0.00     0.010 A 
ATOM     64  C   UNL A   1      48.445  28.879  31.632  1.00  0.00     0.020 A 
ATOM     65  C   UNL A   1      48.140  27.784  33.770  1.00  0.00     0.020 A 
ATOM     66  C   UNL A   1      48.958  28.141  32.693  1.00  0.00     0.054 A 
BRANCH  66  67
ATOM     67  S   UNL A   1      50.681  27.581  32.599  1.00  0.00     0.124 S 
ATOM     68  O   UNL A   1      50.553  26.153  32.878  1.00  0.00    -0.237 OA
ATOM     69  O   UNL A   1      51.052  27.918  31.225  1.00  0.00    -0.237 OA
ATOM     70  O   UNL A   1      51.353  28.369  33.627  1.00  0.00    -0.744 OA
ENDBRANCH  66  67
ENDBRANCH  47  61
BRANCH  48  71
ATOM     71  C   UNL A   1      36.870  32.042  29.460  1.00  0.00    -0.014 A 
ATOM     72  C   UNL A   1      35.859  31.961  30.423  1.00  0.00     0.010 A 
ATOM     73  C   UNL A   1      36.677  33.003  28.425  1.00  0.00     0.010 A 
ATOM     74  C   UNL A   1      34.798  32.892  30.440  1.00  0.00     0.020 A 
ATOM     75  C   UNL A   1      35.668  33.965  28.465  1.00  0.00     0.020 A 
ATOM     76  C   UNL A   1      34.746  33.924  29.498  1.00  0.00     0.054 A 
BRANCH  76  77
ATOM     77  S   UNL A   1      33.604  35.319  29.709  1.00  0.00     0.124 S 
ATOM     78  O   UNL A   1      32.308  34.706  29.438  1.00  0.00    -0.237 OA
ATOM     79  O   UNL A   1      33.833  35.727  31.094  1.00  0.00    -0.237 OA
ATOM     80  O   UNL A   1      34.066  36.281  28.709  1.00  0.00    -0.744 OA
ENDBRANCH  76  77
ENDBRANCH  48  71
BRANCH  60  81
ATOM     81  C   UNL A   1      42.928  32.353  29.835  1.00  0.00    -0.014 A 
ATOM     82  C   UNL A   1      43.157  31.177  29.097  1.00  0.00     0.010 A 
ATOM     83  C   UNL A   1      43.447  33.554  29.313  1.00  0.00     0.010 A 
ATOM     84  C   UNL A   1      43.896  31.192  27.903  1.00  0.00     0.020 A 
ATOM     85  C   UNL A   1      44.179  33.584  28.113  1.00  0.00     0.020 A 
ATOM     86  C   UNL A   1      44.407  32.398  27.418  1.00  0.00     0.054 A 
BRANCH  86  87
ATOM     87  S   UNL A   1      45.397  32.382  25.895  1.00  0.00     0.124 S 
ATOM     88  O   UNL A   1      45.798  30.982  25.784  1.00  0.00    -0.237 OA
ATOM     89  O   UNL A   1      44.441  32.839  24.891  1.00  0.00    -0.237 OA
ATOM     90  O   UNL A   1      46.490  33.312  26.178  1.00  0.00    -0.744 OA
ENDBRANCH  86  87
ENDBRANCH  60  81
ENDBRANCH  34  35
ENDBRANCH  26  29
ENDBRANCH  24  25
ENDBRANCH  23  24
ENDBRANCH  22  23
ENDBRANCH   3  22
TORSDOF 19
ENDMDL
MODEL 3
REMARK VINA RESULT:     -10.9      3.609      8.940
REMARK SMILES CN(CCc1cccs1)C(=O)c1cccn1CC(=O)NCCCNC(=O)c1ccc(-c2c3nc(c(-c4ccc(S(=O)(=O)[O-])cc4)c4ccc([nH]4)c(-c4ccc(S(=O)(=O)[O-])cc4)c4nc(c(-c5ccc(S(=O)(=O)[O-])cc5)c5ccc2[nH]5)C=C4)C=C3)cc1
REMARK SMILES IDX 18 1 19 2 20 3 17 5 16 6 12 7 13 8 14 9 15 10 10 11 11 12
REMARK SMILES IDX 2 13 1 14 3 15 4 16 5 17 6 18 9 19 7 20 8 21 21 22 22 23
REMARK SMILES IDX 23 24 24 25 25 26 26 28 27 29 28 30 86 31 29 32 85 33 30 34
REMARK SMILES IDX 31 35 32 36 79 37 33 38 84 39 78 40 80 41 34 42 83 43 77 44
REMARK SMILES IDX 76 45 35 47 65 48 46 49 64 50 47 51 50 52 63 53 81 54 48 55
REMARK SMILES IDX 49 56 62 58 82 59 51 60 36 61 37 62 45 63 38 64 44 65 39 66
REMARK SMILES IDX 40 67 41 68 42 69 43 70 66 71 67 72 75 73 68 74 74 75 69 76
REMARK SMILES IDX 70 77 71 78 72 79 73 80 52 81 53 82 61 83 54 84 60 85 55 86
REMARK SMILES IDX 56 87 57 88 58 89 59 90
REMARK H PARENT 20 4 24 27 80 46 50 57
REMARK Flexibility Score: inf
ROOT
ATOM      1  C   UNL A   1      35.372  22.697  25.977  1.00  0.00     0.239 C 
ATOM      2  O   UNL A   1      34.560  22.782  26.900  1.00  0.00    -0.273 OA
ATOM      3  N   UNL A   1      35.923  21.473  25.701  1.00  0.00    -0.354 N 
ATOM      4  H   UNL A   1      35.680  20.750  26.324  1.00  0.00     0.163 HD
ENDROOT
BRANCH   1   5
ATOM      5  C   UNL A   1      35.737  23.914  25.141  1.00  0.00     0.222 C 
BRANCH   5   6
ATOM      6  N   UNL A   1      34.573  24.758  24.913  1.00  0.00    -0.334 N 
ATOM      7  C   UNL A   1      33.642  24.649  23.876  1.00  0.00     0.107 A 
ATOM      8  C   UNL A   1      33.121  25.932  23.783  1.00  0.00     0.033 A 
ATOM      9  C   UNL A   1      33.512  26.697  24.905  1.00  0.00     0.020 A 
ATOM     10  C   UNL A   1      34.359  25.910  25.633  1.00  0.00     0.087 A 
BRANCH   7  11
ATOM     11  C   UNL A   1      33.416  23.395  23.146  1.00  0.00     0.270 C 
ATOM     12  O   UNL A   1      33.896  23.261  22.022  1.00  0.00    -0.267 OA
BRANCH  11  13
ATOM     13  N   UNL A   1      32.647  22.329  23.654  1.00  0.00    -0.340 N 
ATOM     14  C   UNL A   1      31.489  22.722  24.452  1.00  0.00     0.147 C 
BRANCH  13  15
ATOM     15  C   UNL A   1      32.776  20.894  23.388  1.00  0.00     0.125 C 
BRANCH  15  16
ATOM     16  C   UNL A   1      32.472  19.989  24.602  1.00  0.00     0.068 C 
BRANCH  16  17
ATOM     17  C   UNL A   1      32.939  18.571  24.435  1.00  0.00     0.006 A 
ATOM     18  C   UNL A   1      33.566  18.001  23.341  1.00  0.00     0.015 A 
ATOM     19  S   UNL A   1      32.697  17.418  25.682  1.00  0.00    -0.149 S 
ATOM     20  C   UNL A   1      33.672  16.584  23.460  1.00  0.00     0.012 A 
ATOM     21  C   UNL A   1      33.208  16.134  24.676  1.00  0.00     0.065 A 
ENDBRANCH  16  17
ENDBRANCH  15  16
ENDBRANCH  13  15
ENDBRANCH  11  13
ENDBRANCH   7  11
ENDBRANCH   5   6
ENDBRANCH   1   5
BRANCH   3  22
ATOM     22  C   UNL A   1      36.816  21.090  24.620  1.00  0.00     0.117 C 
BRANCH  22  23
ATOM     23  C   UNL A   1      37.769  19.951  25.001  1.00  0.00     0.042 C 
BRANCH  23  24
ATOM     24  C   UNL A   1      39.007  20.420  25.753  1.00  0.00     0.118 C 
BRANCH  24  25
ATOM     25  N   UNL A   1      39.961  19.338  25.936  1.00  0.00    -0.352 N 
ATOM     26  C   UNL A   1      41.311  19.384  26.176  1.00  0.00     0.251 C 
ATOM     27  H   UNL A   1      39.579  18.432  25.879  1.00  0.00     0.163 HD
ATOM     28  O   UNL A   1      41.965  18.354  26.035  1.00  0.00    -0.269 OA
BRANCH  26  29
ATOM     29  C   UNL A   1      41.994  20.647  26.539  1.00  0.00     0.039 A 
ATOM     30  C   UNL A   1      42.596  21.377  25.504  1.00  0.00     0.014 A 
ATOM     31  C   UNL A   1      42.097  21.100  27.858  1.00  0.00     0.014 A 
ATOM     32  C   UNL A   1      43.219  22.592  25.777  1.00  0.00     0.010 A 
ATOM     33  C   UNL A   1      42.695  22.329  28.133  1.00  0.00     0.010 A 
ATOM     34  C   UNL A   1      43.234  23.088  27.086  1.00  0.00    -0.014 A 
BRANCH  34  35
ATOM     35  C   UNL A   1      43.681  24.479  27.333  1.00  0.00     0.031 A 
ATOM     36  C   UNL A   1      42.524  25.442  27.626  1.00  0.00     0.074 A 
ATOM     37  C   UNL A   1      45.021  24.732  27.269  1.00  0.00     0.049 A 
ATOM     38  N   UNL A   1      42.490  26.738  27.556  1.00  0.00    -0.248 NA
ATOM     39  C   UNL A   1      41.194  24.887  27.998  1.00  0.00     0.031 C 
ATOM     40  C   UNL A   1      46.048  23.710  26.984  1.00  0.00     0.029 A 
ATOM     41  N   UNL A   1      45.790  25.868  27.434  1.00  0.00    -0.354 N 
ATOM     42  C   UNL A   1      41.224  27.157  28.020  1.00  0.00     0.074 A 
ATOM     43  C   UNL A   1      40.441  25.972  28.195  1.00  0.00     0.031 C 
ATOM     44  C   UNL A   1      47.277  24.266  26.940  1.00  0.00     0.029 A 
ATOM     45  C   UNL A   1      47.175  25.687  27.210  1.00  0.00     0.049 A 
ATOM     46  H   UNL A   1      45.404  26.737  27.688  1.00  0.00     0.167 HD
ATOM     47  C   UNL A   1      40.928  28.448  28.344  1.00  0.00     0.031 A 
ATOM     48  C   UNL A   1      48.185  26.605  27.215  1.00  0.00     0.031 A 
ATOM     49  C   UNL A   1      42.032  29.303  28.075  1.00  0.00     0.049 A 
ATOM     50  C   UNL A   1      47.629  27.875  27.705  1.00  0.00     0.074 A 
ATOM     51  C   UNL A   1      42.586  29.795  26.923  1.00  0.00     0.029 A 
ATOM     52  N   UNL A   1      42.892  29.538  29.120  1.00  0.00    -0.354 N 
ATOM     53  N   UNL A   1      47.299  28.109  28.937  1.00  0.00    -0.248 NA
ATOM     54  C   UNL A   1      47.428  28.986  26.767  1.00  0.00     0.031 C 
ATOM     55  C   UNL A   1      43.957  29.929  27.233  1.00  0.00     0.029 A 
ATOM     56  C   UNL A   1      44.152  29.614  28.582  1.00  0.00     0.049 A 
ATOM     57  H   UNL A   1      42.651  29.635  30.069  1.00  0.00     0.167 HD
ATOM     58  C   UNL A   1      46.487  29.209  28.824  1.00  0.00     0.074 A 
ATOM     59  C   UNL A   1      46.857  29.864  27.588  1.00  0.00     0.031 C 
ATOM     60  C   UNL A   1      45.259  29.172  29.401  1.00  0.00     0.031 A 
BRANCH  47  61
ATOM     61  C   UNL A   1      39.783  29.041  29.122  1.00  0.00    -0.014 A 
ATOM     62  C   UNL A   1      38.886  29.879  28.410  1.00  0.00     0.010 A 
ATOM     63  C   UNL A   1      39.752  29.101  30.523  1.00  0.00     0.010 A 
ATOM     64  C   UNL A   1      38.101  30.836  29.055  1.00  0.00     0.020 A 
ATOM     65  C   UNL A   1      38.934  30.036  31.182  1.00  0.00     0.020 A 
ATOM     66  C   UNL A   1      38.161  30.934  30.440  1.00  0.00     0.054 A 
BRANCH  66  67
ATOM     67  S   UNL A   1      37.287  32.304  31.245  1.00  0.00     0.124 S 
ATOM     68  O   UNL A   1      38.215  32.676  32.309  1.00  0.00    -0.237 OA
ATOM     69  O   UNL A   1      37.155  33.279  30.163  1.00  0.00    -0.237 OA
ATOM     70  O   UNL A   1      36.033  31.699  31.683  1.00  0.00    -0.744 OA
ENDBRANCH  66  67
ENDBRANCH  47  61
BRANCH  48  71
ATOM     71  C   UNL A   1      49.633  26.662  26.796  1.00  0.00    -0.014 A 
ATOM     72  C   UNL A   1      50.727  26.468  27.644  1.00  0.00     0.010 A 
ATOM     73  C   UNL A   1      49.919  26.704  25.400  1.00  0.00     0.010 A 
ATOM     74  C   UNL A   1      52.005  26.174  27.124  1.00  0.00     0.020 A 
ATOM     75  C   UNL A   1      51.163  26.355  24.873  1.00  0.00     0.020 A 
ATOM     76  C   UNL A   1      52.198  26.057  25.743  1.00  0.00     0.054 A 
BRANCH  76  77
ATOM     77  S   UNL A   1      53.728  25.345  25.075  1.00  0.00     0.124 S 
ATOM     78  O   UNL A   1      54.759  26.085  25.795  1.00  0.00    -0.237 OA
ATOM     79  O   UNL A   1      53.610  23.929  25.418  1.00  0.00    -0.237 OA
ATOM     80  O   UNL A   1      53.631  25.633  23.644  1.00  0.00    -0.744 OA
ENDBRANCH  76  77
ENDBRANCH  48  71
BRANCH  60  81
ATOM     81  C   UNL A   1      45.152  28.224  30.593  1.00  0.00    -0.014 A 
ATOM     82  C   UNL A   1      44.404  27.037  30.481  1.00  0.00     0.010 A 
ATOM     83  C   UNL A   1      45.669  28.544  31.863  1.00  0.00     0.010 A 
ATOM     84  C   UNL A   1      44.158  26.218  31.595  1.00  0.00     0.020 A 
ATOM     85  C   UNL A   1      45.440  27.727  32.983  1.00  0.00     0.020 A 
ATOM     86  C   UNL A   1      44.675  26.570  32.843  1.00  0.00     0.054 A 
BRANCH  86  87
ATOM     87  S   UNL A   1      44.305  25.515  34.276  1.00  0.00     0.124 S 
ATOM     88  O   UNL A   1      42.864  25.302  34.157  1.00  0.00    -0.237 OA
ATOM     89  O   UNL A   1      45.132  24.339  34.026  1.00  0.00    -0.237 OA
ATOM     90  O   UNL A   1      44.712  26.326  35.422  1.00  0.00    -0.744 OA
ENDBRANCH  86  87
ENDBRANCH  60  81
ENDBRANCH  34  35
ENDBRANCH  26  29
ENDBRANCH  24  25
ENDBRANCH  23  24
ENDBRANCH  22  23
ENDBRANCH   3  22
TORSDOF 19
ENDMDL
