MODEL 1
REMARK VINA RESULT:      -9.7      0.000      0.000
REMARK SMILES CCCc1cc2c(cc1Cl)C=C(C(=O)NCCCNC(=O)c1ccc(-c3c4nc(c(-c5ccc(S(=O)(=O)[O-])cc5)c5ccc([nH]5)c(-c5ccc(S(=O)(=O)[O-])cc5)c5nc(c(-c6ccc(S(=O)(=O)[O-])cc6)c6ccc3[nH]6)C=C5)C=C4)cc1)[C@H](C(F)(F)F)O2
REMARK SMILES IDX 17 1 16 2 15 3 13 4 14 5 12 7 4 8 5 9 9 10 6 11 8 12 10 13
REMARK SMILES IDX 7 14 87 15 11 16 82 17 3 18 2 19 1 20 83 21 84 22 85 23
REMARK SMILES IDX 86 24 18 25 19 26 20 27 21 29 22 30 23 31 81 32 24 33 80 34
REMARK SMILES IDX 25 35 26 36 27 37 74 38 28 39 79 40 73 41 75 42 29 43 78 44
REMARK SMILES IDX 72 45 71 46 30 48 60 49 41 50 59 51 42 52 45 53 58 54 76 55
REMARK SMILES IDX 43 56 44 57 57 59 77 60 46 61 31 62 32 63 40 64 33 65 39 66
REMARK SMILES IDX 34 67 35 68 36 69 37 70 38 71 61 72 62 73 70 74 63 75 69 76
REMARK SMILES IDX 64 77 65 78 66 79 67 80 68 81 47 82 48 83 56 84 49 85 55 86
REMARK SMILES IDX 50 87 51 88 52 89 53 90 54 91
REMARK H PARENT 15 6 19 28 75 47 45 58
REMARK Flexibility Score: inf
ROOT
ATOM      1  C   UNL A   1      41.979  22.198  26.651  1.00  0.00     0.042 C 
ENDROOT
BRANCH   1   2
ATOM      2  C   UNL A   1      43.128  21.308  26.196  1.00  0.00     0.118 C 
BRANCH   2   3
ATOM      3  N   UNL A   1      43.545  21.618  24.837  1.00  0.00    -0.352 N 
ATOM      4  C   UNL A   1      44.143  22.646  24.192  1.00  0.00     0.251 C 
ATOM      5  O   UNL A   1      44.390  22.444  22.999  1.00  0.00    -0.270 OA
ATOM      6  H   UNL A   1      43.334  20.881  24.219  1.00  0.00     0.163 HD
BRANCH   4   7
ATOM      7  C   UNL A   1      44.520  23.950  24.811  1.00  0.00     0.067 C 
ATOM      8  C   UNL A   1      44.476  28.740  26.438  1.00  0.00    -0.026 A 
ATOM      9  C   UNL A   1      45.441  27.725  26.347  1.00  0.00     0.052 A 
ATOM     10  C   UNL A   1      43.160  28.426  26.058  1.00  0.00     0.045 A 
ATOM     11  C   UNL A   1      45.127  26.479  25.813  1.00  0.00     0.128 A 
ATOM     12  C   UNL A   1      42.842  27.162  25.539  1.00  0.00     0.032 A 
ATOM     13  Cl  UNL A   1      41.868  29.568  26.186  1.00  0.00    -0.084 Cl
ATOM     14  C   UNL A   1      43.834  26.189  25.397  1.00  0.00     0.019 A 
ATOM     15  O   UNL A   1      46.170  25.616  25.668  1.00  0.00    -0.475 OA
ATOM     16  C   UNL A   1      43.562  24.896  24.785  1.00  0.00     0.025 C 
ATOM     17  C   UNL A   1      45.830  24.216  25.504  1.00  0.00     0.314 C 
BRANCH   8  18
ATOM     18  C   UNL A   1      44.891  30.103  26.951  1.00  0.00     0.037 C 
BRANCH  18  19
ATOM     19  C   UNL A   1      46.226  30.635  26.399  1.00  0.00     0.001 C 
ATOM     20  C   UNL A   1      47.139  31.212  27.475  1.00  0.00     0.004 C 
ENDBRANCH  18  19
ENDBRANCH   8  18
BRANCH  17  21
ATOM     21  C   UNL A   1      45.987  23.486  26.849  1.00  0.00     0.429 C 
ATOM     22  F   UNL A   1      44.937  23.686  27.674  1.00  0.00    -0.167 F 
ATOM     23  F   UNL A   1      46.128  22.150  26.702  1.00  0.00    -0.167 F 
ATOM     24  F   UNL A   1      47.096  23.935  27.489  1.00  0.00    -0.167 F 
ENDBRANCH  17  21
ENDBRANCH   4   7
ENDBRANCH   2   3
ENDBRANCH   1   2
BRANCH   1  25
ATOM     25  C   UNL A   1      40.773  21.396  27.125  1.00  0.00     0.118 C 
BRANCH  25  26
ATOM     26  N   UNL A   1      39.620  21.572  26.249  1.00  0.00    -0.352 N 
ATOM     27  C   UNL A   1      38.750  22.631  26.130  1.00  0.00     0.251 C 
ATOM     28  H   UNL A   1      39.435  20.813  25.649  1.00  0.00     0.163 HD
ATOM     29  O   UNL A   1      37.703  22.483  25.503  1.00  0.00    -0.269 OA
BRANCH  27  30
ATOM     30  C   UNL A   1      39.058  23.927  26.772  1.00  0.00     0.039 A 
ATOM     31  C   UNL A   1      39.695  24.939  26.055  1.00  0.00     0.014 A 
ATOM     32  C   UNL A   1      38.708  24.137  28.108  1.00  0.00     0.014 A 
ATOM     33  C   UNL A   1      40.167  26.063  26.719  1.00  0.00     0.010 A 
ATOM     34  C   UNL A   1      39.077  25.327  28.745  1.00  0.00     0.010 A 
ATOM     35  C   UNL A   1      39.859  26.278  28.072  1.00  0.00    -0.014 A 
BRANCH  35  36
ATOM     36  C   UNL A   1      40.358  27.506  28.746  1.00  0.00     0.031 A 
ATOM     37  C   UNL A   1      41.793  27.614  29.191  1.00  0.00     0.074 A 
ATOM     38  C   UNL A   1      39.522  28.553  28.903  1.00  0.00     0.049 A 
ATOM     39  N   UNL A   1      42.396  28.619  29.774  1.00  0.00    -0.248 NA
ATOM     40  C   UNL A   1      42.665  26.450  28.961  1.00  0.00     0.031 C 
ATOM     41  C   UNL A   1      38.115  28.573  28.493  1.00  0.00     0.029 A 
ATOM     42  N   UNL A   1      39.733  29.810  29.415  1.00  0.00    -0.354 N 
ATOM     43  C   UNL A   1      43.705  28.203  29.997  1.00  0.00     0.074 A 
ATOM     44  C   UNL A   1      43.802  26.842  29.520  1.00  0.00     0.031 C 
ATOM     45  C   UNL A   1      37.611  29.796  28.703  1.00  0.00     0.029 A 
ATOM     46  C   UNL A   1      38.626  30.624  29.346  1.00  0.00     0.049 A 
ATOM     47  H   UNL A   1      40.593  30.101  29.794  1.00  0.00     0.167 HD
ATOM     48  C   UNL A   1      44.732  28.901  30.536  1.00  0.00     0.031 A 
ATOM     49  C   UNL A   1      38.431  31.891  29.765  1.00  0.00     0.031 A 
ATOM     50  C   UNL A   1      44.627  30.266  30.987  1.00  0.00     0.049 A 
ATOM     51  C   UNL A   1      39.574  32.628  30.400  1.00  0.00     0.074 A 
ATOM     52  C   UNL A   1      45.622  31.067  31.522  1.00  0.00     0.029 A 
ATOM     53  N   UNL A   1      43.472  31.034  30.952  1.00  0.00    -0.354 N 
ATOM     54  N   UNL A   1      40.807  32.222  30.586  1.00  0.00    -0.248 NA
ATOM     55  C   UNL A   1      39.307  33.990  30.882  1.00  0.00     0.031 C 
ATOM     56  C   UNL A   1      45.051  32.288  31.882  1.00  0.00     0.029 A 
ATOM     57  C   UNL A   1      43.721  32.285  31.491  1.00  0.00     0.049 A 
ATOM     58  H   UNL A   1      42.604  30.733  30.597  1.00  0.00     0.167 HD
ATOM     59  C   UNL A   1      41.468  33.282  31.195  1.00  0.00     0.074 A 
ATOM     60  C   UNL A   1      40.505  34.357  31.324  1.00  0.00     0.031 C 
ATOM     61  C   UNL A   1      42.755  33.351  31.615  1.00  0.00     0.031 A 
BRANCH  48  62
ATOM     62  C   UNL A   1      46.072  28.220  30.679  1.00  0.00    -0.014 A 
ATOM     63  C   UNL A   1      46.394  27.563  31.882  1.00  0.00     0.010 A 
ATOM     64  C   UNL A   1      47.058  28.333  29.682  1.00  0.00     0.010 A 
ATOM     65  C   UNL A   1      47.683  27.067  32.102  1.00  0.00     0.020 A 
ATOM     66  C   UNL A   1      48.339  27.808  29.884  1.00  0.00     0.020 A 
ATOM     67  C   UNL A   1      48.650  27.202  31.104  1.00  0.00     0.054 A 
BRANCH  67  68
ATOM     68  S   UNL A   1      50.326  26.581  31.421  1.00  0.00     0.124 S 
ATOM     69  O   UNL A   1      51.065  27.810  31.686  1.00  0.00    -0.237 OA
ATOM     70  O   UNL A   1      50.126  25.701  32.570  1.00  0.00    -0.237 OA
ATOM     71  O   UNL A   1      50.676  25.895  30.178  1.00  0.00    -0.744 OA
ENDBRANCH  67  68
ENDBRANCH  48  62
BRANCH  49  72
ATOM     72  C   UNL A   1      37.092  32.518  29.575  1.00  0.00    -0.014 A 
ATOM     73  C   UNL A   1      36.779  33.167  28.364  1.00  0.00     0.010 A 
ATOM     74  C   UNL A   1      36.166  32.567  30.631  1.00  0.00     0.010 A 
ATOM     75  C   UNL A   1      35.607  33.916  28.240  1.00  0.00     0.020 A 
ATOM     76  C   UNL A   1      34.972  33.284  30.497  1.00  0.00     0.020 A 
ATOM     77  C   UNL A   1      34.718  33.984  29.314  1.00  0.00     0.054 A 
BRANCH  77  78
ATOM     78  S   UNL A   1      33.240  35.022  29.154  1.00  0.00     0.124 S 
ATOM     79  O   UNL A   1      32.479  34.303  28.136  1.00  0.00    -0.237 OA
ATOM     80  O   UNL A   1      32.678  34.985  30.502  1.00  0.00    -0.237 OA
ATOM     81  O   UNL A   1      33.773  36.316  28.739  1.00  0.00    -0.744 OA
ENDBRANCH  77  78
ENDBRANCH  49  72
BRANCH  61  82
ATOM     82  C   UNL A   1      43.225  34.628  32.263  1.00  0.00    -0.014 A 
ATOM     83  C   UNL A   1      43.096  34.793  33.655  1.00  0.00     0.010 A 
ATOM     84  C   UNL A   1      43.655  35.717  31.483  1.00  0.00     0.010 A 
ATOM     85  C   UNL A   1      43.338  36.032  34.249  1.00  0.00     0.020 A 
ATOM     86  C   UNL A   1      43.934  36.949  32.079  1.00  0.00     0.020 A 
ATOM     87  C   UNL A   1      43.744  37.107  33.455  1.00  0.00     0.054 A 
BRANCH  87  88
ATOM     88  S   UNL A   1      44.003  38.722  34.237  1.00  0.00     0.124 S 
ATOM     89  O   UNL A   1      45.350  39.067  33.791  1.00  0.00    -0.237 OA
ATOM     90  O   UNL A   1      42.925  39.529  33.671  1.00  0.00    -0.237 OA
ATOM     91  O   UNL A   1      43.873  38.437  35.665  1.00  0.00    -0.744 OA
ENDBRANCH  87  88
ENDBRANCH  61  82
ENDBRANCH  35  36
ENDBRANCH  27  30
ENDBRANCH  25  26
ENDBRANCH   1  25
TORSDOF 16
ENDMDL
MODEL 2
REMARK VINA RESULT:      -9.6      4.072     11.115
REMARK SMILES CCCc1cc2c(cc1Cl)C=C(C(=O)NCCCNC(=O)c1ccc(-c3c4nc(c(-c5ccc(S(=O)(=O)[O-])cc5)c5ccc([nH]5)c(-c5ccc(S(=O)(=O)[O-])cc5)c5nc(c(-c6ccc(S(=O)(=O)[O-])cc6)c6ccc3[nH]6)C=C5)C=C4)cc1)[C@H](C(F)(F)F)O2
REMARK SMILES IDX 17 1 16 2 15 3 13 4 14 5 12 7 4 8 5 9 9 10 6 11 8 12 10 13
REMARK SMILES IDX 7 14 87 15 11 16 82 17 3 18 2 19 1 20 83 21 84 22 85 23
REMARK SMILES IDX 86 24 18 25 19 26 20 27 21 29 22 30 23 31 81 32 24 33 80 34
REMARK SMILES IDX 25 35 26 36 27 37 74 38 28 39 79 40 73 41 75 42 29 43 78 44
REMARK SMILES IDX 72 45 71 46 30 48 60 49 41 50 59 51 42 52 45 53 58 54 76 55
REMARK SMILES IDX 43 56 44 57 57 59 77 60 46 61 31 62 32 63 40 64 33 65 39 66
REMARK SMILES IDX 34 67 35 68 36 69 37 70 38 71 61 72 62 73 70 74 63 75 69 76
REMARK SMILES IDX 64 77 65 78 66 79 67 80 68 81 47 82 48 83 56 84 49 85 55 86
REMARK SMILES IDX 50 87 51 88 52 89 53 90 54 91
REMARK H PARENT 15 6 19 28 75 47 45 58
REMARK Flexibility Score: inf
ROOT
ATOM      1  C   UNL A   1      34.782  33.004  30.654  1.00  0.00     0.042 C 
ENDROOT
BRANCH   1   2
ATOM      2  C   UNL A   1      35.475  34.164  31.356  1.00  0.00     0.118 C 
BRANCH   2   3
ATOM      3  N   UNL A   1      35.164  34.199  32.776  1.00  0.00    -0.352 N 
ATOM      4  C   UNL A   1      35.709  33.736  33.924  1.00  0.00     0.251 C 
ATOM      5  O   UNL A   1      35.128  34.081  34.957  1.00  0.00    -0.270 OA
ATOM      6  H   UNL A   1      34.328  34.692  32.948  1.00  0.00     0.163 HD
BRANCH   4   7
ATOM      7  C   UNL A   1      36.929  32.881  34.016  1.00  0.00     0.067 C 
ATOM      8  C   UNL A   1      40.169  29.008  33.729  1.00  0.00    -0.026 A 
ATOM      9  C   UNL A   1      40.182  30.278  34.326  1.00  0.00     0.052 A 
ATOM     10  C   UNL A   1      39.047  28.659  32.958  1.00  0.00     0.045 A 
ATOM     11  C   UNL A   1      39.083  31.127  34.233  1.00  0.00     0.128 A 
ATOM     12  C   UNL A   1      37.949  29.526  32.850  1.00  0.00     0.032 A 
ATOM     13  Cl  UNL A   1      38.941  27.150  32.118  1.00  0.00    -0.084 Cl
ATOM     14  C   UNL A   1      37.958  30.758  33.507  1.00  0.00     0.019 A 
ATOM     15  O   UNL A   1      39.166  32.282  34.949  1.00  0.00    -0.475 OA
ATOM     16  C   UNL A   1      36.805  31.647  33.490  1.00  0.00     0.025 C 
ATOM     17  C   UNL A   1      38.251  33.342  34.569  1.00  0.00     0.314 C 
BRANCH   8  18
ATOM     18  C   UNL A   1      41.359  28.092  33.929  1.00  0.00     0.037 C 
BRANCH  18  19
ATOM     19  C   UNL A   1      42.499  28.671  34.786  1.00  0.00     0.001 C 
ATOM     20  C   UNL A   1      43.714  27.755  34.877  1.00  0.00     0.004 C 
ENDBRANCH  18  19
ENDBRANCH   8  18
BRANCH  17  21
ATOM     21  C   UNL A   1      38.983  34.359  33.678  1.00  0.00     0.429 C 
ATOM     22  F   UNL A   1      40.171  33.898  33.229  1.00  0.00    -0.167 F 
ATOM     23  F   UNL A   1      38.260  34.713  32.592  1.00  0.00    -0.167 F 
ATOM     24  F   UNL A   1      39.228  35.494  34.379  1.00  0.00    -0.167 F 
ENDBRANCH  17  21
ENDBRANCH   4   7
ENDBRANCH   2   3
ENDBRANCH   1   2
BRANCH   1  25
ATOM     25  C   UNL A   1      34.973  33.038  29.143  1.00  0.00     0.118 C 
BRANCH  25  26
ATOM     26  N   UNL A   1      34.148  32.044  28.465  1.00  0.00    -0.352 N 
ATOM     27  C   UNL A   1      34.493  30.832  27.914  1.00  0.00     0.251 C 
ATOM     28  H   UNL A   1      33.194  32.278  28.388  1.00  0.00     0.163 HD
ATOM     29  O   UNL A   1      33.696  30.254  27.177  1.00  0.00    -0.269 OA
BRANCH  27  30
ATOM     30  C   UNL A   1      35.822  30.240  28.183  1.00  0.00     0.039 A 
ATOM     31  C   UNL A   1      36.063  29.550  29.371  1.00  0.00     0.014 A 
ATOM     32  C   UNL A   1      36.843  30.374  27.239  1.00  0.00     0.014 A 
ATOM     33  C   UNL A   1      37.360  29.186  29.707  1.00  0.00     0.010 A 
ATOM     34  C   UNL A   1      38.125  29.894  27.528  1.00  0.00     0.010 A 
ATOM     35  C   UNL A   1      38.409  29.345  28.788  1.00  0.00    -0.014 A 
BRANCH  35  36
ATOM     36  C   UNL A   1      39.782  28.920  29.169  1.00  0.00     0.031 A 
ATOM     37  C   UNL A   1      40.652  29.797  30.031  1.00  0.00     0.074 A 
ATOM     38  C   UNL A   1      40.223  27.705  28.782  1.00  0.00     0.049 A 
ATOM     39  N   UNL A   1      41.863  29.570  30.472  1.00  0.00    -0.248 NA
ATOM     40  C   UNL A   1      40.101  31.097  30.450  1.00  0.00     0.031 C 
ATOM     41  C   UNL A   1      39.462  26.758  27.962  1.00  0.00     0.029 A 
ATOM     42  N   UNL A   1      41.395  27.041  29.048  1.00  0.00    -0.354 N 
ATOM     43  C   UNL A   1      42.224  30.699  31.199  1.00  0.00     0.074 A 
ATOM     44  C   UNL A   1      41.120  31.628  31.112  1.00  0.00     0.031 C 
ATOM     45  C   UNL A   1      40.153  25.616  27.851  1.00  0.00     0.029 A 
ATOM     46  C   UNL A   1      41.444  25.775  28.512  1.00  0.00     0.049 A 
ATOM     47  H   UNL A   1      42.130  27.433  29.572  1.00  0.00     0.167 HD
ATOM     48  C   UNL A   1      43.366  30.930  31.889  1.00  0.00     0.031 A 
ATOM     49  C   UNL A   1      42.419  24.843  28.529  1.00  0.00     0.031 A 
ATOM     50  C   UNL A   1      44.450  29.986  31.986  1.00  0.00     0.049 A 
ATOM     51  C   UNL A   1      43.694  25.141  29.262  1.00  0.00     0.074 A 
ATOM     52  C   UNL A   1      45.638  30.119  32.685  1.00  0.00     0.029 A 
ATOM     53  N   UNL A   1      44.482  28.739  31.379  1.00  0.00    -0.354 N 
ATOM     54  N   UNL A   1      44.007  26.209  29.957  1.00  0.00    -0.248 NA
ATOM     55  C   UNL A   1      44.746  24.117  29.218  1.00  0.00     0.031 C 
ATOM     56  C   UNL A   1      46.418  28.989  32.436  1.00  0.00     0.029 A 
ATOM     57  C   UNL A   1      45.685  28.109  31.657  1.00  0.00     0.049 A 
ATOM     58  H   UNL A   1      43.758  28.358  30.832  1.00  0.00     0.167 HD
ATOM     59  C   UNL A   1      45.289  25.981  30.444  1.00  0.00     0.074 A 
ATOM     60  C   UNL A   1      45.682  24.664  29.986  1.00  0.00     0.031 C 
ATOM     61  C   UNL A   1      46.068  26.796  31.196  1.00  0.00     0.031 A 
BRANCH  48  62
ATOM     62  C   UNL A   1      43.526  32.252  32.600  1.00  0.00    -0.014 A 
ATOM     63  C   UNL A   1      43.160  32.361  33.956  1.00  0.00     0.010 A 
ATOM     64  C   UNL A   1      43.912  33.413  31.906  1.00  0.00     0.010 A 
ATOM     65  C   UNL A   1      43.142  33.606  34.593  1.00  0.00     0.020 A 
ATOM     66  C   UNL A   1      43.928  34.655  32.548  1.00  0.00     0.020 A 
ATOM     67  C   UNL A   1      43.518  34.747  33.881  1.00  0.00     0.054 A 
BRANCH  67  68
ATOM     68  S   UNL A   1      43.457  36.358  34.715  1.00  0.00     0.124 S 
ATOM     69  O   UNL A   1      44.774  36.909  34.419  1.00  0.00    -0.237 OA
ATOM     70  O   UNL A   1      42.332  37.016  34.053  1.00  0.00    -0.237 OA
ATOM     71  O   UNL A   1      43.224  36.008  36.115  1.00  0.00    -0.744 OA
ENDBRANCH  67  68
ENDBRANCH  48  62
BRANCH  49  72
ATOM     72  C   UNL A   1      42.192  23.547  27.827  1.00  0.00    -0.014 A 
ATOM     73  C   UNL A   1      41.565  22.478  28.498  1.00  0.00     0.010 A 
ATOM     74  C   UNL A   1      42.695  23.336  26.531  1.00  0.00     0.010 A 
ATOM     75  C   UNL A   1      41.515  21.208  27.921  1.00  0.00     0.020 A 
ATOM     76  C   UNL A   1      42.611  22.073  25.934  1.00  0.00     0.020 A 
ATOM     77  C   UNL A   1      42.054  21.009  26.649  1.00  0.00     0.054 A 
BRANCH  77  78
ATOM     78  S   UNL A   1      42.043  19.334  25.953  1.00  0.00     0.124 S 
ATOM     79  O   UNL A   1      40.625  19.146  25.653  1.00  0.00    -0.237 OA
ATOM     80  O   UNL A   1      42.918  19.466  24.791  1.00  0.00    -0.237 OA
ATOM     81  O   UNL A   1      42.568  18.509  27.036  1.00  0.00    -0.744 OA
ENDBRANCH  77  78
ENDBRANCH  49  72
BRANCH  61  82
ATOM     82  C   UNL A   1      47.440  26.308  31.586  1.00  0.00    -0.014 A 
ATOM     83  C   UNL A   1      48.392  26.029  30.588  1.00  0.00     0.010 A 
ATOM     84  C   UNL A   1      47.738  25.986  32.923  1.00  0.00     0.010 A 
ATOM     85  C   UNL A   1      49.592  25.394  30.908  1.00  0.00     0.020 A 
ATOM     86  C   UNL A   1      48.954  25.383  33.253  1.00  0.00     0.020 A 
ATOM     87  C   UNL A   1      49.861  25.063  32.239  1.00  0.00     0.054 A 
BRANCH  87  88
ATOM     88  S   UNL A   1      51.402  24.191  32.628  1.00  0.00     0.124 S 
ATOM     89  O   UNL A   1      52.402  25.021  31.963  1.00  0.00    -0.237 OA
ATOM     90  O   UNL A   1      51.427  24.221  34.088  1.00  0.00    -0.237 OA
ATOM     91  O   UNL A   1      51.204  22.865  32.044  1.00  0.00    -0.744 OA
ENDBRANCH  87  88
ENDBRANCH  61  82
ENDBRANCH  35  36
ENDBRANCH  27  30
ENDBRANCH  25  26
ENDBRANCH   1  25
TORSDOF 16
ENDMDL
MODEL 3
REMARK VINA RESULT:      -9.5      4.572     11.108
REMARK SMILES CCCc1cc2c(cc1Cl)C=C(C(=O)NCCCNC(=O)c1ccc(-c3c4nc(c(-c5ccc(S(=O)(=O)[O-])cc5)c5ccc([nH]5)c(-c5ccc(S(=O)(=O)[O-])cc5)c5nc(c(-c6ccc(S(=O)(=O)[O-])cc6)c6ccc3[nH]6)C=C5)C=C4)cc1)[C@H](C(F)(F)F)O2
REMARK SMILES IDX 17 1 16 2 15 3 13 4 14 5 12 7 4 8 5 9 9 10 6 11 8 12 10 13
REMARK SMILES IDX 7 14 87 15 11 16 82 17 3 18 2 19 1 20 83 21 84 22 85 23
REMARK SMILES IDX 86 24 18 25 19 26 20 27 21 29 22 30 23 31 81 32 24 33 80 34
REMARK SMILES IDX 25 35 26 36 27 37 74 38 28 39 79 40 73 41 75 42 29 43 78 44
REMARK SMILES IDX 72 45 71 46 30 48 60 49 41 50 59 51 42 52 45 53 58 54 76 55
REMARK SMILES IDX 43 56 44 57 57 59 77 60 46 61 31 62 32 63 40 64 33 65 39 66
REMARK SMILES IDX 34 67 35 68 36 69 37 70 38 71 61 72 62 73 70 74 63 75 69 76
REMARK SMILES IDX 64 77 65 78 66 79 67 80 68 81 47 82 48 83 56 84 49 85 55 86
REMARK SMILES IDX 50 87 51 88 52 89 53 90 54 91
REMARK H PARENT 15 6 19 28 75 47 45 58
REMARK Flexibility Score: inf
ROOT
ATOM      1  C   UNL A   1      33.655  28.055  25.870  1.00  0.00     0.042 C 
ENDROOT
BRANCH   1   2
ATOM      2  C   UNL A   1      32.864  26.853  25.368  1.00  0.00     0.118 C 
BRANCH   2   3
ATOM      3  N   UNL A   1      33.248  26.482  24.015  1.00  0.00    -0.352 N 
ATOM      4  C   UNL A   1      33.465  25.340  23.323  1.00  0.00     0.251 C 
ATOM      5  O   UNL A   1      33.706  25.493  22.121  1.00  0.00    -0.270 OA
ATOM      6  H   UNL A   1      33.389  27.277  23.450  1.00  0.00     0.163 HD
BRANCH   4   7
ATOM      7  C   UNL A   1      33.420  23.963  23.894  1.00  0.00     0.067 C 
ATOM      8  C   UNL A   1      32.639  19.009  24.553  1.00  0.00    -0.026 A 
ATOM      9  C   UNL A   1      33.059  20.071  25.369  1.00  0.00     0.052 A 
ATOM     10  C   UNL A   1      32.408  19.281  23.194  1.00  0.00     0.045 A 
ATOM     11  C   UNL A   1      33.154  21.366  24.871  1.00  0.00     0.128 A 
ATOM     12  C   UNL A   1      32.524  20.585  22.690  1.00  0.00     0.032 A 
ATOM     13  Cl  UNL A   1      31.951  18.045  22.073  1.00  0.00    -0.084 Cl
ATOM     14  C   UNL A   1      32.880  21.638  23.537  1.00  0.00     0.019 A 
ATOM     15  O   UNL A   1      33.458  22.331  25.783  1.00  0.00    -0.475 OA
ATOM     16  C   UNL A   1      32.928  23.016  23.071  1.00  0.00     0.025 C 
ATOM     17  C   UNL A   1      33.951  23.587  25.252  1.00  0.00     0.314 C 
BRANCH   8  18
ATOM     18  C   UNL A   1      32.475  17.634  25.166  1.00  0.00     0.037 C 
BRANCH  18  19
ATOM     19  C   UNL A   1      33.766  16.801  25.270  1.00  0.00     0.001 C 
ATOM     20  C   UNL A   1      34.207  16.200  23.941  1.00  0.00     0.004 C 
ENDBRANCH  18  19
ENDBRANCH   8  18
BRANCH  17  21
ATOM     21  C   UNL A   1      35.485  23.624  25.357  1.00  0.00     0.429 C 
ATOM     22  F   UNL A   1      36.094  23.295  24.197  1.00  0.00    -0.167 F 
ATOM     23  F   UNL A   1      35.952  24.841  25.718  1.00  0.00    -0.167 F 
ATOM     24  F   UNL A   1      35.903  22.742  26.299  1.00  0.00    -0.167 F 
ENDBRANCH  17  21
ENDBRANCH   4   7
ENDBRANCH   2   3
ENDBRANCH   1   2
BRANCH   1  25
ATOM     25  C   UNL A   1      33.213  28.507  27.256  1.00  0.00     0.118 C 
BRANCH  25  26
ATOM     26  N   UNL A   1      33.285  29.955  27.407  1.00  0.00    -0.352 N 
ATOM     27  C   UNL A   1      34.276  30.743  27.946  1.00  0.00     0.251 C 
ATOM     28  H   UNL A   1      32.500  30.447  27.072  1.00  0.00     0.163 HD
ATOM     29  O   UNL A   1      34.038  31.923  28.198  1.00  0.00    -0.269 OA
BRANCH  27  30
ATOM     30  C   UNL A   1      35.606  30.170  28.244  1.00  0.00     0.039 A 
ATOM     31  C   UNL A   1      35.889  29.655  29.509  1.00  0.00     0.014 A 
ATOM     32  C   UNL A   1      36.587  30.145  27.250  1.00  0.00     0.014 A 
ATOM     33  C   UNL A   1      37.194  29.318  29.841  1.00  0.00     0.010 A 
ATOM     34  C   UNL A   1      37.874  29.686  27.553  1.00  0.00     0.010 A 
ATOM     35  C   UNL A   1      38.204  29.320  28.867  1.00  0.00    -0.014 A 
BRANCH  35  36
ATOM     36  C   UNL A   1      39.586  28.927  29.249  1.00  0.00     0.031 A 
ATOM     37  C   UNL A   1      40.433  29.824  30.114  1.00  0.00     0.074 A 
ATOM     38  C   UNL A   1      40.057  27.724  28.862  1.00  0.00     0.049 A 
ATOM     39  N   UNL A   1      41.649  29.625  30.557  1.00  0.00    -0.248 NA
ATOM     40  C   UNL A   1      39.851  31.110  30.534  1.00  0.00     0.031 C 
ATOM     41  C   UNL A   1      39.320  26.760  28.039  1.00  0.00     0.029 A 
ATOM     42  N   UNL A   1      41.244  27.087  29.129  1.00  0.00    -0.354 N 
ATOM     43  C   UNL A   1      41.982  30.762  31.286  1.00  0.00     0.074 A 
ATOM     44  C   UNL A   1      40.856  31.664  31.198  1.00  0.00     0.031 C 
ATOM     45  C   UNL A   1      40.038  25.635  27.927  1.00  0.00     0.029 A 
ATOM     46  C   UNL A   1      41.324  25.824  28.591  1.00  0.00     0.049 A 
ATOM     47  H   UNL A   1      41.968  27.496  29.654  1.00  0.00     0.167 HD
ATOM     48  C   UNL A   1      43.118  31.019  31.977  1.00  0.00     0.031 A 
ATOM     49  C   UNL A   1      42.320  24.916  28.608  1.00  0.00     0.031 A 
ATOM     50  C   UNL A   1      44.224  30.101  32.075  1.00  0.00     0.049 A 
ATOM     51  C   UNL A   1      43.587  25.243  29.343  1.00  0.00     0.074 A 
ATOM     52  C   UNL A   1      45.406  30.261  32.776  1.00  0.00     0.029 A 
ATOM     53  N   UNL A   1      44.286  28.855  31.466  1.00  0.00    -0.354 N 
ATOM     54  N   UNL A   1      43.874  26.317  30.040  1.00  0.00    -0.248 NA
ATOM     55  C   UNL A   1      44.663  24.244  29.300  1.00  0.00     0.031 C 
ATOM     56  C   UNL A   1      46.214  29.150  32.527  1.00  0.00     0.029 A 
ATOM     57  C   UNL A   1      45.503  28.254  31.745  1.00  0.00     0.049 A 
ATOM     58  H   UNL A   1      43.572  28.458  30.918  1.00  0.00     0.167 HD
ATOM     59  C   UNL A   1      45.160  26.119  30.529  1.00  0.00     0.074 A 
ATOM     60  C   UNL A   1      45.585  24.812  30.070  1.00  0.00     0.031 C 
ATOM     61  C   UNL A   1      45.918  26.951  31.283  1.00  0.00     0.031 A 
BRANCH  48  62
ATOM     62  C   UNL A   1      43.244  32.343  32.691  1.00  0.00    -0.014 A 
ATOM     63  C   UNL A   1      43.884  33.421  32.049  1.00  0.00     0.010 A 
ATOM     64  C   UNL A   1      42.849  32.489  34.033  1.00  0.00     0.010 A 
ATOM     65  C   UNL A   1      44.161  34.603  32.743  1.00  0.00     0.020 A 
ATOM     66  C   UNL A   1      43.093  33.683  34.722  1.00  0.00     0.020 A 
ATOM     67  C   UNL A   1      43.771  34.722  34.080  1.00  0.00     0.054 A 
BRANCH  67  68
ATOM     68  S   UNL A   1      44.167  36.251  34.973  1.00  0.00     0.124 S 
ATOM     69  O   UNL A   1      45.622  36.294  34.882  1.00  0.00    -0.237 OA
ATOM     70  O   UNL A   1      43.454  37.265  34.199  1.00  0.00    -0.237 OA
ATOM     71  O   UNL A   1      43.630  36.013  36.311  1.00  0.00    -0.744 OA
ENDBRANCH  67  68
ENDBRANCH  48  62
BRANCH  49  72
ATOM     72  C   UNL A   1      42.126  23.616  27.904  1.00  0.00    -0.014 A 
ATOM     73  C   UNL A   1      41.658  22.490  28.611  1.00  0.00     0.010 A 
ATOM     74  C   UNL A   1      42.507  23.464  26.560  1.00  0.00     0.010 A 
ATOM     75  C   UNL A   1      41.649  21.228  28.014  1.00  0.00     0.020 A 
ATOM     76  C   UNL A   1      42.463  22.206  25.946  1.00  0.00     0.020 A 
ATOM     77  C   UNL A   1      42.068  21.091  26.690  1.00  0.00     0.054 A 
BRANCH  77  78
ATOM     78  S   UNL A   1      42.117  19.431  25.961  1.00  0.00     0.124 S 
ATOM     79  O   UNL A   1      42.600  18.628  27.081  1.00  0.00    -0.237 OA
ATOM     80  O   UNL A   1      40.725  19.208  25.582  1.00  0.00    -0.237 OA
ATOM     81  O   UNL A   1      43.049  19.573  24.846  1.00  0.00    -0.744 OA
ENDBRANCH  77  78
ENDBRANCH  49  72
BRANCH  61  82
ATOM     82  C   UNL A   1      47.301  26.496  31.675  1.00  0.00    -0.014 A 
ATOM     83  C   UNL A   1      48.370  26.657  30.774  1.00  0.00     0.010 A 
ATOM     84  C   UNL A   1      47.513  25.778  32.866  1.00  0.00     0.010 A 
ATOM     85  C   UNL A   1      49.610  26.069  31.031  1.00  0.00     0.020 A 
ATOM     86  C   UNL A   1      48.764  25.219  33.144  1.00  0.00     0.020 A 
ATOM     87  C   UNL A   1      49.795  25.343  32.210  1.00  0.00     0.054 A 
BRANCH  87  88
ATOM     88  S   UNL A   1      51.396  24.543  32.500  1.00  0.00     0.124 S 
ATOM     89  O   UNL A   1      51.610  24.791  33.922  1.00  0.00    -0.237 OA
ATOM     90  O   UNL A   1      51.132  23.154  32.135  1.00  0.00    -0.237 OA
ATOM     91  O   UNL A   1      52.303  25.253  31.599  1.00  0.00    -0.744 OA
ENDBRANCH  87  88
ENDBRANCH  61  82
ENDBRANCH  35  36
ENDBRANCH  27  30
ENDBRANCH  25  26
ENDBRANCH   1  25
TORSDOF 16
ENDMDL
