MODEL 1
REMARK VINA RESULT:     -10.7      0.000      0.000
REMARK SMILES CCc1cccc(CC)c1N1/C(=[NH+]/C(=O)CCCC(=O)NCCCNC(=O)c2ccc(-c3c4nc(c(-c5ccc(S(=O)(=O)[O-])cc5)c5ccc([nH]5)c(-c5ccc(S(=O)(=O)[O-])cc5)c5nc(c(-c6ccc(S(=O)(=O)[O-])cc6)c6ccc3[nH]6)C=C5)C=C4)cc2)S[C@@H]2CS(=O)(=O)C[C@@H]21
REMARK SMILES IDX 22 1 21 2 19 3 20 4 18 6 17 7 16 8 14 9 11 10 12 11 95 12
REMARK SMILES IDX 13 13 88 14 89 15 94 16 90 18 91 19 15 20 92 21 93 22 10 23
REMARK SMILES IDX 3 24 4 25 5 26 7 27 6 28 2 29 1 30 8 31 9 32 23 33 24 34
REMARK SMILES IDX 25 35 26 36 27 38 28 39 29 40 87 41 30 42 86 43 31 44 32 45
REMARK SMILES IDX 33 46 80 47 34 48 85 49 79 50 81 51 35 52 84 53 78 54 77 55
REMARK SMILES IDX 36 57 66 58 47 59 65 60 48 61 51 62 64 63 82 64 49 65 50 66
REMARK SMILES IDX 63 68 83 69 52 70 37 71 38 72 46 73 39 74 45 75 40 76 41 77
REMARK SMILES IDX 42 78 43 79 44 80 67 81 68 82 76 83 69 84 75 85 70 86 71 87
REMARK SMILES IDX 72 88 73 89 74 90 53 91 54 92 62 93 55 94 61 95 56 96 57 97
REMARK SMILES IDX 58 98 59 99 60 100
REMARK H PARENT 21 5 13 17 25 37 81 56 51 67
REMARK Flexibility Score: inf
ROOT
ATOM      1  C   UNL A   1      35.505  33.067  28.982  1.00  0.00     0.117 C 
ENDROOT
BRANCH   1   2
ATOM      2  N   UNL A   1      35.671  31.898  28.148  1.00  0.00    -0.356 N 
ATOM      3  C   UNL A   1      34.721  31.122  27.556  1.00  0.00     0.220 C 
ATOM      4  O   UNL A   1      35.085  30.111  26.952  1.00  0.00    -0.275 OA
ATOM      5  H   UNL A   1      36.602  31.623  27.985  1.00  0.00     0.163 HD
BRANCH   3   6
ATOM      6  C   UNL A   1      33.263  31.530  27.587  1.00  0.00     0.100 C 
BRANCH   6   7
ATOM      7  C   UNL A   1      32.254  30.544  26.996  1.00  0.00     0.022 C 
BRANCH   7   8
ATOM      8  C   UNL A   1      31.985  29.220  27.716  1.00  0.00     0.128 C 
BRANCH   8   9
ATOM      9  C   UNL A   1      32.048  27.929  26.907  1.00  0.00     0.307 C 
ATOM     10  N   UNL A   1      30.585  26.834  23.727  1.00  0.00    -0.216 N 
ATOM     11  C   UNL A   1      31.031  26.898  25.053  1.00  0.00     0.319 C 
ATOM     12  C   UNL A   1      30.683  25.495  23.091  1.00  0.00     0.212 C 
ATOM     13  N   UNL A   1      31.372  27.953  25.712  1.00  0.00    -0.204 N 
ATOM     14  S   UNL A   1      31.151  25.234  25.664  1.00  0.00    -0.029 SA
ATOM     15  C   UNL A   1      31.577  24.647  24.014  1.00  0.00     0.120 C 
ATOM     16  C   UNL A   1      31.317  25.475  21.702  1.00  0.00     0.188 C 
ATOM     17  H   UNL A   1      31.134  28.830  25.334  1.00  0.00     0.316 HD
ATOM     18  C   UNL A   1      33.025  24.984  23.691  1.00  0.00     0.156 C 
ATOM     19  S   UNL A   1      33.031  25.049  21.921  1.00  0.00     0.155 S 
ATOM     20  O   UNL A   1      32.720  26.993  27.332  1.00  0.00    -0.247 OA
ATOM     21  O   UNL A   1      33.866  26.142  21.483  1.00  0.00    -0.229 OA
ATOM     22  O   UNL A   1      33.217  23.696  21.430  1.00  0.00    -0.229 OA
BRANCH  10  23
ATOM     23  C   UNL A   1      30.004  27.888  22.978  1.00  0.00     0.134 A 
ATOM     24  C   UNL A   1      28.584  28.071  22.960  1.00  0.00    -0.001 A 
ATOM     25  C   UNL A   1      28.043  29.205  22.320  1.00  0.00     0.008 A 
ATOM     26  C   UNL A   1      28.851  30.171  21.741  1.00  0.00     0.001 A 
ATOM     27  C   UNL A   1      30.823  28.865  22.327  1.00  0.00    -0.001 A 
ATOM     28  C   UNL A   1      30.226  30.009  21.759  1.00  0.00     0.008 A 
BRANCH  24  29
ATOM     29  C   UNL A   1      27.646  27.144  23.719  1.00  0.00     0.036 C 
ATOM     30  C   UNL A   1      26.215  27.622  23.951  1.00  0.00     0.009 C 
ENDBRANCH  24  29
BRANCH  27  31
ATOM     31  C   UNL A   1      32.340  28.783  22.244  1.00  0.00     0.036 C 
ATOM     32  C   UNL A   1      33.084  29.323  23.465  1.00  0.00     0.009 C 
ENDBRANCH  27  31
ENDBRANCH  10  23
ENDBRANCH   8   9
ENDBRANCH   7   8
ENDBRANCH   6   7
ENDBRANCH   3   6
ENDBRANCH   1   2
BRANCH   1  33
ATOM     33  C   UNL A   1      36.849  33.700  29.305  1.00  0.00     0.042 C 
BRANCH  33  34
ATOM     34  C   UNL A   1      37.392  33.270  30.648  1.00  0.00     0.118 C 
BRANCH  34  35
ATOM     35  N   UNL A   1      36.665  32.135  31.188  1.00  0.00    -0.352 N 
ATOM     36  C   UNL A   1      36.954  30.795  31.109  1.00  0.00     0.251 C 
ATOM     37  H   UNL A   1      35.843  32.358  31.684  1.00  0.00     0.163 HD
ATOM     38  O   UNL A   1      36.109  29.978  31.460  1.00  0.00    -0.269 OA
BRANCH  36  39
ATOM     39  C   UNL A   1      38.264  30.344  30.584  1.00  0.00     0.039 A 
ATOM     40  C   UNL A   1      38.437  30.242  29.201  1.00  0.00     0.014 A 
ATOM     41  C   UNL A   1      39.315  30.005  31.441  1.00  0.00     0.014 A 
ATOM     42  C   UNL A   1      39.670  29.835  28.686  1.00  0.00     0.010 A 
ATOM     43  C   UNL A   1      40.574  29.719  30.925  1.00  0.00     0.010 A 
ATOM     44  C   UNL A   1      40.756  29.593  29.543  1.00  0.00    -0.014 A 
BRANCH  44  45
ATOM     45  C   UNL A   1      42.072  29.152  29.014  1.00  0.00     0.031 A 
ATOM     46  C   UNL A   1      43.214  30.134  28.929  1.00  0.00     0.074 A 
ATOM     47  C   UNL A   1      42.230  27.886  28.580  1.00  0.00     0.049 A 
ATOM     48  N   UNL A   1      44.431  29.947  28.487  1.00  0.00    -0.248 NA
ATOM     49  C   UNL A   1      42.949  31.515  29.370  1.00  0.00     0.031 C 
ATOM     50  C   UNL A   1      41.184  26.859  28.563  1.00  0.00     0.029 A 
ATOM     51  N   UNL A   1      43.331  27.245  28.075  1.00  0.00    -0.354 N 
ATOM     52  C   UNL A   1      45.062  31.182  28.578  1.00  0.00     0.074 A 
ATOM     53  C   UNL A   1      44.080  32.127  29.056  1.00  0.00     0.031 C 
ATOM     54  C   UNL A   1      41.707  25.707  28.112  1.00  0.00     0.029 A 
ATOM     55  C   UNL A   1      43.108  25.923  27.769  1.00  0.00     0.049 A 
ATOM     56  H   UNL A   1      44.200  27.689  27.943  1.00  0.00     0.167 HD
ATOM     57  C   UNL A   1      46.353  31.498  28.317  1.00  0.00     0.031 A 
ATOM     58  C   UNL A   1      43.941  24.989  27.268  1.00  0.00     0.031 A 
ATOM     59  C   UNL A   1      47.332  30.549  27.862  1.00  0.00     0.049 A 
ATOM     60  C   UNL A   1      45.372  25.363  26.994  1.00  0.00     0.074 A 
ATOM     61  C   UNL A   1      48.680  30.751  27.623  1.00  0.00     0.029 A 
ATOM     62  N   UNL A   1      47.069  29.218  27.578  1.00  0.00    -0.354 N 
ATOM     63  N   UNL A   1      45.968  26.521  27.155  1.00  0.00    -0.248 NA
ATOM     64  C   UNL A   1      46.249  24.297  26.493  1.00  0.00     0.031 C 
ATOM     65  C   UNL A   1      49.220  29.556  27.137  1.00  0.00     0.029 A 
ATOM     66  C   UNL A   1      48.225  28.590  27.145  1.00  0.00     0.049 A 
ATOM     67  H   UNL A   1      46.191  28.783  27.670  1.00  0.00     0.167 HD
ATOM     68  C   UNL A   1      47.299  26.314  26.806  1.00  0.00     0.074 A 
ATOM     69  C   UNL A   1      47.421  24.915  26.446  1.00  0.00     0.031 C 
ATOM     70  C   UNL A   1      48.327  27.198  26.789  1.00  0.00     0.031 A 
BRANCH  57  71
ATOM     71  C   UNL A   1      46.777  32.932  28.517  1.00  0.00    -0.014 A 
ATOM     72  C   UNL A   1      47.348  33.363  29.729  1.00  0.00     0.010 A 
ATOM     73  C   UNL A   1      46.645  33.853  27.460  1.00  0.00     0.010 A 
ATOM     74  C   UNL A   1      47.741  34.694  29.894  1.00  0.00     0.020 A 
ATOM     75  C   UNL A   1      47.069  35.176  27.610  1.00  0.00     0.020 A 
ATOM     76  C   UNL A   1      47.601  35.593  28.832  1.00  0.00     0.054 A 
BRANCH  76  77
ATOM     77  S   UNL A   1      48.155  37.304  29.064  1.00  0.00     0.124 S 
ATOM     78  O   UNL A   1      47.988  37.482  30.504  1.00  0.00    -0.237 OA
ATOM     79  O   UNL A   1      49.536  37.257  28.593  1.00  0.00    -0.237 OA
ATOM     80  O   UNL A   1      47.241  38.081  28.230  1.00  0.00    -0.744 OA
ENDBRANCH  76  77
ENDBRANCH  57  71
BRANCH  58  81
ATOM     81  C   UNL A   1      43.446  23.606  27.016  1.00  0.00    -0.014 A 
ATOM     82  C   UNL A   1      43.288  22.694  28.075  1.00  0.00     0.010 A 
ATOM     83  C   UNL A   1      43.127  23.193  25.709  1.00  0.00     0.010 A 
ATOM     84  C   UNL A   1      42.850  21.389  27.830  1.00  0.00     0.020 A 
ATOM     85  C   UNL A   1      42.657  21.900  25.464  1.00  0.00     0.020 A 
ATOM     86  C   UNL A   1      42.536  21.002  26.524  1.00  0.00     0.054 A 
BRANCH  86  87
ATOM     87  S   UNL A   1      41.935  19.315  26.234  1.00  0.00     0.124 S 
ATOM     88  O   UNL A   1      42.363  18.627  27.447  1.00  0.00    -0.237 OA
ATOM     89  O   UNL A   1      40.494  19.514  26.093  1.00  0.00    -0.237 OA
ATOM     90  O   UNL A   1      42.624  18.913  25.009  1.00  0.00    -0.744 OA
ENDBRANCH  86  87
ENDBRANCH  58  81
BRANCH  70  91
ATOM     91  C   UNL A   1      49.686  26.666  26.416  1.00  0.00    -0.014 A 
ATOM     92  C   UNL A   1      50.519  26.040  27.361  1.00  0.00     0.010 A 
ATOM     93  C   UNL A   1      50.123  26.771  25.082  1.00  0.00     0.010 A 
ATOM     94  C   UNL A   1      51.786  25.581  26.991  1.00  0.00     0.020 A 
ATOM     95  C   UNL A   1      51.373  26.280  24.699  1.00  0.00     0.020 A 
ATOM     96  C   UNL A   1      52.206  25.708  25.662  1.00  0.00     0.054 A 
BRANCH  96  97
ATOM     97  S   UNL A   1      53.850  25.094  25.204  1.00  0.00     0.124 S 
ATOM     98  O   UNL A   1      54.242  26.032  24.156  1.00  0.00    -0.237 OA
ATOM     99  O   UNL A   1      54.593  25.205  26.457  1.00  0.00    -0.237 OA
ATOM    100  O   UNL A   1      53.597  23.727  24.754  1.00  0.00    -0.744 OA
ENDBRANCH  96  97
ENDBRANCH  70  91
ENDBRANCH  44  45
ENDBRANCH  36  39
ENDBRANCH  34  35
ENDBRANCH  33  34
ENDBRANCH   1  33
TORSDOF 19
ENDMDL
MODEL 2
REMARK VINA RESULT:     -10.0      1.639      3.098
REMARK SMILES CCc1cccc(CC)c1N1/C(=[NH+]/C(=O)CCCC(=O)NCCCNC(=O)c2ccc(-c3c4nc(c(-c5ccc(S(=O)(=O)[O-])cc5)c5ccc([nH]5)c(-c5ccc(S(=O)(=O)[O-])cc5)c5nc(c(-c6ccc(S(=O)(=O)[O-])cc6)c6ccc3[nH]6)C=C5)C=C4)cc2)S[C@@H]2CS(=O)(=O)C[C@@H]21
REMARK SMILES IDX 22 1 21 2 19 3 20 4 18 6 17 7 16 8 14 9 11 10 12 11 95 12
REMARK SMILES IDX 13 13 88 14 89 15 94 16 90 18 91 19 15 20 92 21 93 22 10 23
REMARK SMILES IDX 3 24 4 25 5 26 7 27 6 28 2 29 1 30 8 31 9 32 23 33 24 34
REMARK SMILES IDX 25 35 26 36 27 38 28 39 29 40 87 41 30 42 86 43 31 44 32 45
REMARK SMILES IDX 33 46 80 47 34 48 85 49 79 50 81 51 35 52 84 53 78 54 77 55
REMARK SMILES IDX 36 57 66 58 47 59 65 60 48 61 51 62 64 63 82 64 49 65 50 66
REMARK SMILES IDX 63 68 83 69 52 70 37 71 38 72 46 73 39 74 45 75 40 76 41 77
REMARK SMILES IDX 42 78 43 79 44 80 67 81 68 82 76 83 69 84 75 85 70 86 71 87
REMARK SMILES IDX 72 88 73 89 74 90 53 91 54 92 62 93 55 94 61 95 56 96 57 97
REMARK SMILES IDX 58 98 59 99 60 100
REMARK H PARENT 21 5 13 17 25 37 81 56 51 67
REMARK Flexibility Score: inf
ROOT
ATOM      1  C   UNL A   1      35.042  32.203  28.492  1.00  0.00     0.117 C 
ENDROOT
BRANCH   1   2
ATOM      2  N   UNL A   1      35.234  31.028  27.670  1.00  0.00    -0.356 N 
ATOM      3  C   UNL A   1      34.305  30.160  27.182  1.00  0.00     0.220 C 
ATOM      4  O   UNL A   1      34.699  29.167  26.567  1.00  0.00    -0.275 OA
ATOM      5  H   UNL A   1      36.167  30.828  27.429  1.00  0.00     0.163 HD
BRANCH   3   6
ATOM      6  C   UNL A   1      32.826  30.446  27.337  1.00  0.00     0.100 C 
BRANCH   6   7
ATOM      7  C   UNL A   1      31.915  30.038  26.178  1.00  0.00     0.022 C 
BRANCH   7   8
ATOM      8  C   UNL A   1      31.400  28.599  26.096  1.00  0.00     0.128 C 
BRANCH   8   9
ATOM      9  C   UNL A   1      31.855  27.730  24.928  1.00  0.00     0.307 C 
ATOM     10  N   UNL A   1      33.658  24.547  24.666  1.00  0.00    -0.216 N 
ATOM     11  C   UNL A   1      33.211  25.861  24.479  1.00  0.00     0.319 C 
ATOM     12  C   UNL A   1      34.099  23.847  23.432  1.00  0.00     0.212 C 
ATOM     13  N   UNL A   1      32.478  26.557  25.279  1.00  0.00    -0.204 N 
ATOM     14  S   UNL A   1      33.748  26.390  22.871  1.00  0.00    -0.029 SA
ATOM     15  C   UNL A   1      33.601  24.704  22.254  1.00  0.00     0.120 C 
ATOM     16  C   UNL A   1      33.536  22.441  23.241  1.00  0.00     0.188 C 
ATOM     17  H   UNL A   1      32.356  26.227  26.199  1.00  0.00     0.316 HD
ATOM     18  C   UNL A   1      32.140  24.354  22.014  1.00  0.00     0.156 C 
ATOM     19  S   UNL A   1      32.124  22.589  22.166  1.00  0.00     0.155 S 
ATOM     20  O   UNL A   1      31.600  28.091  23.783  1.00  0.00    -0.247 OA
ATOM     21  O   UNL A   1      30.931  22.179  22.869  1.00  0.00    -0.229 OA
ATOM     22  O   UNL A   1      32.487  22.032  20.878  1.00  0.00    -0.229 OA
BRANCH  10  23
ATOM     23  C   UNL A   1      33.786  23.864  25.902  1.00  0.00     0.134 A 
ATOM     24  C   UNL A   1      32.629  23.373  26.586  1.00  0.00    -0.001 A 
ATOM     25  C   UNL A   1      32.794  22.580  27.740  1.00  0.00     0.008 A 
ATOM     26  C   UNL A   1      34.050  22.229  28.210  1.00  0.00     0.001 A 
ATOM     27  C   UNL A   1      35.077  23.539  26.431  1.00  0.00    -0.001 A 
ATOM     28  C   UNL A   1      35.178  22.691  27.553  1.00  0.00     0.008 A 
BRANCH  24  29
ATOM     29  C   UNL A   1      31.225  23.575  26.034  1.00  0.00     0.036 C 
ATOM     30  C   UNL A   1      30.057  23.039  26.859  1.00  0.00     0.009 C 
ENDBRANCH  24  29
BRANCH  27  31
ATOM     31  C   UNL A   1      36.388  24.016  25.825  1.00  0.00     0.036 C 
ATOM     32  C   UNL A   1      37.357  22.903  25.424  1.00  0.00     0.009 C 
ENDBRANCH  27  31
ENDBRANCH  10  23
ENDBRANCH   8   9
ENDBRANCH   7   8
ENDBRANCH   6   7
ENDBRANCH   3   6
ENDBRANCH   1   2
BRANCH   1  33
ATOM     33  C   UNL A   1      36.305  33.049  28.532  1.00  0.00     0.042 C 
BRANCH  33  34
ATOM     34  C   UNL A   1      36.871  33.193  29.926  1.00  0.00     0.118 C 
BRANCH  34  35
ATOM     35  N   UNL A   1      36.342  32.189  30.832  1.00  0.00    -0.352 N 
ATOM     36  C   UNL A   1      36.798  30.920  31.089  1.00  0.00     0.251 C 
ATOM     37  H   UNL A   1      35.538  32.457  31.335  1.00  0.00     0.163 HD
ATOM     38  O   UNL A   1      36.096  30.152  31.741  1.00  0.00    -0.269 OA
BRANCH  36  39
ATOM     39  C   UNL A   1      38.112  30.477  30.567  1.00  0.00     0.039 A 
ATOM     40  C   UNL A   1      38.195  30.022  29.249  1.00  0.00     0.014 A 
ATOM     41  C   UNL A   1      39.257  30.491  31.369  1.00  0.00     0.014 A 
ATOM     42  C   UNL A   1      39.428  29.617  28.733  1.00  0.00     0.010 A 
ATOM     43  C   UNL A   1      40.500  30.205  30.818  1.00  0.00     0.010 A 
ATOM     44  C   UNL A   1      40.595  29.727  29.505  1.00  0.00    -0.014 A 
BRANCH  44  45
ATOM     45  C   UNL A   1      41.914  29.295  28.977  1.00  0.00     0.031 A 
ATOM     46  C   UNL A   1      43.047  30.286  28.883  1.00  0.00     0.074 A 
ATOM     47  C   UNL A   1      42.081  28.027  28.550  1.00  0.00     0.049 A 
ATOM     48  N   UNL A   1      44.265  30.107  28.439  1.00  0.00    -0.248 NA
ATOM     49  C   UNL A   1      42.771  31.667  29.316  1.00  0.00     0.031 C 
ATOM     50  C   UNL A   1      41.045  26.992  28.541  1.00  0.00     0.029 A 
ATOM     51  N   UNL A   1      43.188  27.393  28.045  1.00  0.00    -0.354 N 
ATOM     52  C   UNL A   1      44.885  31.348  28.521  1.00  0.00     0.074 A 
ATOM     53  C   UNL A   1      43.896  32.287  28.995  1.00  0.00     0.031 C 
ATOM     54  C   UNL A   1      41.576  25.842  28.096  1.00  0.00     0.029 A 
ATOM     55  C   UNL A   1      42.975  26.067  27.748  1.00  0.00     0.049 A 
ATOM     56  H   UNL A   1      44.052  27.844  27.909  1.00  0.00     0.167 HD
ATOM     57  C   UNL A   1      46.172  31.674  28.255  1.00  0.00     0.031 A 
ATOM     58  C   UNL A   1      43.815  25.138  27.251  1.00  0.00     0.031 A 
ATOM     59  C   UNL A   1      47.159  30.730  27.803  1.00  0.00     0.049 A 
ATOM     60  C   UNL A   1      45.242  25.522  26.971  1.00  0.00     0.074 A 
ATOM     61  C   UNL A   1      48.505  30.943  27.559  1.00  0.00     0.029 A 
ATOM     62  N   UNL A   1      46.907  29.395  27.527  1.00  0.00    -0.354 N 
ATOM     63  N   UNL A   1      45.828  26.687  27.124  1.00  0.00    -0.248 NA
ATOM     64  C   UNL A   1      46.127  24.461  26.474  1.00  0.00     0.031 C 
ATOM     65  C   UNL A   1      49.053  29.750  27.080  1.00  0.00     0.029 A 
ATOM     66  C   UNL A   1      48.067  28.775  27.096  1.00  0.00     0.049 A 
ATOM     67  H   UNL A   1      46.033  28.953  27.625  1.00  0.00     0.167 HD
ATOM     68  C   UNL A   1      47.160  26.488  26.773  1.00  0.00     0.074 A 
ATOM     69  C   UNL A   1      47.294  25.089  26.421  1.00  0.00     0.031 C 
ATOM     70  C   UNL A   1      48.181  27.381  26.748  1.00  0.00     0.031 A 
BRANCH  57  71
ATOM     71  C   UNL A   1      46.584  33.112  28.445  1.00  0.00    -0.014 A 
ATOM     72  C   UNL A   1      47.412  33.500  29.515  1.00  0.00     0.010 A 
ATOM     73  C   UNL A   1      46.175  34.085  27.513  1.00  0.00     0.010 A 
ATOM     74  C   UNL A   1      47.790  34.836  29.672  1.00  0.00     0.020 A 
ATOM     75  C   UNL A   1      46.579  35.416  27.647  1.00  0.00     0.020 A 
ATOM     76  C   UNL A   1      47.372  35.787  28.735  1.00  0.00     0.054 A 
BRANCH  76  77
ATOM     77  S   UNL A   1      47.909  37.506  28.944  1.00  0.00     0.124 S 
ATOM     78  O   UNL A   1      46.650  38.234  28.807  1.00  0.00    -0.237 OA
ATOM     79  O   UNL A   1      48.486  37.498  30.285  1.00  0.00    -0.237 OA
ATOM     80  O   UNL A   1      48.865  37.706  27.858  1.00  0.00    -0.744 OA
ENDBRANCH  76  77
ENDBRANCH  57  71
BRANCH  58  81
ATOM     81  C   UNL A   1      43.332  23.749  27.008  1.00  0.00    -0.014 A 
ATOM     82  C   UNL A   1      43.036  23.307  25.706  1.00  0.00     0.010 A 
ATOM     83  C   UNL A   1      43.168  22.856  28.084  1.00  0.00     0.010 A 
ATOM     84  C   UNL A   1      42.558  22.012  25.487  1.00  0.00     0.020 A 
ATOM     85  C   UNL A   1      42.721  21.550  27.866  1.00  0.00     0.020 A 
ATOM     86  C   UNL A   1      42.405  21.141  26.570  1.00  0.00     0.054 A 
BRANCH  86  87
ATOM     87  S   UNL A   1      41.817  19.453  26.258  1.00  0.00     0.124 S 
ATOM     88  O   UNL A   1      42.177  18.773  27.498  1.00  0.00    -0.237 OA
ATOM     89  O   UNL A   1      40.386  19.655  26.037  1.00  0.00    -0.237 OA
ATOM     90  O   UNL A   1      42.570  19.042  25.076  1.00  0.00    -0.744 OA
ENDBRANCH  86  87
ENDBRANCH  58  81
BRANCH  70  91
ATOM     91  C   UNL A   1      49.544  26.859  26.375  1.00  0.00    -0.014 A 
ATOM     92  C   UNL A   1      50.069  27.026  25.081  1.00  0.00     0.010 A 
ATOM     93  C   UNL A   1      50.324  26.216  27.354  1.00  0.00     0.010 A 
ATOM     94  C   UNL A   1      51.326  26.507  24.758  1.00  0.00     0.020 A 
ATOM     95  C   UNL A   1      51.596  25.729  27.046  1.00  0.00     0.020 A 
ATOM     96  C   UNL A   1      52.079  25.858  25.743  1.00  0.00     0.054 A 
BRANCH  96  97
ATOM     97  S   UNL A   1      53.712  25.203  25.302  1.00  0.00     0.124 S 
ATOM     98  O   UNL A   1      54.582  25.897  26.247  1.00  0.00    -0.237 OA
ATOM     99  O   UNL A   1      53.553  23.769  25.529  1.00  0.00    -0.237 OA
ATOM    100  O   UNL A   1      53.876  25.593  23.903  1.00  0.00    -0.744 OA
ENDBRANCH  96  97
ENDBRANCH  70  91
ENDBRANCH  44  45
ENDBRANCH  36  39
ENDBRANCH  34  35
ENDBRANCH  33  34
ENDBRANCH   1  33
TORSDOF 19
ENDMDL
MODEL 3
REMARK VINA RESULT:      -9.5      7.576     16.149
REMARK SMILES CCc1cccc(CC)c1N1/C(=[NH+]/C(=O)CCCC(=O)NCCCNC(=O)c2ccc(-c3c4nc(c(-c5ccc(S(=O)(=O)[O-])cc5)c5ccc([nH]5)c(-c5ccc(S(=O)(=O)[O-])cc5)c5nc(c(-c6ccc(S(=O)(=O)[O-])cc6)c6ccc3[nH]6)C=C5)C=C4)cc2)S[C@@H]2CS(=O)(=O)C[C@@H]21
REMARK SMILES IDX 22 1 21 2 19 3 20 4 18 6 17 7 16 8 14 9 11 10 12 11 95 12
REMARK SMILES IDX 13 13 88 14 89 15 94 16 90 18 91 19 15 20 92 21 93 22 10 23
REMARK SMILES IDX 3 24 4 25 5 26 7 27 6 28 2 29 1 30 8 31 9 32 23 33 24 34
REMARK SMILES IDX 25 35 26 36 27 38 28 39 29 40 87 41 30 42 86 43 31 44 32 45
REMARK SMILES IDX 33 46 80 47 34 48 85 49 79 50 81 51 35 52 84 53 78 54 77 55
REMARK SMILES IDX 36 57 66 58 47 59 65 60 48 61 51 62 64 63 82 64 49 65 50 66
REMARK SMILES IDX 63 68 83 69 52 70 37 71 38 72 46 73 39 74 45 75 40 76 41 77
REMARK SMILES IDX 42 78 43 79 44 80 67 81 68 82 76 83 69 84 75 85 70 86 71 87
REMARK SMILES IDX 72 88 73 89 74 90 53 91 54 92 62 93 55 94 61 95 56 96 57 97
REMARK SMILES IDX 58 98 59 99 60 100
REMARK H PARENT 21 5 13 17 25 37 81 56 51 67
REMARK Flexibility Score: inf
ROOT
ATOM      1  C   UNL A   1      45.739  23.649  37.431  1.00  0.00     0.117 C 
ENDROOT
BRANCH   1   2
ATOM      2  N   UNL A   1      45.922  22.664  36.388  1.00  0.00    -0.356 N 
ATOM      3  C   UNL A   1      45.523  22.705  35.087  1.00  0.00     0.220 C 
ATOM      4  O   UNL A   1      45.710  21.708  34.387  1.00  0.00    -0.275 OA
ATOM      5  H   UNL A   1      46.403  21.848  36.657  1.00  0.00     0.163 HD
BRANCH   3   6
ATOM      6  C   UNL A   1      44.925  23.968  34.503  1.00  0.00     0.100 C 
BRANCH   6   7
ATOM      7  C   UNL A   1      45.856  24.860  33.680  1.00  0.00     0.022 C 
BRANCH   7   8
ATOM      8  C   UNL A   1      46.845  25.782  34.397  1.00  0.00     0.128 C 
BRANCH   8   9
ATOM      9  C   UNL A   1      48.336  25.500  34.251  1.00  0.00     0.307 C 
ATOM     10  N   UNL A   1      50.608  22.982  35.646  1.00  0.00    -0.216 N 
ATOM     11  C   UNL A   1      50.035  24.179  35.202  1.00  0.00     0.319 C 
ATOM     12  C   UNL A   1      52.078  22.877  35.461  1.00  0.00     0.212 C 
ATOM     13  N   UNL A   1      48.794  24.397  34.930  1.00  0.00    -0.204 N 
ATOM     14  S   UNL A   1      51.348  25.353  34.969  1.00  0.00    -0.029 SA
ATOM     15  C   UNL A   1      52.473  24.022  34.511  1.00  0.00     0.120 C 
ATOM     16  C   UNL A   1      52.568  21.575  34.831  1.00  0.00     0.188 C 
ATOM     17  H   UNL A   1      48.133  23.732  35.227  1.00  0.00     0.316 HD
ATOM     18  C   UNL A   1      52.190  23.559  33.089  1.00  0.00     0.156 C 
ATOM     19  S   UNL A   1      52.780  21.888  33.092  1.00  0.00     0.155 S 
ATOM     20  O   UNL A   1      49.008  26.219  33.517  1.00  0.00    -0.247 OA
ATOM     21  O   UNL A   1      51.874  21.059  32.333  1.00  0.00    -0.229 OA
ATOM     22  O   UNL A   1      54.203  21.922  32.818  1.00  0.00    -0.229 OA
BRANCH  10  23
ATOM     23  C   UNL A   1      49.940  21.915  36.299  1.00  0.00     0.134 A 
ATOM     24  C   UNL A   1      49.951  21.814  37.726  1.00  0.00    -0.001 A 
ATOM     25  C   UNL A   1      49.166  20.824  38.354  1.00  0.00     0.008 A 
ATOM     26  C   UNL A   1      48.353  19.969  37.627  1.00  0.00     0.001 A 
ATOM     27  C   UNL A   1      49.137  20.989  35.558  1.00  0.00    -0.001 A 
ATOM     28  C   UNL A   1      48.328  20.062  36.246  1.00  0.00     0.008 A 
BRANCH  24  29
ATOM     29  C   UNL A   1      50.685  22.824  38.596  1.00  0.00     0.036 C 
ATOM     30  C   UNL A   1      50.378  22.824  40.092  1.00  0.00     0.009 C 
ENDBRANCH  24  29
BRANCH  27  31
ATOM     31  C   UNL A   1      49.054  20.962  34.040  1.00  0.00     0.036 C 
ATOM     32  C   UNL A   1      48.482  19.674  33.446  1.00  0.00     0.009 C 
ENDBRANCH  27  31
ENDBRANCH  10  23
ENDBRANCH   8   9
ENDBRANCH   7   8
ENDBRANCH   6   7
ENDBRANCH   3   6
ENDBRANCH   1   2
BRANCH   1  33
ATOM     33  C   UNL A   1      47.077  24.201  37.898  1.00  0.00     0.042 C 
BRANCH  33  34
ATOM     34  C   UNL A   1      46.931  25.329  38.894  1.00  0.00     0.118 C 
BRANCH  34  35
ATOM     35  N   UNL A   1      48.016  26.289  38.787  1.00  0.00    -0.352 N 
ATOM     36  C   UNL A   1      48.097  27.435  38.035  1.00  0.00     0.251 C 
ATOM     37  H   UNL A   1      48.811  26.089  39.334  1.00  0.00     0.163 HD
ATOM     38  O   UNL A   1      49.178  28.006  37.928  1.00  0.00    -0.269 OA
BRANCH  36  39
ATOM     39  C   UNL A   1      46.897  27.960  37.343  1.00  0.00     0.039 A 
ATOM     40  C   UNL A   1      47.059  28.951  36.372  1.00  0.00     0.014 A 
ATOM     41  C   UNL A   1      45.615  27.497  37.653  1.00  0.00     0.014 A 
ATOM     42  C   UNL A   1      45.942  29.447  35.696  1.00  0.00     0.010 A 
ATOM     43  C   UNL A   1      44.522  27.902  36.896  1.00  0.00     0.010 A 
ATOM     44  C   UNL A   1      44.667  28.910  35.935  1.00  0.00    -0.014 A 
BRANCH  44  45
ATOM     45  C   UNL A   1      43.466  29.429  35.232  1.00  0.00     0.031 A 
ATOM     46  C   UNL A   1      42.587  30.454  35.904  1.00  0.00     0.074 A 
ATOM     47  C   UNL A   1      43.148  28.956  34.010  1.00  0.00     0.049 A 
ATOM     48  N   UNL A   1      41.492  31.018  35.461  1.00  0.00    -0.248 NA
ATOM     49  C   UNL A   1      42.968  30.882  37.262  1.00  0.00     0.031 C 
ATOM     50  C   UNL A   1      43.892  27.925  33.280  1.00  0.00     0.029 A 
ATOM     51  N   UNL A   1      42.120  29.283  33.165  1.00  0.00    -0.354 N 
ATOM     52  C   UNL A   1      41.049  31.844  36.489  1.00  0.00     0.074 A 
ATOM     53  C   UNL A   1      41.953  31.661  37.600  1.00  0.00     0.031 C 
ATOM     54  C   UNL A   1      43.319  27.737  32.081  1.00  0.00     0.029 A 
ATOM     55  C   UNL A   1      42.147  28.598  31.972  1.00  0.00     0.049 A 
ATOM     56  H   UNL A   1      41.427  29.945  33.390  1.00  0.00     0.167 HD
ATOM     57  C   UNL A   1      40.001  32.701  36.498  1.00  0.00     0.031 A 
ATOM     58  C   UNL A   1      41.319  28.659  30.911  1.00  0.00     0.031 A 
ATOM     59  C   UNL A   1      39.116  32.894  35.380  1.00  0.00     0.049 A 
ATOM     60  C   UNL A   1      40.167  29.626  30.941  1.00  0.00     0.074 A 
ATOM     61  C   UNL A   1      38.059  33.780  35.263  1.00  0.00     0.029 A 
ATOM     62  N   UNL A   1      39.187  32.192  34.187  1.00  0.00    -0.354 N 
ATOM     63  N   UNL A   1      39.807  30.450  31.897  1.00  0.00    -0.248 NA
ATOM     64  C   UNL A   1      39.323  29.686  29.742  1.00  0.00     0.031 C 
ATOM     65  C   UNL A   1      37.453  33.570  34.021  1.00  0.00     0.029 A 
ATOM     66  C   UNL A   1      38.178  32.608  33.335  1.00  0.00     0.049 A 
ATOM     67  H   UNL A   1      39.854  31.500  33.977  1.00  0.00     0.167 HD
ATOM     68  C   UNL A   1      38.713  31.152  31.398  1.00  0.00     0.074 A 
ATOM     69  C   UNL A   1      38.487  30.667  30.052  1.00  0.00     0.031 C 
ATOM     70  C   UNL A   1      37.967  32.113  31.998  1.00  0.00     0.031 A 
BRANCH  57  71
ATOM     71  C   UNL A   1      39.755  33.493  37.757  1.00  0.00    -0.014 A 
ATOM     72  C   UNL A   1      39.062  32.934  38.848  1.00  0.00     0.010 A 
ATOM     73  C   UNL A   1      40.263  34.800  37.871  1.00  0.00     0.010 A 
ATOM     74  C   UNL A   1      38.847  33.680  40.010  1.00  0.00     0.020 A 
ATOM     75  C   UNL A   1      40.080  35.538  39.044  1.00  0.00     0.020 A 
ATOM     76  C   UNL A   1      39.360  34.978  40.102  1.00  0.00     0.054 A 
BRANCH  76  77
ATOM     77  S   UNL A   1      39.099  35.908  41.637  1.00  0.00     0.124 S 
ATOM     78  O   UNL A   1      40.197  35.426  42.471  1.00  0.00    -0.237 OA
ATOM     79  O   UNL A   1      39.210  37.294  41.192  1.00  0.00    -0.237 OA
ATOM     80  O   UNL A   1      37.764  35.499  42.067  1.00  0.00    -0.744 OA
ENDBRANCH  76  77
ENDBRANCH  57  71
BRANCH  58  81
ATOM     81  C   UNL A   1      41.566  27.795  29.722  1.00  0.00    -0.014 A 
ATOM     82  C   UNL A   1      42.664  28.031  28.876  1.00  0.00     0.010 A 
ATOM     83  C   UNL A   1      40.700  26.725  29.430  1.00  0.00     0.010 A 
ATOM     84  C   UNL A   1      42.875  27.235  27.746  1.00  0.00     0.020 A 
ATOM     85  C   UNL A   1      40.926  25.905  28.321  1.00  0.00     0.020 A 
ATOM     86  C   UNL A   1      42.004  26.175  27.477  1.00  0.00     0.054 A 
BRANCH  86  87
ATOM     87  S   UNL A   1      42.317  25.132  26.026  1.00  0.00     0.124 S 
ATOM     88  O   UNL A   1      41.848  25.980  24.936  1.00  0.00    -0.237 OA
ATOM     89  O   UNL A   1      43.763  24.927  26.093  1.00  0.00    -0.237 OA
ATOM     90  O   UNL A   1      41.513  23.939  26.283  1.00  0.00    -0.744 OA
ENDBRANCH  86  87
ENDBRANCH  58  81
BRANCH  70  91
ATOM     91  C   UNL A   1      36.867  32.740  31.183  1.00  0.00    -0.014 A 
ATOM     92  C   UNL A   1      35.520  32.370  31.351  1.00  0.00     0.010 A 
ATOM     93  C   UNL A   1      37.190  33.743  30.250  1.00  0.00     0.010 A 
ATOM     94  C   UNL A   1      34.525  32.950  30.560  1.00  0.00     0.020 A 
ATOM     95  C   UNL A   1      36.194  34.353  29.484  1.00  0.00     0.020 A 
ATOM     96  C   UNL A   1      34.870  33.936  29.629  1.00  0.00     0.054 A 
BRANCH  96  97
ATOM     97  S   UNL A   1      33.559  34.683  28.623  1.00  0.00     0.124 S 
ATOM     98  O   UNL A   1      32.550  35.004  29.629  1.00  0.00    -0.237 OA
ATOM     99  O   UNL A   1      34.233  35.830  28.020  1.00  0.00    -0.237 OA
ATOM    100  O   UNL A   1      33.191  33.621  27.689  1.00  0.00    -0.744 OA
ENDBRANCH  96  97
ENDBRANCH  70  91
ENDBRANCH  44  45
ENDBRANCH  36  39
ENDBRANCH  34  35
ENDBRANCH  33  34
ENDBRANCH   1  33
TORSDOF 19
ENDMDL
