MODEL 1
REMARK VINA RESULT:      -9.9      0.000      0.000
REMARK SMILES Cn1cncc1COc1c(F)cc(C(=O)NCCCNC(=O)c2ccc(-c3c4nc(c(-c5ccc(S(=O)(=O)[O-])cc5)c5ccc([nH]5)c(-c5ccc(S(=O)(=O)[O-])cc5)c5nc(c(-c6ccc(S(=O)(=O)[O-])cc6)c6ccc3[nH]6)C=C5)C=C4)cc2)cc1F
REMARK SMILES IDX 18 1 17 2 16 3 14 4 15 5 13 7 9 8 10 9 84 10 11 11 12 12
REMARK SMILES IDX 83 13 85 14 8 15 7 16 6 17 1 18 2 19 3 20 4 21 5 22 19 23
REMARK SMILES IDX 20 24 21 25 22 27 23 28 24 29 82 30 25 31 81 32 26 33 27 34
REMARK SMILES IDX 28 35 75 36 29 37 80 38 74 39 76 40 30 41 79 42 73 43 72 44
REMARK SMILES IDX 31 46 61 47 42 48 60 49 43 50 46 51 59 52 77 53 44 54 45 55
REMARK SMILES IDX 58 57 78 58 47 59 32 60 33 61 41 62 34 63 40 64 35 65 36 66
REMARK SMILES IDX 37 67 38 68 39 69 62 70 63 71 71 72 64 73 70 74 65 75 66 76
REMARK SMILES IDX 67 77 68 78 69 79 48 80 49 81 57 82 50 83 56 84 51 85 52 86
REMARK SMILES IDX 53 87 54 88 55 89
REMARK H PARENT 16 6 20 26 76 45 46 56
REMARK Flexibility Score: inf
ROOT
ATOM      1  C   UNL A   1      33.563  33.830  28.235  1.00  0.00     0.042 C 
ENDROOT
BRANCH   1   2
ATOM      2  C   UNL A   1      33.939  35.007  29.135  1.00  0.00     0.118 C 
BRANCH   2   3
ATOM      3  N   UNL A   1      33.103  35.092  30.323  1.00  0.00    -0.352 N 
ATOM      4  C   UNL A   1      33.372  34.841  31.646  1.00  0.00     0.251 C 
ATOM      5  O   UNL A   1      32.546  35.188  32.489  1.00  0.00    -0.269 OA
ATOM      6  H   UNL A   1      32.178  35.383  30.146  1.00  0.00     0.163 HD
BRANCH   4   7
ATOM      7  C   UNL A   1      34.629  34.192  32.105  1.00  0.00     0.045 A 
ATOM      8  C   UNL A   1      36.992  32.874  32.903  1.00  0.00     0.191 A 
ATOM      9  C   UNL A   1      36.901  34.260  32.922  1.00  0.00     0.168 A 
ATOM     10  C   UNL A   1      35.912  32.151  32.405  1.00  0.00     0.168 A 
ATOM     11  F   UNL A   1      37.939  35.017  33.289  1.00  0.00    -0.203 F 
ATOM     12  C   UNL A   1      35.738  34.914  32.534  1.00  0.00     0.057 A 
ATOM     13  C   UNL A   1      34.737  32.796  32.008  1.00  0.00     0.057 A 
ATOM     14  F   UNL A   1      35.987  30.817  32.299  1.00  0.00    -0.203 F 
BRANCH   8  15
ATOM     15  O   UNL A   1      38.156  32.244  33.249  1.00  0.00    -0.481 OA
BRANCH  15  16
ATOM     16  C   UNL A   1      38.075  31.601  34.533  1.00  0.00     0.285 C 
BRANCH  16  17
ATOM     17  C   UNL A   1      39.381  30.963  34.852  1.00  0.00     0.075 A 
ATOM     18  C   UNL A   1      39.344  29.136  33.110  1.00  0.00     0.151 C 
ATOM     19  N   UNL A   1      39.898  29.849  34.233  1.00  0.00    -0.335 N 
ATOM     20  C   UNL A   1      41.061  29.517  34.868  1.00  0.00     0.199 A 
ATOM     21  N   UNL A   1      41.360  30.383  35.806  1.00  0.00    -0.245 NA
ATOM     22  C   UNL A   1      40.323  31.278  35.814  1.00  0.00     0.138 A 
ENDBRANCH  16  17
ENDBRANCH  15  16
ENDBRANCH   8  15
ENDBRANCH   4   7
ENDBRANCH   2   3
ENDBRANCH   1   2
BRANCH   1  23
ATOM     23  C   UNL A   1      34.516  32.645  28.317  1.00  0.00     0.118 C 
BRANCH  23  24
ATOM     24  N   UNL A   1      33.852  31.384  28.027  1.00  0.00    -0.352 N 
ATOM     25  C   UNL A   1      34.375  30.128  27.846  1.00  0.00     0.251 C 
ATOM     26  H   UNL A   1      32.873  31.440  27.949  1.00  0.00     0.163 HD
ATOM     27  O   UNL A   1      33.650  29.244  27.398  1.00  0.00    -0.269 OA
BRANCH  25  28
ATOM     28  C   UNL A   1      35.789  29.829  28.173  1.00  0.00     0.039 A 
ATOM     29  C   UNL A   1      36.097  29.370  29.459  1.00  0.00     0.014 A 
ATOM     30  C   UNL A   1      36.818  30.049  27.252  1.00  0.00     0.014 A 
ATOM     31  C   UNL A   1      37.423  29.086  29.802  1.00  0.00     0.010 A 
ATOM     32  C   UNL A   1      38.128  29.695  27.571  1.00  0.00     0.010 A 
ATOM     33  C   UNL A   1      38.447  29.220  28.851  1.00  0.00    -0.014 A 
BRANCH  33  34
ATOM     34  C   UNL A   1      39.854  28.874  29.179  1.00  0.00     0.031 A 
ATOM     35  C   UNL A   1      40.750  29.883  29.847  1.00  0.00     0.074 A 
ATOM     36  C   UNL A   1      40.345  27.672  28.818  1.00  0.00     0.049 A 
ATOM     37  N   UNL A   1      42.018  29.784  30.155  1.00  0.00    -0.248 NA
ATOM     38  C   UNL A   1      40.149  31.182  30.189  1.00  0.00     0.031 C 
ATOM     39  C   UNL A   1      39.589  26.621  28.131  1.00  0.00     0.029 A 
ATOM     40  N   UNL A   1      41.598  27.133  28.970  1.00  0.00    -0.354 N 
ATOM     41  C   UNL A   1      42.371  31.011  30.707  1.00  0.00     0.074 A 
ATOM     42  C   UNL A   1      41.196  31.852  30.649  1.00  0.00     0.031 C 
ATOM     43  C   UNL A   1      40.386  25.557  27.944  1.00  0.00     0.029 A 
ATOM     44  C   UNL A   1      41.717  25.862  28.458  1.00  0.00     0.049 A 
ATOM     45  H   UNL A   1      42.340  27.610  29.406  1.00  0.00     0.167 HD
ATOM     46  C   UNL A   1      43.561  31.398  31.230  1.00  0.00     0.031 A 
ATOM     47  C   UNL A   1      42.779  25.036  28.401  1.00  0.00     0.031 A 
ATOM     48  C   UNL A   1      44.724  30.554  31.294  1.00  0.00     0.049 A 
ATOM     49  C   UNL A   1      44.090  25.485  28.985  1.00  0.00     0.074 A 
ATOM     50  C   UNL A   1      45.959  30.830  31.856  1.00  0.00     0.029 A 
ATOM     51  N   UNL A   1      44.800  29.269  30.775  1.00  0.00    -0.354 N 
ATOM     52  N   UNL A   1      44.385  26.627  29.561  1.00  0.00    -0.248 NA
ATOM     53  C   UNL A   1      45.205  24.532  28.922  1.00  0.00     0.031 C 
ATOM     54  C   UNL A   1      46.797  29.731  31.632  1.00  0.00     0.029 A 
ATOM     55  C   UNL A   1      46.067  28.748  30.983  1.00  0.00     0.049 A 
ATOM     56  H   UNL A   1      44.061  28.797  30.327  1.00  0.00     0.167 HD
ATOM     57  C   UNL A   1      45.716  26.519  29.951  1.00  0.00     0.074 A 
ATOM     58  C   UNL A   1      46.161  25.197  29.559  1.00  0.00     0.031 C 
ATOM     59  C   UNL A   1      46.496  27.432  30.580  1.00  0.00     0.031 A 
BRANCH  46  60
ATOM     60  C   UNL A   1      43.660  32.804  31.764  1.00  0.00    -0.014 A 
ATOM     61  C   UNL A   1      43.415  33.088  33.120  1.00  0.00     0.010 A 
ATOM     62  C   UNL A   1      44.028  33.855  30.903  1.00  0.00     0.010 A 
ATOM     63  C   UNL A   1      43.482  34.402  33.592  1.00  0.00     0.020 A 
ATOM     64  C   UNL A   1      44.125  35.166  31.378  1.00  0.00     0.020 A 
ATOM     65  C   UNL A   1      43.830  35.434  32.717  1.00  0.00     0.054 A 
BRANCH  65  66
ATOM     66  S   UNL A   1      43.911  37.129  33.357  1.00  0.00     0.124 S 
ATOM     67  O   UNL A   1      45.117  37.080  34.181  1.00  0.00    -0.237 OA
ATOM     68  O   UNL A   1      44.015  37.928  32.139  1.00  0.00    -0.237 OA
ATOM     69  O   UNL A   1      42.659  37.282  34.095  1.00  0.00    -0.744 OA
ENDBRANCH  65  66
ENDBRANCH  46  60
BRANCH  47  70
ATOM     70  C   UNL A   1      42.634  23.689  27.784  1.00  0.00    -0.014 A 
ATOM     71  C   UNL A   1      42.961  23.486  26.432  1.00  0.00     0.010 A 
ATOM     72  C   UNL A   1      42.199  22.595  28.554  1.00  0.00     0.010 A 
ATOM     73  C   UNL A   1      42.847  22.216  25.859  1.00  0.00     0.020 A 
ATOM     74  C   UNL A   1      42.110  21.318  27.993  1.00  0.00     0.020 A 
ATOM     75  C   UNL A   1      42.426  21.139  26.644  1.00  0.00     0.054 A 
BRANCH  75  76
ATOM     76  S   UNL A   1      42.346  19.490  25.892  1.00  0.00     0.124 S 
ATOM     77  O   UNL A   1      40.954  19.420  25.460  1.00  0.00    -0.237 OA
ATOM     78  O   UNL A   1      43.337  19.582  24.823  1.00  0.00    -0.237 OA
ATOM     79  O   UNL A   1      42.708  18.596  26.991  1.00  0.00    -0.744 OA
ENDBRANCH  75  76
ENDBRANCH  47  70
BRANCH  59  80
ATOM     80  C   UNL A   1      47.908  27.024  30.911  1.00  0.00    -0.014 A 
ATOM     81  C   UNL A   1      48.963  27.254  30.011  1.00  0.00     0.010 A 
ATOM     82  C   UNL A   1      48.187  26.451  32.165  1.00  0.00     0.010 A 
ATOM     83  C   UNL A   1      50.269  26.889  30.347  1.00  0.00     0.020 A 
ATOM     84  C   UNL A   1      49.496  26.111  32.516  1.00  0.00     0.020 A 
ATOM     85  C   UNL A   1      50.528  26.320  31.598  1.00  0.00     0.054 A 
BRANCH  85  86
ATOM     86  S   UNL A   1      52.238  25.896  32.029  1.00  0.00     0.124 S 
ATOM     87  O   UNL A   1      52.976  26.404  30.877  1.00  0.00    -0.237 OA
ATOM     88  O   UNL A   1      52.444  26.624  33.279  1.00  0.00    -0.237 OA
ATOM     89  O   UNL A   1      52.212  24.441  32.160  1.00  0.00    -0.744 OA
ENDBRANCH  85  86
ENDBRANCH  59  80
ENDBRANCH  33  34
ENDBRANCH  25  28
ENDBRANCH  23  24
ENDBRANCH   1  23
TORSDOF 16
ENDMDL
MODEL 2
REMARK VINA RESULT:      -9.9      3.814      6.451
REMARK SMILES Cn1cncc1COc1c(F)cc(C(=O)NCCCNC(=O)c2ccc(-c3c4nc(c(-c5ccc(S(=O)(=O)[O-])cc5)c5ccc([nH]5)c(-c5ccc(S(=O)(=O)[O-])cc5)c5nc(c(-c6ccc(S(=O)(=O)[O-])cc6)c6ccc3[nH]6)C=C5)C=C4)cc2)cc1F
REMARK SMILES IDX 18 1 17 2 16 3 14 4 15 5 13 7 9 8 10 9 84 10 11 11 12 12
REMARK SMILES IDX 83 13 85 14 8 15 7 16 6 17 1 18 2 19 3 20 4 21 5 22 19 23
REMARK SMILES IDX 20 24 21 25 22 27 23 28 24 29 82 30 25 31 81 32 26 33 27 34
REMARK SMILES IDX 28 35 75 36 29 37 80 38 74 39 76 40 30 41 79 42 73 43 72 44
REMARK SMILES IDX 31 46 61 47 42 48 60 49 43 50 46 51 59 52 77 53 44 54 45 55
REMARK SMILES IDX 58 57 78 58 47 59 32 60 33 61 41 62 34 63 40 64 35 65 36 66
REMARK SMILES IDX 37 67 38 68 39 69 62 70 63 71 71 72 64 73 70 74 65 75 66 76
REMARK SMILES IDX 67 77 68 78 69 79 48 80 49 81 57 82 50 83 56 84 51 85 52 86
REMARK SMILES IDX 53 87 54 88 55 89
REMARK H PARENT 16 6 20 26 76 45 46 56
REMARK Flexibility Score: inf
ROOT
ATOM      1  C   UNL A   1      32.629  27.399  26.874  1.00  0.00     0.042 C 
ENDROOT
BRANCH   1   2
ATOM      2  C   UNL A   1      31.883  26.838  25.664  1.00  0.00     0.118 C 
BRANCH   2   3
ATOM      3  N   UNL A   1      30.611  26.229  26.023  1.00  0.00    -0.352 N 
ATOM      4  C   UNL A   1      30.284  24.940  26.367  1.00  0.00     0.251 C 
ATOM      5  O   UNL A   1      29.165  24.723  26.828  1.00  0.00    -0.269 OA
ATOM      6  H   UNL A   1      29.849  26.853  26.018  1.00  0.00     0.163 HD
BRANCH   4   7
ATOM      7  C   UNL A   1      31.232  23.802  26.230  1.00  0.00     0.045 A 
ATOM      8  C   UNL A   1      33.052  21.652  26.085  1.00  0.00     0.191 A 
ATOM      9  C   UNL A   1      31.959  21.727  25.232  1.00  0.00     0.168 A 
ATOM     10  C   UNL A   1      33.185  22.628  27.070  1.00  0.00     0.168 A 
ATOM     11  F   UNL A   1      31.715  20.767  24.335  1.00  0.00    -0.203 F 
ATOM     12  C   UNL A   1      31.062  22.785  25.296  1.00  0.00     0.057 A 
ATOM     13  C   UNL A   1      32.289  23.696  27.149  1.00  0.00     0.057 A 
ATOM     14  F   UNL A   1      34.184  22.551  27.961  1.00  0.00    -0.203 F 
BRANCH   8  15
ATOM     15  O   UNL A   1      33.906  20.584  26.038  1.00  0.00    -0.481 OA
BRANCH  15  16
ATOM     16  C   UNL A   1      34.688  20.555  24.831  1.00  0.00     0.285 C 
BRANCH  16  17
ATOM     17  C   UNL A   1      35.770  21.572  24.917  1.00  0.00     0.075 A 
ATOM     18  C   UNL A   1      34.819  23.271  23.309  1.00  0.00     0.151 C 
ATOM     19  N   UNL A   1      35.822  22.746  24.201  1.00  0.00    -0.335 N 
ATOM     20  C   UNL A   1      37.009  23.358  24.482  1.00  0.00     0.199 A 
ATOM     21  N   UNL A   1      37.692  22.691  25.382  1.00  0.00    -0.245 NA
ATOM     22  C   UNL A   1      36.941  21.578  25.653  1.00  0.00     0.138 A 
ENDBRANCH  16  17
ENDBRANCH  15  16
ENDBRANCH   8  15
ENDBRANCH   4   7
ENDBRANCH   2   3
ENDBRANCH   1   2
BRANCH   1  23
ATOM     23  C   UNL A   1      33.829  28.272  26.526  1.00  0.00     0.118 C 
BRANCH  23  24
ATOM     24  N   UNL A   1      33.658  29.644  26.974  1.00  0.00    -0.352 N 
ATOM     25  C   UNL A   1      34.461  30.423  27.770  1.00  0.00     0.251 C 
ATOM     26  H   UNL A   1      32.839  30.085  26.655  1.00  0.00     0.163 HD
ATOM     27  O   UNL A   1      34.018  31.485  28.198  1.00  0.00    -0.269 OA
BRANCH  25  28
ATOM     28  C   UNL A   1      35.837  29.999  28.124  1.00  0.00     0.039 A 
ATOM     29  C   UNL A   1      36.840  30.102  27.153  1.00  0.00     0.014 A 
ATOM     30  C   UNL A   1      36.138  29.451  29.374  1.00  0.00     0.014 A 
ATOM     31  C   UNL A   1      38.146  29.703  27.452  1.00  0.00     0.010 A 
ATOM     32  C   UNL A   1      37.455  29.124  29.695  1.00  0.00     0.010 A 
ATOM     33  C   UNL A   1      38.471  29.236  28.736  1.00  0.00    -0.014 A 
BRANCH  33  34
ATOM     34  C   UNL A   1      39.863  28.857  29.089  1.00  0.00     0.031 A 
ATOM     35  C   UNL A   1      40.777  29.851  29.755  1.00  0.00     0.074 A 
ATOM     36  C   UNL A   1      40.326  27.637  28.753  1.00  0.00     0.049 A 
ATOM     37  N   UNL A   1      42.037  29.722  30.084  1.00  0.00    -0.248 NA
ATOM     38  C   UNL A   1      40.207  31.171  30.069  1.00  0.00     0.031 C 
ATOM     39  C   UNL A   1      39.552  26.597  28.070  1.00  0.00     0.029 A 
ATOM     40  N   UNL A   1      41.561  27.066  28.931  1.00  0.00    -0.354 N 
ATOM     41  C   UNL A   1      42.415  30.948  30.622  1.00  0.00     0.074 A 
ATOM     42  C   UNL A   1      41.265  31.819  30.535  1.00  0.00     0.031 C 
ATOM     43  C   UNL A   1      40.322  25.509  27.910  1.00  0.00     0.029 A 
ATOM     44  C   UNL A   1      41.653  25.785  28.440  1.00  0.00     0.049 A 
ATOM     45  H   UNL A   1      42.310  27.530  29.371  1.00  0.00     0.167 HD
ATOM     46  C   UNL A   1      43.608  31.309  31.158  1.00  0.00     0.031 A 
ATOM     47  C   UNL A   1      42.693  24.930  28.409  1.00  0.00     0.031 A 
ATOM     48  C   UNL A   1      44.747  30.436  31.250  1.00  0.00     0.049 A 
ATOM     49  C   UNL A   1      44.007  25.352  29.006  1.00  0.00     0.074 A 
ATOM     50  C   UNL A   1      45.980  30.686  31.827  1.00  0.00     0.029 A 
ATOM     51  N   UNL A   1      44.795  29.142  30.752  1.00  0.00    -0.354 N 
ATOM     52  N   UNL A   1      44.325  26.494  29.570  1.00  0.00    -0.248 NA
ATOM     53  C   UNL A   1      45.097  24.368  28.974  1.00  0.00     0.031 C 
ATOM     54  C   UNL A   1      46.791  29.562  31.631  1.00  0.00     0.029 A 
ATOM     55  C   UNL A   1      46.044  28.589  30.986  1.00  0.00     0.049 A 
ATOM     56  H   UNL A   1      44.050  28.683  30.299  1.00  0.00     0.167 HD
ATOM     57  C   UNL A   1      45.647  26.356  29.981  1.00  0.00     0.074 A 
ATOM     58  C   UNL A   1      46.061  25.016  29.615  1.00  0.00     0.031 C 
ATOM     59  C   UNL A   1      46.443  27.256  30.609  1.00  0.00     0.031 A 
BRANCH  46  60
ATOM     60  C   UNL A   1      43.738  32.720  31.672  1.00  0.00    -0.014 A 
ATOM     61  C   UNL A   1      43.439  33.039  33.010  1.00  0.00     0.010 A 
ATOM     62  C   UNL A   1      44.190  33.739  30.813  1.00  0.00     0.010 A 
ATOM     63  C   UNL A   1      43.536  34.358  33.463  1.00  0.00     0.020 A 
ATOM     64  C   UNL A   1      44.316  35.055  31.271  1.00  0.00     0.020 A 
ATOM     65  C   UNL A   1      43.967  35.359  32.589  1.00  0.00     0.054 A 
BRANCH  65  66
ATOM     66  S   UNL A   1      44.085  37.061  33.204  1.00  0.00     0.124 S 
ATOM     67  O   UNL A   1      45.362  37.034  33.916  1.00  0.00    -0.237 OA
ATOM     68  O   UNL A   1      44.070  37.849  31.975  1.00  0.00    -0.237 OA
ATOM     69  O   UNL A   1      42.904  37.207  34.051  1.00  0.00    -0.744 OA
ENDBRANCH  65  66
ENDBRANCH  46  60
BRANCH  47  70
ATOM     70  C   UNL A   1      42.520  23.578  27.810  1.00  0.00    -0.014 A 
ATOM     71  C   UNL A   1      42.899  23.336  26.479  1.00  0.00     0.010 A 
ATOM     72  C   UNL A   1      42.005  22.518  28.579  1.00  0.00     0.010 A 
ATOM     73  C   UNL A   1      42.758  22.061  25.924  1.00  0.00     0.020 A 
ATOM     74  C   UNL A   1      41.888  21.236  28.036  1.00  0.00     0.020 A 
ATOM     75  C   UNL A   1      42.258  21.017  26.707  1.00  0.00     0.054 A 
BRANCH  75  76
ATOM     76  S   UNL A   1      42.144  19.359  25.981  1.00  0.00     0.124 S 
ATOM     77  O   UNL A   1      40.713  19.238  25.721  1.00  0.00    -0.237 OA
ATOM     78  O   UNL A   1      42.994  19.472  24.799  1.00  0.00    -0.237 OA
ATOM     79  O   UNL A   1      42.665  18.488  27.034  1.00  0.00    -0.744 OA
ENDBRANCH  75  76
ENDBRANCH  47  70
BRANCH  59  80
ATOM     80  C   UNL A   1      47.838  26.816  30.966  1.00  0.00    -0.014 A 
ATOM     81  C   UNL A   1      48.909  26.987  30.071  1.00  0.00     0.010 A 
ATOM     82  C   UNL A   1      48.087  26.271  32.238  1.00  0.00     0.010 A 
ATOM     83  C   UNL A   1      50.199  26.592  30.431  1.00  0.00     0.020 A 
ATOM     84  C   UNL A   1      49.382  25.901  32.613  1.00  0.00     0.020 A 
ATOM     85  C   UNL A   1      50.428  26.051  31.701  1.00  0.00     0.054 A 
BRANCH  85  86
ATOM     86  S   UNL A   1      52.120  25.589  32.162  1.00  0.00     0.124 S 
ATOM     87  O   UNL A   1      52.888  26.060  31.013  1.00  0.00    -0.237 OA
ATOM     88  O   UNL A   1      52.328  26.329  33.404  1.00  0.00    -0.237 OA
ATOM     89  O   UNL A   1      52.053  24.136  32.313  1.00  0.00    -0.744 OA
ENDBRANCH  85  86
ENDBRANCH  59  80
ENDBRANCH  33  34
ENDBRANCH  25  28
ENDBRANCH  23  24
ENDBRANCH   1  23
TORSDOF 16
ENDMDL
MODEL 3
REMARK VINA RESULT:      -9.8      3.644     11.467
REMARK SMILES Cn1cncc1COc1c(F)cc(C(=O)NCCCNC(=O)c2ccc(-c3c4nc(c(-c5ccc(S(=O)(=O)[O-])cc5)c5ccc([nH]5)c(-c5ccc(S(=O)(=O)[O-])cc5)c5nc(c(-c6ccc(S(=O)(=O)[O-])cc6)c6ccc3[nH]6)C=C5)C=C4)cc2)cc1F
REMARK SMILES IDX 18 1 17 2 16 3 14 4 15 5 13 7 9 8 10 9 84 10 11 11 12 12
REMARK SMILES IDX 83 13 85 14 8 15 7 16 6 17 1 18 2 19 3 20 4 21 5 22 19 23
REMARK SMILES IDX 20 24 21 25 22 27 23 28 24 29 82 30 25 31 81 32 26 33 27 34
REMARK SMILES IDX 28 35 75 36 29 37 80 38 74 39 76 40 30 41 79 42 73 43 72 44
REMARK SMILES IDX 31 46 61 47 42 48 60 49 43 50 46 51 59 52 77 53 44 54 45 55
REMARK SMILES IDX 58 57 78 58 47 59 32 60 33 61 41 62 34 63 40 64 35 65 36 66
REMARK SMILES IDX 37 67 38 68 39 69 62 70 63 71 71 72 64 73 70 74 65 75 66 76
REMARK SMILES IDX 67 77 68 78 69 79 48 80 49 81 57 82 50 83 56 84 51 85 52 86
REMARK SMILES IDX 53 87 54 88 55 89
REMARK H PARENT 16 6 20 26 76 45 46 56
REMARK Flexibility Score: inf
ROOT
ATOM      1  C   UNL A   1      41.739  21.784  26.138  1.00  0.00     0.042 C 
ENDROOT
BRANCH   1   2
ATOM      2  C   UNL A   1      42.923  21.232  26.932  1.00  0.00     0.118 C 
BRANCH   2   3
ATOM      3  N   UNL A   1      44.072  20.934  26.091  1.00  0.00    -0.352 N 
ATOM      4  C   UNL A   1      45.176  21.680  25.760  1.00  0.00     0.251 C 
ATOM      5  O   UNL A   1      46.112  21.121  25.191  1.00  0.00    -0.269 OA
ATOM      6  H   UNL A   1      44.055  20.035  25.689  1.00  0.00     0.163 HD
BRANCH   4   7
ATOM      7  C   UNL A   1      45.299  23.128  26.081  1.00  0.00     0.045 A 
ATOM      8  C   UNL A   1      45.426  25.888  26.643  1.00  0.00     0.191 A 
ATOM      9  C   UNL A   1      46.069  24.960  27.452  1.00  0.00     0.168 A 
ATOM     10  C   UNL A   1      44.649  25.416  25.589  1.00  0.00     0.168 A 
ATOM     11  F   UNL A   1      46.744  25.341  28.541  1.00  0.00    -0.203 F 
ATOM     12  C   UNL A   1      46.014  23.600  27.177  1.00  0.00     0.057 A 
ATOM     13  C   UNL A   1      44.581  24.050  25.303  1.00  0.00     0.057 A 
ATOM     14  F   UNL A   1      43.952  26.274  24.830  1.00  0.00    -0.203 F 
BRANCH   8  15
ATOM     15  O   UNL A   1      45.456  27.222  26.948  1.00  0.00    -0.481 OA
BRANCH  15  16
ATOM     16  C   UNL A   1      46.761  27.800  26.769  1.00  0.00     0.285 C 
BRANCH  16  17
ATOM     17  C   UNL A   1      47.163  27.685  25.340  1.00  0.00     0.075 A 
ATOM     18  C   UNL A   1      49.154  26.158  25.631  1.00  0.00     0.151 C 
ATOM     19  N   UNL A   1      48.250  26.985  24.870  1.00  0.00    -0.335 N 
ATOM     20  C   UNL A   1      48.339  27.199  23.525  1.00  0.00     0.199 A 
ATOM     21  N   UNL A   1      47.342  27.932  23.089  1.00  0.00    -0.245 NA
ATOM     22  C   UNL A   1      46.612  28.248  24.204  1.00  0.00     0.138 A 
ENDBRANCH  16  17
ENDBRANCH  15  16
ENDBRANCH   8  15
ENDBRANCH   4   7
ENDBRANCH   2   3
ENDBRANCH   1   2
BRANCH   1  23
ATOM     23  C   UNL A   1      40.377  21.492  26.754  1.00  0.00     0.118 C 
BRANCH  23  24
ATOM     24  N   UNL A   1      39.283  21.947  25.910  1.00  0.00    -0.352 N 
ATOM     25  C   UNL A   1      38.612  23.144  25.897  1.00  0.00     0.251 C 
ATOM     26  H   UNL A   1      38.977  21.293  25.242  1.00  0.00     0.163 HD
ATOM     27  O   UNL A   1      37.577  23.235  25.242  1.00  0.00    -0.269 OA
BRANCH  25  28
ATOM     28  C   UNL A   1      39.109  24.313  26.662  1.00  0.00     0.039 A 
ATOM     29  C   UNL A   1      40.009  25.187  26.041  1.00  0.00     0.014 A 
ATOM     30  C   UNL A   1      38.746  24.526  27.995  1.00  0.00     0.014 A 
ATOM     31  C   UNL A   1      40.502  26.294  26.737  1.00  0.00     0.010 A 
ATOM     32  C   UNL A   1      39.179  25.670  28.662  1.00  0.00     0.010 A 
ATOM     33  C   UNL A   1      40.070  26.561  28.046  1.00  0.00    -0.014 A 
BRANCH  33  34
ATOM     34  C   UNL A   1      40.541  27.760  28.784  1.00  0.00     0.031 A 
ATOM     35  C   UNL A   1      41.910  27.779  29.412  1.00  0.00     0.074 A 
ATOM     36  C   UNL A   1      39.712  28.811  28.945  1.00  0.00     0.049 A 
ATOM     37  N   UNL A   1      42.470  28.709  30.143  1.00  0.00    -0.248 NA
ATOM     38  C   UNL A   1      42.748  26.586  29.214  1.00  0.00     0.031 C 
ATOM     39  C   UNL A   1      38.347  28.900  28.419  1.00  0.00     0.029 A 
ATOM     40  N   UNL A   1      39.891  30.001  29.604  1.00  0.00    -0.354 N 
ATOM     41  C   UNL A   1      43.714  28.206  30.508  1.00  0.00     0.074 A 
ATOM     42  C   UNL A   1      43.807  26.872  29.956  1.00  0.00     0.031 C 
ATOM     43  C   UNL A   1      37.824  30.090  28.754  1.00  0.00     0.029 A 
ATOM     44  C   UNL A   1      38.795  30.831  29.552  1.00  0.00     0.049 A 
ATOM     45  H   UNL A   1      40.726  30.240  30.069  1.00  0.00     0.167 HD
ATOM     46  C   UNL A   1      44.697  28.806  31.224  1.00  0.00     0.031 A 
ATOM     47  C   UNL A   1      38.590  32.047  30.091  1.00  0.00     0.031 A 
ATOM     48  C   UNL A   1      44.603  30.136  31.763  1.00  0.00     0.049 A 
ATOM     49  C   UNL A   1      39.693  32.694  30.883  1.00  0.00     0.074 A 
ATOM     50  C   UNL A   1      45.564  30.857  32.452  1.00  0.00     0.029 A 
ATOM     51  N   UNL A   1      43.481  30.948  31.677  1.00  0.00    -0.354 N 
ATOM     52  N   UNL A   1      40.887  32.227  31.162  1.00  0.00    -0.248 NA
ATOM     53  C   UNL A   1      39.425  34.033  31.422  1.00  0.00     0.031 C 
ATOM     54  C   UNL A   1      45.004  32.084  32.827  1.00  0.00     0.029 A 
ATOM     55  C   UNL A   1      43.716  32.152  32.321  1.00  0.00     0.049 A 
ATOM     56  H   UNL A   1      42.641  30.703  31.225  1.00  0.00     0.167 HD
ATOM     57  C   UNL A   1      41.522  33.228  31.890  1.00  0.00     0.074 A 
ATOM     58  C   UNL A   1      40.585  34.328  31.994  1.00  0.00     0.031 C 
ATOM     59  C   UNL A   1      42.770  33.235  32.421  1.00  0.00     0.031 A 
BRANCH  46  60
ATOM     60  C   UNL A   1      45.956  28.015  31.472  1.00  0.00    -0.014 A 
ATOM     61  C   UNL A   1      47.004  27.998  30.533  1.00  0.00     0.010 A 
ATOM     62  C   UNL A   1      46.106  27.298  32.674  1.00  0.00     0.010 A 
ATOM     63  C   UNL A   1      48.151  27.235  30.765  1.00  0.00     0.020 A 
ATOM     64  C   UNL A   1      47.265  26.557  32.923  1.00  0.00     0.020 A 
ATOM     65  C   UNL A   1      48.273  26.513  31.956  1.00  0.00     0.054 A 
BRANCH  65  66
ATOM     66  S   UNL A   1      49.774  25.534  32.232  1.00  0.00     0.124 S 
ATOM     67  O   UNL A   1      49.246  24.371  32.943  1.00  0.00    -0.237 OA
ATOM     68  O   UNL A   1      50.244  25.277  30.873  1.00  0.00    -0.237 OA
ATOM     69  O   UNL A   1      50.624  26.417  33.027  1.00  0.00    -0.744 OA
ENDBRANCH  65  66
ENDBRANCH  46  60
BRANCH  47  70
ATOM     70  C   UNL A   1      37.290  32.740  29.877  1.00  0.00    -0.014 A 
ATOM     71  C   UNL A   1      36.283  32.681  30.855  1.00  0.00     0.010 A 
ATOM     72  C   UNL A   1      37.065  33.489  28.708  1.00  0.00     0.010 A 
ATOM     73  C   UNL A   1      35.071  33.351  30.664  1.00  0.00     0.020 A 
ATOM     74  C   UNL A   1      35.866  34.182  28.525  1.00  0.00     0.020 A 
ATOM     75  C   UNL A   1      34.871  34.101  29.501  1.00  0.00     0.054 A 
BRANCH  75  76
ATOM     76  S   UNL A   1      33.314  35.012  29.307  1.00  0.00     0.124 S 
ATOM     77  O   UNL A   1      33.781  36.321  28.862  1.00  0.00    -0.237 OA
ATOM     78  O   UNL A   1      32.607  34.218  28.304  1.00  0.00    -0.237 OA
ATOM     79  O   UNL A   1      32.728  34.976  30.645  1.00  0.00    -0.744 OA
ENDBRANCH  75  76
ENDBRANCH  47  70
BRANCH  59  80
ATOM     80  C   UNL A   1      43.209  34.483  33.140  1.00  0.00    -0.014 A 
ATOM     81  C   UNL A   1      43.699  35.597  32.435  1.00  0.00     0.010 A 
ATOM     82  C   UNL A   1      43.079  34.560  34.538  1.00  0.00     0.010 A 
ATOM     83  C   UNL A   1      44.079  36.754  33.118  1.00  0.00     0.020 A 
ATOM     84  C   UNL A   1      43.432  35.726  35.223  1.00  0.00     0.020 A 
ATOM     85  C   UNL A   1      43.943  36.811  34.510  1.00  0.00     0.054 A 
BRANCH  85  86
ATOM     86  S   UNL A   1      44.402  38.340  35.370  1.00  0.00     0.124 S 
ATOM     87  O   UNL A   1      43.782  39.360  34.530  1.00  0.00    -0.237 OA
ATOM     88  O   UNL A   1      43.799  38.160  36.689  1.00  0.00    -0.237 OA
ATOM     89  O   UNL A   1      45.863  38.323  35.353  1.00  0.00    -0.744 OA
ENDBRANCH  85  86
ENDBRANCH  59  80
ENDBRANCH  33  34
ENDBRANCH  25  28
ENDBRANCH  23  24
ENDBRANCH   1  23
TORSDOF 16
ENDMDL
