MODEL 1
REMARK VINA RESULT:     -12.2      0.000      0.000
REMARK SMILES O=C(CC1(NC(=O)c2ccc3cc[nH]c3c2)CCC1)NCCCNC(=O)c1ccc(-c2c3nc(c(-c4ccc(S(=O)(=O)[O-])cc4)c4ccc([nH]4)c(-c4ccc(S(=O)(=O)[O-])cc4)c4nc(c(-c5ccc(S(=O)(=O)[O-])cc5)c5ccc2[nH]5)C=C4)C=C3)cc1
REMARK SMILES IDX 22 1 21 2 20 3 1 4 2 5 3 7 4 8 17 9 19 10 18 11 5 12 6 13
REMARK SMILES IDX 7 15 8 16 9 17 16 18 10 19 15 20 11 21 14 22 12 23 13 24
REMARK SMILES IDX 23 26 24 27 25 28 26 30 27 31 28 32 86 33 29 34 85 35 30 36
REMARK SMILES IDX 31 37 32 38 79 39 33 40 84 41 78 42 80 43 34 44 83 45 77 46
REMARK SMILES IDX 76 47 35 49 65 50 46 51 64 52 47 53 50 54 63 55 81 56 48 57
REMARK SMILES IDX 49 58 62 60 82 61 51 62 36 63 37 64 45 65 38 66 44 67 39 68
REMARK SMILES IDX 40 69 41 70 42 71 43 72 66 73 67 74 75 75 68 76 74 77 69 78
REMARK SMILES IDX 70 79 71 80 72 81 73 82 52 83 53 84 61 85 54 86 60 87 55 88
REMARK SMILES IDX 56 89 57 90 58 91 59 92
REMARK H PARENT 20 6 5 14 14 25 24 29 80 48 50 59
REMARK Flexibility Score: inf
ROOT
ATOM      1  C   UNL A   1      39.789  21.948  26.599  1.00  0.00     0.042 C 
ENDROOT
BRANCH   1   2
ATOM      2  C   UNL A   1      38.596  21.751  25.675  1.00  0.00     0.117 C 
BRANCH   2   3
ATOM      3  N   UNL A   1      37.404  22.375  26.208  1.00  0.00    -0.356 N 
ATOM      4  O   UNL A   1      35.938  20.807  25.389  1.00  0.00    -0.275 OA
ATOM      5  C   UNL A   1      36.155  21.855  25.986  1.00  0.00     0.222 C 
ATOM      6  H   UNL A   1      37.493  23.196  26.745  1.00  0.00     0.163 HD
BRANCH   5   7
ATOM      7  C   UNL A   1      35.039  22.740  26.473  1.00  0.00     0.128 C 
BRANCH   7   8
ATOM      8  C   UNL A   1      34.067  23.301  25.433  1.00  0.00     0.049 C 
ATOM      9  C   UNL A   1      34.242  24.839  25.196  1.00  0.00     0.029 C 
ATOM     10  C   UNL A   1      34.559  23.107  23.955  1.00  0.00     0.029 C 
ATOM     11  C   UNL A   1      34.311  24.592  23.682  1.00  0.00     0.005 C 
BRANCH   8  12
ATOM     12  N   UNL A   1      32.606  22.951  25.544  1.00  0.00    -0.346 N 
ATOM     13  C   UNL A   1      31.841  21.808  25.430  1.00  0.00     0.251 C 
ATOM     14  H   UNL A   1      32.056  23.740  25.750  1.00  0.00     0.164 HD
ATOM     15  O   UNL A   1      30.640  21.860  25.679  1.00  0.00    -0.269 OA
BRANCH  13  16
ATOM     16  C   UNL A   1      32.402  20.559  24.907  1.00  0.00     0.041 A 
ATOM     17  C   UNL A   1      32.357  20.265  23.544  1.00  0.00     0.014 A 
ATOM     18  C   UNL A   1      32.863  19.635  25.857  1.00  0.00     0.040 A 
ATOM     19  C   UNL A   1      32.606  18.954  23.116  1.00  0.00     0.011 A 
ATOM     20  C   UNL A   1      33.085  18.331  25.406  1.00  0.00     0.046 A 
ATOM     21  C   UNL A   1      32.916  17.960  24.071  1.00  0.00    -0.001 A 
ATOM     22  N   UNL A   1      33.445  17.199  26.103  1.00  0.00    -0.361 N 
ATOM     23  C   UNL A   1      33.071  16.547  24.015  1.00  0.00     0.028 A 
ATOM     24  C   UNL A   1      33.377  16.106  25.282  1.00  0.00     0.083 A 
ATOM     25  H   UNL A   1      33.712  17.179  27.051  1.00  0.00     0.166 HD
ENDBRANCH  13  16
ENDBRANCH   8  12
ENDBRANCH   7   8
ENDBRANCH   5   7
ENDBRANCH   2   3
ENDBRANCH   1   2
BRANCH   1  26
ATOM     26  C   UNL A   1      39.966  23.382  27.088  1.00  0.00     0.118 C 
BRANCH  26  27
ATOM     27  N   UNL A   1      40.578  24.248  26.091  1.00  0.00    -0.352 N 
ATOM     28  C   UNL A   1      40.928  25.575  26.160  1.00  0.00     0.251 C 
ATOM     29  H   UNL A   1      40.772  23.813  25.229  1.00  0.00     0.163 HD
ATOM     30  O   UNL A   1      41.255  26.168  25.139  1.00  0.00    -0.269 OA
BRANCH  28  31
ATOM     31  C   UNL A   1      40.882  26.292  27.453  1.00  0.00     0.039 A 
ATOM     32  C   UNL A   1      41.887  27.218  27.745  1.00  0.00     0.014 A 
ATOM     33  C   UNL A   1      39.865  26.050  28.378  1.00  0.00     0.014 A 
ATOM     34  C   UNL A   1      41.823  27.963  28.926  1.00  0.00     0.010 A 
ATOM     35  C   UNL A   1      39.759  26.847  29.516  1.00  0.00     0.010 A 
ATOM     36  C   UNL A   1      40.730  27.819  29.797  1.00  0.00    -0.014 A 
BRANCH  36  37
ATOM     37  C   UNL A   1      40.565  28.697  30.986  1.00  0.00     0.031 A 
ATOM     38  C   UNL A   1      39.551  29.807  30.981  1.00  0.00     0.074 A 
ATOM     39  C   UNL A   1      41.388  28.542  32.044  1.00  0.00     0.049 A 
ATOM     40  N   UNL A   1      39.331  30.727  31.886  1.00  0.00    -0.248 NA
ATOM     41  C   UNL A   1      38.684  29.912  29.795  1.00  0.00     0.031 C 
ATOM     42  C   UNL A   1      42.434  27.522  32.162  1.00  0.00     0.029 A 
ATOM     43  N   UNL A   1      41.486  29.250  33.216  1.00  0.00    -0.354 N 
ATOM     44  C   UNL A   1      38.316  31.527  31.374  1.00  0.00     0.074 A 
ATOM     45  C   UNL A   1      37.994  31.013  30.061  1.00  0.00     0.031 C 
ATOM     46  C   UNL A   1      43.049  27.656  33.348  1.00  0.00     0.029 A 
ATOM     47  C   UNL A   1      42.483  28.802  34.051  1.00  0.00     0.049 A 
ATOM     48  H   UNL A   1      40.897  30.008  33.437  1.00  0.00     0.167 HD
ATOM     49  C   UNL A   1      37.698  32.585  31.953  1.00  0.00     0.031 A 
ATOM     50  C   UNL A   1      42.909  29.269  35.242  1.00  0.00     0.031 A 
ATOM     51  C   UNL A   1      38.020  33.094  33.260  1.00  0.00     0.049 A 
ATOM     52  C   UNL A   1      42.234  30.471  35.844  1.00  0.00     0.074 A 
ATOM     53  C   UNL A   1      37.415  34.129  33.953  1.00  0.00     0.029 A 
ATOM     54  N   UNL A   1      39.037  32.614  34.071  1.00  0.00    -0.354 N 
ATOM     55  N   UNL A   1      41.232  31.174  35.373  1.00  0.00    -0.248 NA
ATOM     56  C   UNL A   1      42.742  30.938  37.141  1.00  0.00     0.031 C 
ATOM     57  C   UNL A   1      38.108  34.317  35.151  1.00  0.00     0.029 A 
ATOM     58  C   UNL A   1      39.100  33.355  35.240  1.00  0.00     0.049 A 
ATOM     59  H   UNL A   1      39.629  31.859  33.849  1.00  0.00     0.167 HD
ATOM     60  C   UNL A   1      40.973  32.150  36.329  1.00  0.00     0.074 A 
ATOM     61  C   UNL A   1      41.912  31.937  37.411  1.00  0.00     0.031 C 
ATOM     62  C   UNL A   1      40.041  33.135  36.311  1.00  0.00     0.031 A 
BRANCH  49  63
ATOM     63  C   UNL A   1      36.614  33.277  31.166  1.00  0.00    -0.014 A 
ATOM     64  C   UNL A   1      36.895  33.921  29.947  1.00  0.00     0.010 A 
ATOM     65  C   UNL A   1      35.284  33.239  31.626  1.00  0.00     0.010 A 
ATOM     66  C   UNL A   1      35.876  34.549  29.226  1.00  0.00     0.020 A 
ATOM     67  C   UNL A   1      34.257  33.838  30.892  1.00  0.00     0.020 A 
ATOM     68  C   UNL A   1      34.564  34.505  29.704  1.00  0.00     0.054 A 
BRANCH  68  69
ATOM     69  S   UNL A   1      33.259  35.309  28.733  1.00  0.00     0.124 S 
ATOM     70  O   UNL A   1      32.644  34.170  28.057  1.00  0.00    -0.237 OA
ATOM     71  O   UNL A   1      32.441  35.944  29.763  1.00  0.00    -0.237 OA
ATOM     72  O   UNL A   1      33.988  36.229  27.865  1.00  0.00    -0.744 OA
ENDBRANCH  68  69
ENDBRANCH  49  63
BRANCH  50  73
ATOM     73  C   UNL A   1      44.040  28.598  35.942  1.00  0.00    -0.014 A 
ATOM     74  C   UNL A   1      43.797  27.590  36.890  1.00  0.00     0.010 A 
ATOM     75  C   UNL A   1      45.370  28.960  35.655  1.00  0.00     0.010 A 
ATOM     76  C   UNL A   1      44.860  26.968  37.552  1.00  0.00     0.020 A 
ATOM     77  C   UNL A   1      46.437  28.318  36.291  1.00  0.00     0.020 A 
ATOM     78  C   UNL A   1      46.173  27.334  37.245  1.00  0.00     0.054 A 
BRANCH  78  79
ATOM     79  S   UNL A   1      47.538  26.478  38.081  1.00  0.00     0.124 S 
ATOM     80  O   UNL A   1      48.696  27.251  37.639  1.00  0.00    -0.237 OA
ATOM     81  O   UNL A   1      47.181  26.621  39.490  1.00  0.00    -0.237 OA
ATOM     82  O   UNL A   1      47.458  25.115  37.560  1.00  0.00    -0.744 OA
ENDBRANCH  78  79
ENDBRANCH  50  73
BRANCH  62  83
ATOM     83  C   UNL A   1      39.961  34.043  37.510  1.00  0.00    -0.014 A 
ATOM     84  C   UNL A   1      40.721  35.224  37.583  1.00  0.00     0.010 A 
ATOM     85  C   UNL A   1      39.056  33.746  38.547  1.00  0.00     0.010 A 
ATOM     86  C   UNL A   1      40.595  36.079  38.682  1.00  0.00     0.020 A 
ATOM     87  C   UNL A   1      38.904  34.614  39.631  1.00  0.00     0.020 A 
ATOM     88  C   UNL A   1      39.683  35.771  39.697  1.00  0.00     0.054 A 
BRANCH  88  89
ATOM     89  S   UNL A   1      39.493  36.929  41.079  1.00  0.00     0.124 S 
ATOM     90  O   UNL A   1      40.881  37.249  41.403  1.00  0.00    -0.237 OA
ATOM     91  O   UNL A   1      38.722  38.016  40.481  1.00  0.00    -0.237 OA
ATOM     92  O   UNL A   1      38.782  36.151  42.090  1.00  0.00    -0.744 OA
ENDBRANCH  88  89
ENDBRANCH  62  83
ENDBRANCH  36  37
ENDBRANCH  28  31
ENDBRANCH  26  27
ENDBRANCH   1  26
TORSDOF 16
ENDMDL
MODEL 2
REMARK VINA RESULT:     -12.2      3.407      9.268
REMARK SMILES O=C(CC1(NC(=O)c2ccc3cc[nH]c3c2)CCC1)NCCCNC(=O)c1ccc(-c2c3nc(c(-c4ccc(S(=O)(=O)[O-])cc4)c4ccc([nH]4)c(-c4ccc(S(=O)(=O)[O-])cc4)c4nc(c(-c5ccc(S(=O)(=O)[O-])cc5)c5ccc2[nH]5)C=C4)C=C3)cc1
REMARK SMILES IDX 22 1 21 2 20 3 1 4 2 5 3 7 4 8 17 9 19 10 18 11 5 12 6 13
REMARK SMILES IDX 7 15 8 16 9 17 16 18 10 19 15 20 11 21 14 22 12 23 13 24
REMARK SMILES IDX 23 26 24 27 25 28 26 30 27 31 28 32 86 33 29 34 85 35 30 36
REMARK SMILES IDX 31 37 32 38 79 39 33 40 84 41 78 42 80 43 34 44 83 45 77 46
REMARK SMILES IDX 76 47 35 49 65 50 46 51 64 52 47 53 50 54 63 55 81 56 48 57
REMARK SMILES IDX 49 58 62 60 82 61 51 62 36 63 37 64 45 65 38 66 44 67 39 68
REMARK SMILES IDX 40 69 41 70 42 71 43 72 66 73 67 74 75 75 68 76 74 77 69 78
REMARK SMILES IDX 70 79 71 80 72 81 73 82 52 83 53 84 61 85 54 86 60 87 55 88
REMARK SMILES IDX 56 89 57 90 58 91 59 92
REMARK H PARENT 20 6 5 14 14 25 24 29 80 48 50 59
REMARK Flexibility Score: inf
ROOT
ATOM      1  C   UNL A   1      31.902  31.723  26.618  1.00  0.00     0.042 C 
ENDROOT
BRANCH   1   2
ATOM      2  C   UNL A   1      31.735  30.254  26.980  1.00  0.00     0.117 C 
BRANCH   2   3
ATOM      3  N   UNL A   1      32.206  29.390  25.920  1.00  0.00    -0.356 N 
ATOM      4  O   UNL A   1      33.952  28.492  27.113  1.00  0.00    -0.275 OA
ATOM      5  C   UNL A   1      33.312  28.594  26.073  1.00  0.00     0.222 C 
ATOM      6  H   UNL A   1      31.717  29.372  25.065  1.00  0.00     0.163 HD
BRANCH   5   7
ATOM      7  C   UNL A   1      33.739  27.906  24.805  1.00  0.00     0.128 C 
BRANCH   7   8
ATOM      8  C   UNL A   1      33.288  26.459  24.591  1.00  0.00     0.049 C 
ATOM      9  C   UNL A   1      34.304  25.411  25.158  1.00  0.00     0.029 C 
ATOM     10  C   UNL A   1      32.288  25.952  25.689  1.00  0.00     0.029 C 
ATOM     11  C   UNL A   1      33.157  24.712  25.903  1.00  0.00     0.005 C 
BRANCH   8  12
ATOM     12  N   UNL A   1      32.814  26.043  23.224  1.00  0.00    -0.346 N 
ATOM     13  C   UNL A   1      31.847  26.459  22.332  1.00  0.00     0.251 C 
ATOM     14  H   UNL A   1      33.325  25.276  22.877  1.00  0.00     0.164 HD
ATOM     15  O   UNL A   1      31.785  25.935  21.223  1.00  0.00    -0.269 OA
BRANCH  13  16
ATOM     16  C   UNL A   1      30.817  27.429  22.715  1.00  0.00     0.041 A 
ATOM     17  C   UNL A   1      29.640  27.020  23.343  1.00  0.00     0.014 A 
ATOM     18  C   UNL A   1      31.025  28.755  22.305  1.00  0.00     0.040 A 
ATOM     19  C   UNL A   1      28.555  27.904  23.410  1.00  0.00     0.011 A 
ATOM     20  C   UNL A   1      29.921  29.609  22.366  1.00  0.00     0.046 A 
ATOM     21  C   UNL A   1      28.680  29.199  22.859  1.00  0.00    -0.001 A 
ATOM     22  N   UNL A   1      29.786  30.917  21.957  1.00  0.00    -0.361 N 
ATOM     23  C   UNL A   1      27.771  30.266  22.621  1.00  0.00     0.028 A 
ATOM     24  C   UNL A   1      28.475  31.301  22.049  1.00  0.00     0.083 A 
ATOM     25  H   UNL A   1      30.522  31.491  21.645  1.00  0.00     0.166 HD
ENDBRANCH  13  16
ENDBRANCH   8  12
ENDBRANCH   7   8
ENDBRANCH   5   7
ENDBRANCH   2   3
ENDBRANCH   1   2
BRANCH   1  26
ATOM     26  C   UNL A   1      32.988  32.439  27.417  1.00  0.00     0.118 C 
BRANCH  26  27
ATOM     27  N   UNL A   1      32.659  33.829  27.698  1.00  0.00    -0.352 N 
ATOM     28  C   UNL A   1      33.161  34.687  28.648  1.00  0.00     0.251 C 
ATOM     29  H   UNL A   1      31.965  34.216  27.116  1.00  0.00     0.163 HD
ATOM     30  O   UNL A   1      32.609  35.763  28.842  1.00  0.00    -0.269 OA
BRANCH  28  31
ATOM     31  C   UNL A   1      34.344  34.303  29.449  1.00  0.00     0.039 A 
ATOM     32  C   UNL A   1      34.148  33.769  30.725  1.00  0.00     0.014 A 
ATOM     33  C   UNL A   1      35.638  34.475  28.954  1.00  0.00     0.014 A 
ATOM     34  C   UNL A   1      35.246  33.329  31.469  1.00  0.00     0.010 A 
ATOM     35  C   UNL A   1      36.724  33.964  29.662  1.00  0.00     0.010 A 
ATOM     36  C   UNL A   1      36.539  33.376  30.922  1.00  0.00    -0.014 A 
BRANCH  36  37
ATOM     37  C   UNL A   1      37.704  32.786  31.633  1.00  0.00     0.031 A 
ATOM     38  C   UNL A   1      38.396  31.568  31.086  1.00  0.00     0.074 A 
ATOM     39  C   UNL A   1      38.089  33.304  32.818  1.00  0.00     0.049 A 
ATOM     40  N   UNL A   1      39.364  30.863  31.614  1.00  0.00    -0.248 NA
ATOM     41  C   UNL A   1      37.925  31.062  29.785  1.00  0.00     0.031 C 
ATOM     42  C   UNL A   1      37.483  34.466  33.473  1.00  0.00     0.029 A 
ATOM     43  N   UNL A   1      39.074  32.911  33.691  1.00  0.00    -0.354 N 
ATOM     44  C   UNL A   1      39.607  29.825  30.722  1.00  0.00     0.074 A 
ATOM     45  C   UNL A   1      38.655  29.964  29.642  1.00  0.00     0.031 C 
ATOM     46  C   UNL A   1      38.122  34.704  34.629  1.00  0.00     0.029 A 
ATOM     47  C   UNL A   1      39.146  33.684  34.826  1.00  0.00     0.049 A 
ATOM     48  H   UNL A   1      39.672  32.148  33.519  1.00  0.00     0.167 HD
ATOM     49  C   UNL A   1      40.548  28.852  30.790  1.00  0.00     0.031 A 
ATOM     50  C   UNL A   1      39.933  33.577  35.915  1.00  0.00     0.031 A 
ATOM     51  C   UNL A   1      41.495  28.716  31.866  1.00  0.00     0.049 A 
ATOM     52  C   UNL A   1      40.942  32.463  35.985  1.00  0.00     0.074 A 
ATOM     53  C   UNL A   1      42.519  27.794  31.998  1.00  0.00     0.029 A 
ATOM     54  N   UNL A   1      41.532  29.516  32.997  1.00  0.00    -0.354 N 
ATOM     55  N   UNL A   1      41.200  31.529  35.101  1.00  0.00    -0.248 NA
ATOM     56  C   UNL A   1      41.771  32.391  37.197  1.00  0.00     0.031 C 
ATOM     57  C   UNL A   1      43.131  27.995  33.238  1.00  0.00     0.029 A 
ATOM     58  C   UNL A   1      42.537  29.087  33.848  1.00  0.00     0.049 A 
ATOM     59  H   UNL A   1      40.931  30.278  33.171  1.00  0.00     0.167 HD
ATOM     60  C   UNL A   1      42.238  30.775  35.638  1.00  0.00     0.074 A 
ATOM     61  C   UNL A   1      42.571  31.372  36.915  1.00  0.00     0.031 C 
ATOM     62  C   UNL A   1      42.859  29.688  35.119  1.00  0.00     0.031 A 
BRANCH  49  63
ATOM     63  C   UNL A   1      40.592  27.843  29.670  1.00  0.00    -0.014 A 
ATOM     64  C   UNL A   1      39.642  26.809  29.582  1.00  0.00     0.010 A 
ATOM     65  C   UNL A   1      41.567  27.960  28.662  1.00  0.00     0.010 A 
ATOM     66  C   UNL A   1      39.691  25.888  28.532  1.00  0.00     0.020 A 
ATOM     67  C   UNL A   1      41.601  27.061  27.593  1.00  0.00     0.020 A 
ATOM     68  C   UNL A   1      40.672  26.019  27.545  1.00  0.00     0.054 A 
BRANCH  68  69
ATOM     69  S   UNL A   1      40.697  24.822  26.182  1.00  0.00     0.124 S 
ATOM     70  O   UNL A   1      39.296  24.411  26.119  1.00  0.00    -0.237 OA
ATOM     71  O   UNL A   1      41.164  25.629  25.058  1.00  0.00    -0.237 OA
ATOM     72  O   UNL A   1      41.627  23.794  26.638  1.00  0.00    -0.744 OA
ENDBRANCH  68  69
ENDBRANCH  49  63
BRANCH  50  73
ATOM     73  C   UNL A   1      39.794  34.552  37.032  1.00  0.00    -0.014 A 
ATOM     74  C   UNL A   1      40.476  35.781  36.999  1.00  0.00     0.010 A 
ATOM     75  C   UNL A   1      38.970  34.258  38.135  1.00  0.00     0.010 A 
ATOM     76  C   UNL A   1      40.350  36.690  38.053  1.00  0.00     0.020 A 
ATOM     77  C   UNL A   1      38.817  35.179  39.176  1.00  0.00     0.020 A 
ATOM     78  C   UNL A   1      39.518  36.385  39.133  1.00  0.00     0.054 A 
BRANCH  78  79
ATOM     79  S   UNL A   1      39.332  37.602  40.466  1.00  0.00     0.124 S 
ATOM     80  O   UNL A   1      38.240  38.433  39.967  1.00  0.00    -0.237 OA
ATOM     81  O   UNL A   1      39.013  36.760  41.616  1.00  0.00    -0.237 OA
ATOM     82  O   UNL A   1      40.640  38.251  40.521  1.00  0.00    -0.744 OA
ENDBRANCH  78  79
ENDBRANCH  50  73
BRANCH  62  83
ATOM     83  C   UNL A   1      43.988  29.083  35.913  1.00  0.00    -0.014 A 
ATOM     84  C   UNL A   1      45.289  29.612  35.852  1.00  0.00     0.010 A 
ATOM     85  C   UNL A   1      43.724  28.014  36.789  1.00  0.00     0.010 A 
ATOM     86  C   UNL A   1      46.311  29.068  36.635  1.00  0.00     0.020 A 
ATOM     87  C   UNL A   1      44.735  27.487  37.597  1.00  0.00     0.020 A 
ATOM     88  C   UNL A   1      46.026  28.012  37.506  1.00  0.00     0.054 A 
BRANCH  88  89
ATOM     89  S   UNL A   1      47.356  27.366  38.558  1.00  0.00     0.124 S 
ATOM     90  O   UNL A   1      46.609  26.760  39.657  1.00  0.00    -0.237 OA
ATOM     91  O   UNL A   1      48.038  26.428  37.670  1.00  0.00    -0.237 OA
ATOM     92  O   UNL A   1      48.128  28.555  38.911  1.00  0.00    -0.744 OA
ENDBRANCH  88  89
ENDBRANCH  62  83
ENDBRANCH  36  37
ENDBRANCH  28  31
ENDBRANCH  26  27
ENDBRANCH   1  26
TORSDOF 16
ENDMDL
MODEL 3
REMARK VINA RESULT:     -12.1      0.920      8.242
REMARK SMILES O=C(CC1(NC(=O)c2ccc3cc[nH]c3c2)CCC1)NCCCNC(=O)c1ccc(-c2c3nc(c(-c4ccc(S(=O)(=O)[O-])cc4)c4ccc([nH]4)c(-c4ccc(S(=O)(=O)[O-])cc4)c4nc(c(-c5ccc(S(=O)(=O)[O-])cc5)c5ccc2[nH]5)C=C4)C=C3)cc1
REMARK SMILES IDX 22 1 21 2 20 3 1 4 2 5 3 7 4 8 17 9 19 10 18 11 5 12 6 13
REMARK SMILES IDX 7 15 8 16 9 17 16 18 10 19 15 20 11 21 14 22 12 23 13 24
REMARK SMILES IDX 23 26 24 27 25 28 26 30 27 31 28 32 86 33 29 34 85 35 30 36
REMARK SMILES IDX 31 37 32 38 79 39 33 40 84 41 78 42 80 43 34 44 83 45 77 46
REMARK SMILES IDX 76 47 35 49 65 50 46 51 64 52 47 53 50 54 63 55 81 56 48 57
REMARK SMILES IDX 49 58 62 60 82 61 51 62 36 63 37 64 45 65 38 66 44 67 39 68
REMARK SMILES IDX 40 69 41 70 42 71 43 72 66 73 67 74 75 75 68 76 74 77 69 78
REMARK SMILES IDX 70 79 71 80 72 81 73 82 52 83 53 84 61 85 54 86 60 87 55 88
REMARK SMILES IDX 56 89 57 90 58 91 59 92
REMARK H PARENT 20 6 5 14 14 25 24 29 80 48 50 59
REMARK Flexibility Score: inf
ROOT
ATOM      1  C   UNL A   1      38.948  22.650  26.302  1.00  0.00     0.042 C 
ENDROOT
BRANCH   1   2
ATOM      2  C   UNL A   1      37.903  23.742  26.124  1.00  0.00     0.117 C 
BRANCH   2   3
ATOM      3  N   UNL A   1      37.049  23.480  24.987  1.00  0.00    -0.356 N 
ATOM      4  O   UNL A   1      35.102  23.313  26.194  1.00  0.00    -0.275 OA
ATOM      5  C   UNL A   1      35.704  23.253  25.129  1.00  0.00     0.222 C 
ATOM      6  H   UNL A   1      37.445  23.465  24.085  1.00  0.00     0.163 HD
BRANCH   5   7
ATOM      7  C   UNL A   1      35.027  22.830  23.854  1.00  0.00     0.128 C 
BRANCH   7   8
ATOM      8  C   UNL A   1      33.666  23.448  23.528  1.00  0.00     0.049 C 
ATOM      9  C   UNL A   1      33.737  24.993  23.283  1.00  0.00     0.029 C 
ATOM     10  C   UNL A   1      33.270  23.316  22.015  1.00  0.00     0.029 C 
ATOM     11  C   UNL A   1      32.965  24.814  21.968  1.00  0.00     0.005 C 
BRANCH   8  12
ATOM     12  N   UNL A   1      32.489  23.110  24.405  1.00  0.00    -0.346 N 
ATOM     13  C   UNL A   1      31.958  21.968  24.969  1.00  0.00     0.251 C 
ATOM     14  H   UNL A   1      31.962  23.909  24.634  1.00  0.00     0.164 HD
ATOM     15  O   UNL A   1      31.002  22.062  25.734  1.00  0.00    -0.269 OA
BRANCH  13  16
ATOM     16  C   UNL A   1      32.431  20.634  24.588  1.00  0.00     0.041 A 
ATOM     17  C   UNL A   1      32.315  20.176  23.276  1.00  0.00     0.014 A 
ATOM     18  C   UNL A   1      32.883  19.810  25.632  1.00  0.00     0.040 A 
ATOM     19  C   UNL A   1      32.478  18.809  23.009  1.00  0.00     0.011 A 
ATOM     20  C   UNL A   1      33.019  18.450  25.341  1.00  0.00     0.046 A 
ATOM     21  C   UNL A   1      32.776  17.926  24.070  1.00  0.00    -0.001 A 
ATOM     22  N   UNL A   1      33.349  17.396  26.163  1.00  0.00    -0.361 N 
ATOM     23  C   UNL A   1      32.856  16.511  24.188  1.00  0.00     0.028 A 
ATOM     24  C   UNL A   1      33.191  16.214  25.489  1.00  0.00     0.083 A 
ATOM     25  H   UNL A   1      33.653  17.478  27.095  1.00  0.00     0.166 HD
ENDBRANCH  13  16
ENDBRANCH   8  12
ENDBRANCH   7   8
ENDBRANCH   5   7
ENDBRANCH   2   3
ENDBRANCH   1   2
BRANCH   1  26
ATOM     26  C   UNL A   1      40.195  23.100  27.057  1.00  0.00     0.118 C 
BRANCH  26  27
ATOM     27  N   UNL A   1      41.246  23.585  26.174  1.00  0.00    -0.352 N 
ATOM     28  C   UNL A   1      41.826  24.828  26.081  1.00  0.00     0.251 C 
ATOM     29  H   UNL A   1      41.597  22.916  25.543  1.00  0.00     0.163 HD
ATOM     30  O   UNL A   1      42.563  25.081  25.135  1.00  0.00    -0.269 OA
BRANCH  28  31
ATOM     31  C   UNL A   1      41.540  25.862  27.099  1.00  0.00     0.039 A 
ATOM     32  C   UNL A   1      40.567  25.604  28.067  1.00  0.00     0.014 A 
ATOM     33  C   UNL A   1      42.218  27.083  27.098  1.00  0.00     0.014 A 
ATOM     34  C   UNL A   1      40.334  26.534  29.084  1.00  0.00     0.010 A 
ATOM     35  C   UNL A   1      42.042  27.974  28.155  1.00  0.00     0.010 A 
ATOM     36  C   UNL A   1      41.107  27.704  29.165  1.00  0.00    -0.014 A 
BRANCH  36  37
ATOM     37  C   UNL A   1      40.978  28.641  30.313  1.00  0.00     0.031 A 
ATOM     38  C   UNL A   1      41.855  28.488  31.525  1.00  0.00     0.074 A 
ATOM     39  C   UNL A   1      40.012  29.582  30.295  1.00  0.00     0.049 A 
ATOM     40  N   UNL A   1      41.823  29.149  32.654  1.00  0.00    -0.248 NA
ATOM     41  C   UNL A   1      42.890  27.443  31.470  1.00  0.00     0.031 C 
ATOM     42  C   UNL A   1      39.076  29.816  29.192  1.00  0.00     0.029 A 
ATOM     43  N   UNL A   1      39.647  30.511  31.239  1.00  0.00    -0.354 N 
ATOM     44  C   UNL A   1      42.818  28.591  33.449  1.00  0.00     0.074 A 
ATOM     45  C   UNL A   1      43.405  27.508  32.691  1.00  0.00     0.031 C 
ATOM     46  C   UNL A   1      38.262  30.834  29.512  1.00  0.00     0.029 A 
ATOM     47  C   UNL A   1      38.579  31.291  30.861  1.00  0.00     0.049 A 
ATOM     48  H   UNL A   1      40.107  30.608  32.104  1.00  0.00     0.167 HD
ATOM     49  C   UNL A   1      43.216  28.958  34.691  1.00  0.00     0.031 A 
ATOM     50  C   UNL A   1      37.914  32.255  31.529  1.00  0.00     0.031 A 
ATOM     51  C   UNL A   1      42.629  30.037  35.442  1.00  0.00     0.049 A 
ATOM     52  C   UNL A   1      38.349  32.615  32.924  1.00  0.00     0.074 A 
ATOM     53  C   UNL A   1      42.997  30.517  36.687  1.00  0.00     0.029 A 
ATOM     54  N   UNL A   1      41.548  30.799  35.026  1.00  0.00    -0.354 N 
ATOM     55  N   UNL A   1      39.334  32.119  33.633  1.00  0.00    -0.248 NA
ATOM     56  C   UNL A   1      37.586  33.670  33.606  1.00  0.00     0.031 C 
ATOM     57  C   UNL A   1      42.099  31.523  37.052  1.00  0.00     0.029 A 
ATOM     58  C   UNL A   1      41.214  31.721  36.005  1.00  0.00     0.049 A 
ATOM     59  H   UNL A   1      41.085  30.700  34.162  1.00  0.00     0.167 HD
ATOM     60  C   UNL A   1      39.326  32.820  34.835  1.00  0.00     0.074 A 
ATOM     61  C   UNL A   1      38.248  33.784  34.749  1.00  0.00     0.031 C 
ATOM     62  C   UNL A   1      40.138  32.676  35.910  1.00  0.00     0.031 A 
BRANCH  49  63
ATOM     63  C   UNL A   1      44.335  28.173  35.327  1.00  0.00    -0.014 A 
ATOM     64  C   UNL A   1      45.678  28.566  35.178  1.00  0.00     0.010 A 
ATOM     65  C   UNL A   1      44.037  27.055  36.128  1.00  0.00     0.010 A 
ATOM     66  C   UNL A   1      46.702  27.833  35.782  1.00  0.00     0.020 A 
ATOM     67  C   UNL A   1      45.056  26.337  36.760  1.00  0.00     0.020 A 
ATOM     68  C   UNL A   1      46.384  26.722  36.567  1.00  0.00     0.054 A 
BRANCH  68  69
ATOM     69  S   UNL A   1      47.735  25.803  37.358  1.00  0.00     0.124 S 
ATOM     70  O   UNL A   1      47.065  24.565  37.751  1.00  0.00    -0.237 OA
ATOM     71  O   UNL A   1      48.708  25.674  36.277  1.00  0.00    -0.237 OA
ATOM     72  O   UNL A   1      48.144  26.667  38.462  1.00  0.00    -0.744 OA
ENDBRANCH  68  69
ENDBRANCH  49  63
BRANCH  50  73
ATOM     73  C   UNL A   1      36.761  32.945  30.887  1.00  0.00    -0.014 A 
ATOM     74  C   UNL A   1      35.448  32.705  31.326  1.00  0.00     0.010 A 
ATOM     75  C   UNL A   1      36.973  33.854  29.833  1.00  0.00     0.010 A 
ATOM     76  C   UNL A   1      34.367  33.347  30.715  1.00  0.00     0.020 A 
ATOM     77  C   UNL A   1      35.898  34.523  29.240  1.00  0.00     0.020 A 
ATOM     78  C   UNL A   1      34.599  34.255  29.679  1.00  0.00     0.054 A 
BRANCH  78  79
ATOM     79  S   UNL A   1      33.185  35.115  28.934  1.00  0.00     0.124 S 
ATOM     80  O   UNL A   1      33.821  36.286  28.338  1.00  0.00    -0.237 OA
ATOM     81  O   UNL A   1      32.676  34.121  27.992  1.00  0.00    -0.237 OA
ATOM     82  O   UNL A   1      32.312  35.387  30.074  1.00  0.00    -0.744 OA
ENDBRANCH  78  79
ENDBRANCH  50  73
BRANCH  62  83
ATOM     83  C   UNL A   1      39.920  33.603  37.078  1.00  0.00    -0.014 A 
ATOM     84  C   UNL A   1      40.507  34.880  37.116  1.00  0.00     0.010 A 
ATOM     85  C   UNL A   1      39.056  33.215  38.119  1.00  0.00     0.010 A 
ATOM     86  C   UNL A   1      40.251  35.744  38.185  1.00  0.00     0.020 A 
ATOM     87  C   UNL A   1      38.773  34.087  39.173  1.00  0.00     0.020 A 
ATOM     88  C   UNL A   1      39.381  35.344  39.205  1.00  0.00     0.054 A 
BRANCH  88  89
ATOM     89  S   UNL A   1      39.017  36.508  40.547  1.00  0.00     0.124 S 
ATOM     90  O   UNL A   1      38.018  35.777  41.321  1.00  0.00    -0.237 OA
ATOM     91  O   UNL A   1      40.318  36.668  41.192  1.00  0.00    -0.237 OA
ATOM     92  O   UNL A   1      38.522  37.694  39.853  1.00  0.00    -0.744 OA
ENDBRANCH  88  89
ENDBRANCH  62  83
ENDBRANCH  36  37
ENDBRANCH  28  31
ENDBRANCH  26  27
ENDBRANCH   1  26
TORSDOF 16
ENDMDL
