MODEL 1
REMARK VINA RESULT:     -12.8      0.000      0.000
REMARK SMILES O=C(NCCCNC(=O)c1ccc(-n2cnc3ccccc32)nc1)c1ccc(-c2c3nc(c(-c4ccc(S(=O)(=O)[O-])cc4)c4ccc([nH]4)c(-c4ccc(S(=O)(=O)[O-])cc4)c4nc(c(-c5ccc(S(=O)(=O)[O-])cc5)c5ccc2[nH]5)C=C4)C=C3)cc1
REMARK SMILES IDX 4 1 3 2 1 3 2 4 25 6 26 7 84 8 27 9 83 10 28 11 29 12 30 13
REMARK SMILES IDX 77 14 31 15 82 16 76 17 78 18 32 19 81 20 75 21 74 22 33 24
REMARK SMILES IDX 63 25 44 26 62 27 45 28 48 29 61 30 79 31 46 32 47 33 60 35
REMARK SMILES IDX 80 36 49 37 34 38 35 39 43 40 36 41 42 42 37 43 38 44 39 45
REMARK SMILES IDX 40 46 41 47 64 48 65 49 73 50 66 51 72 52 67 53 68 54 69 55
REMARK SMILES IDX 70 56 71 57 50 58 51 59 59 60 52 61 58 62 53 63 54 64 55 65
REMARK SMILES IDX 56 66 57 67 5 68 6 69 7 70 8 71 9 73 10 74 11 75 24 76 12 77
REMARK SMILES IDX 23 78 13 79 14 80 15 81 22 82 16 83 17 84 21 85 18 86 20 87
REMARK SMILES IDX 19 88
REMARK H PARENT 3 5 78 23 48 34 7 72
REMARK Flexibility Score: inf
ROOT
ATOM      1  C   UNL A   1      39.902  22.181  26.317  1.00  0.00     0.118 C 
ENDROOT
BRANCH   1   2
ATOM      2  N   UNL A   1      41.277  22.219  25.788  1.00  0.00    -0.352 N 
ATOM      3  O   UNL A   1      43.129  23.316  25.033  1.00  0.00    -0.269 OA
ATOM      4  C   UNL A   1      42.157  23.295  25.788  1.00  0.00     0.251 C 
ATOM      5  H   UNL A   1      41.611  21.384  25.387  1.00  0.00     0.163 HD
BRANCH   4   6
ATOM      6  C   UNL A   1      41.898  24.396  26.731  1.00  0.00     0.039 A 
ATOM      7  C   UNL A   1      42.578  24.596  27.932  1.00  0.00     0.014 A 
ATOM      8  C   UNL A   1      40.982  25.333  26.289  1.00  0.00     0.014 A 
ATOM      9  C   UNL A   1      42.322  25.778  28.630  1.00  0.00     0.010 A 
ATOM     10  C   UNL A   1      41.119  26.612  26.714  1.00  0.00     0.010 A 
ATOM     11  C   UNL A   1      41.577  26.789  27.995  1.00  0.00    -0.014 A 
BRANCH  11  12
ATOM     12  C   UNL A   1      41.280  28.086  28.576  1.00  0.00     0.031 A 
ATOM     13  C   UNL A   1      42.284  29.106  28.244  1.00  0.00     0.074 A 
ATOM     14  C   UNL A   1      40.119  28.387  29.208  1.00  0.00     0.049 A 
ATOM     15  N   UNL A   1      43.253  29.484  29.000  1.00  0.00    -0.248 NA
ATOM     16  C   UNL A   1      42.372  29.589  26.859  1.00  0.00     0.031 C 
ATOM     17  C   UNL A   1      38.897  27.577  29.363  1.00  0.00     0.029 A 
ATOM     18  N   UNL A   1      39.761  29.553  29.805  1.00  0.00    -0.354 N 
ATOM     19  C   UNL A   1      43.929  30.453  28.281  1.00  0.00     0.074 A 
ATOM     20  C   UNL A   1      43.495  30.309  26.914  1.00  0.00     0.031 C 
ATOM     21  C   UNL A   1      37.882  28.349  29.819  1.00  0.00     0.029 A 
ATOM     22  C   UNL A   1      38.420  29.648  30.169  1.00  0.00     0.049 A 
ATOM     23  H   UNL A   1      40.404  30.281  29.968  1.00  0.00     0.167 HD
ATOM     24  C   UNL A   1      44.582  31.457  28.929  1.00  0.00     0.031 A 
ATOM     25  C   UNL A   1      37.807  30.704  30.766  1.00  0.00     0.031 A 
ATOM     26  C   UNL A   1      44.683  31.179  30.342  1.00  0.00     0.049 A 
ATOM     27  C   UNL A   1      38.883  31.479  31.430  1.00  0.00     0.074 A 
ATOM     28  C   UNL A   1      45.292  30.193  31.092  1.00  0.00     0.029 A 
ATOM     29  N   UNL A   1      43.708  31.729  31.143  1.00  0.00    -0.354 N 
ATOM     30  N   UNL A   1      39.580  31.021  32.433  1.00  0.00    -0.248 NA
ATOM     31  C   UNL A   1      39.494  32.566  30.684  1.00  0.00     0.031 C 
ATOM     32  C   UNL A   1      44.370  29.900  32.138  1.00  0.00     0.029 A 
ATOM     33  C   UNL A   1      43.289  30.782  32.044  1.00  0.00     0.049 A 
ATOM     34  H   UNL A   1      43.367  32.651  31.082  1.00  0.00     0.167 HD
ATOM     35  C   UNL A   1      40.879  31.437  32.175  1.00  0.00     0.074 A 
ATOM     36  C   UNL A   1      40.745  32.464  31.140  1.00  0.00     0.031 C 
ATOM     37  C   UNL A   1      41.953  30.719  32.618  1.00  0.00     0.031 A 
BRANCH  24  38
ATOM     38  C   UNL A   1      44.777  32.837  28.364  1.00  0.00    -0.014 A 
ATOM     39  C   UNL A   1      43.717  33.701  28.020  1.00  0.00     0.010 A 
ATOM     40  C   UNL A   1      46.072  33.389  28.371  1.00  0.00     0.010 A 
ATOM     41  C   UNL A   1      43.931  35.035  27.675  1.00  0.00     0.020 A 
ATOM     42  C   UNL A   1      46.295  34.737  28.066  1.00  0.00     0.020 A 
ATOM     43  C   UNL A   1      45.222  35.547  27.705  1.00  0.00     0.054 A 
BRANCH  43  44
ATOM     44  S   UNL A   1      45.454  37.292  27.296  1.00  0.00     0.124 S 
ATOM     45  O   UNL A   1      46.403  37.214  26.189  1.00  0.00    -0.237 OA
ATOM     46  O   UNL A   1      44.101  37.711  26.939  1.00  0.00    -0.237 OA
ATOM     47  O   UNL A   1      45.981  37.865  28.532  1.00  0.00    -0.744 OA
ENDBRANCH  43  44
ENDBRANCH  24  38
BRANCH  25  48
ATOM     48  C   UNL A   1      36.511  31.339  30.393  1.00  0.00    -0.014 A 
ATOM     49  C   UNL A   1      36.202  31.567  29.038  1.00  0.00     0.010 A 
ATOM     50  C   UNL A   1      35.755  32.032  31.363  1.00  0.00     0.010 A 
ATOM     51  C   UNL A   1      35.255  32.529  28.660  1.00  0.00     0.020 A 
ATOM     52  C   UNL A   1      34.802  32.999  30.991  1.00  0.00     0.020 A 
ATOM     53  C   UNL A   1      34.593  33.273  29.639  1.00  0.00     0.054 A 
BRANCH  53  54
ATOM     54  S   UNL A   1      33.547  34.663  29.109  1.00  0.00     0.124 S 
ATOM     55  O   UNL A   1      32.925  35.070  30.365  1.00  0.00    -0.237 OA
ATOM     56  O   UNL A   1      34.523  35.601  28.558  1.00  0.00    -0.237 OA
ATOM     57  O   UNL A   1      32.644  34.064  28.129  1.00  0.00    -0.744 OA
ENDBRANCH  53  54
ENDBRANCH  25  48
BRANCH  37  58
ATOM     58  C   UNL A   1      41.730  29.626  33.649  1.00  0.00    -0.014 A 
ATOM     59  C   UNL A   1      42.141  29.907  34.966  1.00  0.00     0.010 A 
ATOM     60  C   UNL A   1      41.329  28.309  33.345  1.00  0.00     0.010 A 
ATOM     61  C   UNL A   1      42.205  28.906  35.935  1.00  0.00     0.020 A 
ATOM     62  C   UNL A   1      41.362  27.300  34.328  1.00  0.00     0.020 A 
ATOM     63  C   UNL A   1      41.828  27.604  35.610  1.00  0.00     0.054 A 
BRANCH  63  64
ATOM     64  S   UNL A   1      41.989  26.330  36.892  1.00  0.00     0.124 S 
ATOM     65  O   UNL A   1      40.632  26.257  37.432  1.00  0.00    -0.237 OA
ATOM     66  O   UNL A   1      42.417  25.158  36.130  1.00  0.00    -0.237 OA
ATOM     67  O   UNL A   1      42.992  26.870  37.807  1.00  0.00    -0.744 OA
ENDBRANCH  63  64
ENDBRANCH  37  58
ENDBRANCH  11  12
ENDBRANCH   4   6
ENDBRANCH   1   2
BRANCH   1  68
ATOM     68  C   UNL A   1      39.070  21.032  25.797  1.00  0.00     0.042 C 
BRANCH  68  69
ATOM     69  C   UNL A   1      37.662  21.474  25.405  1.00  0.00     0.118 C 
BRANCH  69  70
ATOM     70  N   UNL A   1      36.798  20.374  24.970  1.00  0.00    -0.352 N 
ATOM     71  C   UNL A   1      35.427  20.310  24.949  1.00  0.00     0.252 C 
ATOM     72  H   UNL A   1      37.264  19.570  24.649  1.00  0.00     0.163 HD
ATOM     73  O   UNL A   1      34.833  19.270  24.669  1.00  0.00    -0.269 OA
BRANCH  71  74
ATOM     74  C   UNL A   1      34.662  21.517  25.255  1.00  0.00     0.058 A 
ATOM     75  C   UNL A   1      34.276  21.784  26.565  1.00  0.00     0.019 A 
ATOM     76  C   UNL A   1      34.256  22.369  24.240  1.00  0.00     0.127 A 
ATOM     77  C   UNL A   1      33.436  22.855  26.804  1.00  0.00     0.048 A 
ATOM     78  N   UNL A   1      33.421  23.421  24.445  1.00  0.00    -0.238 NA
ATOM     79  C   UNL A   1      33.055  23.660  25.730  1.00  0.00     0.138 A 
BRANCH  79  80
ATOM     80  N   UNL A   1      32.262  24.793  26.009  1.00  0.00    -0.283 N 
ATOM     81  C   UNL A   1      30.898  24.811  26.162  1.00  0.00     0.206 A 
ATOM     82  C   UNL A   1      32.708  26.092  26.178  1.00  0.00     0.074 A 
ATOM     83  N   UNL A   1      30.463  25.988  26.565  1.00  0.00    -0.236 NA
ATOM     84  C   UNL A   1      31.573  26.798  26.557  1.00  0.00     0.089 A 
ATOM     85  C   UNL A   1      33.954  26.712  25.976  1.00  0.00     0.029 A 
ATOM     86  C   UNL A   1      31.687  28.169  26.834  1.00  0.00     0.030 A 
ATOM     87  C   UNL A   1      34.043  28.078  26.232  1.00  0.00     0.002 A 
ATOM     88  C   UNL A   1      32.931  28.797  26.667  1.00  0.00     0.002 A 
ENDBRANCH  79  80
ENDBRANCH  71  74
ENDBRANCH  69  70
ENDBRANCH  68  69
ENDBRANCH   1  68
TORSDOF 14
ENDMDL
MODEL 2
REMARK VINA RESULT:     -12.3      3.325      8.814
REMARK SMILES O=C(NCCCNC(=O)c1ccc(-n2cnc3ccccc32)nc1)c1ccc(-c2c3nc(c(-c4ccc(S(=O)(=O)[O-])cc4)c4ccc([nH]4)c(-c4ccc(S(=O)(=O)[O-])cc4)c4nc(c(-c5ccc(S(=O)(=O)[O-])cc5)c5ccc2[nH]5)C=C4)C=C3)cc1
REMARK SMILES IDX 4 1 3 2 1 3 2 4 25 6 26 7 84 8 27 9 83 10 28 11 29 12 30 13
REMARK SMILES IDX 77 14 31 15 82 16 76 17 78 18 32 19 81 20 75 21 74 22 33 24
REMARK SMILES IDX 63 25 44 26 62 27 45 28 48 29 61 30 79 31 46 32 47 33 60 35
REMARK SMILES IDX 80 36 49 37 34 38 35 39 43 40 36 41 42 42 37 43 38 44 39 45
REMARK SMILES IDX 40 46 41 47 64 48 65 49 73 50 66 51 72 52 67 53 68 54 69 55
REMARK SMILES IDX 70 56 71 57 50 58 51 59 59 60 52 61 58 62 53 63 54 64 55 65
REMARK SMILES IDX 56 66 57 67 5 68 6 69 7 70 8 71 9 73 10 74 11 75 24 76 12 77
REMARK SMILES IDX 23 78 13 79 14 80 15 81 22 82 16 83 17 84 21 85 18 86 20 87
REMARK SMILES IDX 19 88
REMARK H PARENT 3 5 78 23 48 34 7 72
REMARK Flexibility Score: inf
ROOT
ATOM      1  C   UNL A   1      32.560  32.158  27.073  1.00  0.00     0.118 C 
ENDROOT
BRANCH   1   2
ATOM      2  N   UNL A   1      32.286  33.580  27.347  1.00  0.00    -0.352 N 
ATOM      3  O   UNL A   1      32.339  35.436  28.671  1.00  0.00    -0.269 OA
ATOM      4  C   UNL A   1      32.874  34.387  28.314  1.00  0.00     0.251 C 
ATOM      5  H   UNL A   1      31.606  34.008  26.778  1.00  0.00     0.163 HD
BRANCH   4   6
ATOM      6  C   UNL A   1      34.163  33.954  28.881  1.00  0.00     0.039 A 
ATOM      7  C   UNL A   1      34.309  33.176  30.028  1.00  0.00     0.014 A 
ATOM      8  C   UNL A   1      35.269  34.277  28.116  1.00  0.00     0.014 A 
ATOM      9  C   UNL A   1      35.592  32.718  30.338  1.00  0.00     0.010 A 
ATOM     10  C   UNL A   1      36.346  33.458  28.171  1.00  0.00     0.010 A 
ATOM     11  C   UNL A   1      36.613  32.873  29.382  1.00  0.00    -0.014 A 
BRANCH  11  12
ATOM     12  C   UNL A   1      37.977  32.399  29.545  1.00  0.00     0.031 A 
ATOM     13  C   UNL A   1      38.109  30.952  29.330  1.00  0.00     0.074 A 
ATOM     14  C   UNL A   1      39.049  33.213  29.701  1.00  0.00     0.049 A 
ATOM     15  N   UNL A   1      38.159  30.054  30.251  1.00  0.00    -0.248 NA
ATOM     16  C   UNL A   1      37.935  30.418  27.972  1.00  0.00     0.031 C 
ATOM     17  C   UNL A   1      39.129  34.683  29.638  1.00  0.00     0.029 A 
ATOM     18  N   UNL A   1      40.350  32.868  29.887  1.00  0.00    -0.354 N 
ATOM     19  C   UNL A   1      38.287  28.848  29.586  1.00  0.00     0.074 A 
ATOM     20  C   UNL A   1      37.914  29.106  28.218  1.00  0.00     0.031 C 
ATOM     21  C   UNL A   1      40.425  35.077  29.575  1.00  0.00     0.029 A 
ATOM     22  C   UNL A   1      41.264  33.914  29.784  1.00  0.00     0.049 A 
ATOM     23  H   UNL A   1      40.627  31.944  30.081  1.00  0.00     0.167 HD
ATOM     24  C   UNL A   1      38.946  27.810  30.171  1.00  0.00     0.031 A 
ATOM     25  C   UNL A   1      42.614  33.837  29.915  1.00  0.00     0.031 A 
ATOM     26  C   UNL A   1      39.187  28.075  31.570  1.00  0.00     0.049 A 
ATOM     27  C   UNL A   1      42.879  32.605  30.697  1.00  0.00     0.074 A 
ATOM     28  C   UNL A   1      38.376  28.282  32.668  1.00  0.00     0.029 A 
ATOM     29  N   UNL A   1      40.414  28.613  31.886  1.00  0.00    -0.354 N 
ATOM     30  N   UNL A   1      42.519  32.457  31.942  1.00  0.00    -0.248 NA
ATOM     31  C   UNL A   1      43.122  31.375  29.962  1.00  0.00     0.031 C 
ATOM     32  C   UNL A   1      39.016  29.316  33.410  1.00  0.00     0.029 A 
ATOM     33  C   UNL A   1      40.232  29.626  32.794  1.00  0.00     0.049 A 
ATOM     34  H   UNL A   1      41.280  28.319  31.523  1.00  0.00     0.167 HD
ATOM     35  C   UNL A   1      42.058  31.149  32.018  1.00  0.00     0.074 A 
ATOM     36  C   UNL A   1      42.545  30.507  30.797  1.00  0.00     0.031 C 
ATOM     37  C   UNL A   1      41.097  30.790  32.920  1.00  0.00     0.031 A 
BRANCH  24  38
ATOM     38  C   UNL A   1      39.699  26.755  29.409  1.00  0.00    -0.014 A 
ATOM     39  C   UNL A   1      39.094  25.619  28.835  1.00  0.00     0.010 A 
ATOM     40  C   UNL A   1      41.041  27.007  29.061  1.00  0.00     0.010 A 
ATOM     41  C   UNL A   1      39.787  24.761  27.982  1.00  0.00     0.020 A 
ATOM     42  C   UNL A   1      41.735  26.176  28.173  1.00  0.00     0.020 A 
ATOM     43  C   UNL A   1      41.105  25.049  27.652  1.00  0.00     0.054 A 
BRANCH  43  44
ATOM     44  S   UNL A   1      41.956  23.939  26.507  1.00  0.00     0.124 S 
ATOM     45  O   UNL A   1      42.311  24.849  25.421  1.00  0.00    -0.237 OA
ATOM     46  O   UNL A   1      43.072  23.455  27.314  1.00  0.00    -0.237 OA
ATOM     47  O   UNL A   1      40.941  22.941  26.180  1.00  0.00    -0.744 OA
ENDBRANCH  43  44
ENDBRANCH  24  38
BRANCH  25  48
ATOM     48  C   UNL A   1      43.653  34.430  29.026  1.00  0.00    -0.014 A 
ATOM     49  C   UNL A   1      43.370  34.661  27.666  1.00  0.00     0.010 A 
ATOM     50  C   UNL A   1      45.008  34.434  29.423  1.00  0.00     0.010 A 
ATOM     51  C   UNL A   1      44.397  34.779  26.720  1.00  0.00     0.020 A 
ATOM     52  C   UNL A   1      46.045  34.553  28.478  1.00  0.00     0.020 A 
ATOM     53  C   UNL A   1      45.729  34.678  27.125  1.00  0.00     0.054 A 
BRANCH  53  54
ATOM     54  S   UNL A   1      47.020  34.607  25.846  1.00  0.00     0.124 S 
ATOM     55  O   UNL A   1      46.229  34.582  24.619  1.00  0.00    -0.237 OA
ATOM     56  O   UNL A   1      47.769  35.839  26.083  1.00  0.00    -0.237 OA
ATOM     57  O   UNL A   1      47.743  33.375  26.149  1.00  0.00    -0.744 OA
ENDBRANCH  53  54
ENDBRANCH  25  48
BRANCH  37  58
ATOM     58  C   UNL A   1      40.746  31.753  34.042  1.00  0.00    -0.014 A 
ATOM     59  C   UNL A   1      39.837  32.781  33.730  1.00  0.00     0.010 A 
ATOM     60  C   UNL A   1      41.404  31.802  35.289  1.00  0.00     0.010 A 
ATOM     61  C   UNL A   1      39.627  33.852  34.599  1.00  0.00     0.020 A 
ATOM     62  C   UNL A   1      41.172  32.865  36.184  1.00  0.00     0.020 A 
ATOM     63  C   UNL A   1      40.304  33.896  35.817  1.00  0.00     0.054 A 
BRANCH  63  64
ATOM     64  S   UNL A   1      40.038  35.342  36.882  1.00  0.00     0.124 S 
ATOM     65  O   UNL A   1      39.652  36.372  35.918  1.00  0.00    -0.237 OA
ATOM     66  O   UNL A   1      38.968  34.893  37.772  1.00  0.00    -0.237 OA
ATOM     67  O   UNL A   1      41.331  35.551  37.529  1.00  0.00    -0.744 OA
ENDBRANCH  63  64
ENDBRANCH  37  58
ENDBRANCH  11  12
ENDBRANCH   4   6
ENDBRANCH   1   2
BRANCH   1  68
ATOM     68  C   UNL A   1      31.388  31.402  26.492  1.00  0.00     0.042 C 
BRANCH  68  69
ATOM     69  C   UNL A   1      31.832  30.177  25.697  1.00  0.00     0.118 C 
BRANCH  69  70
ATOM     70  N   UNL A   1      31.196  30.064  24.382  1.00  0.00    -0.352 N 
ATOM     71  C   UNL A   1      31.088  28.967  23.566  1.00  0.00     0.252 C 
ATOM     72  H   UNL A   1      30.789  30.891  24.036  1.00  0.00     0.163 HD
ATOM     73  O   UNL A   1      30.629  29.050  22.427  1.00  0.00    -0.269 OA
BRANCH  71  74
ATOM     74  C   UNL A   1      31.522  27.667  24.074  1.00  0.00     0.058 A 
ATOM     75  C   UNL A   1      32.793  27.188  23.772  1.00  0.00     0.019 A 
ATOM     76  C   UNL A   1      30.652  26.872  24.805  1.00  0.00     0.127 A 
ATOM     77  C   UNL A   1      33.123  25.899  24.147  1.00  0.00     0.048 A 
ATOM     78  N   UNL A   1      30.947  25.599  25.175  1.00  0.00    -0.238 NA
ATOM     79  C   UNL A   1      32.190  25.151  24.865  1.00  0.00     0.138 A 
BRANCH  79  80
ATOM     80  N   UNL A   1      32.578  23.869  25.307  1.00  0.00    -0.283 N 
ATOM     81  C   UNL A   1      33.122  23.562  26.530  1.00  0.00     0.206 A 
ATOM     82  C   UNL A   1      32.485  22.687  24.594  1.00  0.00     0.074 A 
ATOM     83  N   UNL A   1      33.238  22.261  26.705  1.00  0.00    -0.236 NA
ATOM     84  C   UNL A   1      32.868  21.707  25.504  1.00  0.00     0.089 A 
ATOM     85  C   UNL A   1      32.173  22.396  23.255  1.00  0.00     0.029 A 
ATOM     86  C   UNL A   1      32.862  20.364  25.097  1.00  0.00     0.030 A 
ATOM     87  C   UNL A   1      32.196  21.060  22.863  1.00  0.00     0.002 A 
ATOM     88  C   UNL A   1      32.522  20.055  23.771  1.00  0.00     0.002 A 
ENDBRANCH  79  80
ENDBRANCH  71  74
ENDBRANCH  69  70
ENDBRANCH  68  69
ENDBRANCH   1  68
TORSDOF 14
ENDMDL
MODEL 3
REMARK VINA RESULT:     -12.3      3.688      6.888
REMARK SMILES O=C(NCCCNC(=O)c1ccc(-n2cnc3ccccc32)nc1)c1ccc(-c2c3nc(c(-c4ccc(S(=O)(=O)[O-])cc4)c4ccc([nH]4)c(-c4ccc(S(=O)(=O)[O-])cc4)c4nc(c(-c5ccc(S(=O)(=O)[O-])cc5)c5ccc2[nH]5)C=C4)C=C3)cc1
REMARK SMILES IDX 4 1 3 2 1 3 2 4 25 6 26 7 84 8 27 9 83 10 28 11 29 12 30 13
REMARK SMILES IDX 77 14 31 15 82 16 76 17 78 18 32 19 81 20 75 21 74 22 33 24
REMARK SMILES IDX 63 25 44 26 62 27 45 28 48 29 61 30 79 31 46 32 47 33 60 35
REMARK SMILES IDX 80 36 49 37 34 38 35 39 43 40 36 41 42 42 37 43 38 44 39 45
REMARK SMILES IDX 40 46 41 47 64 48 65 49 73 50 66 51 72 52 67 53 68 54 69 55
REMARK SMILES IDX 70 56 71 57 50 58 51 59 59 60 52 61 58 62 53 63 54 64 55 65
REMARK SMILES IDX 56 66 57 67 5 68 6 69 7 70 8 71 9 73 10 74 11 75 24 76 12 77
REMARK SMILES IDX 23 78 13 79 14 80 15 81 22 82 16 83 17 84 21 85 18 86 20 87
REMARK SMILES IDX 19 88
REMARK H PARENT 3 5 78 23 48 34 7 72
REMARK Flexibility Score: inf
ROOT
ATOM      1  C   UNL A   1      42.972  22.778  25.252  1.00  0.00     0.118 C 
ENDROOT
BRANCH   1   2
ATOM      2  N   UNL A   1      41.730  22.232  25.827  1.00  0.00    -0.352 N 
ATOM      3  O   UNL A   1      40.120  22.120  27.439  1.00  0.00    -0.269 OA
ATOM      4  C   UNL A   1      40.924  22.803  26.805  1.00  0.00     0.251 C 
ATOM      5  H   UNL A   1      41.437  21.358  25.477  1.00  0.00     0.163 HD
BRANCH   4   6
ATOM      6  C   UNL A   1      41.051  24.250  27.043  1.00  0.00     0.039 A 
ATOM      7  C   UNL A   1      40.372  25.240  26.332  1.00  0.00     0.014 A 
ATOM      8  C   UNL A   1      41.828  24.591  28.135  1.00  0.00     0.014 A 
ATOM      9  C   UNL A   1      40.481  26.554  26.791  1.00  0.00     0.010 A 
ATOM     10  C   UNL A   1      41.530  25.733  28.801  1.00  0.00     0.010 A 
ATOM     11  C   UNL A   1      41.075  26.784  28.046  1.00  0.00    -0.014 A 
BRANCH  11  12
ATOM     12  C   UNL A   1      41.208  28.088  28.671  1.00  0.00     0.031 A 
ATOM     13  C   UNL A   1      42.454  28.775  28.301  1.00  0.00     0.074 A 
ATOM     14  C   UNL A   1      40.224  28.696  29.377  1.00  0.00     0.049 A 
ATOM     15  N   UNL A   1      43.528  28.820  29.007  1.00  0.00    -0.248 NA
ATOM     16  C   UNL A   1      42.612  29.263  26.924  1.00  0.00     0.031 C 
ATOM     17  C   UNL A   1      38.826  28.280  29.587  1.00  0.00     0.029 A 
ATOM     18  N   UNL A   1      40.261  29.892  30.019  1.00  0.00    -0.354 N 
ATOM     19  C   UNL A   1      44.425  29.571  28.269  1.00  0.00     0.074 A 
ATOM     20  C   UNL A   1      43.899  29.614  26.928  1.00  0.00     0.031 C 
ATOM     21  C   UNL A   1      38.111  29.301  30.120  1.00  0.00     0.029 A 
ATOM     22  C   UNL A   1      39.030  30.367  30.464  1.00  0.00     0.049 A 
ATOM     23  H   UNL A   1      41.099  30.390  30.159  1.00  0.00     0.167 HD
ATOM     24  C   UNL A   1      45.380  30.311  28.897  1.00  0.00     0.031 A 
ATOM     25  C   UNL A   1      38.791  31.534  31.118  1.00  0.00     0.031 A 
ATOM     26  C   UNL A   1      45.465  29.962  30.297  1.00  0.00     0.049 A 
ATOM     27  C   UNL A   1      40.081  31.929  31.733  1.00  0.00     0.074 A 
ATOM     28  C   UNL A   1      45.789  28.812  30.987  1.00  0.00     0.029 A 
ATOM     29  N   UNL A   1      44.740  30.747  31.165  1.00  0.00    -0.354 N 
ATOM     30  N   UNL A   1      40.659  31.247  32.683  1.00  0.00    -0.248 NA
ATOM     31  C   UNL A   1      40.950  32.813  30.975  1.00  0.00     0.031 C 
ATOM     32  C   UNL A   1      44.876  28.767  32.080  1.00  0.00     0.029 A 
ATOM     33  C   UNL A   1      44.103  29.933  32.069  1.00  0.00     0.049 A 
ATOM     34  H   UNL A   1      44.687  31.729  31.144  1.00  0.00     0.167 HD
ATOM     35  C   UNL A   1      42.008  31.269  32.357  1.00  0.00     0.074 A 
ATOM     36  C   UNL A   1      42.135  32.327  31.354  1.00  0.00     0.031 C 
ATOM     37  C   UNL A   1      42.840  30.248  32.720  1.00  0.00     0.031 A 
BRANCH  24  38
ATOM     38  C   UNL A   1      45.949  31.591  28.351  1.00  0.00    -0.014 A 
ATOM     39  C   UNL A   1      47.232  31.696  27.776  1.00  0.00     0.010 A 
ATOM     40  C   UNL A   1      45.091  32.699  28.204  1.00  0.00     0.010 A 
ATOM     41  C   UNL A   1      47.655  32.849  27.114  1.00  0.00     0.020 A 
ATOM     42  C   UNL A   1      45.491  33.845  27.506  1.00  0.00     0.020 A 
ATOM     43  C   UNL A   1      46.777  33.916  26.979  1.00  0.00     0.054 A 
BRANCH  43  44
ATOM     44  S   UNL A   1      47.346  35.374  26.075  1.00  0.00     0.124 S 
ATOM     45  O   UNL A   1      48.215  36.013  27.059  1.00  0.00    -0.237 OA
ATOM     46  O   UNL A   1      48.023  34.783  24.924  1.00  0.00    -0.237 OA
ATOM     47  O   UNL A   1      46.110  36.093  25.773  1.00  0.00    -0.744 OA
ENDBRANCH  43  44
ENDBRANCH  24  38
BRANCH  25  48
ATOM     48  C   UNL A   1      37.726  32.538  30.836  1.00  0.00    -0.014 A 
ATOM     49  C   UNL A   1      36.453  32.401  31.422  1.00  0.00     0.010 A 
ATOM     50  C   UNL A   1      37.847  33.410  29.732  1.00  0.00     0.010 A 
ATOM     51  C   UNL A   1      35.325  33.017  30.864  1.00  0.00     0.020 A 
ATOM     52  C   UNL A   1      36.719  34.033  29.167  1.00  0.00     0.020 A 
ATOM     53  C   UNL A   1      35.458  33.794  29.711  1.00  0.00     0.054 A 
BRANCH  53  54
ATOM     54  S   UNL A   1      33.947  34.387  28.890  1.00  0.00     0.124 S 
ATOM     55  O   UNL A   1      33.111  34.761  30.026  1.00  0.00    -0.237 OA
ATOM     56  O   UNL A   1      34.443  35.500  28.082  1.00  0.00    -0.237 OA
ATOM     57  O   UNL A   1      33.487  33.228  28.129  1.00  0.00    -0.744 OA
ENDBRANCH  53  54
ENDBRANCH  25  48
BRANCH  37  58
ATOM     58  C   UNL A   1      42.353  29.233  33.740  1.00  0.00    -0.014 A 
ATOM     59  C   UNL A   1      42.723  29.456  35.079  1.00  0.00     0.010 A 
ATOM     60  C   UNL A   1      41.737  28.006  33.416  1.00  0.00     0.010 A 
ATOM     61  C   UNL A   1      42.539  28.477  36.056  1.00  0.00     0.020 A 
ATOM     62  C   UNL A   1      41.521  27.025  34.404  1.00  0.00     0.020 A 
ATOM     63  C   UNL A   1      41.951  27.261  35.713  1.00  0.00     0.054 A 
BRANCH  63  64
ATOM     64  S   UNL A   1      41.791  26.001  37.010  1.00  0.00     0.124 S 
ATOM     65  O   UNL A   1      40.420  26.205  37.475  1.00  0.00    -0.237 OA
ATOM     66  O   UNL A   1      42.020  24.756  36.278  1.00  0.00    -0.237 OA
ATOM     67  O   UNL A   1      42.832  26.349  37.975  1.00  0.00    -0.744 OA
ENDBRANCH  63  64
ENDBRANCH  37  58
ENDBRANCH  11  12
ENDBRANCH   4   6
ENDBRANCH   1   2
BRANCH   1  68
ATOM     68  C   UNL A   1      44.194  22.584  26.120  1.00  0.00     0.042 C 
BRANCH  68  69
ATOM     69  C   UNL A   1      45.488  22.677  25.317  1.00  0.00     0.118 C 
BRANCH  69  70
ATOM     70  N   UNL A   1      45.693  23.977  24.674  1.00  0.00    -0.352 N 
ATOM     71  C   UNL A   1      45.940  25.197  25.251  1.00  0.00     0.252 C 
ATOM     72  H   UNL A   1      45.647  23.976  23.691  1.00  0.00     0.163 HD
ATOM     73  O   UNL A   1      45.971  26.233  24.588  1.00  0.00    -0.269 OA
BRANCH  71  74
ATOM     74  C   UNL A   1      46.184  25.257  26.691  1.00  0.00     0.058 A 
ATOM     75  C   UNL A   1      45.219  25.788  27.541  1.00  0.00     0.019 A 
ATOM     76  C   UNL A   1      47.401  24.849  27.216  1.00  0.00     0.127 A 
ATOM     77  C   UNL A   1      45.532  25.960  28.876  1.00  0.00     0.048 A 
ATOM     78  N   UNL A   1      47.739  25.019  28.521  1.00  0.00    -0.238 NA
ATOM     79  C   UNL A   1      46.783  25.542  29.330  1.00  0.00     0.138 A 
BRANCH  79  80
ATOM     80  N   UNL A   1      47.051  25.655  30.710  1.00  0.00    -0.283 N 
ATOM     81  C   UNL A   1      48.247  26.020  31.277  1.00  0.00     0.206 A 
ATOM     82  C   UNL A   1      46.165  25.418  31.746  1.00  0.00     0.074 A 
ATOM     83  N   UNL A   1      48.145  26.182  32.581  1.00  0.00    -0.236 NA
ATOM     84  C   UNL A   1      46.865  25.790  32.888  1.00  0.00     0.089 A 
ATOM     85  C   UNL A   1      44.873  24.866  31.795  1.00  0.00     0.029 A 
ATOM     86  C   UNL A   1      46.229  25.692  34.135  1.00  0.00     0.030 A 
ATOM     87  C   UNL A   1      44.267  24.754  33.045  1.00  0.00     0.002 A 
ATOM     88  C   UNL A   1      44.927  25.172  34.198  1.00  0.00     0.002 A 
ENDBRANCH  79  80
ENDBRANCH  71  74
ENDBRANCH  69  70
ENDBRANCH  68  69
ENDBRANCH   1  68
TORSDOF 14
ENDMDL
