MODEL 1
REMARK VINA RESULT:     -10.9      0.000      0.000
REMARK SMILES CC(=O)c1cc(C(=O)NC[C@H]2CC[C@H](C(=O)NCCCNC(=O)c3ccc(-c4c5nc(c(-c6ccc(S(=O)(=O)[O-])cc6)c6ccc([nH]6)c(-c6ccc(S(=O)(=O)[O-])cc6)c6nc(c(-c7ccc(S(=O)(=O)[O-])cc7)c7ccc4[nH]7)C=C6)C=C5)cc3)O2)n(C)c1
REMARK SMILES IDX 18 1 17 2 15 3 16 4 14 6 11 7 12 8 84 9 13 10 10 11 9 12
REMARK SMILES IDX 7 13 8 14 6 16 4 17 5 18 87 19 85 20 86 21 2 22 1 23 3 24
REMARK SMILES IDX 19 25 20 26 21 27 22 28 23 30 24 31 25 32 83 33 26 34 82 35
REMARK SMILES IDX 27 36 28 37 29 38 76 39 30 40 81 41 75 42 77 43 31 44 80 45
REMARK SMILES IDX 74 46 73 47 32 49 62 50 43 51 61 52 44 53 47 54 60 55 78 56
REMARK SMILES IDX 45 57 46 58 59 60 79 61 48 62 33 63 34 64 42 65 35 66 41 67
REMARK SMILES IDX 36 68 37 69 38 70 39 71 40 72 63 73 64 74 72 75 65 76 71 77
REMARK SMILES IDX 66 78 67 79 68 80 69 81 70 82 49 83 50 84 58 85 51 86 57 87
REMARK SMILES IDX 52 88 53 89 54 90 55 91 56 92
REMARK H PARENT 17 5 9 15 21 29 77 48 47 59
REMARK Flexibility Score: inf
ROOT
ATOM      1  C   UNL A   1      37.356  20.703  24.927  1.00  0.00     0.117 C 
ENDROOT
BRANCH   1   2
ATOM      2  N   UNL A   1      37.795  22.057  25.192  1.00  0.00    -0.354 N 
ATOM      3  C   UNL A   1      37.092  23.224  25.220  1.00  0.00     0.249 C 
ATOM      4  O   UNL A   1      37.723  24.255  25.472  1.00  0.00    -0.272 OA
ATOM      5  H   UNL A   1      38.757  22.149  25.381  1.00  0.00     0.163 HD
BRANCH   3   6
ATOM      6  C   UNL A   1      35.579  23.285  24.910  1.00  0.00     0.207 C 
ATOM      7  C   UNL A   1      34.321  24.553  23.378  1.00  0.00     0.138 C 
ATOM      8  C   UNL A   1      34.317  25.316  24.687  1.00  0.00     0.037 C 
ATOM      9  O   UNL A   1      35.244  23.455  23.535  1.00  0.00    -0.363 OA
ATOM     10  C   UNL A   1      34.831  24.335  25.712  1.00  0.00     0.045 C 
BRANCH   7  11
ATOM     11  C   UNL A   1      32.999  24.002  22.831  1.00  0.00     0.148 C 
BRANCH  11  12
ATOM     12  N   UNL A   1      31.995  23.616  23.792  1.00  0.00    -0.348 N 
ATOM     13  C   UNL A   1      31.720  22.521  24.559  1.00  0.00     0.268 C 
ATOM     14  O   UNL A   1      30.713  22.677  25.262  1.00  0.00    -0.268 OA
ATOM     15  H   UNL A   1      31.333  24.331  23.932  1.00  0.00     0.163 HD
BRANCH  13  16
ATOM     16  C   UNL A   1      32.422  21.239  24.562  1.00  0.00     0.107 A 
ATOM     17  C   UNL A   1      32.926  19.122  23.765  1.00  0.00     0.036 A 
ATOM     18  C   UNL A   1      32.270  20.343  23.491  1.00  0.00     0.045 A 
ATOM     19  C   UNL A   1      33.531  19.308  24.985  1.00  0.00     0.097 A 
ATOM     20  N   UNL A   1      33.220  20.561  25.467  1.00  0.00    -0.346 N 
ATOM     21  C   UNL A   1      33.631  20.923  26.802  1.00  0.00     0.150 C 
BRANCH  17  22
ATOM     22  C   UNL A   1      32.973  17.876  23.003  1.00  0.00     0.161 C 
ATOM     23  C   UNL A   1      33.857  16.766  23.508  1.00  0.00     0.093 C 
ATOM     24  O   UNL A   1      32.301  17.735  21.982  1.00  0.00    -0.294 OA
ENDBRANCH  17  22
ENDBRANCH  13  16
ENDBRANCH  11  12
ENDBRANCH   7  11
ENDBRANCH   3   6
ENDBRANCH   1   2
BRANCH   1  25
ATOM     25  C   UNL A   1      38.492  19.698  25.066  1.00  0.00     0.042 C 
BRANCH  25  26
ATOM     26  C   UNL A   1      39.509  20.090  26.128  1.00  0.00     0.118 C 
BRANCH  26  27
ATOM     27  N   UNL A   1      40.655  19.190  26.141  1.00  0.00    -0.352 N 
ATOM     28  C   UNL A   1      41.997  19.473  26.166  1.00  0.00     0.251 C 
ATOM     29  H   UNL A   1      40.431  18.231  26.130  1.00  0.00     0.163 HD
ATOM     30  O   UNL A   1      42.804  18.573  25.953  1.00  0.00    -0.269 OA
BRANCH  28  31
ATOM     31  C   UNL A   1      42.469  20.850  26.432  1.00  0.00     0.039 A 
ATOM     32  C   UNL A   1      42.647  21.257  27.757  1.00  0.00     0.014 A 
ATOM     33  C   UNL A   1      42.710  21.747  25.388  1.00  0.00     0.014 A 
ATOM     34  C   UNL A   1      43.118  22.543  28.030  1.00  0.00     0.010 A 
ATOM     35  C   UNL A   1      43.258  22.997  25.657  1.00  0.00     0.010 A 
ATOM     36  C   UNL A   1      43.457  23.412  26.981  1.00  0.00    -0.014 A 
BRANCH  36  37
ATOM     37  C   UNL A   1      44.011  24.763  27.246  1.00  0.00     0.031 A 
ATOM     38  C   UNL A   1      43.107  25.873  27.712  1.00  0.00     0.074 A 
ATOM     39  C   UNL A   1      45.315  25.006  27.003  1.00  0.00     0.049 A 
ATOM     40  N   UNL A   1      43.391  27.131  27.930  1.00  0.00    -0.248 NA
ATOM     41  C   UNL A   1      41.691  25.530  27.936  1.00  0.00     0.031 C 
ATOM     42  C   UNL A   1      46.283  24.023  26.507  1.00  0.00     0.029 A 
ATOM     43  N   UNL A   1      46.050  26.157  27.131  1.00  0.00    -0.354 N 
ATOM     44  C   UNL A   1      42.192  27.733  28.295  1.00  0.00     0.074 A 
ATOM     45  C   UNL A   1      41.168  26.714  28.221  1.00  0.00     0.031 C 
ATOM     46  C   UNL A   1      47.487  24.606  26.401  1.00  0.00     0.029 A 
ATOM     47  C   UNL A   1      47.370  26.010  26.776  1.00  0.00     0.049 A 
ATOM     48  H   UNL A   1      45.669  27.007  27.447  1.00  0.00     0.167 HD
ATOM     49  C   UNL A   1      41.967  29.012  28.676  1.00  0.00     0.031 A 
ATOM     50  C   UNL A   1      48.374  26.908  26.749  1.00  0.00     0.031 A 
ATOM     51  C   UNL A   1      42.994  30.016  28.764  1.00  0.00     0.049 A 
ATOM     52  C   UNL A   1      48.100  28.323  27.177  1.00  0.00     0.074 A 
ATOM     53  C   UNL A   1      42.881  31.326  29.195  1.00  0.00     0.029 A 
ATOM     54  N   UNL A   1      44.322  29.823  28.413  1.00  0.00    -0.354 N 
ATOM     55  N   UNL A   1      46.972  28.857  27.581  1.00  0.00    -0.248 NA
ATOM     56  C   UNL A   1      49.235  29.255  27.157  1.00  0.00     0.031 C 
ATOM     57  C   UNL A   1      44.130  31.939  29.057  1.00  0.00     0.029 A 
ATOM     58  C   UNL A   1      45.034  30.995  28.597  1.00  0.00     0.049 A 
ATOM     59  H   UNL A   1      44.701  28.977  28.082  1.00  0.00     0.167 HD
ATOM     60  C   UNL A   1      47.269  30.179  27.892  1.00  0.00     0.074 A 
ATOM     61  C   UNL A   1      48.684  30.359  27.642  1.00  0.00     0.031 C 
ATOM     62  C   UNL A   1      46.444  31.155  28.344  1.00  0.00     0.031 A 
BRANCH  49  63
ATOM     63  C   UNL A   1      40.553  29.399  29.027  1.00  0.00    -0.014 A 
ATOM     64  C   UNL A   1      40.161  29.591  30.364  1.00  0.00     0.010 A 
ATOM     65  C   UNL A   1      39.614  29.616  28.001  1.00  0.00     0.010 A 
ATOM     66  C   UNL A   1      38.848  29.952  30.673  1.00  0.00     0.020 A 
ATOM     67  C   UNL A   1      38.306  30.006  28.305  1.00  0.00     0.020 A 
ATOM     68  C   UNL A   1      37.927  30.155  29.640  1.00  0.00     0.054 A 
BRANCH  68  69
ATOM     69  S   UNL A   1      36.236  30.650  30.070  1.00  0.00     0.124 S 
ATOM     70  O   UNL A   1      35.967  29.816  31.239  1.00  0.00    -0.237 OA
ATOM     71  O   UNL A   1      36.378  32.078  30.338  1.00  0.00    -0.237 OA
ATOM     72  O   UNL A   1      35.462  30.317  28.877  1.00  0.00    -0.744 OA
ENDBRANCH  68  69
ENDBRANCH  49  63
BRANCH  50  73
ATOM     73  C   UNL A   1      49.734  26.489  26.312  1.00  0.00    -0.014 A 
ATOM     74  C   UNL A   1      50.169  26.734  24.997  1.00  0.00     0.010 A 
ATOM     75  C   UNL A   1      50.607  25.853  27.214  1.00  0.00     0.010 A 
ATOM     76  C   UNL A   1      51.444  26.335  24.587  1.00  0.00     0.020 A 
ATOM     77  C   UNL A   1      51.893  25.477  26.815  1.00  0.00     0.020 A 
ATOM     78  C   UNL A   1      52.299  25.709  25.500  1.00  0.00     0.054 A 
BRANCH  78  79
ATOM     79  S   UNL A   1      53.966  25.240  24.960  1.00  0.00     0.124 S 
ATOM     80  O   UNL A   1      54.045  25.867  23.644  1.00  0.00    -0.237 OA
ATOM     81  O   UNL A   1      54.810  25.830  25.996  1.00  0.00    -0.237 OA
ATOM     82  O   UNL A   1      53.924  23.780  24.957  1.00  0.00    -0.744 OA
ENDBRANCH  78  79
ENDBRANCH  50  73
BRANCH  62  83
ATOM     83  C   UNL A   1      47.057  32.499  28.637  1.00  0.00    -0.014 A 
ATOM     84  C   UNL A   1      47.627  32.784  29.889  1.00  0.00     0.010 A 
ATOM     85  C   UNL A   1      47.112  33.469  27.619  1.00  0.00     0.010 A 
ATOM     86  C   UNL A   1      48.215  34.029  30.129  1.00  0.00     0.020 A 
ATOM     87  C   UNL A   1      47.724  34.704  27.846  1.00  0.00     0.020 A 
ATOM     88  C   UNL A   1      48.260  34.981  29.105  1.00  0.00     0.054 A 
BRANCH  88  89
ATOM     89  S   UNL A   1      49.069  36.572  29.427  1.00  0.00     0.124 S 
ATOM     90  O   UNL A   1      48.289  37.483  28.595  1.00  0.00    -0.237 OA
ATOM     91  O   UNL A   1      48.896  36.732  30.869  1.00  0.00    -0.237 OA
ATOM     92  O   UNL A   1      50.446  36.354  28.992  1.00  0.00    -0.744 OA
ENDBRANCH  88  89
ENDBRANCH  62  83
ENDBRANCH  36  37
ENDBRANCH  28  31
ENDBRANCH  26  27
ENDBRANCH  25  26
ENDBRANCH   1  25
TORSDOF 17
ENDMDL
MODEL 2
REMARK VINA RESULT:     -10.9      6.328     11.277
REMARK SMILES CC(=O)c1cc(C(=O)NC[C@H]2CC[C@H](C(=O)NCCCNC(=O)c3ccc(-c4c5nc(c(-c6ccc(S(=O)(=O)[O-])cc6)c6ccc([nH]6)c(-c6ccc(S(=O)(=O)[O-])cc6)c6nc(c(-c7ccc(S(=O)(=O)[O-])cc7)c7ccc4[nH]7)C=C6)C=C5)cc3)O2)n(C)c1
REMARK SMILES IDX 18 1 17 2 15 3 16 4 14 6 11 7 12 8 84 9 13 10 10 11 9 12
REMARK SMILES IDX 7 13 8 14 6 16 4 17 5 18 87 19 85 20 86 21 2 22 1 23 3 24
REMARK SMILES IDX 19 25 20 26 21 27 22 28 23 30 24 31 25 32 83 33 26 34 82 35
REMARK SMILES IDX 27 36 28 37 29 38 76 39 30 40 81 41 75 42 77 43 31 44 80 45
REMARK SMILES IDX 74 46 73 47 32 49 62 50 43 51 61 52 44 53 47 54 60 55 78 56
REMARK SMILES IDX 45 57 46 58 59 60 79 61 48 62 33 63 34 64 42 65 35 66 41 67
REMARK SMILES IDX 36 68 37 69 38 70 39 71 40 72 63 73 64 74 72 75 65 76 71 77
REMARK SMILES IDX 66 78 67 79 68 80 69 81 70 82 49 83 50 84 58 85 51 86 57 87
REMARK SMILES IDX 52 88 53 89 54 90 55 91 56 92
REMARK H PARENT 17 5 9 15 21 29 77 48 47 59
REMARK Flexibility Score: inf
ROOT
ATOM      1  C   UNL A   1      37.414  23.408  25.847  1.00  0.00     0.117 C 
ENDROOT
BRANCH   1   2
ATOM      2  N   UNL A   1      37.330  23.170  24.421  1.00  0.00    -0.354 N 
ATOM      3  C   UNL A   1      36.258  23.209  23.580  1.00  0.00     0.249 C 
ATOM      4  O   UNL A   1      36.466  22.957  22.389  1.00  0.00    -0.272 OA
ATOM      5  H   UNL A   1      38.185  22.944  23.989  1.00  0.00     0.163 HD
BRANCH   3   6
ATOM      6  C   UNL A   1      34.826  23.509  24.080  1.00  0.00     0.207 C 
ATOM      7  C   UNL A   1      32.727  23.443  23.020  1.00  0.00     0.138 C 
ATOM      8  C   UNL A   1      33.232  24.868  22.907  1.00  0.00     0.037 C 
ATOM      9  O   UNL A   1      33.807  22.656  23.563  1.00  0.00    -0.363 OA
ATOM     10  C   UNL A   1      34.392  24.948  23.869  1.00  0.00     0.045 C 
BRANCH   7  11
ATOM     11  C   UNL A   1      31.462  23.164  23.841  1.00  0.00     0.148 C 
BRANCH  11  12
ATOM     12  N   UNL A   1      31.572  23.246  25.276  1.00  0.00    -0.348 N 
ATOM     13  C   UNL A   1      31.582  24.234  26.219  1.00  0.00     0.268 C 
ATOM     14  O   UNL A   1      31.693  23.788  27.368  1.00  0.00    -0.268 OA
ATOM     15  H   UNL A   1      31.663  22.355  25.684  1.00  0.00     0.163 HD
BRANCH  13  16
ATOM     16  C   UNL A   1      31.555  25.677  25.994  1.00  0.00     0.107 A 
ATOM     17  C   UNL A   1      32.152  27.877  26.411  1.00  0.00     0.036 A 
ATOM     18  C   UNL A   1      32.444  26.521  26.680  1.00  0.00     0.045 A 
ATOM     19  C   UNL A   1      31.118  27.847  25.506  1.00  0.00     0.097 A 
ATOM     20  N   UNL A   1      30.752  26.541  25.268  1.00  0.00    -0.346 N 
ATOM     21  C   UNL A   1      29.589  26.273  24.457  1.00  0.00     0.150 C 
BRANCH  17  22
ATOM     22  C   UNL A   1      32.737  29.101  26.955  1.00  0.00     0.161 C 
ATOM     23  C   UNL A   1      34.194  29.084  27.337  1.00  0.00     0.093 C 
ATOM     24  O   UNL A   1      32.061  30.120  27.088  1.00  0.00    -0.294 OA
ENDBRANCH  17  22
ENDBRANCH  13  16
ENDBRANCH  11  12
ENDBRANCH   7  11
ENDBRANCH   3   6
ENDBRANCH   1   2
BRANCH   1  25
ATOM     25  C   UNL A   1      38.588  22.672  26.478  1.00  0.00     0.042 C 
BRANCH  25  26
ATOM     26  C   UNL A   1      39.623  23.608  27.084  1.00  0.00     0.118 C 
BRANCH  26  27
ATOM     27  N   UNL A   1      40.414  24.279  26.062  1.00  0.00    -0.352 N 
ATOM     28  C   UNL A   1      40.880  25.569  26.014  1.00  0.00     0.251 C 
ATOM     29  H   UNL A   1      40.651  23.721  25.286  1.00  0.00     0.163 HD
ATOM     30  O   UNL A   1      41.342  26.000  24.962  1.00  0.00    -0.269 OA
BRANCH  28  31
ATOM     31  C   UNL A   1      40.811  26.437  27.209  1.00  0.00     0.039 A 
ATOM     32  C   UNL A   1      41.700  27.510  27.314  1.00  0.00     0.014 A 
ATOM     33  C   UNL A   1      39.899  26.183  28.237  1.00  0.00     0.014 A 
ATOM     34  C   UNL A   1      41.636  28.359  28.422  1.00  0.00     0.010 A 
ATOM     35  C   UNL A   1      39.779  27.076  29.297  1.00  0.00     0.010 A 
ATOM     36  C   UNL A   1      40.653  28.166  29.406  1.00  0.00    -0.014 A 
BRANCH  36  37
ATOM     37  C   UNL A   1      40.529  29.087  30.564  1.00  0.00     0.031 A 
ATOM     38  C   UNL A   1      41.406  28.903  31.773  1.00  0.00     0.074 A 
ATOM     39  C   UNL A   1      39.582  30.046  30.551  1.00  0.00     0.049 A 
ATOM     40  N   UNL A   1      41.399  29.560  32.904  1.00  0.00    -0.248 NA
ATOM     41  C   UNL A   1      42.403  27.819  31.715  1.00  0.00     0.031 C 
ATOM     42  C   UNL A   1      38.642  30.296  29.454  1.00  0.00     0.029 A 
ATOM     43  N   UNL A   1      39.246  30.985  31.493  1.00  0.00    -0.354 N 
ATOM     44  C   UNL A   1      42.371  28.960  33.697  1.00  0.00     0.074 A 
ATOM     45  C   UNL A   1      42.913  27.855  32.938  1.00  0.00     0.031 C 
ATOM     46  C   UNL A   1      37.857  31.337  29.775  1.00  0.00     0.029 A 
ATOM     47  C   UNL A   1      38.205  31.799  31.113  1.00  0.00     0.049 A 
ATOM     48  H   UNL A   1      39.707  31.069  32.359  1.00  0.00     0.167 HD
ATOM     49  C   UNL A   1      42.788  29.310  34.937  1.00  0.00     0.031 A 
ATOM     50  C   UNL A   1      37.594  32.803  31.773  1.00  0.00     0.031 A 
ATOM     51  C   UNL A   1      42.256  30.421  35.679  1.00  0.00     0.049 A 
ATOM     52  C   UNL A   1      38.075  33.172  33.149  1.00  0.00     0.074 A 
ATOM     53  C   UNL A   1      42.650  30.895  36.918  1.00  0.00     0.029 A 
ATOM     54  N   UNL A   1      41.215  31.232  35.253  1.00  0.00    -0.354 N 
ATOM     55  N   UNL A   1      39.040  32.634  33.856  1.00  0.00    -0.248 NA
ATOM     56  C   UNL A   1      37.394  34.293  33.811  1.00  0.00     0.031 C 
ATOM     57  C   UNL A   1      41.813  31.961  37.263  1.00  0.00     0.029 A 
ATOM     58  C   UNL A   1      40.938  32.190  36.213  1.00  0.00     0.049 A 
ATOM     59  H   UNL A   1      40.743  31.140  34.394  1.00  0.00     0.167 HD
ATOM     60  C   UNL A   1      39.101  33.369  35.034  1.00  0.00     0.074 A 
ATOM     61  C   UNL A   1      38.086  34.397  34.937  1.00  0.00     0.031 C 
ATOM     62  C   UNL A   1      39.924  33.207  36.099  1.00  0.00     0.031 A 
BRANCH  49  63
ATOM     63  C   UNL A   1      43.874  28.478  35.569  1.00  0.00    -0.014 A 
ATOM     64  C   UNL A   1      43.564  27.390  36.407  1.00  0.00     0.010 A 
ATOM     65  C   UNL A   1      45.224  28.761  35.289  1.00  0.00     0.010 A 
ATOM     66  C   UNL A   1      44.581  26.628  36.984  1.00  0.00     0.020 A 
ATOM     67  C   UNL A   1      46.244  27.981  35.841  1.00  0.00     0.020 A 
ATOM     68  C   UNL A   1      45.916  26.930  36.699  1.00  0.00     0.054 A 
BRANCH  68  69
ATOM     69  S   UNL A   1      47.216  25.905  37.442  1.00  0.00     0.124 S 
ATOM     70  O   UNL A   1      47.067  24.651  36.707  1.00  0.00    -0.237 OA
ATOM     71  O   UNL A   1      48.429  26.664  37.149  1.00  0.00    -0.237 OA
ATOM     72  O   UNL A   1      46.848  25.847  38.854  1.00  0.00    -0.744 OA
ENDBRANCH  68  69
ENDBRANCH  49  63
BRANCH  50  73
ATOM     73  C   UNL A   1      36.468  33.535  31.131  1.00  0.00    -0.014 A 
ATOM     74  C   UNL A   1      36.500  33.830  29.756  1.00  0.00     0.010 A 
ATOM     75  C   UNL A   1      35.351  33.930  31.890  1.00  0.00     0.010 A 
ATOM     76  C   UNL A   1      35.444  34.523  29.157  1.00  0.00     0.020 A 
ATOM     77  C   UNL A   1      34.281  34.599  31.288  1.00  0.00     0.020 A 
ATOM     78  C   UNL A   1      34.341  34.903  29.927  1.00  0.00     0.054 A 
BRANCH  78  79
ATOM     79  S   UNL A   1      32.962  35.761  29.119  1.00  0.00     0.124 S 
ATOM     80  O   UNL A   1      32.093  36.069  30.251  1.00  0.00    -0.237 OA
ATOM     81  O   UNL A   1      33.624  36.905  28.498  1.00  0.00    -0.237 OA
ATOM     82  O   UNL A   1      32.444  34.766  28.184  1.00  0.00    -0.744 OA
ENDBRANCH  78  79
ENDBRANCH  50  73
BRANCH  62  83
ATOM     83  C   UNL A   1      39.789  34.188  37.233  1.00  0.00    -0.014 A 
ATOM     84  C   UNL A   1      40.229  35.517  37.105  1.00  0.00     0.010 A 
ATOM     85  C   UNL A   1      39.159  33.784  38.424  1.00  0.00     0.010 A 
ATOM     86  C   UNL A   1      40.068  36.417  38.162  1.00  0.00     0.020 A 
ATOM     87  C   UNL A   1      38.971  34.688  39.473  1.00  0.00     0.020 A 
ATOM     88  C   UNL A   1      39.440  35.997  39.339  1.00  0.00     0.054 A 
BRANCH  88  89
ATOM     89  S   UNL A   1      39.204  37.196  40.678  1.00  0.00     0.124 S 
ATOM     90  O   UNL A   1      40.572  37.623  40.949  1.00  0.00    -0.237 OA
ATOM     91  O   UNL A   1      38.341  38.201  40.059  1.00  0.00    -0.237 OA
ATOM     92  O   UNL A   1      38.573  36.412  41.738  1.00  0.00    -0.744 OA
ENDBRANCH  88  89
ENDBRANCH  62  83
ENDBRANCH  36  37
ENDBRANCH  28  31
ENDBRANCH  26  27
ENDBRANCH  25  26
ENDBRANCH   1  25
TORSDOF 17
ENDMDL
MODEL 3
REMARK VINA RESULT:     -10.8      4.091      9.921
REMARK SMILES CC(=O)c1cc(C(=O)NC[C@H]2CC[C@H](C(=O)NCCCNC(=O)c3ccc(-c4c5nc(c(-c6ccc(S(=O)(=O)[O-])cc6)c6ccc([nH]6)c(-c6ccc(S(=O)(=O)[O-])cc6)c6nc(c(-c7ccc(S(=O)(=O)[O-])cc7)c7ccc4[nH]7)C=C6)C=C5)cc3)O2)n(C)c1
REMARK SMILES IDX 18 1 17 2 15 3 16 4 14 6 11 7 12 8 84 9 13 10 10 11 9 12
REMARK SMILES IDX 7 13 8 14 6 16 4 17 5 18 87 19 85 20 86 21 2 22 1 23 3 24
REMARK SMILES IDX 19 25 20 26 21 27 22 28 23 30 24 31 25 32 83 33 26 34 82 35
REMARK SMILES IDX 27 36 28 37 29 38 76 39 30 40 81 41 75 42 77 43 31 44 80 45
REMARK SMILES IDX 74 46 73 47 32 49 62 50 43 51 61 52 44 53 47 54 60 55 78 56
REMARK SMILES IDX 45 57 46 58 59 60 79 61 48 62 33 63 34 64 42 65 35 66 41 67
REMARK SMILES IDX 36 68 37 69 38 70 39 71 40 72 63 73 64 74 72 75 65 76 71 77
REMARK SMILES IDX 66 78 67 79 68 80 69 81 70 82 49 83 50 84 58 85 51 86 57 87
REMARK SMILES IDX 52 88 53 89 54 90 55 91 56 92
REMARK H PARENT 17 5 9 15 21 29 77 48 47 59
REMARK Flexibility Score: inf
ROOT
ATOM      1  C   UNL A   1      34.474  22.282  26.471  1.00  0.00     0.117 C 
ENDROOT
BRANCH   1   2
ATOM      2  N   UNL A   1      33.985  20.943  26.220  1.00  0.00    -0.354 N 
ATOM      3  C   UNL A   1      32.868  20.519  25.564  1.00  0.00     0.249 C 
ATOM      4  O   UNL A   1      32.683  19.300  25.497  1.00  0.00    -0.272 OA
ATOM      5  H   UNL A   1      34.549  20.223  26.583  1.00  0.00     0.163 HD
BRANCH   3   6
ATOM      6  C   UNL A   1      31.841  21.503  24.959  1.00  0.00     0.207 C 
ATOM      7  C   UNL A   1      31.987  23.765  24.331  1.00  0.00     0.138 C 
ATOM      8  C   UNL A   1      31.466  23.737  25.754  1.00  0.00     0.037 C 
ATOM      9  O   UNL A   1      32.362  22.414  23.994  1.00  0.00    -0.363 OA
ATOM     10  C   UNL A   1      31.073  22.301  25.997  1.00  0.00     0.045 C 
BRANCH   7  11
ATOM     11  C   UNL A   1      31.085  24.311  23.218  1.00  0.00     0.148 C 
BRANCH  11  12
ATOM     12  N   UNL A   1      29.899  25.028  23.618  1.00  0.00    -0.348 N 
ATOM     13  C   UNL A   1      29.591  26.294  24.026  1.00  0.00     0.268 C 
ATOM     14  O   UNL A   1      28.383  26.435  24.255  1.00  0.00    -0.268 OA
ATOM     15  H   UNL A   1      29.101  24.452  23.587  1.00  0.00     0.163 HD
BRANCH  13  16
ATOM     16  C   UNL A   1      30.516  27.397  24.273  1.00  0.00     0.107 A 
ATOM     17  C   UNL A   1      31.996  28.649  25.544  1.00  0.00     0.036 A 
ATOM     18  C   UNL A   1      31.278  27.436  25.453  1.00  0.00     0.045 A 
ATOM     19  C   UNL A   1      31.713  29.319  24.378  1.00  0.00     0.097 A 
ATOM     20  N   UNL A   1      30.822  28.584  23.628  1.00  0.00    -0.346 N 
ATOM     21  C   UNL A   1      30.271  29.159  22.425  1.00  0.00     0.150 C 
BRANCH  17  22
ATOM     22  C   UNL A   1      32.842  29.175  26.613  1.00  0.00     0.161 C 
ATOM     23  C   UNL A   1      34.263  28.684  26.703  1.00  0.00     0.093 C 
ATOM     24  O   UNL A   1      32.408  30.005  27.412  1.00  0.00    -0.294 OA
ENDBRANCH  17  22
ENDBRANCH  13  16
ENDBRANCH  11  12
ENDBRANCH   7  11
ENDBRANCH   3   6
ENDBRANCH   1   2
BRANCH   1  25
ATOM     25  C   UNL A   1      35.298  22.814  25.306  1.00  0.00     0.042 C 
BRANCH  25  26
ATOM     26  C   UNL A   1      36.568  23.527  25.747  1.00  0.00     0.118 C 
BRANCH  26  27
ATOM     27  N   UNL A   1      37.679  22.601  25.920  1.00  0.00    -0.352 N 
ATOM     28  C   UNL A   1      38.965  22.836  26.335  1.00  0.00     0.251 C 
ATOM     29  H   UNL A   1      37.475  21.662  25.706  1.00  0.00     0.163 HD
ATOM     30  O   UNL A   1      39.808  21.954  26.204  1.00  0.00    -0.269 OA
BRANCH  28  31
ATOM     31  C   UNL A   1      39.339  24.143  26.920  1.00  0.00     0.039 A 
ATOM     32  C   UNL A   1      38.953  24.428  28.232  1.00  0.00     0.014 A 
ATOM     33  C   UNL A   1      40.040  25.096  26.175  1.00  0.00     0.014 A 
ATOM     34  C   UNL A   1      39.317  25.645  28.814  1.00  0.00     0.010 A 
ATOM     35  C   UNL A   1      40.474  26.270  26.782  1.00  0.00     0.010 A 
ATOM     36  C   UNL A   1      40.108  26.561  28.103  1.00  0.00    -0.014 A 
BRANCH  36  37
ATOM     37  C   UNL A   1      40.555  27.836  28.719  1.00  0.00     0.031 A 
ATOM     38  C   UNL A   1      41.942  27.952  29.293  1.00  0.00     0.074 A 
ATOM     39  C   UNL A   1      39.689  28.864  28.819  1.00  0.00     0.049 A 
ATOM     40  N   UNL A   1      42.489  28.955  29.929  1.00  0.00    -0.248 NA
ATOM     41  C   UNL A   1      42.820  26.776  29.160  1.00  0.00     0.031 C 
ATOM     42  C   UNL A   1      38.304  28.857  28.340  1.00  0.00     0.029 A 
ATOM     43  N   UNL A   1      39.843  30.113  29.366  1.00  0.00    -0.354 N 
ATOM     44  C   UNL A   1      43.762  28.528  30.288  1.00  0.00     0.074 A 
ATOM     45  C   UNL A   1      43.889  27.157  29.844  1.00  0.00     0.031 C 
ATOM     46  C   UNL A   1      37.746  30.053  28.589  1.00  0.00     0.029 A 
ATOM     47  C   UNL A   1      38.714  30.894  29.283  1.00  0.00     0.049 A 
ATOM     48  H   UNL A   1      40.682  30.421  29.779  1.00  0.00     0.167 HD
ATOM     49  C   UNL A   1      44.744  29.219  30.914  1.00  0.00     0.031 A 
ATOM     50  C   UNL A   1      38.482  32.146  29.722  1.00  0.00     0.031 A 
ATOM     51  C   UNL A   1      44.616  30.588  31.338  1.00  0.00     0.049 A 
ATOM     52  C   UNL A   1      39.588  32.894  30.414  1.00  0.00     0.074 A 
ATOM     53  C   UNL A   1      45.572  31.398  31.927  1.00  0.00     0.029 A 
ATOM     54  N   UNL A   1      43.464  31.350  31.219  1.00  0.00    -0.354 N 
ATOM     55  N   UNL A   1      40.808  32.494  30.687  1.00  0.00    -0.248 NA
ATOM     56  C   UNL A   1      39.292  34.266  30.847  1.00  0.00     0.031 C 
ATOM     57  C   UNL A   1      44.980  32.633  32.211  1.00  0.00     0.029 A 
ATOM     58  C   UNL A   1      43.676  32.613  31.743  1.00  0.00     0.049 A 
ATOM     59  H   UNL A   1      42.619  31.038  30.820  1.00  0.00     0.167 HD
ATOM     60  C   UNL A   1      41.433  33.576  31.297  1.00  0.00     0.074 A 
ATOM     61  C   UNL A   1      40.462  34.649  31.339  1.00  0.00     0.031 C 
ATOM     62  C   UNL A   1      42.697  33.670  31.776  1.00  0.00     0.031 A 
BRANCH  49  63
ATOM     63  C   UNL A   1      46.043  28.504  31.179  1.00  0.00    -0.014 A 
ATOM     64  C   UNL A   1      47.095  28.535  30.245  1.00  0.00     0.010 A 
ATOM     65  C   UNL A   1      46.232  27.826  32.398  1.00  0.00     0.010 A 
ATOM     66  C   UNL A   1      48.295  27.869  30.506  1.00  0.00     0.020 A 
ATOM     67  C   UNL A   1      47.442  27.183  32.675  1.00  0.00     0.020 A 
ATOM     68  C   UNL A   1      48.460  27.195  31.720  1.00  0.00     0.054 A 
BRANCH  68  69
ATOM     69  S   UNL A   1      50.038  26.361  32.042  1.00  0.00     0.124 S 
ATOM     70  O   UNL A   1      50.009  26.215  33.496  1.00  0.00    -0.237 OA
ATOM     71  O   UNL A   1      49.906  25.119  31.285  1.00  0.00    -0.237 OA
ATOM     72  O   UNL A   1      51.036  27.296  31.530  1.00  0.00    -0.744 OA
ENDBRANCH  68  69
ENDBRANCH  49  63
BRANCH  50  73
ATOM     73  C   UNL A   1      37.149  32.774  29.507  1.00  0.00    -0.014 A 
ATOM     74  C   UNL A   1      36.142  32.660  30.481  1.00  0.00     0.010 A 
ATOM     75  C   UNL A   1      36.886  33.500  28.332  1.00  0.00     0.010 A 
ATOM     76  C   UNL A   1      34.889  33.245  30.275  1.00  0.00     0.020 A 
ATOM     77  C   UNL A   1      35.644  34.110  28.135  1.00  0.00     0.020 A 
ATOM     78  C   UNL A   1      34.648  33.967  29.103  1.00  0.00     0.054 A 
BRANCH  78  79
ATOM     79  S   UNL A   1      33.030  34.756  28.876  1.00  0.00     0.124 S 
ATOM     80  O   UNL A   1      32.377  33.844  27.942  1.00  0.00    -0.237 OA
ATOM     81  O   UNL A   1      32.492  34.765  30.234  1.00  0.00    -0.237 OA
ATOM     82  O   UNL A   1      33.367  36.071  28.337  1.00  0.00    -0.744 OA
ENDBRANCH  78  79
ENDBRANCH  50  73
BRANCH  62  83
ATOM     83  C   UNL A   1      43.120  34.994  32.356  1.00  0.00    -0.014 A 
ATOM     84  C   UNL A   1      43.764  35.964  31.568  1.00  0.00     0.010 A 
ATOM     85  C   UNL A   1      42.814  35.290  33.697  1.00  0.00     0.010 A 
ATOM     86  C   UNL A   1      44.122  37.197  32.122  1.00  0.00     0.020 A 
ATOM     87  C   UNL A   1      43.145  36.531  34.246  1.00  0.00     0.020 A 
ATOM     88  C   UNL A   1      43.810  37.472  33.457  1.00  0.00     0.054 A 
BRANCH  88  89
ATOM     89  S   UNL A   1      44.245  39.095  34.138  1.00  0.00     0.124 S 
ATOM     90  O   UNL A   1      44.447  38.788  35.550  1.00  0.00    -0.237 OA
ATOM     91  O   UNL A   1      45.451  39.443  33.390  1.00  0.00    -0.237 OA
ATOM     92  O   UNL A   1      43.076  39.920  33.840  1.00  0.00    -0.744 OA
ENDBRANCH  88  89
ENDBRANCH  62  83
ENDBRANCH  36  37
ENDBRANCH  28  31
ENDBRANCH  26  27
ENDBRANCH  25  26
ENDBRANCH   1  25
TORSDOF 17
ENDMDL
