MODEL 1
REMARK VINA RESULT:      -9.4      0.000      0.000
REMARK SMILES CC[C@H](C)[C@@H](C)[C@](C)(O)C(=O)NCCCNC(=O)c1ccc(-c2c3nc(c(-c4ccc(S(=O)(=O)[O-])cc4)c4ccc([nH]4)c(-c4ccc(S(=O)(=O)[O-])cc4)c4nc(c(-c5ccc(S(=O)(=O)[O-])cc5)c5ccc2[nH]5)C=C4)C=C3)cc1
REMARK SMILES IDX 14 1 13 2 12 3 10 4 11 5 7 7 8 8 5 9 6 10 3 11 4 12 2 13
REMARK SMILES IDX 1 14 9 15 15 17 16 18 17 19 18 21 19 22 20 23 78 24 21 25
REMARK SMILES IDX 77 26 22 27 23 28 24 29 71 30 25 31 76 32 70 33 72 34 26 35
REMARK SMILES IDX 75 36 69 37 68 38 27 40 57 41 38 42 56 43 39 44 42 45 55 46
REMARK SMILES IDX 73 47 40 48 41 49 54 51 74 52 43 53 28 54 29 55 37 56 30 57
REMARK SMILES IDX 36 58 31 59 32 60 33 61 34 62 35 63 58 64 59 65 67 66 60 67
REMARK SMILES IDX 66 68 61 69 62 70 63 71 64 72 65 73 44 74 45 75 53 76 46 77
REMARK SMILES IDX 52 78 47 79 48 80 49 81 50 82 51 83
REMARK H PARENT 12 6 9 16 16 20 72 39 42 50
REMARK Flexibility Score: inf
ROOT
ATOM      1  C   UNL A   1      35.836  23.940  25.887  1.00  0.00     0.042 C 
ENDROOT
BRANCH   1   2
ATOM      2  C   UNL A   1      35.224  22.658  26.429  1.00  0.00     0.117 C 
BRANCH   2   3
ATOM      3  N   UNL A   1      34.038  22.897  27.238  1.00  0.00    -0.354 N 
ATOM      4  C   UNL A   1      32.720  22.643  26.955  1.00  0.00     0.251 C 
ATOM      5  O   UNL A   1      31.886  22.999  27.793  1.00  0.00    -0.272 OA
ATOM      6  H   UNL A   1      34.206  23.300  28.119  1.00  0.00     0.163 HD
BRANCH   4   7
ATOM      7  C   UNL A   1      32.327  21.885  25.648  1.00  0.00     0.143 C 
ATOM      8  C   UNL A   1      33.215  20.646  25.426  1.00  0.00     0.053 C 
BRANCH   7   9
ATOM      9  C   UNL A   1      32.263  22.865  24.410  1.00  0.00     0.030 C 
ATOM     10  C   UNL A   1      33.352  22.490  23.383  1.00  0.00     0.011 C 
BRANCH   9  11
ATOM     11  C   UNL A   1      32.261  24.414  24.693  1.00  0.00    -0.008 C 
ATOM     12  C   UNL A   1      33.129  25.152  23.647  1.00  0.00     0.008 C 
BRANCH  11  13
ATOM     13  C   UNL A   1      30.857  25.068  24.701  1.00  0.00     0.000 C 
ATOM     14  C   UNL A   1      30.628  25.939  25.930  1.00  0.00     0.004 C 
ENDBRANCH  11  13
ENDBRANCH   9  11
ENDBRANCH   7   9
BRANCH   7  15
ATOM     15  O   UNL A   1      31.001  21.383  25.953  1.00  0.00    -0.380 OA
ATOM     16  H   UNL A   1      30.966  21.106  26.882  1.00  0.00     0.212 HD
ENDBRANCH   7  15
ENDBRANCH   4   7
ENDBRANCH   2   3
ENDBRANCH   1   2
BRANCH   1  17
ATOM     17  C   UNL A   1      36.949  23.707  24.877  1.00  0.00     0.118 C 
BRANCH  17  18
ATOM     18  N   UNL A   1      37.921  22.716  25.327  1.00  0.00    -0.352 N 
ATOM     19  C   UNL A   1      39.062  22.869  26.075  1.00  0.00     0.251 C 
ATOM     20  H   UNL A   1      37.729  21.791  25.049  1.00  0.00     0.163 HD
ATOM     21  O   UNL A   1      39.845  21.925  26.184  1.00  0.00    -0.269 OA
BRANCH  19  22
ATOM     22  C   UNL A   1      39.363  24.160  26.727  1.00  0.00     0.039 A 
ATOM     23  C   UNL A   1      38.900  24.390  28.024  1.00  0.00     0.014 A 
ATOM     24  C   UNL A   1      40.101  25.145  26.065  1.00  0.00     0.014 A 
ATOM     25  C   UNL A   1      39.247  25.569  28.685  1.00  0.00     0.010 A 
ATOM     26  C   UNL A   1      40.523  26.275  26.756  1.00  0.00     0.010 A 
ATOM     27  C   UNL A   1      40.102  26.501  28.074  1.00  0.00    -0.014 A 
BRANCH  27  28
ATOM     28  C   UNL A   1      40.585  27.703  28.802  1.00  0.00     0.031 A 
ATOM     29  C   UNL A   1      41.949  27.709  29.439  1.00  0.00     0.074 A 
ATOM     30  C   UNL A   1      39.764  28.762  28.950  1.00  0.00     0.049 A 
ATOM     31  N   UNL A   1      42.513  28.639  30.166  1.00  0.00    -0.248 NA
ATOM     32  C   UNL A   1      42.775  26.504  29.259  1.00  0.00     0.031 C 
ATOM     33  C   UNL A   1      38.403  28.861  28.418  1.00  0.00     0.029 A 
ATOM     34  N   UNL A   1      39.951  29.957  29.599  1.00  0.00    -0.354 N 
ATOM     35  C   UNL A   1      43.751  28.129  30.539  1.00  0.00     0.074 A 
ATOM     36  C   UNL A   1      43.833  26.788  30.006  1.00  0.00     0.031 C 
ATOM     37  C   UNL A   1      37.892  30.061  28.734  1.00  0.00     0.029 A 
ATOM     38  C   UNL A   1      38.864  30.797  29.534  1.00  0.00     0.049 A 
ATOM     39  H   UNL A   1      40.785  30.191  30.067  1.00  0.00     0.167 HD
ATOM     40  C   UNL A   1      44.738  28.729  31.247  1.00  0.00     0.031 A 
ATOM     41  C   UNL A   1      38.665  32.019  30.066  1.00  0.00     0.031 A 
ATOM     42  C   UNL A   1      44.652  30.065  31.775  1.00  0.00     0.049 A 
ATOM     43  C   UNL A   1      39.767  32.655  30.869  1.00  0.00     0.074 A 
ATOM     44  C   UNL A   1      45.618  30.783  32.458  1.00  0.00     0.029 A 
ATOM     45  N   UNL A   1      43.535  30.884  31.685  1.00  0.00    -0.354 N 
ATOM     46  N   UNL A   1      40.958  32.183  31.150  1.00  0.00    -0.248 NA
ATOM     47  C   UNL A   1      39.502  33.993  31.416  1.00  0.00     0.031 C 
ATOM     48  C   UNL A   1      45.064  32.010  32.836  1.00  0.00     0.029 A 
ATOM     49  C   UNL A   1      43.777  32.086  32.328  1.00  0.00     0.049 A 
ATOM     50  H   UNL A   1      42.694  30.645  31.232  1.00  0.00     0.167 HD
ATOM     51  C   UNL A   1      41.595  33.177  31.886  1.00  0.00     0.074 A 
ATOM     52  C   UNL A   1      40.663  34.282  31.987  1.00  0.00     0.031 C 
ATOM     53  C   UNL A   1      42.839  33.176  32.426  1.00  0.00     0.031 A 
BRANCH  40  54
ATOM     54  C   UNL A   1      45.997  27.938  31.502  1.00  0.00    -0.014 A 
ATOM     55  C   UNL A   1      47.046  27.917  30.565  1.00  0.00     0.010 A 
ATOM     56  C   UNL A   1      46.153  27.245  32.717  1.00  0.00     0.010 A 
ATOM     57  C   UNL A   1      48.208  27.184  30.819  1.00  0.00     0.020 A 
ATOM     58  C   UNL A   1      47.327  26.537  32.988  1.00  0.00     0.020 A 
ATOM     59  C   UNL A   1      48.341  26.498  32.029  1.00  0.00     0.054 A 
BRANCH  59  60
ATOM     60  S   UNL A   1      49.872  25.578  32.342  1.00  0.00     0.124 S 
ATOM     61  O   UNL A   1      50.325  25.277  30.986  1.00  0.00    -0.237 OA
ATOM     62  O   UNL A   1      50.684  26.548  33.073  1.00  0.00    -0.237 OA
ATOM     63  O   UNL A   1      49.433  24.424  33.122  1.00  0.00    -0.744 OA
ENDBRANCH  59  60
ENDBRANCH  40  54
BRANCH  41  64
ATOM     64  C   UNL A   1      37.370  32.723  29.850  1.00  0.00    -0.014 A 
ATOM     65  C   UNL A   1      37.149  33.473  28.682  1.00  0.00     0.010 A 
ATOM     66  C   UNL A   1      36.345  32.636  30.809  1.00  0.00     0.010 A 
ATOM     67  C   UNL A   1      35.936  34.138  28.485  1.00  0.00     0.020 A 
ATOM     68  C   UNL A   1      35.118  33.273  30.601  1.00  0.00     0.020 A 
ATOM     69  C   UNL A   1      34.926  34.030  29.446  1.00  0.00     0.054 A 
BRANCH  69  70
ATOM     70  S   UNL A   1      33.341  34.860  29.143  1.00  0.00     0.124 S 
ATOM     71  O   UNL A   1      33.770  36.157  28.630  1.00  0.00    -0.237 OA
ATOM     72  O   UNL A   1      32.701  33.975  28.174  1.00  0.00    -0.237 OA
ATOM     73  O   UNL A   1      32.711  34.886  30.463  1.00  0.00    -0.744 OA
ENDBRANCH  69  70
ENDBRANCH  41  64
BRANCH  53  74
ATOM     74  C   UNL A   1      43.282  34.422  33.150  1.00  0.00    -0.014 A 
ATOM     75  C   UNL A   1      43.915  35.478  32.471  1.00  0.00     0.010 A 
ATOM     76  C   UNL A   1      43.012  34.556  34.524  1.00  0.00     0.010 A 
ATOM     77  C   UNL A   1      44.301  36.631  33.160  1.00  0.00     0.020 A 
ATOM     78  C   UNL A   1      43.366  35.720  35.211  1.00  0.00     0.020 A 
ATOM     79  C   UNL A   1      44.023  36.744  34.526  1.00  0.00     0.054 A 
BRANCH  79  80
ATOM     80  S   UNL A   1      44.495  38.268  35.388  1.00  0.00     0.124 S 
ATOM     81  O   UNL A   1      45.939  38.304  35.174  1.00  0.00    -0.237 OA
ATOM     82  O   UNL A   1      43.729  39.289  34.676  1.00  0.00    -0.237 OA
ATOM     83  O   UNL A   1      44.076  38.032  36.769  1.00  0.00    -0.744 OA
ENDBRANCH  79  80
ENDBRANCH  53  74
ENDBRANCH  27  28
ENDBRANCH  19  22
ENDBRANCH  17  18
ENDBRANCH   1  17
TORSDOF 17
ENDMDL
MODEL 2
REMARK VINA RESULT:      -9.4      2.686      9.229
REMARK SMILES CC[C@H](C)[C@@H](C)[C@](C)(O)C(=O)NCCCNC(=O)c1ccc(-c2c3nc(c(-c4ccc(S(=O)(=O)[O-])cc4)c4ccc([nH]4)c(-c4ccc(S(=O)(=O)[O-])cc4)c4nc(c(-c5ccc(S(=O)(=O)[O-])cc5)c5ccc2[nH]5)C=C4)C=C3)cc1
REMARK SMILES IDX 14 1 13 2 12 3 10 4 11 5 7 7 8 8 5 9 6 10 3 11 4 12 2 13
REMARK SMILES IDX 1 14 9 15 15 17 16 18 17 19 18 21 19 22 20 23 78 24 21 25
REMARK SMILES IDX 77 26 22 27 23 28 24 29 71 30 25 31 76 32 70 33 72 34 26 35
REMARK SMILES IDX 75 36 69 37 68 38 27 40 57 41 38 42 56 43 39 44 42 45 55 46
REMARK SMILES IDX 73 47 40 48 41 49 54 51 74 52 43 53 28 54 29 55 37 56 30 57
REMARK SMILES IDX 36 58 31 59 32 60 33 61 34 62 35 63 58 64 59 65 67 66 60 67
REMARK SMILES IDX 66 68 61 69 62 70 63 71 64 72 65 73 44 74 45 75 53 76 46 77
REMARK SMILES IDX 52 78 47 79 48 80 49 81 50 82 51 83
REMARK H PARENT 12 6 9 16 16 20 72 39 42 50
REMARK Flexibility Score: inf
ROOT
ATOM      1  C   UNL A   1      32.815  27.968  26.114  1.00  0.00     0.042 C 
ENDROOT
BRANCH   1   2
ATOM      2  C   UNL A   1      31.423  27.357  26.124  1.00  0.00     0.117 C 
BRANCH   2   3
ATOM      3  N   UNL A   1      31.355  26.120  26.889  1.00  0.00    -0.354 N 
ATOM      4  C   UNL A   1      31.707  24.845  26.524  1.00  0.00     0.251 C 
ATOM      5  O   UNL A   1      31.492  23.946  27.343  1.00  0.00    -0.272 OA
ATOM      6  H   UNL A   1      31.005  26.211  27.803  1.00  0.00     0.163 HD
BRANCH   4   7
ATOM      7  C   UNL A   1      32.398  24.581  25.150  1.00  0.00     0.143 C 
ATOM      8  C   UNL A   1      33.846  25.108  25.136  1.00  0.00     0.053 C 
BRANCH   7   9
ATOM      9  C   UNL A   1      31.510  25.100  23.949  1.00  0.00     0.030 C 
ATOM     10  C   UNL A   1      30.627  23.954  23.412  1.00  0.00     0.011 C 
BRANCH   9  11
ATOM     11  C   UNL A   1      32.229  25.860  22.773  1.00  0.00    -0.008 C 
ATOM     12  C   UNL A   1      32.772  24.851  21.734  1.00  0.00     0.008 C 
BRANCH  11  13
ATOM     13  C   UNL A   1      31.341  26.888  22.028  1.00  0.00     0.000 C 
ATOM     14  C   UNL A   1      31.402  28.274  22.658  1.00  0.00     0.004 C 
ENDBRANCH  11  13
ENDBRANCH   9  11
ENDBRANCH   7   9
BRANCH   7  15
ATOM     15  O   UNL A   1      32.493  23.135  25.109  1.00  0.00    -0.380 OA
ATOM     16  H   UNL A   1      31.607  22.755  25.003  1.00  0.00     0.212 HD
ENDBRANCH   7  15
ENDBRANCH   4   7
ENDBRANCH   2   3
ENDBRANCH   1   2
BRANCH   1  17
ATOM     17  C   UNL A   1      33.286  28.438  27.481  1.00  0.00     0.118 C 
BRANCH  17  18
ATOM     18  N   UNL A   1      33.349  29.892  27.588  1.00  0.00    -0.352 N 
ATOM     19  C   UNL A   1      34.361  30.706  28.034  1.00  0.00     0.251 C 
ATOM     20  H   UNL A   1      32.537  30.364  27.295  1.00  0.00     0.163 HD
ATOM     21  O   UNL A   1      34.138  31.902  28.220  1.00  0.00    -0.269 OA
BRANCH  19  22
ATOM     22  C   UNL A   1      35.702  30.150  28.312  1.00  0.00     0.039 A 
ATOM     23  C   UNL A   1      36.653  30.130  27.289  1.00  0.00     0.014 A 
ATOM     24  C   UNL A   1      36.025  29.650  29.576  1.00  0.00     0.014 A 
ATOM     25  C   UNL A   1      37.949  29.686  27.558  1.00  0.00     0.010 A 
ATOM     26  C   UNL A   1      37.338  29.298  29.866  1.00  0.00     0.010 A 
ATOM     27  C   UNL A   1      38.316  29.312  28.861  1.00  0.00    -0.014 A 
BRANCH  27  28
ATOM     28  C   UNL A   1      39.718  28.955  29.199  1.00  0.00     0.031 A 
ATOM     29  C   UNL A   1      40.627  29.969  29.840  1.00  0.00     0.074 A 
ATOM     30  C   UNL A   1      40.193  27.739  28.861  1.00  0.00     0.049 A 
ATOM     31  N   UNL A   1      41.895  29.860  30.147  1.00  0.00    -0.248 NA
ATOM     32  C   UNL A   1      40.046  31.285  30.153  1.00  0.00     0.031 C 
ATOM     33  C   UNL A   1      39.424  26.685  28.194  1.00  0.00     0.029 A 
ATOM     34  N   UNL A   1      41.438  27.186  29.022  1.00  0.00    -0.354 N 
ATOM     35  C   UNL A   1      42.264  31.092  30.676  1.00  0.00     0.074 A 
ATOM     36  C   UNL A   1      41.103  31.950  30.596  1.00  0.00     0.031 C 
ATOM     37  C   UNL A   1      40.204  25.604  28.035  1.00  0.00     0.029 A 
ATOM     38  C   UNL A   1      41.541  25.904  28.537  1.00  0.00     0.049 A 
ATOM     39  H   UNL A   1      42.188  27.664  29.446  1.00  0.00     0.167 HD
ATOM     40  C   UNL A   1      43.456  31.470  31.195  1.00  0.00     0.031 A 
ATOM     41  C   UNL A   1      42.594  25.064  28.490  1.00  0.00     0.031 A 
ATOM     42  C   UNL A   1      44.609  30.611  31.274  1.00  0.00     0.049 A 
ATOM     43  C   UNL A   1      43.914  25.514  29.052  1.00  0.00     0.074 A 
ATOM     44  C   UNL A   1      45.845  30.881  31.832  1.00  0.00     0.029 A 
ATOM     45  N   UNL A   1      44.670  29.317  30.773  1.00  0.00    -0.354 N 
ATOM     46  N   UNL A   1      44.222  26.660  29.612  1.00  0.00    -0.248 NA
ATOM     47  C   UNL A   1      45.025  24.555  28.986  1.00  0.00     0.031 C 
ATOM     48  C   UNL A   1      46.674  29.776  31.614  1.00  0.00     0.029 A 
ATOM     49  C   UNL A   1      45.933  28.790  30.982  1.00  0.00     0.049 A 
ATOM     50  H   UNL A   1      43.926  28.845  30.334  1.00  0.00     0.167 HD
ATOM     51  C   UNL A   1      45.556  26.549  29.990  1.00  0.00     0.074 A 
ATOM     52  C   UNL A   1      45.988  25.218  29.611  1.00  0.00     0.031 C 
ATOM     53  C   UNL A   1      46.351  27.465  30.596  1.00  0.00     0.031 A 
BRANCH  40  54
ATOM     54  C   UNL A   1      43.579  32.880  31.714  1.00  0.00    -0.014 A 
ATOM     55  C   UNL A   1      43.433  33.168  33.083  1.00  0.00     0.010 A 
ATOM     56  C   UNL A   1      43.890  33.927  30.826  1.00  0.00     0.010 A 
ATOM     57  C   UNL A   1      43.556  34.481  33.548  1.00  0.00     0.020 A 
ATOM     58  C   UNL A   1      44.044  35.236  31.292  1.00  0.00     0.020 A 
ATOM     59  C   UNL A   1      43.860  35.506  32.649  1.00  0.00     0.054 A 
BRANCH  59  60
ATOM     60  S   UNL A   1      44.039  37.194  33.287  1.00  0.00     0.124 S 
ATOM     61  O   UNL A   1      45.216  37.069  34.144  1.00  0.00    -0.237 OA
ATOM     62  O   UNL A   1      44.231  37.978  32.069  1.00  0.00    -0.237 OA
ATOM     63  O   UNL A   1      42.781  37.438  33.989  1.00  0.00    -0.744 OA
ENDBRANCH  59  60
ENDBRANCH  40  54
BRANCH  41  64
ATOM     64  C   UNL A   1      42.437  23.708  27.893  1.00  0.00    -0.014 A 
ATOM     65  C   UNL A   1      42.769  23.476  26.547  1.00  0.00     0.010 A 
ATOM     66  C   UNL A   1      41.965  22.637  28.674  1.00  0.00     0.010 A 
ATOM     67  C   UNL A   1      42.614  22.205  25.987  1.00  0.00     0.020 A 
ATOM     68  C   UNL A   1      41.840  21.357  28.127  1.00  0.00     0.020 A 
ATOM     69  C   UNL A   1      42.153  21.151  26.783  1.00  0.00     0.054 A 
BRANCH  69  70
ATOM     70  S   UNL A   1      42.009  19.499  26.047  1.00  0.00     0.124 S 
ATOM     71  O   UNL A   1      42.827  19.629  24.845  1.00  0.00    -0.237 OA
ATOM     72  O   UNL A   1      42.554  18.639  27.094  1.00  0.00    -0.237 OA
ATOM     73  O   UNL A   1      40.573  19.352  25.815  1.00  0.00    -0.744 OA
ENDBRANCH  69  70
ENDBRANCH  41  64
BRANCH  53  74
ATOM     74  C   UNL A   1      47.764  27.052  30.921  1.00  0.00    -0.014 A 
ATOM     75  C   UNL A   1      48.080  26.414  32.133  1.00  0.00     0.010 A 
ATOM     76  C   UNL A   1      48.781  27.260  29.971  1.00  0.00     0.010 A 
ATOM     77  C   UNL A   1      49.394  26.023  32.405  1.00  0.00     0.020 A 
ATOM     78  C   UNL A   1      50.090  26.842  30.225  1.00  0.00     0.020 A 
ATOM     79  C   UNL A   1      50.391  26.239  31.448  1.00  0.00     0.054 A 
BRANCH  79  80
ATOM     80  S   UNL A   1      52.079  25.684  31.806  1.00  0.00     0.124 S 
ATOM     81  O   UNL A   1      52.432  26.509  32.959  1.00  0.00    -0.237 OA
ATOM     82  O   UNL A   1      51.896  24.261  32.085  1.00  0.00    -0.237 OA
ATOM     83  O   UNL A   1      52.813  25.984  30.578  1.00  0.00    -0.744 OA
ENDBRANCH  79  80
ENDBRANCH  53  74
ENDBRANCH  27  28
ENDBRANCH  19  22
ENDBRANCH  17  18
ENDBRANCH   1  17
TORSDOF 17
ENDMDL
MODEL 3
REMARK VINA RESULT:      -9.3      2.886      5.573
REMARK SMILES CC[C@H](C)[C@@H](C)[C@](C)(O)C(=O)NCCCNC(=O)c1ccc(-c2c3nc(c(-c4ccc(S(=O)(=O)[O-])cc4)c4ccc([nH]4)c(-c4ccc(S(=O)(=O)[O-])cc4)c4nc(c(-c5ccc(S(=O)(=O)[O-])cc5)c5ccc2[nH]5)C=C4)C=C3)cc1
REMARK SMILES IDX 14 1 13 2 12 3 10 4 11 5 7 7 8 8 5 9 6 10 3 11 4 12 2 13
REMARK SMILES IDX 1 14 9 15 15 17 16 18 17 19 18 21 19 22 20 23 78 24 21 25
REMARK SMILES IDX 77 26 22 27 23 28 24 29 71 30 25 31 76 32 70 33 72 34 26 35
REMARK SMILES IDX 75 36 69 37 68 38 27 40 57 41 38 42 56 43 39 44 42 45 55 46
REMARK SMILES IDX 73 47 40 48 41 49 54 51 74 52 43 53 28 54 29 55 37 56 30 57
REMARK SMILES IDX 36 58 31 59 32 60 33 61 34 62 35 63 58 64 59 65 67 66 60 67
REMARK SMILES IDX 66 68 61 69 62 70 63 71 64 72 65 73 44 74 45 75 53 76 46 77
REMARK SMILES IDX 52 78 47 79 48 80 49 81 50 82 51 83
REMARK H PARENT 12 6 9 16 16 20 72 39 42 50
REMARK Flexibility Score: inf
ROOT
ATOM      1  C   UNL A   1      42.466  22.316  25.764  1.00  0.00     0.042 C 
ENDROOT
BRANCH   1   2
ATOM      2  C   UNL A   1      43.873  22.176  26.319  1.00  0.00     0.117 C 
BRANCH   2   3
ATOM      3  N   UNL A   1      43.982  22.621  27.701  1.00  0.00    -0.354 N 
ATOM      4  C   UNL A   1      44.853  23.519  28.265  1.00  0.00     0.251 C 
ATOM      5  O   UNL A   1      44.780  23.681  29.487  1.00  0.00    -0.272 OA
ATOM      6  H   UNL A   1      43.336  22.218  28.323  1.00  0.00     0.163 HD
BRANCH   4   7
ATOM      7  C   UNL A   1      45.840  24.328  27.368  1.00  0.00     0.143 C 
ATOM      8  C   UNL A   1      46.997  24.922  28.195  1.00  0.00     0.053 C 
BRANCH   7   9
ATOM      9  C   UNL A   1      45.075  25.385  26.476  1.00  0.00     0.030 C 
ATOM     10  C   UNL A   1      45.024  24.901  25.011  1.00  0.00     0.011 C 
BRANCH   9  11
ATOM     11  C   UNL A   1      45.529  26.890  26.560  1.00  0.00    -0.008 C 
ATOM     12  C   UNL A   1      46.643  27.173  25.525  1.00  0.00     0.008 C 
BRANCH  11  13
ATOM     13  C   UNL A   1      44.394  27.921  26.340  1.00  0.00     0.000 C 
ATOM     14  C   UNL A   1      44.710  29.275  26.965  1.00  0.00     0.004 C 
ENDBRANCH  11  13
ENDBRANCH   9  11
ENDBRANCH   7   9
BRANCH   7  15
ATOM     15  O   UNL A   1      46.428  23.302  26.529  1.00  0.00    -0.380 OA
ATOM     16  H   UNL A   1      46.020  23.331  25.649  1.00  0.00     0.212 HD
ENDBRANCH   7  15
ENDBRANCH   4   7
ENDBRANCH   2   3
ENDBRANCH   1   2
BRANCH   1  17
ATOM     17  C   UNL A   1      41.379  21.883  26.736  1.00  0.00     0.118 C 
BRANCH  17  18
ATOM     18  N   UNL A   1      40.046  21.918  26.144  1.00  0.00    -0.352 N 
ATOM     19  C   UNL A   1      39.067  22.877  26.218  1.00  0.00     0.251 C 
ATOM     20  H   UNL A   1      39.810  21.126  25.608  1.00  0.00     0.163 HD
ATOM     21  O   UNL A   1      37.938  22.623  25.799  1.00  0.00    -0.269 OA
BRANCH  19  22
ATOM     22  C   UNL A   1      39.356  24.197  26.817  1.00  0.00     0.039 A 
ATOM     23  C   UNL A   1      38.929  24.459  28.121  1.00  0.00     0.014 A 
ATOM     24  C   UNL A   1      40.045  25.177  26.098  1.00  0.00     0.014 A 
ATOM     25  C   UNL A   1      39.267  25.668  28.730  1.00  0.00     0.010 A 
ATOM     26  C   UNL A   1      40.460  26.340  26.736  1.00  0.00     0.010 A 
ATOM     27  C   UNL A   1      40.077  26.600  28.059  1.00  0.00    -0.014 A 
BRANCH  27  28
ATOM     28  C   UNL A   1      40.552  27.837  28.730  1.00  0.00     0.031 A 
ATOM     29  C   UNL A   1      41.931  27.895  29.330  1.00  0.00     0.074 A 
ATOM     30  C   UNL A   1      39.713  28.884  28.862  1.00  0.00     0.049 A 
ATOM     31  N   UNL A   1      42.494  28.863  30.008  1.00  0.00    -0.248 NA
ATOM     32  C   UNL A   1      42.779  26.702  29.172  1.00  0.00     0.031 C 
ATOM     33  C   UNL A   1      38.336  28.935  28.364  1.00  0.00     0.029 A 
ATOM     34  N   UNL A   1      39.890  30.106  29.462  1.00  0.00    -0.354 N 
ATOM     35  C   UNL A   1      43.752  28.393  30.366  1.00  0.00     0.074 A 
ATOM     36  C   UNL A   1      43.850  27.035  29.880  1.00  0.00     0.031 C 
ATOM     37  C   UNL A   1      37.808  30.135  28.649  1.00  0.00     0.029 A 
ATOM     38  C   UNL A   1      38.784  30.920  29.396  1.00  0.00     0.049 A 
ATOM     39  H   UNL A   1      40.731  30.373  29.899  1.00  0.00     0.167 HD
ATOM     40  C   UNL A   1      44.744  29.038  31.026  1.00  0.00     0.031 A 
ATOM     41  C   UNL A   1      38.572  32.156  29.889  1.00  0.00     0.031 A 
ATOM     42  C   UNL A   1      44.642  30.392  31.507  1.00  0.00     0.049 A 
ATOM     43  C   UNL A   1      39.680  32.844  30.638  1.00  0.00     0.074 A 
ATOM     44  C   UNL A   1      45.610  31.154  32.138  1.00  0.00     0.029 A 
ATOM     45  N   UNL A   1      43.505  31.183  31.417  1.00  0.00    -0.354 N 
ATOM     46  N   UNL A   1      40.888  32.408  30.905  1.00  0.00    -0.248 NA
ATOM     47  C   UNL A   1      39.400  34.195  31.144  1.00  0.00     0.031 C 
ATOM     48  C   UNL A   1      45.039  32.382  32.486  1.00  0.00     0.029 A 
ATOM     49  C   UNL A   1      43.738  32.413  32.010  1.00  0.00     0.049 A 
ATOM     50  H   UNL A   1      42.659  30.910  30.996  1.00  0.00     0.167 HD
ATOM     51  C   UNL A   1      41.522  33.441  31.586  1.00  0.00     0.074 A 
ATOM     52  C   UNL A   1      40.569  34.529  31.673  1.00  0.00     0.031 C 
ATOM     53  C   UNL A   1      42.779  33.486  32.093  1.00  0.00     0.031 A 
BRANCH  40  54
ATOM     54  C   UNL A   1      46.025  28.284  31.276  1.00  0.00    -0.014 A 
ATOM     55  C   UNL A   1      46.185  27.478  32.418  1.00  0.00     0.010 A 
ATOM     56  C   UNL A   1      47.067  28.345  30.333  1.00  0.00     0.010 A 
ATOM     57  C   UNL A   1      47.378  26.781  32.632  1.00  0.00     0.020 A 
ATOM     58  C   UNL A   1      48.249  27.625  30.527  1.00  0.00     0.020 A 
ATOM     59  C   UNL A   1      48.402  26.859  31.685  1.00  0.00     0.054 A 
BRANCH  59  60
ATOM     60  S   UNL A   1      49.927  25.922  31.977  1.00  0.00     0.124 S 
ATOM     61  O   UNL A   1      49.698  25.383  33.315  1.00  0.00    -0.237 OA
ATOM     62  O   UNL A   1      49.912  24.941  30.895  1.00  0.00    -0.237 OA
ATOM     63  O   UNL A   1      50.980  26.931  31.885  1.00  0.00    -0.744 OA
ENDBRANCH  59  60
ENDBRANCH  40  54
BRANCH  41  64
ATOM     64  C   UNL A   1      37.257  32.824  29.682  1.00  0.00    -0.014 A 
ATOM     65  C   UNL A   1      36.374  33.017  30.758  1.00  0.00     0.010 A 
ATOM     66  C   UNL A   1      36.885  33.283  28.404  1.00  0.00     0.010 A 
ATOM     67  C   UNL A   1      35.137  33.637  30.560  1.00  0.00     0.020 A 
ATOM     68  C   UNL A   1      35.663  33.933  28.208  1.00  0.00     0.020 A 
ATOM     69  C   UNL A   1      34.792  34.095  29.285  1.00  0.00     0.054 A 
BRANCH  69  70
ATOM     70  S   UNL A   1      33.203  34.943  29.063  1.00  0.00     0.124 S 
ATOM     71  O   UNL A   1      33.625  36.274  28.640  1.00  0.00    -0.237 OA
ATOM     72  O   UNL A   1      32.552  34.129  28.040  1.00  0.00    -0.237 OA
ATOM     73  O   UNL A   1      32.590  34.873  30.389  1.00  0.00    -0.744 OA
ENDBRANCH  69  70
ENDBRANCH  41  64
BRANCH  53  74
ATOM     74  C   UNL A   1      43.214  34.766  32.760  1.00  0.00    -0.014 A 
ATOM     75  C   UNL A   1      43.885  35.773  32.044  1.00  0.00     0.010 A 
ATOM     76  C   UNL A   1      42.898  34.982  34.114  1.00  0.00     0.010 A 
ATOM     77  C   UNL A   1      44.262  36.960  32.680  1.00  0.00     0.020 A 
ATOM     78  C   UNL A   1      43.243  36.180  34.744  1.00  0.00     0.020 A 
ATOM     79  C   UNL A   1      43.937  37.156  34.026  1.00  0.00     0.054 A 
BRANCH  79  80
ATOM     80  S   UNL A   1      44.400  38.721  34.815  1.00  0.00     0.124 S 
ATOM     81  O   UNL A   1      44.128  38.444  36.223  1.00  0.00    -0.237 OA
ATOM     82  O   UNL A   1      45.812  38.852  34.462  1.00  0.00    -0.237 OA
ATOM     83  O   UNL A   1      43.513  39.702  34.192  1.00  0.00    -0.744 OA
ENDBRANCH  79  80
ENDBRANCH  53  74
ENDBRANCH  27  28
ENDBRANCH  19  22
ENDBRANCH  17  18
ENDBRANCH   1  17
TORSDOF 17
ENDMDL
