MODEL 1
REMARK VINA RESULT:     -13.7      0.000      0.000
REMARK SMILES CCC(=O)Nc1cc(NC(=O)/C=C/C(=O)NCCCNC(=O)c2ccc(-c3c4nc(c(-c5ccc(S(=O)(=O)[O-])cc5)c5ccc([nH]5)c(-c5ccc(S(=O)(=O)[O-])cc5)c5nc(c(-c6ccc(S(=O)(=O)[O-])cc6)c6ccc3[nH]6)C=C5)C=C4)cc2)ccc1C
REMARK SMILES IDX 17 1 16 2 14 3 15 4 13 6 12 7 10 8 9 9 11 11 8 12 6 13 7 14
REMARK SMILES IDX 85 15 84 16 86 17 83 18 5 19 3 20 4 21 2 23 1 24 18 25 19 26
REMARK SMILES IDX 20 27 21 28 22 30 23 31 24 32 82 33 25 34 81 35 26 36 27 37
REMARK SMILES IDX 28 38 75 39 29 40 80 41 74 42 76 43 30 44 79 45 73 46 72 47
REMARK SMILES IDX 31 49 61 50 42 51 60 52 43 53 46 54 59 55 77 56 44 57 45 58
REMARK SMILES IDX 58 60 78 61 47 62 32 63 33 64 41 65 34 66 40 67 35 68 36 69
REMARK SMILES IDX 37 70 38 71 39 72 62 73 63 74 71 75 64 76 70 77 65 78 66 79
REMARK SMILES IDX 67 80 68 81 69 82 48 83 49 84 57 85 50 86 56 87 51 88 52 89
REMARK SMILES IDX 53 90 54 91 55 92
REMARK H PARENT 16 5 9 10 5 22 20 29 76 48 46 59
REMARK Flexibility Score: inf
ROOT
ATOM      1  C   UNL A   1      32.386  30.065  26.059  1.00  0.00     0.118 C 
ENDROOT
BRANCH   1   2
ATOM      2  N   UNL A   1      32.891  29.767  24.723  1.00  0.00    -0.352 N 
ATOM      3  C   UNL A   1      32.303  29.095  23.701  1.00  0.00     0.244 C 
ATOM      4  O   UNL A   1      32.879  28.919  22.628  1.00  0.00    -0.270 OA
ATOM      5  H   UNL A   1      33.797  30.103  24.535  1.00  0.00     0.163 HD
BRANCH   3   6
ATOM      6  C   UNL A   1      30.935  28.558  23.856  1.00  0.00     0.077 C 
ATOM      7  C   UNL A   1      30.697  27.265  23.594  1.00  0.00     0.077 C 
BRANCH   7   8
ATOM      8  C   UNL A   1      29.471  26.621  24.090  1.00  0.00     0.248 C 
ATOM      9  N   UNL A   1      29.550  25.586  24.983  1.00  0.00    -0.322 N 
ATOM     10  H   UNL A   1      28.677  25.194  25.216  1.00  0.00     0.170 HD
ATOM     11  O   UNL A   1      28.376  27.010  23.690  1.00  0.00    -0.270 OA
BRANCH   9  12
ATOM     12  C   UNL A   1      30.642  24.976  25.633  1.00  0.00     0.043 A 
ATOM     13  C   UNL A   1      32.009  23.037  26.194  1.00  0.00     0.046 A 
ATOM     14  C   UNL A   1      30.784  23.603  25.828  1.00  0.00     0.052 A 
ATOM     15  C   UNL A   1      33.113  23.867  26.421  1.00  0.00    -0.027 A 
ATOM     16  C   UNL A   1      32.916  25.259  26.413  1.00  0.00     0.008 A 
ATOM     17  C   UNL A   1      34.531  23.371  26.469  1.00  0.00     0.046 C 
ATOM     18  C   UNL A   1      31.692  25.808  26.023  1.00  0.00     0.026 A 
BRANCH  13  19
ATOM     19  N   UNL A   1      32.114  21.645  26.067  1.00  0.00    -0.326 N 
ATOM     20  C   UNL A   1      32.246  20.890  24.935  1.00  0.00     0.224 C 
ATOM     21  O   UNL A   1      32.020  19.680  24.970  1.00  0.00    -0.275 OA
ATOM     22  H   UNL A   1      32.088  21.140  26.911  1.00  0.00     0.169 HD
BRANCH  20  23
ATOM     23  C   UNL A   1      32.815  21.525  23.679  1.00  0.00     0.097 C 
ATOM     24  C   UNL A   1      32.026  21.286  22.412  1.00  0.00     0.014 C 
ENDBRANCH  20  23
ENDBRANCH  13  19
ENDBRANCH   9  12
ENDBRANCH   7   8
ENDBRANCH   3   6
ENDBRANCH   1   2
BRANCH   1  25
ATOM     25  C   UNL A   1      33.158  29.344  27.158  1.00  0.00     0.042 C 
BRANCH  25  26
ATOM     26  C   UNL A   1      34.658  29.406  26.918  1.00  0.00     0.118 C 
BRANCH  26  27
ATOM     27  N   UNL A   1      35.243  30.672  27.340  1.00  0.00    -0.352 N 
ATOM     28  C   UNL A   1      36.410  30.849  28.050  1.00  0.00     0.251 C 
ATOM     29  H   UNL A   1      34.750  31.488  27.092  1.00  0.00     0.163 HD
ATOM     30  O   UNL A   1      36.705  31.902  28.604  1.00  0.00    -0.269 OA
BRANCH  28  31
ATOM     31  C   UNL A   1      37.381  29.744  27.979  1.00  0.00     0.039 A 
ATOM     32  C   UNL A   1      37.508  28.947  29.124  1.00  0.00     0.014 A 
ATOM     33  C   UNL A   1      38.334  29.720  26.965  1.00  0.00     0.014 A 
ATOM     34  C   UNL A   1      38.681  28.230  29.326  1.00  0.00     0.010 A 
ATOM     35  C   UNL A   1      39.532  29.077  27.210  1.00  0.00     0.010 A 
ATOM     36  C   UNL A   1      39.720  28.367  28.405  1.00  0.00    -0.014 A 
BRANCH  36  37
ATOM     37  C   UNL A   1      41.062  27.847  28.640  1.00  0.00     0.031 A 
ATOM     38  C   UNL A   1      41.377  26.451  28.264  1.00  0.00     0.074 A 
ATOM     39  C   UNL A   1      42.025  28.639  29.157  1.00  0.00     0.049 A 
ATOM     40  N   UNL A   1      42.299  25.731  28.813  1.00  0.00    -0.248 NA
ATOM     41  C   UNL A   1      40.608  25.730  27.255  1.00  0.00     0.031 C 
ATOM     42  C   UNL A   1      43.458  28.358  29.191  1.00  0.00     0.029 A 
ATOM     43  N   UNL A   1      41.882  29.768  29.966  1.00  0.00    -0.354 N 
ATOM     44  C   UNL A   1      42.443  24.596  28.045  1.00  0.00     0.074 A 
ATOM     45  C   UNL A   1      41.311  24.600  27.148  1.00  0.00     0.031 C 
ATOM     46  C   UNL A   1      44.011  29.071  30.184  1.00  0.00     0.029 A 
ATOM     47  C   UNL A   1      42.925  29.717  30.905  1.00  0.00     0.049 A 
ATOM     48  H   UNL A   1      41.187  30.463  29.894  1.00  0.00     0.167 HD
ATOM     49  C   UNL A   1      43.582  23.851  28.133  1.00  0.00     0.031 A 
ATOM     50  C   UNL A   1      42.745  29.675  32.257  1.00  0.00     0.031 A 
ATOM     51  C   UNL A   1      44.485  24.353  29.165  1.00  0.00     0.049 A 
ATOM     52  C   UNL A   1      43.390  28.468  32.900  1.00  0.00     0.074 A 
ATOM     53  C   UNL A   1      45.609  25.161  29.110  1.00  0.00     0.029 A 
ATOM     54  N   UNL A   1      44.111  24.285  30.502  1.00  0.00    -0.354 N 
ATOM     55  N   UNL A   1      43.773  27.411  32.241  1.00  0.00    -0.248 NA
ATOM     56  C   UNL A   1      43.599  28.333  34.341  1.00  0.00     0.031 C 
ATOM     57  C   UNL A   1      45.863  25.645  30.418  1.00  0.00     0.029 A 
ATOM     58  C   UNL A   1      44.911  25.111  31.268  1.00  0.00     0.049 A 
ATOM     59  H   UNL A   1      43.380  23.725  30.853  1.00  0.00     0.167 HD
ATOM     60  C   UNL A   1      44.247  26.471  33.117  1.00  0.00     0.074 A 
ATOM     61  C   UNL A   1      44.131  27.101  34.420  1.00  0.00     0.031 C 
ATOM     62  C   UNL A   1      44.684  25.247  32.700  1.00  0.00     0.031 A 
BRANCH  49  63
ATOM     63  C   UNL A   1      44.005  22.880  27.048  1.00  0.00    -0.014 A 
ATOM     64  C   UNL A   1      43.073  21.950  26.544  1.00  0.00     0.010 A 
ATOM     65  C   UNL A   1      45.313  22.783  26.538  1.00  0.00     0.010 A 
ATOM     66  C   UNL A   1      43.450  20.907  25.684  1.00  0.00     0.020 A 
ATOM     67  C   UNL A   1      45.716  21.721  25.711  1.00  0.00     0.020 A 
ATOM     68  C   UNL A   1      44.782  20.777  25.302  1.00  0.00     0.054 A 
BRANCH  68  69
ATOM     69  S   UNL A   1      45.275  19.362  24.283  1.00  0.00     0.124 S 
ATOM     70  O   UNL A   1      44.415  19.500  23.110  1.00  0.00    -0.237 OA
ATOM     71  O   UNL A   1      46.694  19.618  24.058  1.00  0.00    -0.237 OA
ATOM     72  O   UNL A   1      44.979  18.206  25.128  1.00  0.00    -0.744 OA
ENDBRANCH  68  69
ENDBRANCH  49  63
BRANCH  50  73
ATOM     73  C   UNL A   1      41.486  30.309  32.735  1.00  0.00    -0.014 A 
ATOM     74  C   UNL A   1      40.401  29.461  33.039  1.00  0.00     0.010 A 
ATOM     75  C   UNL A   1      41.509  31.608  33.269  1.00  0.00     0.010 A 
ATOM     76  C   UNL A   1      39.450  29.840  33.989  1.00  0.00     0.020 A 
ATOM     77  C   UNL A   1      40.553  31.990  34.222  1.00  0.00     0.020 A 
ATOM     78  C   UNL A   1      39.573  31.078  34.621  1.00  0.00     0.054 A 
BRANCH  78  79
ATOM     79  S   UNL A   1      38.555  31.384  36.097  1.00  0.00     0.124 S 
ATOM     80  O   UNL A   1      39.381  32.317  36.856  1.00  0.00    -0.237 OA
ATOM     81  O   UNL A   1      37.336  31.951  35.519  1.00  0.00    -0.237 OA
ATOM     82  O   UNL A   1      38.403  30.056  36.682  1.00  0.00    -0.744 OA
ENDBRANCH  78  79
ENDBRANCH  50  73
BRANCH  62  83
ATOM     83  C   UNL A   1      45.029  24.090  33.603  1.00  0.00    -0.014 A 
ATOM     84  C   UNL A   1      44.130  23.066  33.941  1.00  0.00     0.010 A 
ATOM     85  C   UNL A   1      46.367  23.942  34.042  1.00  0.00     0.010 A 
ATOM     86  C   UNL A   1      44.524  21.984  34.741  1.00  0.00     0.020 A 
ATOM     87  C   UNL A   1      46.781  22.845  34.804  1.00  0.00     0.020 A 
ATOM     88  C   UNL A   1      45.846  21.884  35.173  1.00  0.00     0.054 A 
BRANCH  88  89
ATOM     89  S   UNL A   1      46.364  20.457  36.161  1.00  0.00     0.124 S 
ATOM     90  O   UNL A   1      45.676  20.701  37.426  1.00  0.00    -0.237 OA
ATOM     91  O   UNL A   1      45.864  19.322  35.388  1.00  0.00    -0.237 OA
ATOM     92  O   UNL A   1      47.818  20.580  36.201  1.00  0.00    -0.744 OA
ENDBRANCH  88  89
ENDBRANCH  62  83
ENDBRANCH  36  37
ENDBRANCH  28  31
ENDBRANCH  26  27
ENDBRANCH  25  26
ENDBRANCH   1  25
TORSDOF 17
ENDMDL
MODEL 2
REMARK VINA RESULT:     -13.5      4.922     11.484
REMARK SMILES CCC(=O)Nc1cc(NC(=O)/C=C/C(=O)NCCCNC(=O)c2ccc(-c3c4nc(c(-c5ccc(S(=O)(=O)[O-])cc5)c5ccc([nH]5)c(-c5ccc(S(=O)(=O)[O-])cc5)c5nc(c(-c6ccc(S(=O)(=O)[O-])cc6)c6ccc3[nH]6)C=C5)C=C4)cc2)ccc1C
REMARK SMILES IDX 17 1 16 2 14 3 15 4 13 6 12 7 10 8 9 9 11 11 8 12 6 13 7 14
REMARK SMILES IDX 85 15 84 16 86 17 83 18 5 19 3 20 4 21 2 23 1 24 18 25 19 26
REMARK SMILES IDX 20 27 21 28 22 30 23 31 24 32 82 33 25 34 81 35 26 36 27 37
REMARK SMILES IDX 28 38 75 39 29 40 80 41 74 42 76 43 30 44 79 45 73 46 72 47
REMARK SMILES IDX 31 49 61 50 42 51 60 52 43 53 46 54 59 55 77 56 44 57 45 58
REMARK SMILES IDX 58 60 78 61 47 62 32 63 33 64 41 65 34 66 40 67 35 68 36 69
REMARK SMILES IDX 37 70 38 71 39 72 62 73 63 74 71 75 64 76 70 77 65 78 66 79
REMARK SMILES IDX 67 80 68 81 69 82 48 83 49 84 57 85 50 86 56 87 51 88 52 89
REMARK SMILES IDX 53 90 54 91 55 92
REMARK H PARENT 16 5 9 10 5 22 20 29 76 48 46 59
REMARK Flexibility Score: inf
ROOT
ATOM      1  C   UNL A   1      36.831  21.304  25.367  1.00  0.00     0.118 C 
ENDROOT
BRANCH   1   2
ATOM      2  N   UNL A   1      35.765  21.410  26.357  1.00  0.00    -0.352 N 
ATOM      3  C   UNL A   1      34.422  21.275  26.208  1.00  0.00     0.244 C 
ATOM      4  O   UNL A   1      33.652  21.408  27.158  1.00  0.00    -0.270 OA
ATOM      5  H   UNL A   1      36.065  21.610  27.273  1.00  0.00     0.163 HD
BRANCH   3   6
ATOM      6  C   UNL A   1      33.851  20.954  24.884  1.00  0.00     0.077 C 
ATOM      7  C   UNL A   1      32.816  21.667  24.418  1.00  0.00     0.077 C 
BRANCH   7   8
ATOM      8  C   UNL A   1      32.476  21.634  22.988  1.00  0.00     0.248 C 
ATOM      9  N   UNL A   1      32.567  22.773  22.232  1.00  0.00    -0.322 N 
ATOM     10  H   UNL A   1      32.273  22.656  21.300  1.00  0.00     0.170 HD
ATOM     11  O   UNL A   1      32.101  20.582  22.476  1.00  0.00    -0.270 OA
BRANCH   9  12
ATOM     12  C   UNL A   1      33.001  24.080  22.535  1.00  0.00     0.043 A 
ATOM     13  C   UNL A   1      32.691  26.496  22.593  1.00  0.00     0.046 A 
ATOM     14  C   UNL A   1      32.427  25.245  22.029  1.00  0.00     0.052 A 
ATOM     15  C   UNL A   1      33.591  26.597  23.660  1.00  0.00    -0.027 A 
ATOM     16  C   UNL A   1      34.313  25.452  24.038  1.00  0.00     0.008 A 
ATOM     17  C   UNL A   1      33.684  27.799  24.558  1.00  0.00     0.046 C 
ATOM     18  C   UNL A   1      34.020  24.205  23.480  1.00  0.00     0.026 A 
BRANCH  13  19
ATOM     19  N   UNL A   1      31.839  27.542  22.211  1.00  0.00    -0.326 N 
ATOM     20  C   UNL A   1      30.523  27.740  22.519  1.00  0.00     0.224 C 
ATOM     21  O   UNL A   1      29.847  28.534  21.864  1.00  0.00    -0.275 OA
ATOM     22  H   UNL A   1      32.248  28.231  21.638  1.00  0.00     0.169 HD
BRANCH  20  23
ATOM     23  C   UNL A   1      29.944  27.090  23.763  1.00  0.00     0.097 C 
ATOM     24  C   UNL A   1      28.440  26.939  23.781  1.00  0.00     0.014 C 
ENDBRANCH  20  23
ENDBRANCH  13  19
ENDBRANCH   9  12
ENDBRANCH   7   8
ENDBRANCH   3   6
ENDBRANCH   1   2
BRANCH   1  25
ATOM     25  C   UNL A   1      37.399  22.658  24.963  1.00  0.00     0.042 C 
BRANCH  25  26
ATOM     26  C   UNL A   1      37.762  23.496  26.178  1.00  0.00     0.118 C 
BRANCH  26  27
ATOM     27  N   UNL A   1      39.039  23.112  26.765  1.00  0.00    -0.352 N 
ATOM     28  C   UNL A   1      40.019  23.955  27.241  1.00  0.00     0.251 C 
ATOM     29  H   UNL A   1      39.222  22.146  26.826  1.00  0.00     0.163 HD
ATOM     30  O   UNL A   1      41.167  23.589  27.467  1.00  0.00    -0.269 OA
BRANCH  28  31
ATOM     31  C   UNL A   1      39.575  25.306  27.624  1.00  0.00     0.039 A 
ATOM     32  C   UNL A   1      40.062  26.368  26.853  1.00  0.00     0.014 A 
ATOM     33  C   UNL A   1      38.990  25.518  28.870  1.00  0.00     0.014 A 
ATOM     34  C   UNL A   1      40.101  27.645  27.400  1.00  0.00     0.010 A 
ATOM     35  C   UNL A   1      39.111  26.769  29.444  1.00  0.00     0.010 A 
ATOM     36  C   UNL A   1      39.702  27.820  28.726  1.00  0.00    -0.014 A 
BRANCH  36  37
ATOM     37  C   UNL A   1      39.918  29.059  29.463  1.00  0.00     0.031 A 
ATOM     38  C   UNL A   1      38.890  30.123  29.417  1.00  0.00     0.074 A 
ATOM     39  C   UNL A   1      41.026  29.227  30.216  1.00  0.00     0.049 A 
ATOM     40  N   UNL A   1      39.124  31.381  29.592  1.00  0.00    -0.248 NA
ATOM     41  C   UNL A   1      37.495  29.835  29.096  1.00  0.00     0.031 C 
ATOM     42  C   UNL A   1      41.251  30.270  31.213  1.00  0.00     0.029 A 
ATOM     43  N   UNL A   1      42.274  28.616  30.076  1.00  0.00    -0.354 N 
ATOM     44  C   UNL A   1      37.904  32.011  29.709  1.00  0.00     0.074 A 
ATOM     45  C   UNL A   1      36.929  31.026  29.302  1.00  0.00     0.031 C 
ATOM     46  C   UNL A   1      42.574  30.433  31.370  1.00  0.00     0.029 A 
ATOM     47  C   UNL A   1      43.231  29.599  30.375  1.00  0.00     0.049 A 
ATOM     48  H   UNL A   1      42.449  27.682  29.817  1.00  0.00     0.167 HD
ATOM     49  C   UNL A   1      37.824  33.244  30.286  1.00  0.00     0.031 A 
ATOM     50  C   UNL A   1      44.199  30.021  29.512  1.00  0.00     0.031 A 
ATOM     51  C   UNL A   1      39.142  33.776  30.622  1.00  0.00     0.049 A 
ATOM     52  C   UNL A   1      44.149  31.511  29.253  1.00  0.00     0.074 A 
ATOM     53  C   UNL A   1      39.860  33.816  31.806  1.00  0.00     0.029 A 
ATOM     54  N   UNL A   1      40.034  34.101  29.607  1.00  0.00    -0.354 N 
ATOM     55  N   UNL A   1      43.120  32.262  29.526  1.00  0.00    -0.248 NA
ATOM     56  C   UNL A   1      45.230  32.258  28.612  1.00  0.00     0.031 C 
ATOM     57  C   UNL A   1      41.214  34.088  31.487  1.00  0.00     0.029 A 
ATOM     58  C   UNL A   1      41.312  34.240  30.115  1.00  0.00     0.049 A 
ATOM     59  H   UNL A   1      39.789  34.217  28.660  1.00  0.00     0.167 HD
ATOM     60  C   UNL A   1      43.361  33.543  29.106  1.00  0.00     0.074 A 
ATOM     61  C   UNL A   1      44.703  33.494  28.553  1.00  0.00     0.031 C 
ATOM     62  C   UNL A   1      42.434  34.535  29.235  1.00  0.00     0.031 A 
BRANCH  49  63
ATOM     63  C   UNL A   1      36.528  33.799  30.845  1.00  0.00    -0.014 A 
ATOM     64  C   UNL A   1      35.413  33.951  29.995  1.00  0.00     0.010 A 
ATOM     65  C   UNL A   1      36.365  34.255  32.166  1.00  0.00     0.010 A 
ATOM     66  C   UNL A   1      34.254  34.631  30.399  1.00  0.00     0.020 A 
ATOM     67  C   UNL A   1      35.230  34.976  32.573  1.00  0.00     0.020 A 
ATOM     68  C   UNL A   1      34.185  35.174  31.679  1.00  0.00     0.054 A 
BRANCH  68  69
ATOM     69  S   UNL A   1      32.730  36.145  32.150  1.00  0.00     0.124 S 
ATOM     70  O   UNL A   1      31.765  35.113  32.522  1.00  0.00    -0.237 OA
ATOM     71  O   UNL A   1      33.239  36.958  33.250  1.00  0.00    -0.237 OA
ATOM     72  O   UNL A   1      32.398  36.885  30.933  1.00  0.00    -0.744 OA
ENDBRANCH  68  69
ENDBRANCH  49  63
BRANCH  50  73
ATOM     73  C   UNL A   1      44.618  29.009  28.506  1.00  0.00    -0.014 A 
ATOM     74  C   UNL A   1      44.063  29.102  27.213  1.00  0.00     0.010 A 
ATOM     75  C   UNL A   1      45.807  28.282  28.688  1.00  0.00     0.010 A 
ATOM     76  C   UNL A   1      44.767  28.627  26.103  1.00  0.00     0.020 A 
ATOM     77  C   UNL A   1      46.514  27.804  27.575  1.00  0.00     0.020 A 
ATOM     78  C   UNL A   1      46.019  28.040  26.290  1.00  0.00     0.054 A 
BRANCH  78  79
ATOM     79  S   UNL A   1      47.062  27.775  24.823  1.00  0.00     0.124 S 
ATOM     80  O   UNL A   1      48.402  28.022  25.346  1.00  0.00    -0.237 OA
ATOM     81  O   UNL A   1      46.768  26.382  24.484  1.00  0.00    -0.237 OA
ATOM     82  O   UNL A   1      46.562  28.764  23.873  1.00  0.00    -0.744 OA
ENDBRANCH  78  79
ENDBRANCH  50  73
BRANCH  62  83
ATOM     83  C   UNL A   1      42.536  35.910  28.625  1.00  0.00    -0.014 A 
ATOM     84  C   UNL A   1      41.967  36.262  27.391  1.00  0.00     0.010 A 
ATOM     85  C   UNL A   1      43.126  36.951  29.381  1.00  0.00     0.010 A 
ATOM     86  C   UNL A   1      42.047  37.573  26.899  1.00  0.00     0.020 A 
ATOM     87  C   UNL A   1      43.173  38.270  28.920  1.00  0.00     0.020 A 
ATOM     88  C   UNL A   1      42.656  38.567  27.664  1.00  0.00     0.054 A 
BRANCH  88  89
ATOM     89  S   UNL A   1      42.708  40.270  27.049  1.00  0.00     0.124 S 
ATOM     90  O   UNL A   1      43.484  40.121  25.819  1.00  0.00    -0.237 OA
ATOM     91  O   UNL A   1      41.297  40.597  26.859  1.00  0.00    -0.237 OA
ATOM     92  O   UNL A   1      43.370  41.001  28.126  1.00  0.00    -0.744 OA
ENDBRANCH  88  89
ENDBRANCH  62  83
ENDBRANCH  36  37
ENDBRANCH  28  31
ENDBRANCH  26  27
ENDBRANCH  25  26
ENDBRANCH   1  25
TORSDOF 17
ENDMDL
MODEL 3
REMARK VINA RESULT:     -13.2      1.647      2.306
REMARK SMILES CCC(=O)Nc1cc(NC(=O)/C=C/C(=O)NCCCNC(=O)c2ccc(-c3c4nc(c(-c5ccc(S(=O)(=O)[O-])cc5)c5ccc([nH]5)c(-c5ccc(S(=O)(=O)[O-])cc5)c5nc(c(-c6ccc(S(=O)(=O)[O-])cc6)c6ccc3[nH]6)C=C5)C=C4)cc2)ccc1C
REMARK SMILES IDX 17 1 16 2 14 3 15 4 13 6 12 7 10 8 9 9 11 11 8 12 6 13 7 14
REMARK SMILES IDX 85 15 84 16 86 17 83 18 5 19 3 20 4 21 2 23 1 24 18 25 19 26
REMARK SMILES IDX 20 27 21 28 22 30 23 31 24 32 82 33 25 34 81 35 26 36 27 37
REMARK SMILES IDX 28 38 75 39 29 40 80 41 74 42 76 43 30 44 79 45 73 46 72 47
REMARK SMILES IDX 31 49 61 50 42 51 60 52 43 53 46 54 59 55 77 56 44 57 45 58
REMARK SMILES IDX 58 60 78 61 47 62 32 63 33 64 41 65 34 66 40 67 35 68 36 69
REMARK SMILES IDX 37 70 38 71 39 72 62 73 63 74 71 75 64 76 70 77 65 78 66 79
REMARK SMILES IDX 67 80 68 81 69 82 48 83 49 84 57 85 50 86 56 87 51 88 52 89
REMARK SMILES IDX 53 90 54 91 55 92
REMARK H PARENT 16 5 9 10 5 22 20 29 76 48 46 59
REMARK Flexibility Score: inf
ROOT
ATOM      1  C   UNL A   1      32.737  29.139  25.683  1.00  0.00     0.118 C 
ENDROOT
BRANCH   1   2
ATOM      2  N   UNL A   1      32.035  28.118  26.453  1.00  0.00    -0.352 N 
ATOM      3  C   UNL A   1      31.832  26.805  26.175  1.00  0.00     0.244 C 
ATOM      4  O   UNL A   1      31.200  26.075  26.938  1.00  0.00    -0.270 OA
ATOM      5  H   UNL A   1      31.649  28.430  27.304  1.00  0.00     0.163 HD
BRANCH   3   6
ATOM      6  C   UNL A   1      32.380  26.215  24.937  1.00  0.00     0.077 C 
ATOM      7  C   UNL A   1      31.871  25.067  24.469  1.00  0.00     0.077 C 
BRANCH   7   8
ATOM      8  C   UNL A   1      32.117  24.659  23.077  1.00  0.00     0.248 C 
ATOM      9  N   UNL A   1      33.056  23.704  22.795  1.00  0.00    -0.322 N 
ATOM     10  H   UNL A   1      33.177  23.537  21.832  1.00  0.00     0.170 HD
ATOM     11  O   UNL A   1      31.480  25.187  22.168  1.00  0.00    -0.270 OA
BRANCH   9  12
ATOM     12  C   UNL A   1      33.884  22.914  23.620  1.00  0.00     0.043 A 
ATOM     13  C   UNL A   1      34.290  20.983  25.049  1.00  0.00     0.046 A 
ATOM     14  C   UNL A   1      33.426  21.931  24.496  1.00  0.00     0.052 A 
ATOM     15  C   UNL A   1      35.659  21.044  24.761  1.00  0.00    -0.027 A 
ATOM     16  C   UNL A   1      36.141  22.148  24.037  1.00  0.00     0.008 A 
ATOM     17  C   UNL A   1      36.610  19.905  24.999  1.00  0.00     0.046 C 
ATOM     18  C   UNL A   1      35.262  23.074  23.472  1.00  0.00     0.026 A 
BRANCH  13  19
ATOM     19  N   UNL A   1      33.688  19.875  25.662  1.00  0.00    -0.326 N 
ATOM     20  C   UNL A   1      33.031  18.823  25.089  1.00  0.00     0.224 C 
ATOM     21  O   UNL A   1      32.304  18.101  25.773  1.00  0.00    -0.275 OA
ATOM     22  H   UNL A   1      33.745  19.853  26.645  1.00  0.00     0.169 HD
BRANCH  20  23
ATOM     23  C   UNL A   1      33.320  18.464  23.643  1.00  0.00     0.097 C 
ATOM     24  C   UNL A   1      33.716  17.027  23.393  1.00  0.00     0.014 C 
ENDBRANCH  20  23
ENDBRANCH  13  19
ENDBRANCH   9  12
ENDBRANCH   7   8
ENDBRANCH   3   6
ENDBRANCH   1   2
BRANCH   1  25
ATOM     25  C   UNL A   1      34.197  29.290  26.094  1.00  0.00     0.042 C 
BRANCH  25  26
ATOM     26  C   UNL A   1      34.334  29.530  27.589  1.00  0.00     0.118 C 
BRANCH  26  27
ATOM     27  N   UNL A   1      34.992  30.793  27.897  1.00  0.00    -0.352 N 
ATOM     28  C   UNL A   1      36.216  30.961  28.508  1.00  0.00     0.251 C 
ATOM     29  H   UNL A   1      34.510  31.613  27.643  1.00  0.00     0.163 HD
ATOM     30  O   UNL A   1      36.588  32.029  28.981  1.00  0.00    -0.269 OA
BRANCH  28  31
ATOM     31  C   UNL A   1      37.140  29.818  28.424  1.00  0.00     0.039 A 
ATOM     32  C   UNL A   1      37.338  29.084  29.600  1.00  0.00     0.014 A 
ATOM     33  C   UNL A   1      38.003  29.700  27.337  1.00  0.00     0.014 A 
ATOM     34  C   UNL A   1      38.499  28.335  29.747  1.00  0.00     0.010 A 
ATOM     35  C   UNL A   1      39.195  29.027  27.520  1.00  0.00     0.010 A 
ATOM     36  C   UNL A   1      39.461  28.380  28.737  1.00  0.00    -0.014 A 
BRANCH  36  37
ATOM     37  C   UNL A   1      40.799  27.824  28.891  1.00  0.00     0.031 A 
ATOM     38  C   UNL A   1      41.057  26.424  28.487  1.00  0.00     0.074 A 
ATOM     39  C   UNL A   1      41.811  28.587  29.358  1.00  0.00     0.049 A 
ATOM     40  N   UNL A   1      41.989  25.676  28.978  1.00  0.00    -0.248 NA
ATOM     41  C   UNL A   1      40.212  25.731  27.519  1.00  0.00     0.031 C 
ATOM     42  C   UNL A   1      43.236  28.269  29.308  1.00  0.00     0.029 A 
ATOM     43  N   UNL A   1      41.743  29.712  30.182  1.00  0.00    -0.354 N 
ATOM     44  C   UNL A   1      42.059  24.544  28.195  1.00  0.00     0.074 A 
ATOM     45  C   UNL A   1      40.878  24.585  27.364  1.00  0.00     0.031 C 
ATOM     46  C   UNL A   1      43.862  28.958  30.273  1.00  0.00     0.029 A 
ATOM     47  C   UNL A   1      42.837  29.626  31.059  1.00  0.00     0.049 A 
ATOM     48  H   UNL A   1      41.064  30.425  30.154  1.00  0.00     0.167 HD
ATOM     49  C   UNL A   1      43.181  23.769  28.212  1.00  0.00     0.031 A 
ATOM     50  C   UNL A   1      42.732  29.577  32.419  1.00  0.00     0.031 A 
ATOM     51  C   UNL A   1      44.154  24.240  29.194  1.00  0.00     0.049 A 
ATOM     52  C   UNL A   1      43.382  28.348  33.016  1.00  0.00     0.074 A 
ATOM     53  C   UNL A   1      45.295  25.018  29.082  1.00  0.00     0.029 A 
ATOM     54  N   UNL A   1      43.856  24.169  30.551  1.00  0.00    -0.354 N 
ATOM     55  N   UNL A   1      43.699  27.288  32.328  1.00  0.00    -0.248 NA
ATOM     56  C   UNL A   1      43.668  28.196  34.441  1.00  0.00     0.031 C 
ATOM     57  C   UNL A   1      45.635  25.484  30.376  1.00  0.00     0.029 A 
ATOM     58  C   UNL A   1      44.719  24.968  31.276  1.00  0.00     0.049 A 
ATOM     59  H   UNL A   1      43.132  23.625  30.939  1.00  0.00     0.167 HD
ATOM     60  C   UNL A   1      44.197  26.328  33.169  1.00  0.00     0.074 A 
ATOM     61  C   UNL A   1      44.172  26.949  34.481  1.00  0.00     0.031 C 
ATOM     62  C   UNL A   1      44.578  25.097  32.719  1.00  0.00     0.031 A 
BRANCH  49  63
ATOM     63  C   UNL A   1      43.517  22.798  27.098  1.00  0.00    -0.014 A 
ATOM     64  C   UNL A   1      42.783  21.599  26.975  1.00  0.00     0.010 A 
ATOM     65  C   UNL A   1      44.581  22.967  26.192  1.00  0.00     0.010 A 
ATOM     66  C   UNL A   1      43.165  20.578  26.092  1.00  0.00     0.020 A 
ATOM     67  C   UNL A   1      45.002  21.938  25.333  1.00  0.00     0.020 A 
ATOM     68  C   UNL A   1      44.299  20.740  25.300  1.00  0.00     0.054 A 
BRANCH  68  69
ATOM     69  S   UNL A   1      44.845  19.370  24.248  1.00  0.00     0.124 S 
ATOM     70  O   UNL A   1      46.289  19.355  24.469  1.00  0.00    -0.237 OA
ATOM     71  O   UNL A   1      44.110  18.237  24.803  1.00  0.00    -0.237 OA
ATOM     72  O   UNL A   1      44.434  19.778  22.906  1.00  0.00    -0.744 OA
ENDBRANCH  68  69
ENDBRANCH  49  63
BRANCH  50  73
ATOM     73  C   UNL A   1      41.520  30.238  32.972  1.00  0.00    -0.014 A 
ATOM     74  C   UNL A   1      41.590  31.623  33.230  1.00  0.00     0.010 A 
ATOM     75  C   UNL A   1      40.260  29.631  32.836  1.00  0.00     0.010 A 
ATOM     76  C   UNL A   1      40.438  32.412  33.183  1.00  0.00     0.020 A 
ATOM     77  C   UNL A   1      39.103  30.422  32.790  1.00  0.00     0.020 A 
ATOM     78  C   UNL A   1      39.211  31.812  32.897  1.00  0.00     0.054 A 
BRANCH  78  79
ATOM     79  S   UNL A   1      37.811  32.894  32.477  1.00  0.00     0.124 S 
ATOM     80  O   UNL A   1      36.718  31.941  32.318  1.00  0.00    -0.237 OA
ATOM     81  O   UNL A   1      37.724  33.757  33.656  1.00  0.00    -0.237 OA
ATOM     82  O   UNL A   1      38.254  33.557  31.255  1.00  0.00    -0.744 OA
ENDBRANCH  78  79
ENDBRANCH  50  73
BRANCH  62  83
ATOM     83  C   UNL A   1      44.943  23.924  33.592  1.00  0.00    -0.014 A 
ATOM     84  C   UNL A   1      44.054  22.890  33.925  1.00  0.00     0.010 A 
ATOM     85  C   UNL A   1      46.289  23.773  34.005  1.00  0.00     0.010 A 
ATOM     86  C   UNL A   1      44.467  21.794  34.697  1.00  0.00     0.020 A 
ATOM     87  C   UNL A   1      46.721  22.663  34.737  1.00  0.00     0.020 A 
ATOM     88  C   UNL A   1      45.797  21.691  35.104  1.00  0.00     0.054 A 
BRANCH  88  89
ATOM     89  S   UNL A   1      46.337  20.246  36.053  1.00  0.00     0.124 S 
ATOM     90  O   UNL A   1      45.498  19.188  35.495  1.00  0.00    -0.237 OA
ATOM     91  O   UNL A   1      47.759  20.151  35.729  1.00  0.00    -0.237 OA
ATOM     92  O   UNL A   1      46.045  20.618  37.435  1.00  0.00    -0.744 OA
ENDBRANCH  88  89
ENDBRANCH  62  83
ENDBRANCH  36  37
ENDBRANCH  28  31
ENDBRANCH  26  27
ENDBRANCH  25  26
ENDBRANCH   1  25
TORSDOF 17
ENDMDL
