MODEL 1
REMARK VINA RESULT:     -11.5      0.000      0.000
REMARK SMILES O=C(NCCCNC(=O)[C@H]1CC1(c1ccccc1)c1ccccc1)c1ccc(-c2c3nc(c(-c4ccc(S(=O)(=O)[O-])cc4)c4ccc([nH]4)c(-c4ccc(S(=O)(=O)[O-])cc4)c4nc(c(-c5ccc(S(=O)(=O)[O-])cc5)c5ccc2[nH]5)C=C4)C=C3)cc1
REMARK SMILES IDX 4 1 3 2 1 3 2 4 25 6 26 7 84 8 27 9 83 10 28 11 29 12 30 13
REMARK SMILES IDX 77 14 31 15 82 16 76 17 78 18 32 19 81 20 75 21 74 22 33 24
REMARK SMILES IDX 63 25 44 26 62 27 45 28 48 29 61 30 79 31 46 32 47 33 60 35
REMARK SMILES IDX 80 36 49 37 34 38 35 39 43 40 36 41 42 42 37 43 38 44 39 45
REMARK SMILES IDX 40 46 41 47 64 48 65 49 73 50 66 51 72 52 67 53 68 54 69 55
REMARK SMILES IDX 70 56 71 57 50 58 51 59 59 60 52 61 58 62 53 63 54 64 55 65
REMARK SMILES IDX 56 66 57 67 5 68 6 69 7 70 8 71 9 73 10 74 11 75 12 76 13 77
REMARK SMILES IDX 14 78 18 79 15 80 17 81 16 82 19 83 20 84 24 85 21 86 23 87
REMARK SMILES IDX 22 88
REMARK H PARENT 3 5 78 23 48 34 7 72
REMARK Flexibility Score: inf
ROOT
ATOM      1  C   UNL A   1      33.544  28.102  26.794  1.00  0.00     0.118 C 
ENDROOT
BRANCH   1   2
ATOM      2  N   UNL A   1      33.341  29.514  27.064  1.00  0.00    -0.352 N 
ATOM      3  O   UNL A   1      33.734  31.510  28.021  1.00  0.00    -0.269 OA
ATOM      4  C   UNL A   1      34.167  30.404  27.707  1.00  0.00     0.251 C 
ATOM      5  H   UNL A   1      32.488  29.888  26.740  1.00  0.00     0.163 HD
BRANCH   4   6
ATOM      6  C   UNL A   1      35.564  30.032  28.040  1.00  0.00     0.039 A 
ATOM      7  C   UNL A   1      36.589  30.146  27.097  1.00  0.00     0.014 A 
ATOM      8  C   UNL A   1      35.861  29.609  29.339  1.00  0.00     0.014 A 
ATOM      9  C   UNL A   1      37.880  29.729  27.417  1.00  0.00     0.010 A 
ATOM     10  C   UNL A   1      37.173  29.261  29.681  1.00  0.00     0.010 A 
ATOM     11  C   UNL A   1      38.190  29.300  28.717  1.00  0.00    -0.014 A 
BRANCH  11  12
ATOM     12  C   UNL A   1      39.598  28.977  29.065  1.00  0.00     0.031 A 
ATOM     13  C   UNL A   1      40.470  29.959  29.797  1.00  0.00     0.074 A 
ATOM     14  C   UNL A   1      40.087  27.768  28.722  1.00  0.00     0.049 A 
ATOM     15  N   UNL A   1      41.708  29.818  30.195  1.00  0.00    -0.248 NA
ATOM     16  C   UNL A   1      39.883  31.270  30.115  1.00  0.00     0.031 C 
ATOM     17  C   UNL A   1      39.346  26.737  27.990  1.00  0.00     0.029 A 
ATOM     18  N   UNL A   1      41.311  27.195  28.954  1.00  0.00    -0.354 N 
ATOM     19  C   UNL A   1      42.058  31.023  30.793  1.00  0.00     0.074 A 
ATOM     20  C   UNL A   1      40.905  31.892  30.689  1.00  0.00     0.031 C 
ATOM     21  C   UNL A   1      40.115  25.644  27.871  1.00  0.00     0.029 A 
ATOM     22  C   UNL A   1      41.417  25.912  28.472  1.00  0.00     0.049 A 
ATOM     23  H   UNL A   1      42.044  27.659  29.420  1.00  0.00     0.167 HD
ATOM     24  C   UNL A   1      43.231  31.372  31.376  1.00  0.00     0.031 A 
ATOM     25  C   UNL A   1      42.446  25.046  28.499  1.00  0.00     0.031 A 
ATOM     26  C   UNL A   1      44.375  30.503  31.483  1.00  0.00     0.049 A 
ATOM     27  C   UNL A   1      43.732  25.454  29.155  1.00  0.00     0.074 A 
ATOM     28  C   UNL A   1      45.593  30.757  32.091  1.00  0.00     0.029 A 
ATOM     29  N   UNL A   1      44.446  29.217  30.971  1.00  0.00    -0.354 N 
ATOM     30  N   UNL A   1      44.027  26.587  29.746  1.00  0.00    -0.248 NA
ATOM     31  C   UNL A   1      44.821  24.470  29.149  1.00  0.00     0.031 C 
ATOM     32  C   UNL A   1      46.414  29.638  31.911  1.00  0.00     0.029 A 
ATOM     33  C   UNL A   1      45.692  28.671  31.230  1.00  0.00     0.049 A 
ATOM     34  H   UNL A   1      43.717  28.759  30.493  1.00  0.00     0.167 HD
ATOM     35  C   UNL A   1      45.336  26.449  30.189  1.00  0.00     0.074 A 
ATOM     36  C   UNL A   1      45.767  25.116  29.817  1.00  0.00     0.031 C 
ATOM     37  C   UNL A   1      46.111  27.349  30.842  1.00  0.00     0.031 A 
BRANCH  24  38
ATOM     38  C   UNL A   1      43.347  32.768  31.927  1.00  0.00    -0.014 A 
ATOM     39  C   UNL A   1      43.038  33.047  33.270  1.00  0.00     0.010 A 
ATOM     40  C   UNL A   1      43.820  33.805  31.102  1.00  0.00     0.010 A 
ATOM     41  C   UNL A   1      43.166  34.346  33.769  1.00  0.00     0.020 A 
ATOM     42  C   UNL A   1      43.966  35.102  31.604  1.00  0.00     0.020 A 
ATOM     43  C   UNL A   1      43.622  35.367  32.930  1.00  0.00     0.054 A 
BRANCH  43  44
ATOM     44  S   UNL A   1      43.794  37.043  33.606  1.00  0.00     0.124 S 
ATOM     45  O   UNL A   1      45.042  36.934  34.360  1.00  0.00    -0.237 OA
ATOM     46  O   UNL A   1      43.859  37.871  32.405  1.00  0.00    -0.237 OA
ATOM     47  O   UNL A   1      42.590  37.216  34.415  1.00  0.00    -0.744 OA
ENDBRANCH  43  44
ENDBRANCH  24  38
BRANCH  25  48
ATOM     48  C   UNL A   1      42.289  23.706  27.875  1.00  0.00    -0.014 A 
ATOM     49  C   UNL A   1      42.754  23.467  26.572  1.00  0.00     0.010 A 
ATOM     50  C   UNL A   1      41.718  22.648  28.607  1.00  0.00     0.010 A 
ATOM     51  C   UNL A   1      42.651  22.191  26.010  1.00  0.00     0.020 A 
ATOM     52  C   UNL A   1      41.635  21.368  28.057  1.00  0.00     0.020 A 
ATOM     53  C   UNL A   1      42.096  21.148  26.757  1.00  0.00     0.054 A 
BRANCH  53  54
ATOM     54  S   UNL A   1      42.045  19.481  26.044  1.00  0.00     0.124 S 
ATOM     55  O   UNL A   1      40.620  19.308  25.781  1.00  0.00    -0.237 OA
ATOM     56  O   UNL A   1      42.895  19.613  24.863  1.00  0.00    -0.237 OA
ATOM     57  O   UNL A   1      42.595  18.642  27.105  1.00  0.00    -0.744 OA
ENDBRANCH  53  54
ENDBRANCH  25  48
BRANCH  37  58
ATOM     58  C   UNL A   1      47.504  26.915  31.203  1.00  0.00    -0.014 A 
ATOM     59  C   UNL A   1      47.752  26.201  32.389  1.00  0.00     0.010 A 
ATOM     60  C   UNL A   1      48.571  27.193  30.330  1.00  0.00     0.010 A 
ATOM     61  C   UNL A   1      49.051  25.797  32.711  1.00  0.00     0.020 A 
ATOM     62  C   UNL A   1      49.867  26.773  30.639  1.00  0.00     0.020 A 
ATOM     63  C   UNL A   1      50.101  26.091  31.835  1.00  0.00     0.054 A 
BRANCH  63  64
ATOM     64  S   UNL A   1      51.774  25.528  32.253  1.00  0.00     0.124 S 
ATOM     65  O   UNL A   1      52.193  26.526  33.234  1.00  0.00    -0.237 OA
ATOM     66  O   UNL A   1      51.542  24.186  32.781  1.00  0.00    -0.237 OA
ATOM     67  O   UNL A   1      52.481  25.574  30.975  1.00  0.00    -0.744 OA
ENDBRANCH  63  64
ENDBRANCH  37  58
ENDBRANCH  11  12
ENDBRANCH   4   6
ENDBRANCH   1   2
BRANCH   1  68
ATOM     68  C   UNL A   1      32.248  27.305  26.870  1.00  0.00     0.042 C 
BRANCH  68  69
ATOM     69  C   UNL A   1      32.230  26.049  26.002  1.00  0.00     0.117 C 
BRANCH  69  70
ATOM     70  N   UNL A   1      31.481  25.004  26.664  1.00  0.00    -0.356 N 
ATOM     71  C   UNL A   1      31.839  23.720  26.943  1.00  0.00     0.224 C 
ATOM     72  H   UNL A   1      30.576  25.260  26.957  1.00  0.00     0.163 HD
ATOM     73  O   UNL A   1      30.983  22.955  27.384  1.00  0.00    -0.275 OA
BRANCH  71  74
ATOM     74  C   UNL A   1      33.266  23.310  26.912  1.00  0.00     0.095 C 
ATOM     75  C   UNL A   1      33.532  22.004  27.633  1.00  0.00     0.032 C 
ATOM     76  C   UNL A   1      33.975  22.155  26.184  1.00  0.00     0.033 C 
BRANCH  76  77
ATOM     77  C   UNL A   1      33.254  21.233  25.180  1.00  0.00    -0.037 A 
ATOM     78  C   UNL A   1      33.079  19.861  25.442  1.00  0.00     0.004 A 
ATOM     79  C   UNL A   1      32.886  21.673  23.895  1.00  0.00     0.004 A 
ATOM     80  C   UNL A   1      32.567  18.983  24.480  1.00  0.00     0.000 A 
ATOM     81  C   UNL A   1      32.372  20.804  22.927  1.00  0.00     0.000 A 
ATOM     82  C   UNL A   1      32.218  19.455  23.220  1.00  0.00     0.000 A 
ENDBRANCH  76  77
BRANCH  76  83
ATOM     83  C   UNL A   1      35.522  22.323  25.929  1.00  0.00    -0.037 A 
ATOM     84  C   UNL A   1      36.330  21.253  25.488  1.00  0.00     0.004 A 
ATOM     85  C   UNL A   1      36.207  23.539  26.147  1.00  0.00     0.004 A 
ATOM     86  C   UNL A   1      37.713  21.369  25.313  1.00  0.00     0.000 A 
ATOM     87  C   UNL A   1      37.592  23.666  25.977  1.00  0.00     0.000 A 
ATOM     88  C   UNL A   1      38.347  22.577  25.567  1.00  0.00     0.000 A 
ENDBRANCH  76  83
ENDBRANCH  71  74
ENDBRANCH  69  70
ENDBRANCH  68  69
ENDBRANCH   1  68
TORSDOF 15
ENDMDL
MODEL 2
REMARK VINA RESULT:     -11.4      2.963      9.530
REMARK SMILES O=C(NCCCNC(=O)[C@H]1CC1(c1ccccc1)c1ccccc1)c1ccc(-c2c3nc(c(-c4ccc(S(=O)(=O)[O-])cc4)c4ccc([nH]4)c(-c4ccc(S(=O)(=O)[O-])cc4)c4nc(c(-c5ccc(S(=O)(=O)[O-])cc5)c5ccc2[nH]5)C=C4)C=C3)cc1
REMARK SMILES IDX 4 1 3 2 1 3 2 4 25 6 26 7 84 8 27 9 83 10 28 11 29 12 30 13
REMARK SMILES IDX 77 14 31 15 82 16 76 17 78 18 32 19 81 20 75 21 74 22 33 24
REMARK SMILES IDX 63 25 44 26 62 27 45 28 48 29 61 30 79 31 46 32 47 33 60 35
REMARK SMILES IDX 80 36 49 37 34 38 35 39 43 40 36 41 42 42 37 43 38 44 39 45
REMARK SMILES IDX 40 46 41 47 64 48 65 49 73 50 66 51 72 52 67 53 68 54 69 55
REMARK SMILES IDX 70 56 71 57 50 58 51 59 59 60 52 61 58 62 53 63 54 64 55 65
REMARK SMILES IDX 56 66 57 67 5 68 6 69 7 70 8 71 9 73 10 74 11 75 12 76 13 77
REMARK SMILES IDX 14 78 18 79 15 80 17 81 16 82 19 83 20 84 24 85 21 86 23 87
REMARK SMILES IDX 22 88
REMARK H PARENT 3 5 78 23 48 34 7 72
REMARK Flexibility Score: inf
ROOT
ATOM      1  C   UNL A   1      36.441  23.696  25.697  1.00  0.00     0.118 C 
ENDROOT
BRANCH   1   2
ATOM      2  N   UNL A   1      37.483  22.700  25.870  1.00  0.00    -0.352 N 
ATOM      3  O   UNL A   1      39.570  21.934  26.205  1.00  0.00    -0.269 OA
ATOM      4  C   UNL A   1      38.771  22.859  26.323  1.00  0.00     0.251 C 
ATOM      5  H   UNL A   1      37.232  21.779  25.626  1.00  0.00     0.163 HD
BRANCH   4   6
ATOM      6  C   UNL A   1      39.203  24.141  26.933  1.00  0.00     0.039 A 
ATOM      7  C   UNL A   1      38.910  24.446  28.264  1.00  0.00     0.014 A 
ATOM      8  C   UNL A   1      39.963  25.032  26.168  1.00  0.00     0.014 A 
ATOM      9  C   UNL A   1      39.272  25.684  28.792  1.00  0.00     0.010 A 
ATOM     10  C   UNL A   1      40.392  26.243  26.722  1.00  0.00     0.010 A 
ATOM     11  C   UNL A   1      40.033  26.588  28.033  1.00  0.00    -0.014 A 
BRANCH  11  12
ATOM     12  C   UNL A   1      40.511  27.848  28.659  1.00  0.00     0.031 A 
ATOM     13  C   UNL A   1      41.932  28.002  29.126  1.00  0.00     0.074 A 
ATOM     14  C   UNL A   1      39.643  28.871  28.795  1.00  0.00     0.049 A 
ATOM     15  N   UNL A   1      42.509  29.045  29.666  1.00  0.00    -0.248 NA
ATOM     16  C   UNL A   1      42.818  26.837  28.975  1.00  0.00     0.031 C 
ATOM     17  C   UNL A   1      38.232  28.836  28.402  1.00  0.00     0.029 A 
ATOM     18  N   UNL A   1      39.820  30.140  29.283  1.00  0.00    -0.354 N 
ATOM     19  C   UNL A   1      43.817  28.661  29.939  1.00  0.00     0.074 A 
ATOM     20  C   UNL A   1      43.944  27.281  29.520  1.00  0.00     0.031 C 
ATOM     21  C   UNL A   1      37.684  30.040  28.624  1.00  0.00     0.029 A 
ATOM     22  C   UNL A   1      38.686  30.915  29.220  1.00  0.00     0.049 A 
ATOM     23  H   UNL A   1      40.676  30.465  29.645  1.00  0.00     0.167 HD
ATOM     24  C   UNL A   1      44.819  29.391  30.487  1.00  0.00     0.031 A 
ATOM     25  C   UNL A   1      38.469  32.186  29.605  1.00  0.00     0.031 A 
ATOM     26  C   UNL A   1      44.691  30.766  30.898  1.00  0.00     0.049 A 
ATOM     27  C   UNL A   1      39.596  32.975  30.204  1.00  0.00     0.074 A 
ATOM     28  C   UNL A   1      45.663  31.599  31.427  1.00  0.00     0.029 A 
ATOM     29  N   UNL A   1      43.524  31.509  30.829  1.00  0.00    -0.354 N 
ATOM     30  N   UNL A   1      40.835  32.601  30.419  1.00  0.00    -0.248 NA
ATOM     31  C   UNL A   1      39.298  34.354  30.610  1.00  0.00     0.031 C 
ATOM     32  C   UNL A   1      45.072  32.834  31.716  1.00  0.00     0.029 A 
ATOM     33  C   UNL A   1      43.744  32.784  31.325  1.00  0.00     0.049 A 
ATOM     34  H   UNL A   1      42.665  31.180  30.479  1.00  0.00     0.167 HD
ATOM     35  C   UNL A   1      41.467  33.703  30.980  1.00  0.00     0.074 A 
ATOM     36  C   UNL A   1      40.480  34.762  31.051  1.00  0.00     0.031 C 
ATOM     37  C   UNL A   1      42.749  33.823  31.402  1.00  0.00     0.031 A 
BRANCH  24  38
ATOM     38  C   UNL A   1      46.144  28.709  30.696  1.00  0.00    -0.014 A 
ATOM     39  C   UNL A   1      47.202  28.882  29.787  1.00  0.00     0.010 A 
ATOM     40  C   UNL A   1      46.349  27.922  31.845  1.00  0.00     0.010 A 
ATOM     41  C   UNL A   1      48.431  28.253  30.004  1.00  0.00     0.020 A 
ATOM     42  C   UNL A   1      47.583  27.306  32.075  1.00  0.00     0.020 A 
ATOM     43  C   UNL A   1      48.611  27.463  31.144  1.00  0.00     0.054 A 
BRANCH  43  44
ATOM     44  S   UNL A   1      50.221  26.669  31.412  1.00  0.00     0.124 S 
ATOM     45  O   UNL A   1      50.767  27.463  32.511  1.00  0.00    -0.237 OA
ATOM     46  O   UNL A   1      49.853  25.297  31.753  1.00  0.00    -0.237 OA
ATOM     47  O   UNL A   1      50.904  26.827  30.130  1.00  0.00    -0.744 OA
ENDBRANCH  43  44
ENDBRANCH  24  38
BRANCH  25  48
ATOM     48  C   UNL A   1      37.117  32.779  29.434  1.00  0.00    -0.014 A 
ATOM     49  C   UNL A   1      36.259  32.929  30.536  1.00  0.00     0.010 A 
ATOM     50  C   UNL A   1      36.704  33.245  28.172  1.00  0.00     0.010 A 
ATOM     51  C   UNL A   1      35.009  33.536  30.379  1.00  0.00     0.020 A 
ATOM     52  C   UNL A   1      35.467  33.872  28.017  1.00  0.00     0.020 A 
ATOM     53  C   UNL A   1      34.622  34.007  29.120  1.00  0.00     0.054 A 
BRANCH  53  54
ATOM     54  S   UNL A   1      33.033  34.865  28.951  1.00  0.00     0.124 S 
ATOM     55  O   UNL A   1      32.528  34.840  30.319  1.00  0.00    -0.237 OA
ATOM     56  O   UNL A   1      33.431  36.177  28.446  1.00  0.00    -0.237 OA
ATOM     57  O   UNL A   1      32.302  34.036  27.995  1.00  0.00    -0.744 OA
ENDBRANCH  53  54
ENDBRANCH  25  48
BRANCH  37  58
ATOM     58  C   UNL A   1      43.159  35.152  31.970  1.00  0.00    -0.014 A 
ATOM     59  C   UNL A   1      43.802  36.112  31.169  1.00  0.00     0.010 A 
ATOM     60  C   UNL A   1      42.866  35.459  33.311  1.00  0.00     0.010 A 
ATOM     61  C   UNL A   1      44.172  37.347  31.708  1.00  0.00     0.020 A 
ATOM     62  C   UNL A   1      43.216  36.701  33.847  1.00  0.00     0.020 A 
ATOM     63  C   UNL A   1      43.881  37.631  33.046  1.00  0.00     0.054 A 
BRANCH  63  64
ATOM     64  S   UNL A   1      44.338  39.253  33.718  1.00  0.00     0.124 S 
ATOM     65  O   UNL A   1      44.998  39.879  32.575  1.00  0.00    -0.237 OA
ATOM     66  O   UNL A   1      43.047  39.826  34.089  1.00  0.00    -0.237 OA
ATOM     67  O   UNL A   1      45.213  38.925  34.841  1.00  0.00    -0.744 OA
ENDBRANCH  63  64
ENDBRANCH  37  58
ENDBRANCH  11  12
ENDBRANCH   4   6
ENDBRANCH   1   2
BRANCH   1  68
ATOM     68  C   UNL A   1      35.816  23.645  24.309  1.00  0.00     0.042 C 
BRANCH  68  69
ATOM     69  C   UNL A   1      34.398  24.207  24.237  1.00  0.00     0.117 C 
BRANCH  69  70
ATOM     70  N   UNL A   1      34.123  24.679  22.898  1.00  0.00    -0.356 N 
ATOM     71  C   UNL A   1      33.672  25.894  22.479  1.00  0.00     0.224 C 
ATOM     72  H   UNL A   1      34.286  24.023  22.182  1.00  0.00     0.163 HD
ATOM     73  O   UNL A   1      33.365  26.029  21.296  1.00  0.00    -0.275 OA
BRANCH  71  74
ATOM     74  C   UNL A   1      33.745  27.077  23.375  1.00  0.00     0.095 C 
ATOM     75  C   UNL A   1      33.442  28.384  22.670  1.00  0.00     0.032 C 
ATOM     76  C   UNL A   1      32.648  28.011  23.914  1.00  0.00     0.033 C 
BRANCH  76  77
ATOM     77  C   UNL A   1      31.145  27.757  23.680  1.00  0.00    -0.037 A 
ATOM     78  C   UNL A   1      30.357  28.659  22.941  1.00  0.00     0.004 A 
ATOM     79  C   UNL A   1      30.456  26.712  24.322  1.00  0.00     0.004 A 
ATOM     80  C   UNL A   1      28.967  28.526  22.849  1.00  0.00     0.000 A 
ATOM     81  C   UNL A   1      29.068  26.568  24.236  1.00  0.00     0.000 A 
ATOM     82  C   UNL A   1      28.322  27.481  23.501  1.00  0.00     0.000 A 
ENDBRANCH  76  77
BRANCH  76  83
ATOM     83  C   UNL A   1      32.983  28.806  25.235  1.00  0.00    -0.037 A 
ATOM     84  C   UNL A   1      32.261  29.956  25.620  1.00  0.00     0.004 A 
ATOM     85  C   UNL A   1      34.036  28.442  26.102  1.00  0.00     0.004 A 
ATOM     86  C   UNL A   1      32.582  30.706  26.757  1.00  0.00     0.000 A 
ATOM     87  C   UNL A   1      34.367  29.187  27.241  1.00  0.00     0.000 A 
ATOM     88  C   UNL A   1      33.643  30.326  27.564  1.00  0.00     0.000 A 
ENDBRANCH  76  83
ENDBRANCH  71  74
ENDBRANCH  69  70
ENDBRANCH  68  69
ENDBRANCH   1  68
TORSDOF 15
ENDMDL
MODEL 3
REMARK VINA RESULT:     -11.2      0.522      8.331
REMARK SMILES O=C(NCCCNC(=O)[C@H]1CC1(c1ccccc1)c1ccccc1)c1ccc(-c2c3nc(c(-c4ccc(S(=O)(=O)[O-])cc4)c4ccc([nH]4)c(-c4ccc(S(=O)(=O)[O-])cc4)c4nc(c(-c5ccc(S(=O)(=O)[O-])cc5)c5ccc2[nH]5)C=C4)C=C3)cc1
REMARK SMILES IDX 4 1 3 2 1 3 2 4 25 6 26 7 84 8 27 9 83 10 28 11 29 12 30 13
REMARK SMILES IDX 77 14 31 15 82 16 76 17 78 18 32 19 81 20 75 21 74 22 33 24
REMARK SMILES IDX 63 25 44 26 62 27 45 28 48 29 61 30 79 31 46 32 47 33 60 35
REMARK SMILES IDX 80 36 49 37 34 38 35 39 43 40 36 41 42 42 37 43 38 44 39 45
REMARK SMILES IDX 40 46 41 47 64 48 65 49 73 50 66 51 72 52 67 53 68 54 69 55
REMARK SMILES IDX 70 56 71 57 50 58 51 59 59 60 52 61 58 62 53 63 54 64 55 65
REMARK SMILES IDX 56 66 57 67 5 68 6 69 7 70 8 71 9 73 10 74 11 75 12 76 13 77
REMARK SMILES IDX 14 78 18 79 15 80 17 81 16 82 19 83 20 84 24 85 21 86 23 87
REMARK SMILES IDX 22 88
REMARK H PARENT 3 5 78 23 48 34 7 72
REMARK Flexibility Score: inf
ROOT
ATOM      1  C   UNL A   1      33.797  28.181  26.465  1.00  0.00     0.118 C 
ENDROOT
BRANCH   1   2
ATOM      2  N   UNL A   1      33.532  29.549  26.874  1.00  0.00    -0.352 N 
ATOM      3  O   UNL A   1      33.811  31.439  28.058  1.00  0.00    -0.269 OA
ATOM      4  C   UNL A   1      34.297  30.388  27.649  1.00  0.00     0.251 C 
ATOM      5  H   UNL A   1      32.684  29.930  26.550  1.00  0.00     0.163 HD
BRANCH   4   6
ATOM      6  C   UNL A   1      35.689  30.024  28.009  1.00  0.00     0.039 A 
ATOM      7  C   UNL A   1      36.735  30.163  27.093  1.00  0.00     0.014 A 
ATOM      8  C   UNL A   1      35.959  29.582  29.308  1.00  0.00     0.014 A 
ATOM      9  C   UNL A   1      38.022  29.752  27.436  1.00  0.00     0.010 A 
ATOM     10  C   UNL A   1      37.266  29.242  29.676  1.00  0.00     0.010 A 
ATOM     11  C   UNL A   1      38.305  29.305  28.737  1.00  0.00    -0.014 A 
BRANCH  11  12
ATOM     12  C   UNL A   1      39.708  28.991  29.113  1.00  0.00     0.031 A 
ATOM     13  C   UNL A   1      40.340  27.675  28.752  1.00  0.00     0.074 A 
ATOM     14  C   UNL A   1      40.420  29.919  29.784  1.00  0.00     0.049 A 
ATOM     15  N   UNL A   1      41.559  27.261  28.986  1.00  0.00    -0.248 NA
ATOM     16  C   UNL A   1      39.499  26.697  28.047  1.00  0.00     0.031 C 
ATOM     17  C   UNL A   1      39.910  31.225  30.211  1.00  0.00     0.029 A 
ATOM     18  N   UNL A   1      41.724  29.917  30.208  1.00  0.00    -0.354 N 
ATOM     19  C   UNL A   1      41.629  25.969  28.477  1.00  0.00     0.074 A 
ATOM     20  C   UNL A   1      40.321  25.661  27.937  1.00  0.00     0.031 C 
ATOM     21  C   UNL A   1      40.901  31.913  30.798  1.00  0.00     0.029 A 
ATOM     22  C   UNL A   1      42.099  31.082  30.834  1.00  0.00     0.049 A 
ATOM     23  H   UNL A   1      42.333  29.154  30.078  1.00  0.00     0.167 HD
ATOM     24  C   UNL A   1      42.685  25.119  28.460  1.00  0.00     0.031 A 
ATOM     25  C   UNL A   1      43.272  31.445  31.384  1.00  0.00     0.031 A 
ATOM     26  C   UNL A   1      43.987  25.431  28.993  1.00  0.00     0.049 A 
ATOM     27  C   UNL A   1      44.427  30.488  31.347  1.00  0.00     0.074 A 
ATOM     28  C   UNL A   1      45.128  24.646  28.985  1.00  0.00     0.029 A 
ATOM     29  N   UNL A   1      44.321  26.615  29.628  1.00  0.00    -0.354 N 
ATOM     30  N   UNL A   1      44.479  29.285  30.828  1.00  0.00    -0.248 NA
ATOM     31  C   UNL A   1      45.679  30.938  31.968  1.00  0.00     0.031 C 
ATOM     32  C   UNL A   1      46.142  25.343  29.653  1.00  0.00     0.029 A 
ATOM     33  C   UNL A   1      45.645  26.578  30.036  1.00  0.00     0.049 A 
ATOM     34  H   UNL A   1      43.709  27.373  29.769  1.00  0.00     0.167 HD
ATOM     35  C   UNL A   1      45.773  28.835  31.054  1.00  0.00     0.074 A 
ATOM     36  C   UNL A   1      46.476  29.902  31.737  1.00  0.00     0.031 C 
ATOM     37  C   UNL A   1      46.326  27.642  30.727  1.00  0.00     0.031 A 
BRANCH  24  38
ATOM     38  C   UNL A   1      42.471  23.755  27.861  1.00  0.00    -0.014 A 
ATOM     39  C   UNL A   1      42.665  23.525  26.488  1.00  0.00     0.010 A 
ATOM     40  C   UNL A   1      42.120  22.677  28.694  1.00  0.00     0.010 A 
ATOM     41  C   UNL A   1      42.477  22.248  25.952  1.00  0.00     0.020 A 
ATOM     42  C   UNL A   1      41.949  21.394  28.165  1.00  0.00     0.020 A 
ATOM     43  C   UNL A   1      42.113  21.192  26.793  1.00  0.00     0.054 A 
BRANCH  43  44
ATOM     44  S   UNL A   1      41.890  19.539  26.076  1.00  0.00     0.124 S 
ATOM     45  O   UNL A   1      42.740  19.612  24.889  1.00  0.00    -0.237 OA
ATOM     46  O   UNL A   1      42.368  18.658  27.137  1.00  0.00    -0.237 OA
ATOM     47  O   UNL A   1      40.455  19.468  25.810  1.00  0.00    -0.744 OA
ENDBRANCH  43  44
ENDBRANCH  24  38
BRANCH  25  48
ATOM     48  C   UNL A   1      43.397  32.783  32.020  1.00  0.00    -0.014 A 
ATOM     49  C   UNL A   1      43.824  33.892  31.272  1.00  0.00     0.010 A 
ATOM     50  C   UNL A   1      43.035  32.960  33.368  1.00  0.00     0.010 A 
ATOM     51  C   UNL A   1      43.888  35.158  31.862  1.00  0.00     0.020 A 
ATOM     52  C   UNL A   1      43.076  34.227  33.954  1.00  0.00     0.020 A 
ATOM     53  C   UNL A   1      43.510  35.318  33.198  1.00  0.00     0.054 A 
BRANCH  53  54
ATOM     54  S   UNL A   1      43.521  36.980  33.925  1.00  0.00     0.124 S 
ATOM     55  O   UNL A   1      43.545  37.829  32.738  1.00  0.00    -0.237 OA
ATOM     56  O   UNL A   1      42.279  37.001  34.694  1.00  0.00    -0.237 OA
ATOM     57  O   UNL A   1      44.740  36.990  34.729  1.00  0.00    -0.744 OA
ENDBRANCH  53  54
ENDBRANCH  25  48
BRANCH  37  58
ATOM     58  C   UNL A   1      47.767  27.433  31.099  1.00  0.00    -0.014 A 
ATOM     59  C   UNL A   1      48.118  26.841  32.325  1.00  0.00     0.010 A 
ATOM     60  C   UNL A   1      48.782  27.801  30.197  1.00  0.00     0.010 A 
ATOM     61  C   UNL A   1      49.462  26.647  32.656  1.00  0.00     0.020 A 
ATOM     62  C   UNL A   1      50.125  27.589  30.516  1.00  0.00     0.020 A 
ATOM     63  C   UNL A   1      50.457  27.027  31.750  1.00  0.00     0.054 A 
BRANCH  63  64
ATOM     64  S   UNL A   1      52.195  26.735  32.183  1.00  0.00     0.124 S 
ATOM     65  O   UNL A   1      52.463  25.463  31.516  1.00  0.00    -0.237 OA
ATOM     66  O   UNL A   1      52.871  27.897  31.613  1.00  0.00    -0.237 OA
ATOM     67  O   UNL A   1      52.181  26.683  33.643  1.00  0.00    -0.744 OA
ENDBRANCH  63  64
ENDBRANCH  37  58
ENDBRANCH  11  12
ENDBRANCH   4   6
ENDBRANCH   1   2
BRANCH   1  68
ATOM     68  C   UNL A   1      32.717  27.216  26.937  1.00  0.00     0.042 C 
BRANCH  68  69
ATOM     69  C   UNL A   1      32.484  26.029  26.005  1.00  0.00     0.117 C 
BRANCH  69  70
ATOM     70  N   UNL A   1      31.692  25.024  26.678  1.00  0.00    -0.356 N 
ATOM     71  C   UNL A   1      31.995  23.727  26.968  1.00  0.00     0.224 C 
ATOM     72  H   UNL A   1      30.800  25.320  26.970  1.00  0.00     0.163 HD
ATOM     73  O   UNL A   1      31.108  23.005  27.418  1.00  0.00    -0.275 OA
BRANCH  71  74
ATOM     74  C   UNL A   1      33.404  23.256  26.938  1.00  0.00     0.095 C 
ATOM     75  C   UNL A   1      33.546  21.772  27.209  1.00  0.00     0.032 C 
ATOM     76  C   UNL A   1      34.152  22.357  25.940  1.00  0.00     0.033 C 
BRANCH  76  77
ATOM     77  C   UNL A   1      33.518  21.862  24.624  1.00  0.00    -0.037 A 
ATOM     78  C   UNL A   1      33.310  22.733  23.539  1.00  0.00     0.004 A 
ATOM     79  C   UNL A   1      32.970  20.572  24.500  1.00  0.00     0.004 A 
ATOM     80  C   UNL A   1      32.598  22.342  22.400  1.00  0.00     0.000 A 
ATOM     81  C   UNL A   1      32.259  20.169  23.365  1.00  0.00     0.000 A 
ATOM     82  C   UNL A   1      32.069  21.059  22.315  1.00  0.00     0.000 A 
ENDBRANCH  76  77
BRANCH  76  83
ATOM     83  C   UNL A   1      35.722  22.496  25.903  1.00  0.00    -0.037 A 
ATOM     84  C   UNL A   1      36.372  23.724  26.151  1.00  0.00     0.004 A 
ATOM     85  C   UNL A   1      36.580  21.417  25.594  1.00  0.00     0.004 A 
ATOM     86  C   UNL A   1      37.760  23.878  26.064  1.00  0.00     0.000 A 
ATOM     87  C   UNL A   1      37.970  21.561  25.502  1.00  0.00     0.000 A 
ATOM     88  C   UNL A   1      38.560  22.796  25.730  1.00  0.00     0.000 A 
ENDBRANCH  76  83
ENDBRANCH  71  74
ENDBRANCH  69  70
ENDBRANCH  68  69
ENDBRANCH   1  68
TORSDOF 15
ENDMDL
