MODEL 1
REMARK VINA RESULT:     -11.6      0.000      0.000
REMARK SMILES O=C(C[C@H]1C[N@@H+]([C@@H]2CC(=O)NC2=O)CCO1)NCCCNC(=O)c1ccc(-c2c3nc(c(-c4ccc(S(=O)(=O)[O-])cc4)c4ccc([nH]4)c(-c4ccc(S(=O)(=O)[O-])cc4)c4nc(c(-c5ccc(S(=O)(=O)[O-])cc5)c5ccc2[nH]5)C=C4)C=C3)cc1
REMARK SMILES IDX 19 1 18 2 17 3 1 4 2 5 3 7 4 8 5 9 16 10 6 11 15 12 14 13
REMARK SMILES IDX 7 15 8 16 12 17 9 18 11 19 13 20 10 21 20 23 21 24 22 25
REMARK SMILES IDX 23 27 24 28 25 29 83 30 26 31 82 32 27 33 28 34 29 35 76 36
REMARK SMILES IDX 30 37 81 38 75 39 77 40 31 41 80 42 74 43 73 44 32 46 62 47
REMARK SMILES IDX 43 48 61 49 44 50 47 51 60 52 78 53 45 54 46 55 59 57 79 58
REMARK SMILES IDX 48 59 33 60 34 61 42 62 35 63 41 64 36 65 37 66 38 67 39 68
REMARK SMILES IDX 40 69 63 70 64 71 72 72 65 73 71 74 66 75 67 76 68 77 69 78
REMARK SMILES IDX 70 79 49 80 50 81 58 82 51 83 57 84 52 85 53 86 54 87 55 88
REMARK SMILES IDX 56 89
REMARK H PARENT 17 6 6 14 11 22 21 26 77 45 47 56
REMARK Flexibility Score: inf
ROOT
ATOM      1  C   UNL A   1      31.937  28.564  26.921  1.00  0.00     0.042 C 
ENDROOT
BRANCH   1   2
ATOM      2  C   UNL A   1      31.721  27.958  25.538  1.00  0.00     0.117 C 
BRANCH   2   3
ATOM      3  N   UNL A   1      32.294  26.617  25.436  1.00  0.00    -0.356 N 
ATOM      4  O   UNL A   1      33.901  27.333  24.207  1.00  0.00    -0.275 OA
ATOM      5  C   UNL A   1      33.612  26.286  24.848  1.00  0.00     0.222 C 
ATOM      6  H   UNL A   1      31.759  25.870  25.790  1.00  0.00     0.163 HD
BRANCH   5   7
ATOM      7  C   UNL A   1      34.771  24.416  25.099  1.00  0.00     0.138 C 
BRANCH   7   8
ATOM      8  C   UNL A   1      36.439  23.973  24.924  1.00  0.00     0.182 C 
ATOM      9  C   UNL A   1      36.922  23.465  26.250  1.00  0.00     0.295 C 
ATOM     10  O   UNL A   1      36.841  23.089  23.856  1.00  0.00    -0.366 OA
ATOM     11  N   UNL A   1      36.064  22.313  26.411  1.00  0.00    -0.320 N 
ATOM     12  C   UNL A   1      36.691  21.671  24.073  1.00  0.00     0.222 C 
ATOM     13  C   UNL A   1      36.568  21.239  25.540  1.00  0.00     0.291 C 
ATOM     14  H   UNL A   1      36.048  22.001  27.381  1.00  0.00     0.348 HD
BRANCH  11  15
ATOM     15  C   UNL A   1      34.696  22.689  25.967  1.00  0.00     0.284 C 
ATOM     16  C   UNL A   1      33.299  23.866  26.979  1.00  0.00     0.176 C 
ATOM     17  C   UNL A   1      33.654  21.044  25.433  1.00  0.00     0.285 C 
ATOM     18  C   UNL A   1      31.563  22.857  26.820  1.00  0.00     0.233 C 
ATOM     19  N   UNL A   1      31.991  21.315  26.059  1.00  0.00    -0.291 N 
ATOM     20  O   UNL A   1      34.046  20.009  24.926  1.00  0.00    -0.268 OA
ATOM     21  O   UNL A   1      30.470  23.148  27.269  1.00  0.00    -0.274 OA
ATOM     22  H   UNL A   1      31.314  20.604  25.979  1.00  0.00     0.173 HD
ENDBRANCH  11  15
ENDBRANCH   7   8
ENDBRANCH   5   7
ENDBRANCH   2   3
ENDBRANCH   1   2
BRANCH   1  23
ATOM     23  C   UNL A   1      33.357  29.027  27.254  1.00  0.00     0.118 C 
BRANCH  23  24
ATOM     24  N   UNL A   1      33.459  30.403  27.727  1.00  0.00    -0.352 N 
ATOM     25  C   UNL A   1      34.547  31.032  28.299  1.00  0.00     0.251 C 
ATOM     26  H   UNL A   1      32.648  30.953  27.628  1.00  0.00     0.163 HD
ATOM     27  O   UNL A   1      34.458  32.185  28.704  1.00  0.00    -0.269 OA
BRANCH  25  28
ATOM     28  C   UNL A   1      35.803  30.271  28.465  1.00  0.00     0.039 A 
ATOM     29  C   UNL A   1      36.724  30.257  27.416  1.00  0.00     0.014 A 
ATOM     30  C   UNL A   1      36.117  29.692  29.696  1.00  0.00     0.014 A 
ATOM     31  C   UNL A   1      38.008  29.757  27.639  1.00  0.00     0.010 A 
ATOM     32  C   UNL A   1      37.425  29.280  29.941  1.00  0.00     0.010 A 
ATOM     33  C   UNL A   1      38.390  29.326  28.922  1.00  0.00    -0.014 A 
BRANCH  33  34
ATOM     34  C   UNL A   1      39.799  28.963  29.227  1.00  0.00     0.031 A 
ATOM     35  C   UNL A   1      40.728  29.978  29.835  1.00  0.00     0.074 A 
ATOM     36  C   UNL A   1      40.264  27.742  28.887  1.00  0.00     0.049 A 
ATOM     37  N   UNL A   1      42.002  29.868  30.109  1.00  0.00    -0.248 NA
ATOM     38  C   UNL A   1      40.156  31.296  30.155  1.00  0.00     0.031 C 
ATOM     39  C   UNL A   1      39.476  26.679  28.255  1.00  0.00     0.029 A 
ATOM     40  N   UNL A   1      41.514  27.188  29.021  1.00  0.00    -0.354 N 
ATOM     41  C   UNL A   1      42.386  31.102  30.620  1.00  0.00     0.074 A 
ATOM     42  C   UNL A   1      41.225  31.962  30.566  1.00  0.00     0.031 C 
ATOM     43  C   UNL A   1      40.252  25.595  28.087  1.00  0.00     0.029 A 
ATOM     44  C   UNL A   1      41.603  25.899  28.545  1.00  0.00     0.049 A 
ATOM     45  H   UNL A   1      42.275  27.668  29.420  1.00  0.00     0.167 HD
ATOM     46  C   UNL A   1      43.591  31.480  31.109  1.00  0.00     0.031 A 
ATOM     47  C   UNL A   1      42.655  25.059  28.472  1.00  0.00     0.031 A 
ATOM     48  C   UNL A   1      44.745  30.621  31.160  1.00  0.00     0.049 A 
ATOM     49  C   UNL A   1      43.994  25.516  28.986  1.00  0.00     0.074 A 
ATOM     50  C   UNL A   1      45.997  30.896  31.684  1.00  0.00     0.029 A 
ATOM     51  N   UNL A   1      44.796  29.329  30.661  1.00  0.00    -0.354 N 
ATOM     52  N   UNL A   1      44.317  26.663  29.535  1.00  0.00    -0.248 NA
ATOM     53  C   UNL A   1      45.108  24.565  28.874  1.00  0.00     0.031 C 
ATOM     54  C   UNL A   1      46.824  29.796  31.437  1.00  0.00     0.029 A 
ATOM     55  C   UNL A   1      46.068  28.806  30.829  1.00  0.00     0.049 A 
ATOM     56  H   UNL A   1      44.040  28.853  30.249  1.00  0.00     0.167 HD
ATOM     57  C   UNL A   1      45.667  26.561  29.857  1.00  0.00     0.074 A 
ATOM     58  C   UNL A   1      46.091  25.233  29.463  1.00  0.00     0.031 C 
ATOM     59  C   UNL A   1      46.481  27.486  30.425  1.00  0.00     0.031 A 
BRANCH  46  60
ATOM     60  C   UNL A   1      43.726  32.893  31.617  1.00  0.00    -0.014 A 
ATOM     61  C   UNL A   1      44.037  33.955  30.748  1.00  0.00     0.010 A 
ATOM     62  C   UNL A   1      43.497  33.171  32.977  1.00  0.00     0.010 A 
ATOM     63  C   UNL A   1      44.156  35.259  31.234  1.00  0.00     0.020 A 
ATOM     64  C   UNL A   1      43.581  34.479  33.463  1.00  0.00     0.020 A 
ATOM     65  C   UNL A   1      43.926  35.513  32.590  1.00  0.00     0.054 A 
BRANCH  65  66
ATOM     66  S   UNL A   1      44.063  37.219  33.187  1.00  0.00     0.124 S 
ATOM     67  O   UNL A   1      42.802  37.391  33.904  1.00  0.00    -0.237 OA
ATOM     68  O   UNL A   1      45.259  37.169  34.023  1.00  0.00    -0.237 OA
ATOM     69  O   UNL A   1      44.195  38.006  31.963  1.00  0.00    -0.744 OA
ENDBRANCH  65  66
ENDBRANCH  46  60
BRANCH  47  70
ATOM     70  C   UNL A   1      42.487  23.697  27.888  1.00  0.00    -0.014 A 
ATOM     71  C   UNL A   1      42.148  22.602  28.703  1.00  0.00     0.010 A 
ATOM     72  C   UNL A   1      42.663  23.489  26.507  1.00  0.00     0.010 A 
ATOM     73  C   UNL A   1      42.008  21.324  28.153  1.00  0.00     0.020 A 
ATOM     74  C   UNL A   1      42.491  22.219  25.948  1.00  0.00     0.020 A 
ATOM     75  C   UNL A   1      42.176  21.142  26.777  1.00  0.00     0.054 A 
BRANCH  75  76
ATOM     76  S   UNL A   1      41.938  19.483  26.080  1.00  0.00     0.124 S 
ATOM     77  O   UNL A   1      42.769  19.535  24.882  1.00  0.00    -0.237 OA
ATOM     78  O   UNL A   1      42.425  18.620  27.154  1.00  0.00    -0.237 OA
ATOM     79  O   UNL A   1      40.498  19.416  25.842  1.00  0.00    -0.744 OA
ENDBRANCH  75  76
ENDBRANCH  47  70
BRANCH  59  80
ATOM     80  C   UNL A   1      47.912  27.087  30.679  1.00  0.00    -0.014 A 
ATOM     81  C   UNL A   1      48.911  27.299  29.713  1.00  0.00     0.010 A 
ATOM     82  C   UNL A   1      48.272  26.546  31.927  1.00  0.00     0.010 A 
ATOM     83  C   UNL A   1      50.238  26.947  29.979  1.00  0.00     0.020 A 
ATOM     84  C   UNL A   1      49.602  26.225  32.210  1.00  0.00     0.020 A 
ATOM     85  C   UNL A   1      50.575  26.416  31.227  1.00  0.00     0.054 A 
BRANCH  85  86
ATOM     86  S   UNL A   1      52.311  26.014  31.562  1.00  0.00     0.124 S 
ATOM     87  O   UNL A   1      52.611  26.882  32.698  1.00  0.00    -0.237 OA
ATOM     88  O   UNL A   1      52.255  24.584  31.860  1.00  0.00    -0.237 OA
ATOM     89  O   UNL A   1      52.994  26.358  30.318  1.00  0.00    -0.744 OA
ENDBRANCH  85  86
ENDBRANCH  59  80
ENDBRANCH  33  34
ENDBRANCH  25  28
ENDBRANCH  23  24
ENDBRANCH   1  23
TORSDOF 15
ENDMDL
MODEL 2
REMARK VINA RESULT:     -11.6      2.557      9.449
REMARK SMILES O=C(C[C@H]1C[N@@H+]([C@@H]2CC(=O)NC2=O)CCO1)NCCCNC(=O)c1ccc(-c2c3nc(c(-c4ccc(S(=O)(=O)[O-])cc4)c4ccc([nH]4)c(-c4ccc(S(=O)(=O)[O-])cc4)c4nc(c(-c5ccc(S(=O)(=O)[O-])cc5)c5ccc2[nH]5)C=C4)C=C3)cc1
REMARK SMILES IDX 19 1 18 2 17 3 1 4 2 5 3 7 4 8 5 9 16 10 6 11 15 12 14 13
REMARK SMILES IDX 7 15 8 16 12 17 9 18 11 19 13 20 10 21 20 23 21 24 22 25
REMARK SMILES IDX 23 27 24 28 25 29 83 30 26 31 82 32 27 33 28 34 29 35 76 36
REMARK SMILES IDX 30 37 81 38 75 39 77 40 31 41 80 42 74 43 73 44 32 46 62 47
REMARK SMILES IDX 43 48 61 49 44 50 47 51 60 52 78 53 45 54 46 55 59 57 79 58
REMARK SMILES IDX 48 59 33 60 34 61 42 62 35 63 41 64 36 65 37 66 38 67 39 68
REMARK SMILES IDX 40 69 63 70 64 71 72 72 65 73 71 74 66 75 67 76 68 77 69 78
REMARK SMILES IDX 70 79 49 80 50 81 58 82 51 83 57 84 52 85 53 86 54 87 55 88
REMARK SMILES IDX 56 89
REMARK H PARENT 17 6 6 14 11 22 21 26 77 45 47 56
REMARK Flexibility Score: inf
ROOT
ATOM      1  C   UNL A   1      36.297  22.557  23.993  1.00  0.00     0.042 C 
ENDROOT
BRANCH   1   2
ATOM      2  C   UNL A   1      34.834  22.569  24.429  1.00  0.00     0.117 C 
BRANCH   2   3
ATOM      3  N   UNL A   1      34.272  23.918  24.412  1.00  0.00    -0.356 N 
ATOM      4  O   UNL A   1      34.071  23.926  26.549  1.00  0.00    -0.275 OA
ATOM      5  C   UNL A   1      34.013  24.759  25.603  1.00  0.00     0.222 C 
ATOM      6  H   UNL A   1      34.049  24.302  23.533  1.00  0.00     0.163 HD
BRANCH   5   7
ATOM      7  C   UNL A   1      33.659  26.944  25.662  1.00  0.00     0.138 C 
BRANCH   7   8
ATOM      8  C   UNL A   1      33.674  28.156  26.902  1.00  0.00     0.182 C 
ATOM      9  C   UNL A   1      34.271  29.402  26.321  1.00  0.00     0.295 C 
ATOM     10  O   UNL A   1      32.463  28.456  27.630  1.00  0.00    -0.366 OA
ATOM     11  N   UNL A   1      33.305  29.691  25.285  1.00  0.00    -0.320 N 
ATOM     12  C   UNL A   1      31.529  29.370  27.021  1.00  0.00     0.222 C 
ATOM     13  C   UNL A   1      32.109  30.267  25.919  1.00  0.00     0.291 C 
ATOM     14  H   UNL A   1      33.688  30.341  24.599  1.00  0.00     0.348 HD
BRANCH  11  15
ATOM     15  C   UNL A   1      32.932  28.409  24.631  1.00  0.00     0.284 C 
ATOM     16  C   UNL A   1      34.108  27.217  23.384  1.00  0.00     0.176 C 
ATOM     17  C   UNL A   1      31.200  28.619  23.615  1.00  0.00     0.285 C 
ATOM     18  C   UNL A   1      32.907  26.744  21.838  1.00  0.00     0.233 C 
ATOM     19  N   UNL A   1      31.431  27.691  22.092  1.00  0.00    -0.291 N 
ATOM     20  O   UNL A   1      30.235  29.320  23.862  1.00  0.00    -0.268 OA
ATOM     21  O   UNL A   1      33.161  26.077  20.853  1.00  0.00    -0.274 OA
ATOM     22  H   UNL A   1      30.734  27.708  21.396  1.00  0.00     0.173 HD
ENDBRANCH  11  15
ENDBRANCH   7   8
ENDBRANCH   5   7
ENDBRANCH   2   3
ENDBRANCH   1   2
BRANCH   1  23
ATOM     23  C   UNL A   1      37.299  23.227  24.933  1.00  0.00     0.118 C 
BRANCH  23  24
ATOM     24  N   UNL A   1      38.382  22.365  25.392  1.00  0.00    -0.352 N 
ATOM     25  C   UNL A   1      39.433  22.684  26.229  1.00  0.00     0.251 C 
ATOM     26  H   UNL A   1      38.363  21.438  25.062  1.00  0.00     0.163 HD
ATOM     27  O   UNL A   1      40.305  21.860  26.477  1.00  0.00    -0.269 OA
BRANCH  25  28
ATOM     28  C   UNL A   1      39.517  24.055  26.777  1.00  0.00     0.039 A 
ATOM     29  C   UNL A   1      39.020  24.298  28.058  1.00  0.00     0.014 A 
ATOM     30  C   UNL A   1      40.200  25.051  26.077  1.00  0.00     0.014 A 
ATOM     31  C   UNL A   1      39.307  25.512  28.684  1.00  0.00     0.010 A 
ATOM     32  C   UNL A   1      40.563  26.222  26.738  1.00  0.00     0.010 A 
ATOM     33  C   UNL A   1      40.137  26.457  28.055  1.00  0.00    -0.014 A 
BRANCH  33  34
ATOM     34  C   UNL A   1      40.605  27.673  28.772  1.00  0.00     0.031 A 
ATOM     35  C   UNL A   1      41.966  27.697  29.414  1.00  0.00     0.074 A 
ATOM     36  C   UNL A   1      39.776  28.729  28.912  1.00  0.00     0.049 A 
ATOM     37  N   UNL A   1      42.520  28.636  30.135  1.00  0.00    -0.248 NA
ATOM     38  C   UNL A   1      42.804  26.499  29.241  1.00  0.00     0.031 C 
ATOM     39  C   UNL A   1      38.416  28.818  28.371  1.00  0.00     0.029 A 
ATOM     40  N   UNL A   1      39.952  29.931  29.554  1.00  0.00    -0.354 N 
ATOM     41  C   UNL A   1      43.762  28.140  30.512  1.00  0.00     0.074 A 
ATOM     42  C   UNL A   1      43.857  26.796  29.988  1.00  0.00     0.031 C 
ATOM     43  C   UNL A   1      37.897  30.018  28.677  1.00  0.00     0.029 A 
ATOM     44  C   UNL A   1      38.859  30.764  29.480  1.00  0.00     0.049 A 
ATOM     45  H   UNL A   1      40.783  30.173  30.023  1.00  0.00     0.167 HD
ATOM     46  C   UNL A   1      44.744  28.754  31.215  1.00  0.00     0.031 A 
ATOM     47  C   UNL A   1      38.647  31.986  30.009  1.00  0.00     0.031 A 
ATOM     48  C   UNL A   1      44.643  30.092  31.738  1.00  0.00     0.049 A 
ATOM     49  C   UNL A   1      39.738  32.631  30.821  1.00  0.00     0.074 A 
ATOM     50  C   UNL A   1      45.603  30.821  32.419  1.00  0.00     0.029 A 
ATOM     51  N   UNL A   1      43.519  30.897  31.649  1.00  0.00    -0.354 N 
ATOM     52  N   UNL A   1      40.935  32.174  31.102  1.00  0.00    -0.248 NA
ATOM     53  C   UNL A   1      39.452  33.958  31.382  1.00  0.00     0.031 C 
ATOM     54  C   UNL A   1      45.034  32.038  32.805  1.00  0.00     0.029 A 
ATOM     55  C   UNL A   1      43.746  32.101  32.297  1.00  0.00     0.049 A 
ATOM     56  H   UNL A   1      42.682  30.651  31.193  1.00  0.00     0.167 HD
ATOM     57  C   UNL A   1      41.554  33.169  31.852  1.00  0.00     0.074 A 
ATOM     58  C   UNL A   1      40.607  34.260  31.959  1.00  0.00     0.031 C 
ATOM     59  C   UNL A   1      42.793  33.176  32.404  1.00  0.00     0.031 A 
BRANCH  46  60
ATOM     60  C   UNL A   1      46.009  27.977  31.473  1.00  0.00    -0.014 A 
ATOM     61  C   UNL A   1      46.142  27.152  32.605  1.00  0.00     0.010 A 
ATOM     62  C   UNL A   1      47.066  28.036  30.546  1.00  0.00     0.010 A 
ATOM     63  C   UNL A   1      47.320  26.436  32.828  1.00  0.00     0.020 A 
ATOM     64  C   UNL A   1      48.234  27.296  30.747  1.00  0.00     0.020 A 
ATOM     65  C   UNL A   1      48.360  26.512  31.895  1.00  0.00     0.054 A 
BRANCH  65  66
ATOM     66  S   UNL A   1      49.867  25.552  32.200  1.00  0.00     0.124 S 
ATOM     67  O   UNL A   1      49.436  24.642  33.259  1.00  0.00    -0.237 OA
ATOM     68  O   UNL A   1      50.116  24.931  30.902  1.00  0.00    -0.237 OA
ATOM     69  O   UNL A   1      50.845  26.558  32.604  1.00  0.00    -0.744 OA
ENDBRANCH  65  66
ENDBRANCH  46  60
BRANCH  47  70
ATOM     70  C   UNL A   1      37.346  32.681  29.791  1.00  0.00    -0.014 A 
ATOM     71  C   UNL A   1      36.312  32.584  30.740  1.00  0.00     0.010 A 
ATOM     72  C   UNL A   1      37.135  33.448  28.630  1.00  0.00     0.010 A 
ATOM     73  C   UNL A   1      35.088  33.225  30.523  1.00  0.00     0.020 A 
ATOM     74  C   UNL A   1      35.924  34.117  28.426  1.00  0.00     0.020 A 
ATOM     75  C   UNL A   1      34.904  33.991  29.369  1.00  0.00     0.054 A 
BRANCH  75  76
ATOM     76  S   UNL A   1      33.324  34.854  29.136  1.00  0.00     0.124 S 
ATOM     77  O   UNL A   1      32.674  34.029  28.123  1.00  0.00    -0.237 OA
ATOM     78  O   UNL A   1      32.737  34.799  30.473  1.00  0.00    -0.237 OA
ATOM     79  O   UNL A   1      33.725  36.188  28.694  1.00  0.00    -0.744 OA
ENDBRANCH  75  76
ENDBRANCH  47  70
BRANCH  59  80
ATOM     80  C   UNL A   1      43.210  34.414  33.157  1.00  0.00    -0.014 A 
ATOM     81  C   UNL A   1      43.000  34.531  34.542  1.00  0.00     0.010 A 
ATOM     82  C   UNL A   1      43.875  35.450  32.475  1.00  0.00     0.010 A 
ATOM     83  C   UNL A   1      43.419  35.677  35.226  1.00  0.00     0.020 A 
ATOM     84  C   UNL A   1      44.326  36.581  33.161  1.00  0.00     0.020 A 
ATOM     85  C   UNL A   1      44.083  36.693  34.531  1.00  0.00     0.054 A 
BRANCH  85  86
ATOM     86  S   UNL A   1      44.658  38.144  35.452  1.00  0.00     0.124 S 
ATOM     87  O   UNL A   1      43.770  38.141  36.612  1.00  0.00    -0.237 OA
ATOM     88  O   UNL A   1      46.055  37.813  35.728  1.00  0.00    -0.237 OA
ATOM     89  O   UNL A   1      44.460  39.250  34.519  1.00  0.00    -0.744 OA
ENDBRANCH  85  86
ENDBRANCH  59  80
ENDBRANCH  33  34
ENDBRANCH  25  28
ENDBRANCH  23  24
ENDBRANCH   1  23
TORSDOF 15
ENDMDL
MODEL 3
REMARK VINA RESULT:     -11.3      2.634      9.365
REMARK SMILES O=C(C[C@H]1C[N@@H+]([C@@H]2CC(=O)NC2=O)CCO1)NCCCNC(=O)c1ccc(-c2c3nc(c(-c4ccc(S(=O)(=O)[O-])cc4)c4ccc([nH]4)c(-c4ccc(S(=O)(=O)[O-])cc4)c4nc(c(-c5ccc(S(=O)(=O)[O-])cc5)c5ccc2[nH]5)C=C4)C=C3)cc1
REMARK SMILES IDX 19 1 18 2 17 3 1 4 2 5 3 7 4 8 5 9 16 10 6 11 15 12 14 13
REMARK SMILES IDX 7 15 8 16 12 17 9 18 11 19 13 20 10 21 20 23 21 24 22 25
REMARK SMILES IDX 23 27 24 28 25 29 83 30 26 31 82 32 27 33 28 34 29 35 76 36
REMARK SMILES IDX 30 37 81 38 75 39 77 40 31 41 80 42 74 43 73 44 32 46 62 47
REMARK SMILES IDX 43 48 61 49 44 50 47 51 60 52 78 53 45 54 46 55 59 57 79 58
REMARK SMILES IDX 48 59 33 60 34 61 42 62 35 63 41 64 36 65 37 66 38 67 39 68
REMARK SMILES IDX 40 69 63 70 64 71 72 72 65 73 71 74 66 75 67 76 68 77 69 78
REMARK SMILES IDX 70 79 49 80 50 81 58 82 51 83 57 84 52 85 53 86 54 87 55 88
REMARK SMILES IDX 56 89
REMARK H PARENT 17 6 6 14 11 22 21 26 77 45 47 56
REMARK Flexibility Score: inf
ROOT
ATOM      1  C   UNL A   1      35.783  22.642  24.634  1.00  0.00     0.042 C 
ENDROOT
BRANCH   1   2
ATOM      2  C   UNL A   1      35.212  22.954  23.254  1.00  0.00     0.117 C 
BRANCH   2   3
ATOM      3  N   UNL A   1      34.413  24.179  23.260  1.00  0.00    -0.356 N 
ATOM      4  O   UNL A   1      33.375  23.582  21.479  1.00  0.00    -0.275 OA
ATOM      5  C   UNL A   1      33.256  24.457  22.380  1.00  0.00     0.222 C 
ATOM      6  H   UNL A   1      34.665  24.877  23.907  1.00  0.00     0.163 HD
BRANCH   5   7
ATOM      7  C   UNL A   1      31.701  26.011  22.644  1.00  0.00     0.138 C 
BRANCH   7   8
ATOM      8  C   UNL A   1      31.589  27.706  22.297  1.00  0.00     0.182 C 
ATOM      9  C   UNL A   1      30.275  28.199  22.826  1.00  0.00     0.295 C 
ATOM     10  O   UNL A   1      32.663  28.592  22.679  1.00  0.00    -0.366 OA
ATOM     11  N   UNL A   1      30.454  27.941  24.237  1.00  0.00    -0.320 N 
ATOM     12  C   UNL A   1      32.679  29.072  24.039  1.00  0.00     0.222 C 
ATOM     13  C   UNL A   1      31.342  28.977  24.786  1.00  0.00     0.291 C 
ATOM     14  H   UNL A   1      29.559  27.948  24.726  1.00  0.00     0.348 HD
BRANCH  11  15
ATOM     15  C   UNL A   1      31.113  26.616  24.384  1.00  0.00     0.284 C 
ATOM     16  C   UNL A   1      30.292  24.730  24.027  1.00  0.00     0.176 C 
ATOM     17  C   UNL A   1      31.946  26.447  26.215  1.00  0.00     0.285 C 
ATOM     18  C   UNL A   1      30.839  23.619  25.615  1.00  0.00     0.233 C 
ATOM     19  N   UNL A   1      31.618  24.755  26.729  1.00  0.00    -0.291 N 
ATOM     20  O   UNL A   1      32.447  27.303  26.922  1.00  0.00    -0.268 OA
ATOM     21  O   UNL A   1      30.578  22.455  25.857  1.00  0.00    -0.274 OA
ATOM     22  H   UNL A   1      31.872  24.459  27.634  1.00  0.00     0.173 HD
ENDBRANCH  11  15
ENDBRANCH   7   8
ENDBRANCH   5   7
ENDBRANCH   2   3
ENDBRANCH   1   2
BRANCH   1  23
ATOM     23  C   UNL A   1      37.064  23.377  25.030  1.00  0.00     0.118 C 
BRANCH  23  24
ATOM     24  N   UNL A   1      38.171  22.514  25.426  1.00  0.00    -0.352 N 
ATOM     25  C   UNL A   1      39.258  22.827  26.217  1.00  0.00     0.251 C 
ATOM     26  H   UNL A   1      38.139  21.591  25.086  1.00  0.00     0.163 HD
ATOM     27  O   UNL A   1      40.144  22.002  26.412  1.00  0.00    -0.269 OA
BRANCH  25  28
ATOM     28  C   UNL A   1      39.364  24.190  26.777  1.00  0.00     0.039 A 
ATOM     29  C   UNL A   1      38.883  24.427  28.065  1.00  0.00     0.014 A 
ATOM     30  C   UNL A   1      40.051  25.186  26.079  1.00  0.00     0.014 A 
ATOM     31  C   UNL A   1      39.191  25.631  28.700  1.00  0.00     0.010 A 
ATOM     32  C   UNL A   1      40.434  26.346  26.748  1.00  0.00     0.010 A 
ATOM     33  C   UNL A   1      40.025  26.573  28.072  1.00  0.00    -0.014 A 
BRANCH  33  34
ATOM     34  C   UNL A   1      40.514  27.776  28.796  1.00  0.00     0.031 A 
ATOM     35  C   UNL A   1      41.881  27.777  29.426  1.00  0.00     0.074 A 
ATOM     36  C   UNL A   1      39.699  28.841  28.952  1.00  0.00     0.049 A 
ATOM     37  N   UNL A   1      42.452  28.702  30.151  1.00  0.00    -0.248 NA
ATOM     38  C   UNL A   1      42.702  26.570  29.235  1.00  0.00     0.031 C 
ATOM     39  C   UNL A   1      38.336  28.952  28.424  1.00  0.00     0.029 A 
ATOM     40  N   UNL A   1      39.896  30.035  29.603  1.00  0.00    -0.354 N 
ATOM     41  C   UNL A   1      43.691  28.188  30.513  1.00  0.00     0.074 A 
ATOM     42  C   UNL A   1      43.765  26.848  29.975  1.00  0.00     0.031 C 
ATOM     43  C   UNL A   1      37.835  30.156  28.745  1.00  0.00     0.029 A 
ATOM     44  C   UNL A   1      38.813  30.882  29.546  1.00  0.00     0.049 A 
ATOM     45  H   UNL A   1      40.734  30.262  30.068  1.00  0.00     0.167 HD
ATOM     46  C   UNL A   1      44.687  28.783  31.213  1.00  0.00     0.031 A 
ATOM     47  C   UNL A   1      38.621  32.102  30.088  1.00  0.00     0.031 A 
ATOM     48  C   UNL A   1      44.608  30.117  31.748  1.00  0.00     0.049 A 
ATOM     49  C   UNL A   1      39.727  32.726  30.896  1.00  0.00     0.074 A 
ATOM     50  C   UNL A   1      45.582  30.827  32.428  1.00  0.00     0.029 A 
ATOM     51  N   UNL A   1      43.493  30.937  31.676  1.00  0.00    -0.354 N 
ATOM     52  N   UNL A   1      40.921  32.251  31.163  1.00  0.00    -0.248 NA
ATOM     53  C   UNL A   1      39.463  34.052  31.471  1.00  0.00     0.031 C 
ATOM     54  C   UNL A   1      45.032  32.049  32.829  1.00  0.00     0.029 A 
ATOM     55  C   UNL A   1      43.741  32.132  32.333  1.00  0.00     0.049 A 
ATOM     56  H   UNL A   1      42.649  30.705  31.225  1.00  0.00     0.167 HD
ATOM     57  C   UNL A   1      41.558  33.232  31.917  1.00  0.00     0.074 A 
ATOM     58  C   UNL A   1      40.626  34.334  32.042  1.00  0.00     0.031 C 
ATOM     59  C   UNL A   1      42.802  33.218  32.458  1.00  0.00     0.031 A 
BRANCH  46  60
ATOM     60  C   UNL A   1      45.944  27.987  31.452  1.00  0.00    -0.014 A 
ATOM     61  C   UNL A   1      46.062  27.123  32.556  1.00  0.00     0.010 A 
ATOM     62  C   UNL A   1      47.009  28.072  30.537  1.00  0.00     0.010 A 
ATOM     63  C   UNL A   1      47.233  26.390  32.763  1.00  0.00     0.020 A 
ATOM     64  C   UNL A   1      48.170  27.316  30.720  1.00  0.00     0.020 A 
ATOM     65  C   UNL A   1      48.281  26.491  31.841  1.00  0.00     0.054 A 
BRANCH  65  66
ATOM     66  S   UNL A   1      49.778  25.509  32.123  1.00  0.00     0.124 S 
ATOM     67  O   UNL A   1      50.720  26.523  32.593  1.00  0.00    -0.237 OA
ATOM     68  O   UNL A   1      49.342  24.544  33.127  1.00  0.00    -0.237 OA
ATOM     69  O   UNL A   1      50.077  24.945  30.809  1.00  0.00    -0.744 OA
ENDBRANCH  65  66
ENDBRANCH  46  60
BRANCH  47  70
ATOM     70  C   UNL A   1      37.327  32.815  29.887  1.00  0.00    -0.014 A 
ATOM     71  C   UNL A   1      37.093  33.562  28.719  1.00  0.00     0.010 A 
ATOM     72  C   UNL A   1      36.318  32.749  30.867  1.00  0.00     0.010 A 
ATOM     73  C   UNL A   1      35.884  34.243  28.543  1.00  0.00     0.020 A 
ATOM     74  C   UNL A   1      35.096  33.401  30.679  1.00  0.00     0.020 A 
ATOM     75  C   UNL A   1      34.891  34.154  29.523  1.00  0.00     0.054 A 
BRANCH  75  76
ATOM     76  S   UNL A   1      33.312  35.005  29.246  1.00  0.00     0.124 S 
ATOM     77  O   UNL A   1      33.751  36.307  28.756  1.00  0.00    -0.237 OA
ATOM     78  O   UNL A   1      32.660  34.143  28.264  1.00  0.00    -0.237 OA
ATOM     79  O   UNL A   1      32.691  35.011  30.569  1.00  0.00    -0.744 OA
ENDBRANCH  75  76
ENDBRANCH  47  70
BRANCH  59  80
ATOM     80  C   UNL A   1      43.241  34.444  33.218  1.00  0.00    -0.014 A 
ATOM     81  C   UNL A   1      43.782  35.559  32.556  1.00  0.00     0.010 A 
ATOM     82  C   UNL A   1      43.052  34.501  34.612  1.00  0.00     0.010 A 
ATOM     83  C   UNL A   1      44.157  36.697  33.277  1.00  0.00     0.020 A 
ATOM     84  C   UNL A   1      43.394  35.649  35.332  1.00  0.00     0.020 A 
ATOM     85  C   UNL A   1      43.957  36.735  34.661  1.00  0.00     0.054 A 
BRANCH  85  86
ATOM     86  S   UNL A   1      44.408  38.241  35.564  1.00  0.00     0.124 S 
ATOM     87  O   UNL A   1      43.782  38.015  36.864  1.00  0.00    -0.237 OA
ATOM     88  O   UNL A   1      45.869  38.194  35.552  1.00  0.00    -0.237 OA
ATOM     89  O   UNL A   1      43.819  39.314  34.767  1.00  0.00    -0.744 OA
ENDBRANCH  85  86
ENDBRANCH  59  80
ENDBRANCH  33  34
ENDBRANCH  25  28
ENDBRANCH  23  24
ENDBRANCH   1  23
TORSDOF 15
ENDMDL
