MODEL 1
REMARK VINA RESULT:     -12.6      0.000      0.000
REMARK SMILES Cc1nn(C)c(C)c1CNC(=O)N[C@H]1CC[C@@H](C(=O)NCCCNC(=O)c2ccc(-c3c4nc(c(-c5ccc(S(=O)(=O)[O-])cc5)c5ccc([nH]5)c(-c5ccc(S(=O)(=O)[O-])cc5)c5nc(c(-c6ccc(S(=O)(=O)[O-])cc6)c6ccc3[nH]6)C=C5)C=C4)cc2)C1
REMARK SMILES IDX 22 1 21 2 20 3 18 4 19 5 17 7 14 8 15 9 87 10 16 11 13 12
REMARK SMILES IDX 10 13 11 14 12 16 9 18 8 19 1 20 2 21 3 22 4 23 6 24 5 25
REMARK SMILES IDX 7 26 23 27 24 28 25 29 26 31 27 32 28 33 86 34 29 35 85 36
REMARK SMILES IDX 30 37 31 38 32 39 79 40 33 41 84 42 78 43 80 44 34 45 83 46
REMARK SMILES IDX 77 47 76 48 35 50 65 51 46 52 64 53 47 54 50 55 63 56 81 57
REMARK SMILES IDX 48 58 49 59 62 61 82 62 51 63 36 64 37 65 45 66 38 67 44 68
REMARK SMILES IDX 39 69 40 70 41 71 42 72 43 73 66 74 67 75 75 76 68 77 74 78
REMARK SMILES IDX 69 79 70 80 71 81 72 82 73 83 52 84 53 85 61 86 54 87 60 88
REMARK SMILES IDX 55 89 56 90 57 91 58 92 59 93
REMARK H PARENT 20 6 10 15 13 17 24 30 80 49 50 60
REMARK Flexibility Score: inf
ROOT
ATOM      1  C   UNL A   1      34.877  29.583  27.257  1.00  0.00     0.042 C 
ENDROOT
BRANCH   1   2
ATOM      2  C   UNL A   1      33.519  30.131  26.836  1.00  0.00     0.117 C 
BRANCH   2   3
ATOM      3  N   UNL A   1      32.413  29.443  27.461  1.00  0.00    -0.356 N 
ATOM      4  C   UNL A   1      31.819  28.260  27.170  1.00  0.00     0.223 C 
ATOM      5  O   UNL A   1      31.013  27.831  28.005  1.00  0.00    -0.275 OA
ATOM      6  H   UNL A   1      32.023  29.916  28.232  1.00  0.00     0.163 HD
BRANCH   4   7
ATOM      7  C   UNL A   1      32.136  27.409  25.940  1.00  0.00     0.080 C 
ATOM      8  C   UNL A   1      31.939  25.043  25.251  1.00  0.00     0.084 C 
ATOM      9  C   UNL A   1      31.291  25.959  24.214  1.00  0.00     0.026 C 
ATOM     10  C   UNL A   1      32.783  26.024  26.091  1.00  0.00     0.038 C 
ATOM     11  C   UNL A   1      30.930  27.207  25.021  1.00  0.00     0.015 C 
BRANCH   8  12
ATOM     12  N   UNL A   1      30.877  24.372  26.007  1.00  0.00    -0.335 N 
ATOM     13  N   UNL A   1      31.486  22.113  26.204  1.00  0.00    -0.334 N 
ATOM     14  C   UNL A   1      30.810  23.183  26.624  1.00  0.00     0.315 C 
ATOM     15  H   UNL A   1      31.777  21.489  26.907  1.00  0.00     0.165 HD
ATOM     16  O   UNL A   1      30.102  23.100  27.628  1.00  0.00    -0.249 OA
ATOM     17  H   UNL A   1      30.049  24.900  26.076  1.00  0.00     0.165 HD
BRANCH  13  18
ATOM     18  C   UNL A   1      31.845  21.751  24.860  1.00  0.00     0.157 C 
BRANCH  18  19
ATOM     19  C   UNL A   1      33.209  21.158  24.796  1.00  0.00     0.015 A 
ATOM     20  C   UNL A   1      32.501  18.638  24.640  1.00  0.00     0.069 C 
ATOM     21  C   UNL A   1      33.470  19.760  24.718  1.00  0.00     0.065 A 
ATOM     22  N   UNL A   1      34.776  19.493  24.730  1.00  0.00    -0.178 NA
ATOM     23  N   UNL A   1      35.362  20.695  24.855  1.00  0.00    -0.272 N 
ATOM     24  C   UNL A   1      34.474  21.741  24.785  1.00  0.00     0.040 A 
ATOM     25  C   UNL A   1      36.791  20.736  25.075  1.00  0.00     0.174 C 
ATOM     26  C   UNL A   1      34.915  23.160  24.756  1.00  0.00     0.067 C 
ENDBRANCH  18  19
ENDBRANCH  13  18
ENDBRANCH   8  12
ENDBRANCH   4   7
ENDBRANCH   2   3
ENDBRANCH   1   2
BRANCH   1  27
ATOM     27  C   UNL A   1      35.670  30.563  28.108  1.00  0.00     0.118 C 
BRANCH  27  28
ATOM     28  N   UNL A   1      35.617  30.252  29.532  1.00  0.00    -0.352 N 
ATOM     29  C   UNL A   1      36.555  29.691  30.364  1.00  0.00     0.251 C 
ATOM     30  H   UNL A   1      34.767  30.484  29.972  1.00  0.00     0.163 HD
ATOM     31  O   UNL A   1      36.274  29.472  31.540  1.00  0.00    -0.269 OA
BRANCH  29  32
ATOM     32  C   UNL A   1      37.881  29.296  29.843  1.00  0.00     0.039 A 
ATOM     33  C   UNL A   1      38.179  29.563  28.504  1.00  0.00     0.014 A 
ATOM     34  C   UNL A   1      38.835  28.694  30.662  1.00  0.00     0.014 A 
ATOM     35  C   UNL A   1      39.458  29.298  28.010  1.00  0.00     0.010 A 
ATOM     36  C   UNL A   1      40.137  28.538  30.203  1.00  0.00     0.010 A 
ATOM     37  C   UNL A   1      40.462  28.827  28.869  1.00  0.00    -0.014 A 
BRANCH  37  38
ATOM     38  C   UNL A   1      41.852  28.599  28.400  1.00  0.00     0.031 A 
ATOM     39  C   UNL A   1      42.264  27.227  27.935  1.00  0.00     0.074 A 
ATOM     40  C   UNL A   1      42.760  29.593  28.475  1.00  0.00     0.049 A 
ATOM     41  N   UNL A   1      43.453  26.785  27.616  1.00  0.00    -0.248 NA
ATOM     42  C   UNL A   1      41.206  26.204  27.860  1.00  0.00     0.031 C 
ATOM     43  C   UNL A   1      42.498  30.954  28.954  1.00  0.00     0.029 A 
ATOM     44  N   UNL A   1      44.094  29.609  28.156  1.00  0.00    -0.354 N 
ATOM     45  C   UNL A   1      43.291  25.431  27.347  1.00  0.00     0.074 A 
ATOM     46  C   UNL A   1      41.904  25.111  27.592  1.00  0.00     0.031 C 
ATOM     47  C   UNL A   1      43.626  31.677  28.865  1.00  0.00     0.029 A 
ATOM     48  C   UNL A   1      44.700  30.826  28.369  1.00  0.00     0.049 A 
ATOM     49  H   UNL A   1      44.574  28.823  27.807  1.00  0.00     0.167 HD
ATOM     50  C   UNL A   1      44.209  24.538  26.908  1.00  0.00     0.031 A 
ATOM     51  C   UNL A   1      45.980  31.209  28.192  1.00  0.00     0.031 A 
ATOM     52  C   UNL A   1      45.576  24.873  26.618  1.00  0.00     0.049 A 
ATOM     53  C   UNL A   1      46.974  30.209  27.670  1.00  0.00     0.074 A 
ATOM     54  C   UNL A   1      46.571  24.063  26.102  1.00  0.00     0.029 A 
ATOM     55  N   UNL A   1      46.137  26.128  26.807  1.00  0.00    -0.354 N 
ATOM     56  N   UNL A   1      46.790  28.945  27.372  1.00  0.00    -0.248 NA
ATOM     57  C   UNL A   1      48.345  30.689  27.448  1.00  0.00     0.031 C 
ATOM     58  C   UNL A   1      47.745  24.817  26.014  1.00  0.00     0.029 A 
ATOM     59  C   UNL A   1      47.466  26.112  26.426  1.00  0.00     0.049 A 
ATOM     60  H   UNL A   1      45.659  26.913  27.159  1.00  0.00     0.167 HD
ATOM     61  C   UNL A   1      48.015  28.486  26.899  1.00  0.00     0.074 A 
ATOM     62  C   UNL A   1      48.927  29.611  26.940  1.00  0.00     0.031 C 
ATOM     63  C   UNL A   1      48.352  27.246  26.467  1.00  0.00     0.031 A 
BRANCH  50  64
ATOM     64  C   UNL A   1      43.756  23.115  26.707  1.00  0.00    -0.014 A 
ATOM     65  C   UNL A   1      44.128  22.387  25.562  1.00  0.00     0.010 A 
ATOM     66  C   UNL A   1      42.970  22.486  27.690  1.00  0.00     0.010 A 
ATOM     67  C   UNL A   1      43.682  21.076  25.380  1.00  0.00     0.020 A 
ATOM     68  C   UNL A   1      42.548  21.163  27.527  1.00  0.00     0.020 A 
ATOM     69  C   UNL A   1      42.892  20.473  26.362  1.00  0.00     0.054 A 
BRANCH  69  70
ATOM     70  S   UNL A   1      42.347  18.762  26.110  1.00  0.00     0.124 S 
ATOM     71  O   UNL A   1      42.576  18.176  27.428  1.00  0.00    -0.237 OA
ATOM     72  O   UNL A   1      40.945  18.924  25.732  1.00  0.00    -0.237 OA
ATOM     73  O   UNL A   1      43.223  18.271  25.049  1.00  0.00    -0.744 OA
ENDBRANCH  69  70
ENDBRANCH  50  64
BRANCH  51  74
ATOM     74  C   UNL A   1      46.385  32.610  28.489  1.00  0.00    -0.014 A 
ATOM     75  C   UNL A   1      46.296  33.602  27.495  1.00  0.00     0.010 A 
ATOM     76  C   UNL A   1      46.849  32.964  29.768  1.00  0.00     0.010 A 
ATOM     77  C   UNL A   1      46.681  34.917  27.769  1.00  0.00     0.020 A 
ATOM     78  C   UNL A   1      47.210  34.284  30.054  1.00  0.00     0.020 A 
ATOM     79  C   UNL A   1      47.136  35.250  29.049  1.00  0.00     0.054 A 
BRANCH  79  80
ATOM     80  S   UNL A   1      47.583  36.973  29.400  1.00  0.00     0.124 S 
ATOM     81  O   UNL A   1      48.929  37.056  28.845  1.00  0.00    -0.237 OA
ATOM     82  O   UNL A   1      46.553  37.720  28.681  1.00  0.00    -0.237 OA
ATOM     83  O   UNL A   1      47.497  37.054  30.857  1.00  0.00    -0.744 OA
ENDBRANCH  79  80
ENDBRANCH  51  74
BRANCH  63  84
ATOM     84  C   UNL A   1      49.755  27.047  25.963  1.00  0.00    -0.014 A 
ATOM     85  C   UNL A   1      50.795  26.673  26.831  1.00  0.00     0.010 A 
ATOM     86  C   UNL A   1      50.016  27.171  24.586  1.00  0.00     0.010 A 
ATOM     87  C   UNL A   1      52.081  26.450  26.332  1.00  0.00     0.020 A 
ATOM     88  C   UNL A   1      51.294  26.922  24.080  1.00  0.00     0.020 A 
ATOM     89  C   UNL A   1      52.321  26.575  24.960  1.00  0.00     0.054 A 
BRANCH  89  90
ATOM     90  S   UNL A   1      53.986  26.226  24.330  1.00  0.00     0.124 S 
ATOM     91  O   UNL A   1      53.786  26.307  22.885  1.00  0.00    -0.237 OA
ATOM     92  O   UNL A   1      54.782  27.302  24.915  1.00  0.00    -0.237 OA
ATOM     93  O   UNL A   1      54.279  24.890  24.845  1.00  0.00    -0.744 OA
ENDBRANCH  89  90
ENDBRANCH  63  84
ENDBRANCH  37  38
ENDBRANCH  29  32
ENDBRANCH  27  28
ENDBRANCH   1  27
TORSDOF 16
ENDMDL
MODEL 2
REMARK VINA RESULT:     -12.6      6.428     11.593
REMARK SMILES Cc1nn(C)c(C)c1CNC(=O)N[C@H]1CC[C@@H](C(=O)NCCCNC(=O)c2ccc(-c3c4nc(c(-c5ccc(S(=O)(=O)[O-])cc5)c5ccc([nH]5)c(-c5ccc(S(=O)(=O)[O-])cc5)c5nc(c(-c6ccc(S(=O)(=O)[O-])cc6)c6ccc3[nH]6)C=C5)C=C4)cc2)C1
REMARK SMILES IDX 22 1 21 2 20 3 18 4 19 5 17 7 14 8 15 9 87 10 16 11 13 12
REMARK SMILES IDX 10 13 11 14 12 16 9 18 8 19 1 20 2 21 3 22 4 23 6 24 5 25
REMARK SMILES IDX 7 26 23 27 24 28 25 29 26 31 27 32 28 33 86 34 29 35 85 36
REMARK SMILES IDX 30 37 31 38 32 39 79 40 33 41 84 42 78 43 80 44 34 45 83 46
REMARK SMILES IDX 77 47 76 48 35 50 65 51 46 52 64 53 47 54 50 55 63 56 81 57
REMARK SMILES IDX 48 58 49 59 62 61 82 62 51 63 36 64 37 65 45 66 38 67 44 68
REMARK SMILES IDX 39 69 40 70 41 71 42 72 43 73 66 74 67 75 75 76 68 77 74 78
REMARK SMILES IDX 69 79 70 80 71 81 72 82 73 83 52 84 53 85 61 86 54 87 60 88
REMARK SMILES IDX 55 89 56 90 57 91 58 92 59 93
REMARK H PARENT 20 6 10 15 13 17 24 30 80 49 50 60
REMARK Flexibility Score: inf
ROOT
ATOM      1  C   UNL A   1      39.026  22.107  26.150  1.00  0.00     0.042 C 
ENDROOT
BRANCH   1   2
ATOM      2  C   UNL A   1      37.686  22.720  25.760  1.00  0.00     0.117 C 
BRANCH   2   3
ATOM      3  N   UNL A   1      37.442  22.689  24.336  1.00  0.00    -0.356 N 
ATOM      4  C   UNL A   1      36.321  22.937  23.617  1.00  0.00     0.223 C 
ATOM      5  O   UNL A   1      36.463  23.025  22.391  1.00  0.00    -0.275 OA
ATOM      6  H   UNL A   1      38.228  22.448  23.794  1.00  0.00     0.163 HD
BRANCH   4   7
ATOM      7  C   UNL A   1      34.939  23.186  24.222  1.00  0.00     0.080 C 
ATOM      8  C   UNL A   1      32.887  24.440  23.647  1.00  0.00     0.084 C 
ATOM      9  C   UNL A   1      32.555  22.983  23.965  1.00  0.00     0.026 C 
ATOM     10  C   UNL A   1      34.318  24.591  24.206  1.00  0.00     0.038 C 
ATOM     11  C   UNL A   1      33.863  22.249  23.673  1.00  0.00     0.015 C 
BRANCH   8  12
ATOM     12  N   UNL A   1      32.790  24.633  22.198  1.00  0.00    -0.335 N 
ATOM     13  N   UNL A   1      31.926  26.787  21.840  1.00  0.00    -0.334 N 
ATOM     14  C   UNL A   1      32.618  25.722  21.433  1.00  0.00     0.315 C 
ATOM     15  H   UNL A   1      32.235  27.655  21.493  1.00  0.00     0.165 HD
ATOM     16  O   UNL A   1      33.140  25.725  20.318  1.00  0.00    -0.249 OA
ATOM     17  H   UNL A   1      32.868  23.797  21.683  1.00  0.00     0.165 HD
BRANCH  13  18
ATOM     18  C   UNL A   1      30.790  26.835  22.719  1.00  0.00     0.157 C 
BRANCH  18  19
ATOM     19  C   UNL A   1      30.816  28.044  23.588  1.00  0.00     0.015 A 
ATOM     20  C   UNL A   1      29.136  29.514  22.212  1.00  0.00     0.069 C 
ATOM     21  C   UNL A   1      30.080  29.234  23.323  1.00  0.00     0.065 A 
ATOM     22  N   UNL A   1      30.326  30.185  24.224  1.00  0.00    -0.178 NA
ATOM     23  N   UNL A   1      31.239  29.641  25.044  1.00  0.00    -0.272 N 
ATOM     24  C   UNL A   1      31.487  28.317  24.777  1.00  0.00     0.040 A 
ATOM     25  C   UNL A   1      31.850  30.492  26.043  1.00  0.00     0.174 C 
ATOM     26  C   UNL A   1      32.354  27.478  25.645  1.00  0.00     0.067 C 
ENDBRANCH  18  19
ENDBRANCH  13  18
ENDBRANCH   8  12
ENDBRANCH   4   7
ENDBRANCH   2   3
ENDBRANCH   1   2
BRANCH   1  27
ATOM     27  C   UNL A   1      39.915  23.076  26.914  1.00  0.00     0.118 C 
BRANCH  27  28
ATOM     28  N   UNL A   1      41.108  23.462  26.170  1.00  0.00    -0.352 N 
ATOM     29  C   UNL A   1      41.906  24.576  26.267  1.00  0.00     0.251 C 
ATOM     30  H   UNL A   1      41.390  22.816  25.482  1.00  0.00     0.163 HD
ATOM     31  O   UNL A   1      42.848  24.721  25.492  1.00  0.00    -0.269 OA
BRANCH  29  32
ATOM     32  C   UNL A   1      41.607  25.630  27.259  1.00  0.00     0.039 A 
ATOM     33  C   UNL A   1      40.650  25.367  28.245  1.00  0.00     0.014 A 
ATOM     34  C   UNL A   1      42.274  26.854  27.246  1.00  0.00     0.014 A 
ATOM     35  C   UNL A   1      40.421  26.300  29.258  1.00  0.00     0.010 A 
ATOM     36  C   UNL A   1      42.129  27.729  28.315  1.00  0.00     0.010 A 
ATOM     37  C   UNL A   1      41.194  27.469  29.327  1.00  0.00    -0.014 A 
BRANCH  37  38
ATOM     38  C   UNL A   1      41.030  28.453  30.428  1.00  0.00     0.031 A 
ATOM     39  C   UNL A   1      41.909  28.355  31.647  1.00  0.00     0.074 A 
ATOM     40  C   UNL A   1      40.044  29.369  30.371  1.00  0.00     0.049 A 
ATOM     41  N   UNL A   1      41.841  29.023  32.770  1.00  0.00    -0.248 NA
ATOM     42  C   UNL A   1      42.978  27.342  31.619  1.00  0.00     0.031 C 
ATOM     43  C   UNL A   1      39.095  29.535  29.266  1.00  0.00     0.029 A 
ATOM     44  N   UNL A   1      39.668  30.333  31.273  1.00  0.00    -0.354 N 
ATOM     45  C   UNL A   1      42.825  28.483  33.590  1.00  0.00     0.074 A 
ATOM     46  C   UNL A   1      43.438  27.398  32.860  1.00  0.00     0.031 C 
ATOM     47  C   UNL A   1      38.271  30.559  29.541  1.00  0.00     0.029 A 
ATOM     48  C   UNL A   1      38.598  31.093  30.858  1.00  0.00     0.049 A 
ATOM     49  H   UNL A   1      40.121  30.469  32.136  1.00  0.00     0.167 HD
ATOM     50  C   UNL A   1      43.204  28.872  34.830  1.00  0.00     0.031 A 
ATOM     51  C   UNL A   1      37.950  32.101  31.473  1.00  0.00     0.031 A 
ATOM     52  C   UNL A   1      42.622  29.984  35.531  1.00  0.00     0.049 A 
ATOM     53  C   UNL A   1      38.411  32.540  32.835  1.00  0.00     0.074 A 
ATOM     54  C   UNL A   1      42.979  30.508  36.761  1.00  0.00     0.029 A 
ATOM     55  N   UNL A   1      41.571  30.754  35.055  1.00  0.00    -0.354 N 
ATOM     56  N   UNL A   1      39.379  32.049  33.573  1.00  0.00    -0.248 NA
ATOM     57  C   UNL A   1      37.704  33.675  33.443  1.00  0.00     0.031 C 
ATOM     58  C   UNL A   1      42.117  31.571  37.047  1.00  0.00     0.029 A 
ATOM     59  C   UNL A   1      41.259  31.742  35.971  1.00  0.00     0.049 A 
ATOM     60  H   UNL A   1      41.115  30.616  34.194  1.00  0.00     0.167 HD
ATOM     61  C   UNL A   1      39.414  32.835  34.720  1.00  0.00     0.074 A 
ATOM     62  C   UNL A   1      38.381  33.839  34.572  1.00  0.00     0.031 C 
ATOM     63  C   UNL A   1      40.232  32.737  35.797  1.00  0.00     0.031 A 
BRANCH  50  64
ATOM     64  C   UNL A   1      44.305  28.091  35.499  1.00  0.00    -0.014 A 
ATOM     65  C   UNL A   1      45.654  28.460  35.348  1.00  0.00     0.010 A 
ATOM     66  C   UNL A   1      43.985  26.989  36.313  1.00  0.00     0.010 A 
ATOM     67  C   UNL A   1      46.665  27.713  35.956  1.00  0.00     0.020 A 
ATOM     68  C   UNL A   1      44.992  26.258  36.950  1.00  0.00     0.020 A 
ATOM     69  C   UNL A   1      46.328  26.614  36.752  1.00  0.00     0.054 A 
BRANCH  69  70
ATOM     70  S   UNL A   1      47.660  25.677  37.548  1.00  0.00     0.124 S 
ATOM     71  O   UNL A   1      48.790  25.950  36.663  1.00  0.00    -0.237 OA
ATOM     72  O   UNL A   1      47.738  26.290  38.871  1.00  0.00    -0.237 OA
ATOM     73  O   UNL A   1      47.174  24.299  37.530  1.00  0.00    -0.744 OA
ENDBRANCH  69  70
ENDBRANCH  50  64
BRANCH  51  74
ATOM     74  C   UNL A   1      36.813  32.779  30.794  1.00  0.00    -0.014 A 
ATOM     75  C   UNL A   1      35.487  32.432  31.108  1.00  0.00     0.010 A 
ATOM     76  C   UNL A   1      37.048  33.784  29.838  1.00  0.00     0.010 A 
ATOM     77  C   UNL A   1      34.417  33.063  30.467  1.00  0.00     0.020 A 
ATOM     78  C   UNL A   1      35.981  34.437  29.214  1.00  0.00     0.020 A 
ATOM     79  C   UNL A   1      34.672  34.064  29.523  1.00  0.00     0.054 A 
BRANCH  79  80
ATOM     80  S   UNL A   1      33.269  34.907  28.739  1.00  0.00     0.124 S 
ATOM     81  O   UNL A   1      33.920  36.047  28.102  1.00  0.00    -0.237 OA
ATOM     82  O   UNL A   1      32.752  33.884  27.834  1.00  0.00    -0.237 OA
ATOM     83  O   UNL A   1      32.397  35.230  29.867  1.00  0.00    -0.744 OA
ENDBRANCH  79  80
ENDBRANCH  51  74
BRANCH  63  84
ATOM     84  C   UNL A   1      40.072  33.764  36.884  1.00  0.00    -0.014 A 
ATOM     85  C   UNL A   1      40.878  34.914  36.924  1.00  0.00     0.010 A 
ATOM     86  C   UNL A   1      39.050  33.604  37.837  1.00  0.00     0.010 A 
ATOM     87  C   UNL A   1      40.680  35.876  37.917  1.00  0.00     0.020 A 
ATOM     88  C   UNL A   1      38.832  34.577  38.815  1.00  0.00     0.020 A 
ATOM     89  C   UNL A   1      39.658  35.702  38.855  1.00  0.00     0.054 A 
BRANCH  89  90
ATOM     90  S   UNL A   1      39.386  36.992  40.101  1.00  0.00     0.124 S 
ATOM     91  O   UNL A   1      40.752  37.404  40.413  1.00  0.00    -0.237 OA
ATOM     92  O   UNL A   1      38.584  37.975  39.375  1.00  0.00    -0.237 OA
ATOM     93  O   UNL A   1      38.683  36.294  41.175  1.00  0.00    -0.744 OA
ENDBRANCH  89  90
ENDBRANCH  63  84
ENDBRANCH  37  38
ENDBRANCH  29  32
ENDBRANCH  27  28
ENDBRANCH   1  27
TORSDOF 16
ENDMDL
MODEL 3
REMARK VINA RESULT:     -12.3      3.221      8.916
REMARK SMILES Cc1nn(C)c(C)c1CNC(=O)N[C@H]1CC[C@@H](C(=O)NCCCNC(=O)c2ccc(-c3c4nc(c(-c5ccc(S(=O)(=O)[O-])cc5)c5ccc([nH]5)c(-c5ccc(S(=O)(=O)[O-])cc5)c5nc(c(-c6ccc(S(=O)(=O)[O-])cc6)c6ccc3[nH]6)C=C5)C=C4)cc2)C1
REMARK SMILES IDX 22 1 21 2 20 3 18 4 19 5 17 7 14 8 15 9 87 10 16 11 13 12
REMARK SMILES IDX 10 13 11 14 12 16 9 18 8 19 1 20 2 21 3 22 4 23 6 24 5 25
REMARK SMILES IDX 7 26 23 27 24 28 25 29 26 31 27 32 28 33 86 34 29 35 85 36
REMARK SMILES IDX 30 37 31 38 32 39 79 40 33 41 84 42 78 43 80 44 34 45 83 46
REMARK SMILES IDX 77 47 76 48 35 50 65 51 46 52 64 53 47 54 50 55 63 56 81 57
REMARK SMILES IDX 48 58 49 59 62 61 82 62 51 63 36 64 37 65 45 66 38 67 44 68
REMARK SMILES IDX 39 69 40 70 41 71 42 72 43 73 66 74 67 75 75 76 68 77 74 78
REMARK SMILES IDX 69 79 70 80 71 81 72 82 73 83 52 84 53 85 61 86 54 87 60 88
REMARK SMILES IDX 55 89 56 90 57 91 58 92 59 93
REMARK H PARENT 20 6 10 15 13 17 24 30 80 49 50 60
REMARK Flexibility Score: inf
ROOT
ATOM      1  C   UNL A   1      31.934  28.034  26.874  1.00  0.00     0.042 C 
ENDROOT
BRANCH   1   2
ATOM      2  C   UNL A   1      31.777  27.892  25.364  1.00  0.00     0.117 C 
BRANCH   2   3
ATOM      3  N   UNL A   1      32.898  28.426  24.626  1.00  0.00    -0.356 N 
ATOM      4  C   UNL A   1      33.539  27.969  23.523  1.00  0.00     0.223 C 
ATOM      5  O   UNL A   1      34.347  28.744  22.997  1.00  0.00    -0.275 OA
ATOM      6  H   UNL A   1      33.259  29.269  24.987  1.00  0.00     0.163 HD
BRANCH   4   7
ATOM      7  C   UNL A   1      33.272  26.617  22.862  1.00  0.00     0.080 C 
ATOM      8  C   UNL A   1      32.566  24.349  23.551  1.00  0.00     0.084 C 
ATOM      9  C   UNL A   1      31.683  24.864  22.416  1.00  0.00     0.026 C 
ATOM     10  C   UNL A   1      33.769  25.315  23.511  1.00  0.00     0.038 C 
ATOM     11  C   UNL A   1      31.794  26.384  22.542  1.00  0.00     0.015 C 
BRANCH   8  12
ATOM     12  N   UNL A   1      31.799  24.405  24.799  1.00  0.00    -0.335 N 
ATOM     13  N   UNL A   1      32.920  23.060  26.364  1.00  0.00    -0.334 N 
ATOM     14  C   UNL A   1      32.088  24.058  26.062  1.00  0.00     0.315 C 
ATOM     15  H   UNL A   1      33.440  23.173  27.192  1.00  0.00     0.165 HD
ATOM     16  O   UNL A   1      31.566  24.709  26.968  1.00  0.00    -0.249 OA
ATOM     17  H   UNL A   1      30.892  24.772  24.688  1.00  0.00     0.165 HD
BRANCH  13  18
ATOM     18  C   UNL A   1      33.157  21.841  25.638  1.00  0.00     0.157 C 
BRANCH  18  19
ATOM     19  C   UNL A   1      34.612  21.586  25.451  1.00  0.00     0.015 A 
ATOM     20  C   UNL A   1      34.441  19.098  24.640  1.00  0.00     0.069 C 
ATOM     21  C   UNL A   1      35.156  20.342  25.022  1.00  0.00     0.065 A 
ATOM     22  N   UNL A   1      36.488  20.363  24.992  1.00  0.00    -0.178 NA
ATOM     23  N   UNL A   1      36.814  21.589  25.432  1.00  0.00    -0.272 N 
ATOM     24  C   UNL A   1      35.725  22.406  25.615  1.00  0.00     0.040 A 
ATOM     25  C   UNL A   1      38.210  21.873  25.683  1.00  0.00     0.174 C 
ATOM     26  C   UNL A   1      35.859  23.845  25.961  1.00  0.00     0.067 C 
ENDBRANCH  18  19
ENDBRANCH  13  18
ENDBRANCH   8  12
ENDBRANCH   4   7
ENDBRANCH   2   3
ENDBRANCH   1   2
BRANCH   1  27
ATOM     27  C   UNL A   1      33.315  28.524  27.279  1.00  0.00     0.118 C 
BRANCH  27  28
ATOM     28  N   UNL A   1      33.349  29.954  27.569  1.00  0.00    -0.352 N 
ATOM     29  C   UNL A   1      34.365  30.751  28.037  1.00  0.00     0.251 C 
ATOM     30  H   UNL A   1      32.502  30.427  27.400  1.00  0.00     0.163 HD
ATOM     31  O   UNL A   1      34.154  31.940  28.259  1.00  0.00    -0.269 OA
BRANCH  29  32
ATOM     32  C   UNL A   1      35.696  30.177  28.331  1.00  0.00     0.039 A 
ATOM     33  C   UNL A   1      36.667  30.195  27.325  1.00  0.00     0.014 A 
ATOM     34  C   UNL A   1      36.001  29.651  29.585  1.00  0.00     0.014 A 
ATOM     35  C   UNL A   1      37.964  29.757  27.603  1.00  0.00     0.010 A 
ATOM     36  C   UNL A   1      37.316  29.324  29.893  1.00  0.00     0.010 A 
ATOM     37  C   UNL A   1      38.310  29.363  28.904  1.00  0.00    -0.014 A 
BRANCH  37  38
ATOM     38  C   UNL A   1      39.695  28.958  29.258  1.00  0.00     0.031 A 
ATOM     39  C   UNL A   1      40.609  29.948  29.932  1.00  0.00     0.074 A 
ATOM     40  C   UNL A   1      40.154  27.743  28.898  1.00  0.00     0.049 A 
ATOM     41  N   UNL A   1      41.884  29.843  30.201  1.00  0.00    -0.248 NA
ATOM     42  C   UNL A   1      40.022  31.244  30.313  1.00  0.00     0.031 C 
ATOM     43  C   UNL A   1      39.382  26.712  28.197  1.00  0.00     0.029 A 
ATOM     44  N   UNL A   1      41.390  27.171  29.064  1.00  0.00    -0.354 N 
ATOM     45  C   UNL A   1      42.257  31.068  30.741  1.00  0.00     0.074 A 
ATOM     46  C   UNL A   1      41.089  31.919  30.710  1.00  0.00     0.031 C 
ATOM     47  C   UNL A   1      40.152  25.625  28.025  1.00  0.00     0.029 A 
ATOM     48  C   UNL A   1      41.483  25.895  28.558  1.00  0.00     0.049 A 
ATOM     49  H   UNL A   1      42.142  27.630  29.504  1.00  0.00     0.167 HD
ATOM     50  C   UNL A   1      43.456  31.445  31.243  1.00  0.00     0.031 A 
ATOM     51  C   UNL A   1      42.525  25.041  28.521  1.00  0.00     0.031 A 
ATOM     52  C   UNL A   1      44.601  30.578  31.316  1.00  0.00     0.049 A 
ATOM     53  C   UNL A   1      43.837  25.468  29.116  1.00  0.00     0.074 A 
ATOM     54  C   UNL A   1      45.841  30.835  31.870  1.00  0.00     0.029 A 
ATOM     55  N   UNL A   1      44.637  29.279  30.832  1.00  0.00    -0.354 N 
ATOM     56  N   UNL A   1      44.155  26.614  29.670  1.00  0.00    -0.248 NA
ATOM     57  C   UNL A   1      44.928  24.484  29.095  1.00  0.00     0.031 C 
ATOM     58  C   UNL A   1      46.642  29.704  31.686  1.00  0.00     0.029 A 
ATOM     59  C   UNL A   1      45.882  28.724  31.065  1.00  0.00     0.049 A 
ATOM     60  H   UNL A   1      43.887  28.821  30.388  1.00  0.00     0.167 HD
ATOM     61  C   UNL A   1      45.474  26.478  30.089  1.00  0.00     0.074 A 
ATOM     62  C   UNL A   1      45.889  25.136  29.736  1.00  0.00     0.031 C 
ATOM     63  C   UNL A   1      46.269  27.382  30.713  1.00  0.00     0.031 A 
BRANCH  50  64
ATOM     64  C   UNL A   1      43.584  32.855  31.760  1.00  0.00    -0.014 A 
ATOM     65  C   UNL A   1      43.405  33.149  33.124  1.00  0.00     0.010 A 
ATOM     66  C   UNL A   1      43.914  33.897  30.875  1.00  0.00     0.010 A 
ATOM     67  C   UNL A   1      43.504  34.463  33.585  1.00  0.00     0.020 A 
ATOM     68  C   UNL A   1      44.046  35.210  31.337  1.00  0.00     0.020 A 
ATOM     69  C   UNL A   1      43.821  35.487  32.687  1.00  0.00     0.054 A 
BRANCH  69  70
ATOM     70  S   UNL A   1      43.966  37.181  33.317  1.00  0.00     0.124 S 
ATOM     71  O   UNL A   1      45.189  37.102  34.113  1.00  0.00    -0.237 OA
ATOM     72  O   UNL A   1      44.066  37.972  32.093  1.00  0.00    -0.237 OA
ATOM     73  O   UNL A   1      42.736  37.374  34.082  1.00  0.00    -0.744 OA
ENDBRANCH  69  70
ENDBRANCH  50  64
BRANCH  51  74
ATOM     74  C   UNL A   1      42.359  23.690  27.920  1.00  0.00    -0.014 A 
ATOM     75  C   UNL A   1      42.693  23.465  26.572  1.00  0.00     0.010 A 
ATOM     76  C   UNL A   1      41.878  22.618  28.693  1.00  0.00     0.010 A 
ATOM     77  C   UNL A   1      42.533  22.198  26.003  1.00  0.00     0.020 A 
ATOM     78  C   UNL A   1      41.741  21.343  28.136  1.00  0.00     0.020 A 
ATOM     79  C   UNL A   1      42.058  21.144  26.791  1.00  0.00     0.054 A 
BRANCH  79  80
ATOM     80  S   UNL A   1      41.905  19.495  26.048  1.00  0.00     0.124 S 
ATOM     81  O   UNL A   1      42.414  18.636  27.112  1.00  0.00    -0.237 OA
ATOM     82  O   UNL A   1      40.471  19.398  25.787  1.00  0.00    -0.237 OA
ATOM     83  O   UNL A   1      42.744  19.583  24.855  1.00  0.00    -0.744 OA
ENDBRANCH  79  80
ENDBRANCH  51  74
BRANCH  63  84
ATOM     84  C   UNL A   1      47.655  26.940  31.093  1.00  0.00    -0.014 A 
ATOM     85  C   UNL A   1      47.940  26.462  32.383  1.00  0.00     0.010 A 
ATOM     86  C   UNL A   1      48.669  26.939  30.117  1.00  0.00     0.010 A 
ATOM     87  C   UNL A   1      49.225  26.014  32.698  1.00  0.00     0.020 A 
ATOM     88  C   UNL A   1      49.947  26.467  30.421  1.00  0.00     0.020 A 
ATOM     89  C   UNL A   1      50.220  26.018  31.715  1.00  0.00     0.054 A 
BRANCH  89  90
ATOM     90  S   UNL A   1      51.865  25.380  32.135  1.00  0.00     0.124 S 
ATOM     91  O   UNL A   1      52.075  25.937  33.468  1.00  0.00    -0.237 OA
ATOM     92  O   UNL A   1      51.671  23.933  32.082  1.00  0.00    -0.237 OA
ATOM     93  O   UNL A   1      52.726  25.926  31.088  1.00  0.00    -0.744 OA
ENDBRANCH  89  90
ENDBRANCH  63  84
ENDBRANCH  37  38
ENDBRANCH  29  32
ENDBRANCH  27  28
ENDBRANCH   1  27
TORSDOF 16
ENDMDL
