MODEL 1
REMARK VINA RESULT:     -11.6      0.000      0.000
REMARK SMILES CCc1ccc(C[N@H+]2CC[C@@H](C(=O)NCCCNC(=O)c3ccc(-c4c5nc(c(-c6ccc(S(=O)(=O)[O-])cc6)c6ccc([nH]6)c(-c6ccc(S(=O)(=O)[O-])cc6)c6nc(c(-c7ccc(S(=O)(=O)[O-])cc7)c7ccc4[nH]7)C=C6)C=C5)cc3)[C@@H]2C)cc1
REMARK SMILES IDX 16 1 15 2 14 3 12 4 13 5 11 7 8 8 9 9 81 10 10 12 82 13 7 14
REMARK SMILES IDX 6 15 3 16 4 17 84 18 5 19 83 20 2 21 1 22 17 23 18 24 19 25
REMARK SMILES IDX 20 27 21 28 22 29 80 30 23 31 79 32 24 33 25 34 26 35 73 36
REMARK SMILES IDX 27 37 78 38 72 39 74 40 28 41 77 42 71 43 70 44 29 46 59 47
REMARK SMILES IDX 40 48 58 49 41 50 44 51 57 52 75 53 42 54 43 55 56 57 76 58
REMARK SMILES IDX 45 59 30 60 31 61 39 62 32 63 38 64 33 65 34 66 35 67 36 68
REMARK SMILES IDX 37 69 60 70 61 71 69 72 62 73 68 74 63 75 64 76 65 77 66 78
REMARK SMILES IDX 67 79 46 80 47 81 55 82 48 83 54 84 49 85 50 86 51 87 52 88
REMARK SMILES IDX 53 89
REMARK H PARENT 14 6 8 11 18 26 74 45 44 56
REMARK Flexibility Score: inf
ROOT
ATOM      1  C   UNL A   1      41.414  21.101  26.269  1.00  0.00     0.042 C 
ENDROOT
BRANCH   1   2
ATOM      2  C   UNL A   1      39.250  21.392  26.114  1.00  0.00     0.117 C 
BRANCH   2   3
ATOM      3  N   UNL A   1      38.344  22.374  25.235  1.00  0.00    -0.356 N 
ATOM      4  C   UNL A   1      37.008  22.562  25.087  1.00  0.00     0.229 C 
ATOM      5  O   UNL A   1      36.669  23.505  24.358  1.00  0.00    -0.275 OA
ATOM      6  H   UNL A   1      38.877  22.982  24.673  1.00  0.00     0.163 HD
BRANCH   4   7
ATOM      7  C   UNL A   1      35.925  21.698  25.727  1.00  0.00     0.142 C 
ATOM      8  N   UNL A   1      33.577  21.724  25.159  1.00  0.00    -0.328 N 
ATOM      9  C   UNL A   1      34.107  20.431  24.729  1.00  0.00     0.263 C 
ATOM     10  C   UNL A   1      34.596  22.414  25.963  1.00  0.00     0.193 C 
ATOM     11  H   UNL A   1      32.763  21.544  25.747  1.00  0.00     0.348 HD
ATOM     12  C   UNL A   1      35.606  20.404  25.002  1.00  0.00     0.081 C 
ATOM     13  C   UNL A   1      34.164  22.360  27.430  1.00  0.00     0.076 C 
BRANCH   8  14
ATOM     14  C   UNL A   1      32.989  22.545  24.094  1.00  0.00     0.299 C 
BRANCH  14  15
ATOM     15  C   UNL A   1      32.754  23.983  24.480  1.00  0.00     0.006 A 
ATOM     16  C   UNL A   1      31.828  27.439  24.951  1.00  0.00    -0.048 A 
ATOM     17  C   UNL A   1      33.249  27.022  23.920  1.00  0.00     0.004 A 
ATOM     18  C   UNL A   1      30.901  26.130  25.792  1.00  0.00     0.004 A 
ATOM     19  C   UNL A   1      33.716  25.298  23.684  1.00  0.00     0.010 A 
ATOM     20  C   UNL A   1      31.352  24.401  25.546  1.00  0.00     0.010 A 
BRANCH  16  21
ATOM     21  C   UNL A   1      31.404  28.880  25.074  1.00  0.00     0.032 C 
ATOM     22  C   UNL A   1      30.595  29.330  23.876  1.00  0.00     0.009 C 
ENDBRANCH  16  21
ENDBRANCH  14  15
ENDBRANCH   8  14
ENDBRANCH   4   7
ENDBRANCH   2   3
ENDBRANCH   1   2
BRANCH   1  23
ATOM     23  C   UNL A   1      42.467  19.783  26.298  1.00  0.00     0.118 C 
BRANCH  23  24
ATOM     24  N   UNL A   1      43.075  19.428  25.017  1.00  0.00    -0.352 N 
ATOM     25  C   UNL A   1      44.136  20.008  24.384  1.00  0.00     0.251 C 
ATOM     26  H   UNL A   1      42.664  18.666  24.547  1.00  0.00     0.163 HD
ATOM     27  O   UNL A   1      44.617  19.517  23.370  1.00  0.00    -0.269 OA
BRANCH  25  28
ATOM     28  C   UNL A   1      44.568  21.323  24.869  1.00  0.00     0.039 A 
ATOM     29  C   UNL A   1      44.155  22.423  24.118  1.00  0.00     0.014 A 
ATOM     30  C   UNL A   1      45.206  21.473  26.103  1.00  0.00     0.014 A 
ATOM     31  C   UNL A   1      44.359  23.695  24.623  1.00  0.00     0.010 A 
ATOM     32  C   UNL A   1      45.322  22.741  26.648  1.00  0.00     0.010 A 
ATOM     33  C   UNL A   1      44.924  23.857  25.897  1.00  0.00    -0.014 A 
BRANCH  33  34
ATOM     34  C   UNL A   1      45.193  25.216  26.397  1.00  0.00     0.031 A 
ATOM     35  C   UNL A   1      46.585  25.759  26.266  1.00  0.00     0.074 A 
ATOM     36  C   UNL A   1      44.185  25.943  26.910  1.00  0.00     0.049 A 
ATOM     37  N   UNL A   1      47.037  26.943  26.576  1.00  0.00    -0.248 NA
ATOM     38  C   UNL A   1      47.610  24.844  25.733  1.00  0.00     0.031 C 
ATOM     39  C   UNL A   1      42.804  25.478  27.072  1.00  0.00     0.029 A 
ATOM     40  N   UNL A   1      44.154  27.236  27.357  1.00  0.00    -0.354 N 
ATOM     41  C   UNL A   1      48.395  26.909  26.280  1.00  0.00     0.074 A 
ATOM     42  C   UNL A   1      48.709  25.571  25.841  1.00  0.00     0.031 C 
ATOM     43  C   UNL A   1      42.050  26.492  27.529  1.00  0.00     0.029 A 
ATOM     44  C   UNL A   1      42.901  27.658  27.731  1.00  0.00     0.049 A 
ATOM     45  H   UNL A   1      44.954  27.809  27.406  1.00  0.00     0.167 HD
ATOM     46  C   UNL A   1      49.291  27.920  26.337  1.00  0.00     0.031 A 
ATOM     47  C   UNL A   1      42.494  28.862  28.177  1.00  0.00     0.031 A 
ATOM     48  C   UNL A   1      48.946  29.242  26.779  1.00  0.00     0.049 A 
ATOM     49  C   UNL A   1      43.520  29.957  28.280  1.00  0.00     0.074 A 
ATOM     50  C   UNL A   1      49.753  30.358  26.878  1.00  0.00     0.029 A 
ATOM     51  N   UNL A   1      47.676  29.622  27.199  1.00  0.00    -0.354 N 
ATOM     52  N   UNL A   1      44.794  29.924  27.962  1.00  0.00    -0.248 NA
ATOM     53  C   UNL A   1      43.055  31.251  28.790  1.00  0.00     0.031 C 
ATOM     54  C   UNL A   1      48.985  31.396  27.416  1.00  0.00     0.029 A 
ATOM     55  C   UNL A   1      47.683  30.948  27.582  1.00  0.00     0.049 A 
ATOM     56  H   UNL A   1      46.888  29.031  27.218  1.00  0.00     0.167 HD
ATOM     57  C   UNL A   1      45.280  31.201  28.208  1.00  0.00     0.074 A 
ATOM     58  C   UNL A   1      44.156  31.985  28.684  1.00  0.00     0.031 C 
ATOM     59  C   UNL A   1      46.538  31.688  28.055  1.00  0.00     0.031 A 
BRANCH  46  60
ATOM     60  C   UNL A   1      50.709  27.608  25.939  1.00  0.00    -0.014 A 
ATOM     61  C   UNL A   1      51.114  27.639  24.590  1.00  0.00     0.010 A 
ATOM     62  C   UNL A   1      51.649  27.254  26.923  1.00  0.00     0.010 A 
ATOM     63  C   UNL A   1      52.413  27.267  24.229  1.00  0.00     0.020 A 
ATOM     64  C   UNL A   1      52.960  26.917  26.570  1.00  0.00     0.020 A 
ATOM     65  C   UNL A   1      53.326  26.905  25.223  1.00  0.00     0.054 A 
BRANCH  65  66
ATOM     66  S   UNL A   1      55.006  26.433  24.727  1.00  0.00     0.124 S 
ATOM     67  O   UNL A   1      55.824  27.253  25.617  1.00  0.00    -0.237 OA
ATOM     68  O   UNL A   1      55.027  24.998  25.000  1.00  0.00    -0.237 OA
ATOM     69  O   UNL A   1      55.067  26.797  23.314  1.00  0.00    -0.744 OA
ENDBRANCH  65  66
ENDBRANCH  46  60
BRANCH  47  70
ATOM     70  C   UNL A   1      41.064  29.087  28.525  1.00  0.00    -0.014 A 
ATOM     71  C   UNL A   1      40.646  29.120  29.867  1.00  0.00     0.010 A 
ATOM     72  C   UNL A   1      40.110  29.301  27.512  1.00  0.00     0.010 A 
ATOM     73  C   UNL A   1      39.304  29.349  30.189  1.00  0.00     0.020 A 
ATOM     74  C   UNL A   1      38.774  29.560  27.829  1.00  0.00     0.020 A 
ATOM     75  C   UNL A   1      38.376  29.572  29.167  1.00  0.00     0.054 A 
BRANCH  75  76
ATOM     76  S   UNL A   1      36.651  29.918  29.611  1.00  0.00     0.124 S 
ATOM     77  O   UNL A   1      36.526  29.239  30.896  1.00  0.00    -0.237 OA
ATOM     78  O   UNL A   1      36.627  31.378  29.661  1.00  0.00    -0.237 OA
ATOM     79  O   UNL A   1      35.889  29.327  28.513  1.00  0.00    -0.744 OA
ENDBRANCH  75  76
ENDBRANCH  47  70
BRANCH  59  80
ATOM     80  C   UNL A   1      46.751  33.141  28.378  1.00  0.00    -0.014 A 
ATOM     81  C   UNL A   1      47.177  33.550  29.653  1.00  0.00     0.010 A 
ATOM     82  C   UNL A   1      46.587  34.102  27.363  1.00  0.00     0.010 A 
ATOM     83  C   UNL A   1      47.410  34.901  29.915  1.00  0.00     0.020 A 
ATOM     84  C   UNL A   1      46.853  35.448  27.611  1.00  0.00     0.020 A 
ATOM     85  C   UNL A   1      47.250  35.840  28.891  1.00  0.00     0.054 A 
BRANCH  85  86
ATOM     86  S   UNL A   1      47.612  37.580  29.245  1.00  0.00     0.124 S 
ATOM     87  O   UNL A   1      48.874  37.777  28.537  1.00  0.00    -0.237 OA
ATOM     88  O   UNL A   1      46.457  38.268  28.674  1.00  0.00    -0.237 OA
ATOM     89  O   UNL A   1      47.702  37.627  30.702  1.00  0.00    -0.744 OA
ENDBRANCH  85  86
ENDBRANCH  59  80
ENDBRANCH  33  34
ENDBRANCH  25  28
ENDBRANCH  23  24
ENDBRANCH   1  23
TORSDOF 16
ENDMDL
MODEL 2
REMARK VINA RESULT:     -11.5      6.882      8.946
REMARK SMILES CCc1ccc(C[N@H+]2CC[C@@H](C(=O)NCCCNC(=O)c3ccc(-c4c5nc(c(-c6ccc(S(=O)(=O)[O-])cc6)c6ccc([nH]6)c(-c6ccc(S(=O)(=O)[O-])cc6)c6nc(c(-c7ccc(S(=O)(=O)[O-])cc7)c7ccc4[nH]7)C=C6)C=C5)cc3)[C@@H]2C)cc1
REMARK SMILES IDX 16 1 15 2 14 3 12 4 13 5 11 7 8 8 9 9 81 10 10 12 82 13 7 14
REMARK SMILES IDX 6 15 3 16 4 17 84 18 5 19 83 20 2 21 1 22 17 23 18 24 19 25
REMARK SMILES IDX 20 27 21 28 22 29 80 30 23 31 79 32 24 33 25 34 26 35 73 36
REMARK SMILES IDX 27 37 78 38 72 39 74 40 28 41 77 42 71 43 70 44 29 46 59 47
REMARK SMILES IDX 40 48 58 49 41 50 44 51 57 52 75 53 42 54 43 55 56 57 76 58
REMARK SMILES IDX 45 59 30 60 31 61 39 62 32 63 38 64 33 65 34 66 35 67 36 68
REMARK SMILES IDX 37 69 60 70 61 71 69 72 62 73 68 74 63 75 64 76 65 77 66 78
REMARK SMILES IDX 67 79 46 80 47 81 55 82 48 83 54 84 49 85 50 86 51 87 52 88
REMARK SMILES IDX 53 89
REMARK H PARENT 14 6 8 11 18 26 74 45 44 56
REMARK Flexibility Score: inf
ROOT
ATOM      1  C   UNL A   1      37.642  23.541  26.033  1.00  0.00     0.042 C 
ENDROOT
BRANCH   1   2
ATOM      2  C   UNL A   1      36.718  21.610  25.575  1.00  0.00     0.117 C 
BRANCH   2   3
ATOM      3  N   UNL A   1      35.291  20.976  25.923  1.00  0.00    -0.356 N 
ATOM      4  C   UNL A   1      34.098  20.901  25.281  1.00  0.00     0.229 C 
ATOM      5  O   UNL A   1      33.218  20.235  25.843  1.00  0.00    -0.275 OA
ATOM      6  H   UNL A   1      35.274  20.540  26.805  1.00  0.00     0.163 HD
BRANCH   4   7
ATOM      7  C   UNL A   1      33.772  21.583  23.955  1.00  0.00     0.142 C 
ATOM      8  N   UNL A   1      31.899  23.052  23.542  1.00  0.00    -0.328 N 
ATOM      9  C   UNL A   1      33.109  23.870  23.464  1.00  0.00     0.263 C 
ATOM     10  C   UNL A   1      32.284  21.636  23.614  1.00  0.00     0.193 C 
ATOM     11  H   UNL A   1      31.367  23.204  22.685  1.00  0.00     0.348 HD
ATOM     12  C   UNL A   1      34.311  22.993  23.793  1.00  0.00     0.081 C 
ATOM     13  C   UNL A   1      31.979  20.989  22.260  1.00  0.00     0.076 C 
BRANCH   8  14
ATOM     14  C   UNL A   1      30.928  23.467  24.563  1.00  0.00     0.299 C 
BRANCH  14  15
ATOM     15  C   UNL A   1      30.967  24.937  24.890  1.00  0.00     0.006 A 
ATOM     16  C   UNL A   1      31.538  28.472  25.340  1.00  0.00    -0.048 A 
ATOM     17  C   UNL A   1      32.263  27.291  26.495  1.00  0.00     0.004 A 
ATOM     18  C   UNL A   1      30.481  27.889  23.989  1.00  0.00     0.004 A 
ATOM     19  C   UNL A   1      31.979  25.525  26.275  1.00  0.00     0.010 A 
ATOM     20  C   UNL A   1      30.207  26.122  23.753  1.00  0.00     0.010 A 
BRANCH  16  21
ATOM     21  C   UNL A   1      31.850  29.938  25.492  1.00  0.00     0.032 C 
ATOM     22  C   UNL A   1      31.956  30.339  26.948  1.00  0.00     0.009 C 
ENDBRANCH  16  21
ENDBRANCH  14  15
ENDBRANCH   8  14
ENDBRANCH   4   7
ENDBRANCH   2   3
ENDBRANCH   1   2
BRANCH   1  23
ATOM     23  C   UNL A   1      39.090  24.066  26.721  1.00  0.00     0.118 C 
BRANCH  23  24
ATOM     24  N   UNL A   1      40.047  24.678  25.801  1.00  0.00    -0.352 N 
ATOM     25  C   UNL A   1      40.986  25.634  26.056  1.00  0.00     0.251 C 
ATOM     26  H   UNL A   1      40.007  24.357  24.871  1.00  0.00     0.163 HD
ATOM     27  O   UNL A   1      41.808  25.959  25.208  1.00  0.00    -0.269 OA
BRANCH  25  28
ATOM     28  C   UNL A   1      40.868  26.369  27.319  1.00  0.00     0.039 A 
ATOM     29  C   UNL A   1      41.524  27.598  27.381  1.00  0.00     0.014 A 
ATOM     30  C   UNL A   1      40.009  25.943  28.335  1.00  0.00     0.014 A 
ATOM     31  C   UNL A   1      41.295  28.427  28.465  1.00  0.00     0.010 A 
ATOM     32  C   UNL A   1      39.707  26.815  29.368  1.00  0.00     0.010 A 
ATOM     33  C   UNL A   1      40.371  28.048  29.450  1.00  0.00    -0.014 A 
BRANCH  33  34
ATOM     34  C   UNL A   1      40.182  28.910  30.629  1.00  0.00     0.031 A 
ATOM     35  C   UNL A   1      41.109  28.735  31.794  1.00  0.00     0.074 A 
ATOM     36  C   UNL A   1      39.223  29.853  30.611  1.00  0.00     0.049 A 
ATOM     37  N   UNL A   1      41.172  29.419  32.904  1.00  0.00    -0.248 NA
ATOM     38  C   UNL A   1      42.086  27.635  31.709  1.00  0.00     0.031 C 
ATOM     39  C   UNL A   1      38.280  30.078  29.511  1.00  0.00     0.029 A 
ATOM     40  N   UNL A   1      38.902  30.818  31.526  1.00  0.00    -0.354 N 
ATOM     41  C   UNL A   1      42.187  28.826  33.646  1.00  0.00     0.074 A 
ATOM     42  C   UNL A   1      42.660  27.686  32.899  1.00  0.00     0.031 C 
ATOM     43  C   UNL A   1      37.525  31.153  29.794  1.00  0.00     0.029 A 
ATOM     44  C   UNL A   1      37.902  31.662  31.108  1.00  0.00     0.049 A 
ATOM     45  H   UNL A   1      39.346  30.899  32.402  1.00  0.00     0.167 HD
ATOM     46  C   UNL A   1      42.701  29.224  34.832  1.00  0.00     0.031 A 
ATOM     47  C   UNL A   1      37.364  32.733  31.721  1.00  0.00     0.031 A 
ATOM     48  C   UNL A   1      42.207  30.365  35.550  1.00  0.00     0.049 A 
ATOM     49  C   UNL A   1      37.918  33.126  33.063  1.00  0.00     0.074 A 
ATOM     50  C   UNL A   1      42.641  30.881  36.755  1.00  0.00     0.029 A 
ATOM     51  N   UNL A   1      41.158  31.169  35.120  1.00  0.00    -0.354 N 
ATOM     52  N   UNL A   1      38.904  32.581  33.738  1.00  0.00    -0.248 NA
ATOM     53  C   UNL A   1      37.300  34.282  33.720  1.00  0.00     0.031 C 
ATOM     54  C   UNL A   1      41.814  31.961  37.082  1.00  0.00     0.029 A 
ATOM     55  C   UNL A   1      40.913  32.162  36.047  1.00  0.00     0.049 A 
ATOM     56  H   UNL A   1      40.664  31.047  34.276  1.00  0.00     0.167 HD
ATOM     57  C   UNL A   1      39.043  33.343  34.891  1.00  0.00     0.074 A 
ATOM     58  C   UNL A   1      38.050  34.398  34.809  1.00  0.00     0.031 C 
ATOM     59  C   UNL A   1      39.909  33.192  35.925  1.00  0.00     0.031 A 
BRANCH  46  60
ATOM     60  C   UNL A   1      43.821  28.399  35.410  1.00  0.00    -0.014 A 
ATOM     61  C   UNL A   1      45.167  28.677  35.102  1.00  0.00     0.010 A 
ATOM     62  C   UNL A   1      43.526  27.315  36.255  1.00  0.00     0.010 A 
ATOM     63  C   UNL A   1      46.190  27.852  35.581  1.00  0.00     0.020 A 
ATOM     64  C   UNL A   1      44.548  26.510  36.766  1.00  0.00     0.020 A 
ATOM     65  C   UNL A   1      45.872  26.771  36.408  1.00  0.00     0.054 A 
BRANCH  65  66
ATOM     66  S   UNL A   1      47.218  25.721  37.020  1.00  0.00     0.124 S 
ATOM     67  O   UNL A   1      48.073  26.692  37.699  1.00  0.00    -0.237 OA
ATOM     68  O   UNL A   1      46.518  24.783  37.893  1.00  0.00    -0.237 OA
ATOM     69  O   UNL A   1      47.783  25.137  35.806  1.00  0.00    -0.744 OA
ENDBRANCH  65  66
ENDBRANCH  46  60
BRANCH  47  70
ATOM     70  C   UNL A   1      36.274  33.504  31.062  1.00  0.00    -0.014 A 
ATOM     71  C   UNL A   1      35.038  33.695  31.703  1.00  0.00     0.010 A 
ATOM     72  C   UNL A   1      36.478  34.083  29.795  1.00  0.00     0.010 A 
ATOM     73  C   UNL A   1      34.023  34.435  31.086  1.00  0.00     0.020 A 
ATOM     74  C   UNL A   1      35.478  34.849  29.188  1.00  0.00     0.020 A 
ATOM     75  C   UNL A   1      34.252  35.012  29.833  1.00  0.00     0.054 A 
BRANCH  75  76
ATOM     76  S   UNL A   1      32.940  36.011  29.077  1.00  0.00     0.124 S 
ATOM     77  O   UNL A   1      33.703  37.048  28.391  1.00  0.00    -0.237 OA
ATOM     78  O   UNL A   1      32.267  35.043  28.214  1.00  0.00    -0.237 OA
ATOM     79  O   UNL A   1      32.153  36.466  30.221  1.00  0.00    -0.744 OA
ENDBRANCH  75  76
ENDBRANCH  47  70
BRANCH  59  80
ATOM     80  C   UNL A   1      39.837  34.209  37.029  1.00  0.00    -0.014 A 
ATOM     81  C   UNL A   1      40.434  35.474  36.895  1.00  0.00     0.010 A 
ATOM     82  C   UNL A   1      39.098  33.913  38.190  1.00  0.00     0.010 A 
ATOM     83  C   UNL A   1      40.317  36.417  37.917  1.00  0.00     0.020 A 
ATOM     84  C   UNL A   1      38.949  34.865  39.198  1.00  0.00     0.020 A 
ATOM     85  C   UNL A   1      39.572  36.107  39.060  1.00  0.00     0.054 A 
BRANCH  85  86
ATOM     86  S   UNL A   1      39.389  37.371  40.346  1.00  0.00     0.124 S 
ATOM     87  O   UNL A   1      38.608  36.664  41.357  1.00  0.00    -0.237 OA
ATOM     88  O   UNL A   1      40.775  37.657  40.709  1.00  0.00    -0.237 OA
ATOM     89  O   UNL A   1      38.691  38.460  39.667  1.00  0.00    -0.744 OA
ENDBRANCH  85  86
ENDBRANCH  59  80
ENDBRANCH  33  34
ENDBRANCH  25  28
ENDBRANCH  23  24
ENDBRANCH   1  23
TORSDOF 16
ENDMDL
MODEL 3
REMARK VINA RESULT:     -11.5      2.794      4.794
REMARK SMILES CCc1ccc(C[N@H+]2CC[C@@H](C(=O)NCCCNC(=O)c3ccc(-c4c5nc(c(-c6ccc(S(=O)(=O)[O-])cc6)c6ccc([nH]6)c(-c6ccc(S(=O)(=O)[O-])cc6)c6nc(c(-c7ccc(S(=O)(=O)[O-])cc7)c7ccc4[nH]7)C=C6)C=C5)cc3)[C@@H]2C)cc1
REMARK SMILES IDX 16 1 15 2 14 3 12 4 13 5 11 7 8 8 9 9 81 10 10 12 82 13 7 14
REMARK SMILES IDX 6 15 3 16 4 17 84 18 5 19 83 20 2 21 1 22 17 23 18 24 19 25
REMARK SMILES IDX 20 27 21 28 22 29 80 30 23 31 79 32 24 33 25 34 26 35 73 36
REMARK SMILES IDX 27 37 78 38 72 39 74 40 28 41 77 42 71 43 70 44 29 46 59 47
REMARK SMILES IDX 40 48 58 49 41 50 44 51 57 52 75 53 42 54 43 55 56 57 76 58
REMARK SMILES IDX 45 59 30 60 31 61 39 62 32 63 38 64 33 65 34 66 35 67 36 68
REMARK SMILES IDX 37 69 60 70 61 71 69 72 62 73 68 74 63 75 64 76 65 77 66 78
REMARK SMILES IDX 67 79 46 80 47 81 55 82 48 83 54 84 49 85 50 86 51 87 52 88
REMARK SMILES IDX 53 89
REMARK H PARENT 14 6 8 11 18 26 74 45 44 56
REMARK Flexibility Score: inf
ROOT
ATOM      1  C   UNL A   1      36.007  23.693  25.412  1.00  0.00     0.042 C 
ENDROOT
BRANCH   1   2
ATOM      2  C   UNL A   1      34.574  25.343  25.291  1.00  0.00     0.117 C 
BRANCH   2   3
ATOM      3  N   UNL A   1      33.248  25.697  26.113  1.00  0.00    -0.356 N 
ATOM      4  C   UNL A   1      32.368  26.730  26.107  1.00  0.00     0.229 C 
ATOM      5  O   UNL A   1      31.383  26.610  26.848  1.00  0.00    -0.275 OA
ATOM      6  H   UNL A   1      33.016  25.006  26.775  1.00  0.00     0.163 HD
BRANCH   4   7
ATOM      7  C   UNL A   1      32.520  28.005  25.282  1.00  0.00     0.142 C 
ATOM      8  N   UNL A   1      31.660  28.358  23.052  1.00  0.00    -0.328 N 
ATOM      9  C   UNL A   1      30.905  29.235  23.946  1.00  0.00     0.263 C 
ATOM     10  C   UNL A   1      32.786  27.775  23.795  1.00  0.00     0.193 C 
ATOM     11  H   UNL A   1      32.030  28.932  22.295  1.00  0.00     0.348 HD
ATOM     12  C   UNL A   1      31.367  28.987  25.376  1.00  0.00     0.081 C 
ATOM     13  C   UNL A   1      34.073  28.459  23.327  1.00  0.00     0.076 C 
BRANCH   8  14
ATOM     14  C   UNL A   1      30.857  27.381  22.308  1.00  0.00     0.299 C 
BRANCH  14  15
ATOM     15  C   UNL A   1      31.244  25.946  22.555  1.00  0.00     0.006 A 
ATOM     16  C   UNL A   1      32.536  22.726  23.550  1.00  0.00    -0.048 A 
ATOM     17  C   UNL A   1      33.329  23.637  22.209  1.00  0.00     0.004 A 
ATOM     18  C   UNL A   1      31.062  23.400  24.358  1.00  0.00     0.004 A 
ATOM     19  C   UNL A   1      32.687  25.244  21.709  1.00  0.00     0.010 A 
ATOM     20  C   UNL A   1      30.424  25.016  23.873  1.00  0.00     0.010 A 
BRANCH  16  21
ATOM     21  C   UNL A   1      33.133  21.420  24.008  1.00  0.00     0.032 C 
ATOM     22  C   UNL A   1      32.376  20.233  23.451  1.00  0.00     0.009 C 
ENDBRANCH  16  21
ENDBRANCH  14  15
ENDBRANCH   8  14
ENDBRANCH   4   7
ENDBRANCH   2   3
ENDBRANCH   1   2
BRANCH   1  23
ATOM     23  C   UNL A   1      36.980  23.010  26.608  1.00  0.00     0.118 C 
BRANCH  23  24
ATOM     24  N   UNL A   1      38.097  22.195  26.130  1.00  0.00    -0.352 N 
ATOM     25  C   UNL A   1      39.434  22.376  26.333  1.00  0.00     0.251 C 
ATOM     26  H   UNL A   1      37.850  21.411  25.589  1.00  0.00     0.163 HD
ATOM     27  O   UNL A   1      40.249  21.534  25.977  1.00  0.00    -0.269 OA
BRANCH  25  28
ATOM     28  C   UNL A   1      39.864  23.682  26.841  1.00  0.00     0.039 A 
ATOM     29  C   UNL A   1      40.561  23.674  28.049  1.00  0.00     0.014 A 
ATOM     30  C   UNL A   1      39.736  24.844  26.075  1.00  0.00     0.014 A 
ATOM     31  C   UNL A   1      41.162  24.842  28.485  1.00  0.00     0.010 A 
ATOM     32  C   UNL A   1      40.419  25.984  26.465  1.00  0.00     0.010 A 
ATOM     33  C   UNL A   1      41.111  25.993  27.686  1.00  0.00    -0.014 A 
BRANCH  33  34
ATOM     34  C   UNL A   1      41.701  27.246  28.188  1.00  0.00     0.031 A 
ATOM     35  C   UNL A   1      43.177  27.452  28.024  1.00  0.00     0.074 A 
ATOM     36  C   UNL A   1      40.902  28.180  28.732  1.00  0.00     0.049 A 
ATOM     37  N   UNL A   1      43.900  28.495  28.330  1.00  0.00    -0.248 NA
ATOM     38  C   UNL A   1      43.948  26.331  27.458  1.00  0.00     0.031 C 
ATOM     39  C   UNL A   1      39.455  28.046  28.927  1.00  0.00     0.029 A 
ATOM     40  N   UNL A   1      41.183  29.439  29.189  1.00  0.00    -0.354 N 
ATOM     41  C   UNL A   1      45.205  28.150  27.998  1.00  0.00     0.074 A 
ATOM     42  C   UNL A   1      45.189  26.782  27.542  1.00  0.00     0.031 C 
ATOM     43  C   UNL A   1      38.969  29.201  29.411  1.00  0.00     0.029 A 
ATOM     44  C   UNL A   1      40.072  30.136  29.599  1.00  0.00     0.049 A 
ATOM     45  H   UNL A   1      42.096  29.810  29.221  1.00  0.00     0.167 HD
ATOM     46  C   UNL A   1      46.313  28.925  28.039  1.00  0.00     0.031 A 
ATOM     47  C   UNL A   1      39.967  31.395  30.064  1.00  0.00     0.031 A 
ATOM     48  C   UNL A   1      46.295  30.285  28.499  1.00  0.00     0.049 A 
ATOM     49  C   UNL A   1      41.221  32.221  30.148  1.00  0.00     0.074 A 
ATOM     50  C   UNL A   1      47.341  31.181  28.585  1.00  0.00     0.029 A 
ATOM     51  N   UNL A   1      45.159  30.943  28.955  1.00  0.00    -0.354 N 
ATOM     52  N   UNL A   1      42.445  31.897  29.796  1.00  0.00    -0.248 NA
ATOM     53  C   UNL A   1      41.083  33.581  30.679  1.00  0.00     0.031 C 
ATOM     54  C   UNL A   1      46.849  32.363  29.149  1.00  0.00     0.029 A 
ATOM     55  C   UNL A   1      45.483  32.227  29.347  1.00  0.00     0.049 A 
ATOM     56  H   UNL A   1      44.256  30.551  28.991  1.00  0.00     0.167 HD
ATOM     57  C   UNL A   1      43.221  33.023  30.038  1.00  0.00     0.074 A 
ATOM     58  C   UNL A   1      42.321  34.041  30.549  1.00  0.00     0.031 C 
ATOM     59  C   UNL A   1      44.553  33.207  29.855  1.00  0.00     0.031 A 
BRANCH  46  60
ATOM     60  C   UNL A   1      47.609  28.297  27.601  1.00  0.00    -0.014 A 
ATOM     61  C   UNL A   1      48.031  28.350  26.258  1.00  0.00     0.010 A 
ATOM     62  C   UNL A   1      48.410  27.622  28.539  1.00  0.00     0.010 A 
ATOM     63  C   UNL A   1      49.196  27.693  25.853  1.00  0.00     0.020 A 
ATOM     64  C   UNL A   1      49.595  26.994  28.145  1.00  0.00     0.020 A 
ATOM     65  C   UNL A   1      49.970  27.015  26.800  1.00  0.00     0.054 A 
BRANCH  65  66
ATOM     66  S   UNL A   1      51.479  26.175  26.248  1.00  0.00     0.124 S 
ATOM     67  O   UNL A   1      52.520  26.974  26.889  1.00  0.00    -0.237 OA
ATOM     68  O   UNL A   1      51.306  24.827  26.781  1.00  0.00    -0.237 OA
ATOM     69  O   UNL A   1      51.423  26.280  24.792  1.00  0.00    -0.744 OA
ENDBRANCH  65  66
ENDBRANCH  46  60
BRANCH  47  70
ATOM     70  C   UNL A   1      38.637  31.941  30.451  1.00  0.00    -0.014 A 
ATOM     71  C   UNL A   1      38.243  31.989  31.800  1.00  0.00     0.010 A 
ATOM     72  C   UNL A   1      37.763  32.449  29.471  1.00  0.00     0.010 A 
ATOM     73  C   UNL A   1      36.999  32.519  32.160  1.00  0.00     0.020 A 
ATOM     74  C   UNL A   1      36.532  33.007  29.828  1.00  0.00     0.020 A 
ATOM     75  C   UNL A   1      36.153  33.029  31.171  1.00  0.00     0.054 A 
BRANCH  75  76
ATOM     76  S   UNL A   1      34.567  33.759  31.667  1.00  0.00     0.124 S 
ATOM     77  O   UNL A   1      34.995  34.906  32.461  1.00  0.00    -0.237 OA
ATOM     78  O   UNL A   1      33.951  34.073  30.380  1.00  0.00    -0.237 OA
ATOM     79  O   UNL A   1      33.916  32.686  32.416  1.00  0.00    -0.744 OA
ENDBRANCH  75  76
ENDBRANCH  47  70
BRANCH  59  80
ATOM     80  C   UNL A   1      45.105  34.566  30.183  1.00  0.00    -0.014 A 
ATOM     81  C   UNL A   1      45.643  34.849  31.450  1.00  0.00     0.010 A 
ATOM     82  C   UNL A   1      45.148  35.551  29.178  1.00  0.00     0.010 A 
ATOM     83  C   UNL A   1      46.189  36.106  31.715  1.00  0.00     0.020 A 
ATOM     84  C   UNL A   1      45.725  36.795  29.429  1.00  0.00     0.020 A 
ATOM     85  C   UNL A   1      46.230  37.069  30.702  1.00  0.00     0.054 A 
BRANCH  85  86
ATOM     86  S   UNL A   1      46.996  38.672  31.058  1.00  0.00     0.124 S 
ATOM     87  O   UNL A   1      46.101  39.215  32.076  1.00  0.00    -0.237 OA
ATOM     88  O   UNL A   1      48.326  38.292  31.527  1.00  0.00    -0.237 OA
ATOM     89  O   UNL A   1      46.969  39.364  29.772  1.00  0.00    -0.744 OA
ENDBRANCH  85  86
ENDBRANCH  59  80
ENDBRANCH  33  34
ENDBRANCH  25  28
ENDBRANCH  23  24
ENDBRANCH   1  23
TORSDOF 16
ENDMDL
