MODEL 1
REMARK VINA RESULT:     -13.0      0.000      0.000
REMARK SMILES O=C(NCCCNC(=O)C1(n2ccnc2)CCN(C(=O)[C@@H]2CC(=O)N(C3CC3)C2)CC1)c1ccc(-c2c3nc(c(-c4ccc(S(=O)(=O)[O-])cc4)c4ccc([nH]4)c(-c4ccc(S(=O)(=O)[O-])cc4)c4nc(c(-c5ccc(S(=O)(=O)[O-])cc5)c5ccc2[nH]5)C=C4)C=C3)cc1
REMARK SMILES IDX 4 1 3 2 1 3 2 4 32 6 33 7 91 8 34 9 90 10 35 11 36 12 37 13
REMARK SMILES IDX 84 14 38 15 89 16 83 17 85 18 39 19 88 20 82 21 81 22 40 24
REMARK SMILES IDX 70 25 51 26 69 27 52 28 55 29 68 30 86 31 53 32 54 33 67 35
REMARK SMILES IDX 87 36 56 37 41 38 42 39 50 40 43 41 49 42 44 43 45 44 46 45
REMARK SMILES IDX 47 46 48 47 71 48 72 49 80 50 73 51 79 52 74 53 75 54 76 55
REMARK SMILES IDX 77 56 78 57 57 58 58 59 66 60 59 61 65 62 60 63 61 64 62 65
REMARK SMILES IDX 63 66 64 67 5 68 6 69 7 70 8 71 9 73 10 74 16 75 31 76 17 77
REMARK SMILES IDX 30 78 18 79 19 80 20 81 11 82 12 83 15 84 13 85 14 86 21 87
REMARK SMILES IDX 22 88 29 89 23 90 25 91 24 92 26 93 27 94 28 95
REMARK H PARENT 3 5 85 23 55 34 7 72
REMARK Flexibility Score: inf
ROOT
ATOM      1  C   UNL A   1      37.289  22.037  25.589  1.00  0.00     0.118 C 
ENDROOT
BRANCH   1   2
ATOM      2  N   UNL A   1      38.624  21.555  25.871  1.00  0.00    -0.352 N 
ATOM      3  O   UNL A   1      40.703  21.303  26.534  1.00  0.00    -0.269 OA
ATOM      4  C   UNL A   1      39.744  22.077  26.458  1.00  0.00     0.251 C 
ATOM      5  H   UNL A   1      38.759  20.628  25.567  1.00  0.00     0.163 HD
BRANCH   4   6
ATOM      6  C   UNL A   1      39.910  23.473  26.962  1.00  0.00     0.039 A 
ATOM      7  C   UNL A   1      39.038  24.542  26.753  1.00  0.00     0.014 A 
ATOM      8  C   UNL A   1      41.054  23.698  27.757  1.00  0.00     0.014 A 
ATOM      9  C   UNL A   1      39.323  25.804  27.294  1.00  0.00     0.010 A 
ATOM     10  C   UNL A   1      41.338  24.950  28.303  1.00  0.00     0.010 A 
ATOM     11  C   UNL A   1      40.476  26.014  28.065  1.00  0.00    -0.014 A 
BRANCH  11  12
ATOM     12  C   UNL A   1      40.645  27.296  28.760  1.00  0.00     0.031 A 
ATOM     13  C   UNL A   1      41.720  28.170  28.209  1.00  0.00     0.074 A 
ATOM     14  C   UNL A   1      39.832  27.803  29.711  1.00  0.00     0.049 A 
ATOM     15  N   UNL A   1      42.845  28.488  28.762  1.00  0.00    -0.248 NA
ATOM     16  C   UNL A   1      41.562  28.680  26.839  1.00  0.00     0.031 C 
ATOM     17  C   UNL A   1      38.544  27.287  30.175  1.00  0.00     0.029 A 
ATOM     18  N   UNL A   1      39.964  28.973  30.410  1.00  0.00    -0.354 N 
ATOM     19  C   UNL A   1      43.461  29.392  27.900  1.00  0.00     0.074 A 
ATOM     20  C   UNL A   1      42.696  29.364  26.676  1.00  0.00     0.031 C 
ATOM     21  C   UNL A   1      37.921  28.237  30.914  1.00  0.00     0.029 A 
ATOM     22  C   UNL A   1      38.820  29.367  31.095  1.00  0.00     0.049 A 
ATOM     23  H   UNL A   1      40.800  29.492  30.426  1.00  0.00     0.167 HD
ATOM     24  C   UNL A   1      44.439  30.245  28.319  1.00  0.00     0.031 A 
ATOM     25  C   UNL A   1      38.612  30.548  31.734  1.00  0.00     0.031 A 
ATOM     26  C   UNL A   1      44.939  29.894  29.621  1.00  0.00     0.049 A 
ATOM     27  C   UNL A   1      39.938  31.141  32.027  1.00  0.00     0.074 A 
ATOM     28  C   UNL A   1      45.538  28.779  30.174  1.00  0.00     0.029 A 
ATOM     29  N   UNL A   1      44.517  30.660  30.682  1.00  0.00    -0.354 N 
ATOM     30  N   UNL A   1      40.776  30.644  32.890  1.00  0.00    -0.248 NA
ATOM     31  C   UNL A   1      40.506  32.083  31.077  1.00  0.00     0.031 C 
ATOM     32  C   UNL A   1      45.010  28.698  31.496  1.00  0.00     0.029 A 
ATOM     33  C   UNL A   1      44.172  29.798  31.689  1.00  0.00     0.049 A 
ATOM     34  H   UNL A   1      44.472  31.644  30.712  1.00  0.00     0.167 HD
ATOM     35  C   UNL A   1      42.026  30.859  32.334  1.00  0.00     0.074 A 
ATOM     36  C   UNL A   1      41.805  31.843  31.277  1.00  0.00     0.031 C 
ATOM     37  C   UNL A   1      43.072  30.022  32.602  1.00  0.00     0.031 A 
BRANCH  24  38
ATOM     38  C   UNL A   1      44.695  31.609  27.724  1.00  0.00    -0.014 A 
ATOM     39  C   UNL A   1      45.961  31.878  27.159  1.00  0.00     0.010 A 
ATOM     40  C   UNL A   1      43.850  32.714  27.952  1.00  0.00     0.010 A 
ATOM     41  C   UNL A   1      46.385  33.190  26.907  1.00  0.00     0.020 A 
ATOM     42  C   UNL A   1      44.246  34.022  27.660  1.00  0.00     0.020 A 
ATOM     43  C   UNL A   1      45.526  34.255  27.176  1.00  0.00     0.054 A 
BRANCH  43  44
ATOM     44  S   UNL A   1      46.122  35.949  26.949  1.00  0.00     0.124 S 
ATOM     45  O   UNL A   1      46.880  35.837  25.708  1.00  0.00    -0.237 OA
ATOM     46  O   UNL A   1      44.877  36.708  26.867  1.00  0.00    -0.237 OA
ATOM     47  O   UNL A   1      46.916  36.195  28.151  1.00  0.00    -0.744 OA
ENDBRANCH  43  44
ENDBRANCH  24  38
BRANCH  25  48
ATOM     48  C   UNL A   1      37.357  31.327  31.892  1.00  0.00    -0.014 A 
ATOM     49  C   UNL A   1      37.009  31.899  33.134  1.00  0.00     0.010 A 
ATOM     50  C   UNL A   1      36.659  31.768  30.752  1.00  0.00     0.010 A 
ATOM     51  C   UNL A   1      36.051  32.925  33.217  1.00  0.00     0.020 A 
ATOM     52  C   UNL A   1      35.699  32.784  30.828  1.00  0.00     0.020 A 
ATOM     53  C   UNL A   1      35.419  33.380  32.057  1.00  0.00     0.054 A 
BRANCH  53  54
ATOM     54  S   UNL A   1      34.338  34.839  32.137  1.00  0.00     0.124 S 
ATOM     55  O   UNL A   1      35.134  35.773  32.929  1.00  0.00    -0.237 OA
ATOM     56  O   UNL A   1      34.167  35.188  30.730  1.00  0.00    -0.237 OA
ATOM     57  O   UNL A   1      33.132  34.338  32.797  1.00  0.00    -0.744 OA
ENDBRANCH  53  54
ENDBRANCH  25  48
BRANCH  37  58
ATOM     58  C   UNL A   1      42.974  29.088  33.785  1.00  0.00    -0.014 A 
ATOM     59  C   UNL A   1      43.369  29.422  35.095  1.00  0.00     0.010 A 
ATOM     60  C   UNL A   1      42.340  27.851  33.573  1.00  0.00     0.010 A 
ATOM     61  C   UNL A   1      43.173  28.522  36.153  1.00  0.00     0.020 A 
ATOM     62  C   UNL A   1      42.122  26.959  34.624  1.00  0.00     0.020 A 
ATOM     63  C   UNL A   1      42.553  27.292  35.908  1.00  0.00     0.054 A 
BRANCH  63  64
ATOM     64  S   UNL A   1      42.286  26.137  37.282  1.00  0.00     0.124 S 
ATOM     65  O   UNL A   1      43.252  26.597  38.276  1.00  0.00    -0.237 OA
ATOM     66  O   UNL A   1      40.882  26.353  37.621  1.00  0.00    -0.237 OA
ATOM     67  O   UNL A   1      42.578  24.828  36.697  1.00  0.00    -0.744 OA
ENDBRANCH  63  64
ENDBRANCH  37  58
ENDBRANCH  11  12
ENDBRANCH   4   6
ENDBRANCH   1   2
BRANCH   1  68
ATOM     68  C   UNL A   1      37.012  22.258  24.107  1.00  0.00     0.042 C 
BRANCH  68  69
ATOM     69  C   UNL A   1      35.983  23.350  23.789  1.00  0.00     0.117 C 
BRANCH  69  70
ATOM     70  N   UNL A   1      34.802  22.873  23.089  1.00  0.00    -0.354 N 
ATOM     71  C   UNL A   1      33.464  23.045  23.218  1.00  0.00     0.246 C 
ATOM     72  H   UNL A   1      35.029  22.280  22.337  1.00  0.00     0.163 HD
ATOM     73  O   UNL A   1      32.821  22.611  22.246  1.00  0.00    -0.272 OA
BRANCH  71  74
ATOM     74  C   UNL A   1      32.675  23.566  24.467  1.00  0.00     0.127 C 
ATOM     75  C   UNL A   1      31.132  23.543  24.515  1.00  0.00     0.061 C 
ATOM     76  C   UNL A   1      33.134  25.038  24.615  1.00  0.00     0.061 C 
ATOM     77  C   UNL A   1      30.374  24.667  23.797  1.00  0.00     0.122 C 
ATOM     78  C   UNL A   1      32.496  25.872  23.528  1.00  0.00     0.122 C 
ATOM     79  N   UNL A   1      31.068  25.952  23.747  1.00  0.00    -0.342 N 
ATOM     80  C   UNL A   1      30.280  27.094  23.663  1.00  0.00     0.227 C 
ATOM     81  O   UNL A   1      29.059  26.979  23.515  1.00  0.00    -0.274 OA
BRANCH  74  82
ATOM     82  N   UNL A   1      33.135  22.747  25.628  1.00  0.00    -0.322 N 
ATOM     83  C   UNL A   1      33.713  23.250  26.770  1.00  0.00     0.108 A 
ATOM     84  C   UNL A   1      33.158  21.382  25.749  1.00  0.00     0.200 A 
ATOM     85  C   UNL A   1      34.078  22.151  27.512  1.00  0.00     0.130 A 
ATOM     86  N   UNL A   1      33.730  20.996  26.867  1.00  0.00    -0.245 NA
ENDBRANCH  74  82
BRANCH  80  87
ATOM     87  C   UNL A   1      30.840  28.516  23.759  1.00  0.00     0.107 C 
ATOM     88  C   UNL A   1      31.854  28.896  22.693  1.00  0.00     0.115 C 
ATOM     89  C   UNL A   1      31.468  28.887  25.084  1.00  0.00     0.133 C 
ATOM     90  C   UNL A   1      33.150  29.060  23.444  1.00  0.00     0.223 C 
ATOM     91  N   UNL A   1      32.886  28.991  24.814  1.00  0.00    -0.339 N 
ATOM     92  O   UNL A   1      34.245  29.156  22.896  1.00  0.00    -0.275 OA
BRANCH  91  93
ATOM     93  C   UNL A   1      33.839  28.752  25.862  1.00  0.00     0.085 C 
ATOM     94  C   UNL A   1      34.096  29.768  26.950  1.00  0.00     0.027 C 
ATOM     95  C   UNL A   1      33.461  28.448  27.281  1.00  0.00     0.027 C 
ENDBRANCH  91  93
ENDBRANCH  80  87
ENDBRANCH  71  74
ENDBRANCH  69  70
ENDBRANCH  68  69
ENDBRANCH   1  68
TORSDOF 16
ENDMDL
MODEL 2
REMARK VINA RESULT:     -12.8      2.614      9.285
REMARK SMILES O=C(NCCCNC(=O)C1(n2ccnc2)CCN(C(=O)[C@@H]2CC(=O)N(C3CC3)C2)CC1)c1ccc(-c2c3nc(c(-c4ccc(S(=O)(=O)[O-])cc4)c4ccc([nH]4)c(-c4ccc(S(=O)(=O)[O-])cc4)c4nc(c(-c5ccc(S(=O)(=O)[O-])cc5)c5ccc2[nH]5)C=C4)C=C3)cc1
REMARK SMILES IDX 4 1 3 2 1 3 2 4 32 6 33 7 91 8 34 9 90 10 35 11 36 12 37 13
REMARK SMILES IDX 84 14 38 15 89 16 83 17 85 18 39 19 88 20 82 21 81 22 40 24
REMARK SMILES IDX 70 25 51 26 69 27 52 28 55 29 68 30 86 31 53 32 54 33 67 35
REMARK SMILES IDX 87 36 56 37 41 38 42 39 50 40 43 41 49 42 44 43 45 44 46 45
REMARK SMILES IDX 47 46 48 47 71 48 72 49 80 50 73 51 79 52 74 53 75 54 76 55
REMARK SMILES IDX 77 56 78 57 57 58 58 59 66 60 59 61 65 62 60 63 61 64 62 65
REMARK SMILES IDX 63 66 64 67 5 68 6 69 7 70 8 71 9 73 10 74 16 75 31 76 17 77
REMARK SMILES IDX 30 78 18 79 19 80 20 81 11 82 12 83 15 84 13 85 14 86 21 87
REMARK SMILES IDX 22 88 29 89 23 90 25 91 24 92 26 93 27 94 28 95
REMARK H PARENT 3 5 85 23 55 34 7 72
REMARK Flexibility Score: inf
ROOT
ATOM      1  C   UNL A   1      33.114  30.159  26.664  1.00  0.00     0.118 C 
ENDROOT
BRANCH   1   2
ATOM      2  N   UNL A   1      33.379  31.372  27.406  1.00  0.00    -0.352 N 
ATOM      3  O   UNL A   1      34.264  32.987  28.603  1.00  0.00    -0.269 OA
ATOM      4  C   UNL A   1      34.428  31.854  28.140  1.00  0.00     0.251 C 
ATOM      5  H   UNL A   1      32.623  32.002  27.376  1.00  0.00     0.163 HD
BRANCH   4   6
ATOM      6  C   UNL A   1      35.698  31.132  28.451  1.00  0.00     0.039 A 
ATOM      7  C   UNL A   1      35.895  29.750  28.431  1.00  0.00     0.014 A 
ATOM      8  C   UNL A   1      36.803  31.953  28.758  1.00  0.00     0.014 A 
ATOM      9  C   UNL A   1      37.151  29.210  28.743  1.00  0.00     0.010 A 
ATOM     10  C   UNL A   1      38.056  31.421  29.062  1.00  0.00     0.010 A 
ATOM     11  C   UNL A   1      38.233  30.043  29.066  1.00  0.00    -0.014 A 
BRANCH  11  12
ATOM     12  C   UNL A   1      39.569  29.451  29.209  1.00  0.00     0.031 A 
ATOM     13  C   UNL A   1      39.976  29.157  30.613  1.00  0.00     0.074 A 
ATOM     14  C   UNL A   1      40.362  29.014  28.208  1.00  0.00     0.049 A 
ATOM     15  N   UNL A   1      40.894  29.740  31.311  1.00  0.00    -0.248 NA
ATOM     16  C   UNL A   1      39.207  28.150  31.359  1.00  0.00     0.031 C 
ATOM     17  C   UNL A   1      40.044  28.892  26.785  1.00  0.00     0.029 A 
ATOM     18  N   UNL A   1      41.623  28.487  28.287  1.00  0.00    -0.354 N 
ATOM     19  C   UNL A   1      40.958  29.054  32.522  1.00  0.00     0.074 A 
ATOM     20  C   UNL A   1      39.808  28.182  32.550  1.00  0.00     0.031 C 
ATOM     21  C   UNL A   1      40.994  28.142  26.176  1.00  0.00     0.029 A 
ATOM     22  C   UNL A   1      42.056  27.851  27.128  1.00  0.00     0.049 A 
ATOM     23  H   UNL A   1      42.178  28.553  29.097  1.00  0.00     0.167 HD
ATOM     24  C   UNL A   1      42.055  29.107  33.331  1.00  0.00     0.031 A 
ATOM     25  C   UNL A   1      43.184  27.111  26.971  1.00  0.00     0.031 A 
ATOM     26  C   UNL A   1      42.963  30.152  32.940  1.00  0.00     0.049 A 
ATOM     27  C   UNL A   1      44.127  27.494  28.048  1.00  0.00     0.074 A 
ATOM     28  C   UNL A   1      42.879  31.523  32.800  1.00  0.00     0.029 A 
ATOM     29  N   UNL A   1      44.101  29.773  32.268  1.00  0.00    -0.354 N 
ATOM     30  N   UNL A   1      44.712  28.655  28.115  1.00  0.00    -0.248 NA
ATOM     31  C   UNL A   1      44.134  26.720  29.278  1.00  0.00     0.031 C 
ATOM     32  C   UNL A   1      43.678  31.823  31.658  1.00  0.00     0.029 A 
ATOM     33  C   UNL A   1      44.248  30.630  31.210  1.00  0.00     0.049 A 
ATOM     34  H   UNL A   1      44.699  29.026  32.505  1.00  0.00     0.167 HD
ATOM     35  C   UNL A   1      44.771  28.944  29.469  1.00  0.00     0.074 A 
ATOM     36  C   UNL A   1      44.502  27.673  30.138  1.00  0.00     0.031 C 
ATOM     37  C   UNL A   1      44.762  30.235  29.916  1.00  0.00     0.031 A 
BRANCH  24  38
ATOM     38  C   UNL A   1      42.494  27.991  34.249  1.00  0.00    -0.014 A 
ATOM     39  C   UNL A   1      42.640  28.261  35.627  1.00  0.00     0.010 A 
ATOM     40  C   UNL A   1      43.037  26.780  33.774  1.00  0.00     0.010 A 
ATOM     41  C   UNL A   1      43.357  27.400  36.468  1.00  0.00     0.020 A 
ATOM     42  C   UNL A   1      43.714  25.892  34.615  1.00  0.00     0.020 A 
ATOM     43  C   UNL A   1      43.903  26.227  35.949  1.00  0.00     0.054 A 
BRANCH  43  44
ATOM     44  S   UNL A   1      44.920  25.177  37.018  1.00  0.00     0.124 S 
ATOM     45  O   UNL A   1      46.242  25.773  36.853  1.00  0.00    -0.237 OA
ATOM     46  O   UNL A   1      44.296  25.367  38.324  1.00  0.00    -0.237 OA
ATOM     47  O   UNL A   1      44.755  23.844  36.443  1.00  0.00    -0.744 OA
ENDBRANCH  43  44
ENDBRANCH  24  38
BRANCH  25  48
ATOM     48  C   UNL A   1      43.420  25.920  26.116  1.00  0.00    -0.014 A 
ATOM     49  C   UNL A   1      44.680  25.688  25.524  1.00  0.00     0.010 A 
ATOM     50  C   UNL A   1      42.500  24.854  26.131  1.00  0.00     0.010 A 
ATOM     51  C   UNL A   1      45.029  24.417  25.036  1.00  0.00     0.020 A 
ATOM     52  C   UNL A   1      42.839  23.587  25.640  1.00  0.00     0.020 A 
ATOM     53  C   UNL A   1      44.113  23.365  25.120  1.00  0.00     0.054 A 
BRANCH  53  54
ATOM     54  S   UNL A   1      44.637  21.681  24.680  1.00  0.00     0.124 S 
ATOM     55  O   UNL A   1      44.610  21.718  23.220  1.00  0.00    -0.237 OA
ATOM     56  O   UNL A   1      45.963  21.590  25.286  1.00  0.00    -0.237 OA
ATOM     57  O   UNL A   1      43.620  20.831  25.297  1.00  0.00    -0.744 OA
ENDBRANCH  53  54
ENDBRANCH  25  48
BRANCH  37  58
ATOM     58  C   UNL A   1      45.067  31.346  28.941  1.00  0.00    -0.014 A 
ATOM     59  C   UNL A   1      46.352  31.876  28.716  1.00  0.00     0.010 A 
ATOM     60  C   UNL A   1      44.009  31.793  28.128  1.00  0.00     0.010 A 
ATOM     61  C   UNL A   1      46.561  32.857  27.735  1.00  0.00     0.020 A 
ATOM     62  C   UNL A   1      44.213  32.753  27.136  1.00  0.00     0.020 A 
ATOM     63  C   UNL A   1      45.486  33.292  26.954  1.00  0.00     0.054 A 
BRANCH  63  64
ATOM     64  S   UNL A   1      45.762  34.550  25.675  1.00  0.00     0.124 S 
ATOM     65  O   UNL A   1      44.876  34.109  24.601  1.00  0.00    -0.237 OA
ATOM     66  O   UNL A   1      45.372  35.787  26.345  1.00  0.00    -0.237 OA
ATOM     67  O   UNL A   1      47.190  34.439  25.381  1.00  0.00    -0.744 OA
ENDBRANCH  63  64
ENDBRANCH  37  58
ENDBRANCH  11  12
ENDBRANCH   4   6
ENDBRANCH   1   2
BRANCH   1  68
ATOM     68  C   UNL A   1      31.991  29.310  27.249  1.00  0.00     0.042 C 
BRANCH  68  69
ATOM     69  C   UNL A   1      32.186  27.793  27.128  1.00  0.00     0.117 C 
BRANCH  69  70
ATOM     70  N   UNL A   1      31.026  27.079  26.619  1.00  0.00    -0.354 N 
ATOM     71  C   UNL A   1      30.798  26.186  25.627  1.00  0.00     0.246 C 
ATOM     72  H   UNL A   1      30.206  27.300  27.117  1.00  0.00     0.163 HD
ATOM     73  O   UNL A   1      29.670  25.666  25.690  1.00  0.00    -0.272 OA
BRANCH  71  74
ATOM     74  C   UNL A   1      31.701  25.871  24.386  1.00  0.00     0.127 C 
ATOM     75  C   UNL A   1      31.158  25.090  23.170  1.00  0.00     0.061 C 
ATOM     76  C   UNL A   1      32.886  25.068  24.976  1.00  0.00     0.061 C 
ATOM     77  C   UNL A   1      31.084  23.561  23.272  1.00  0.00     0.122 C 
ATOM     78  C   UNL A   1      32.419  23.675  25.330  1.00  0.00     0.122 C 
ATOM     79  N   UNL A   1      32.101  22.944  24.121  1.00  0.00    -0.342 N 
ATOM     80  C   UNL A   1      32.468  21.638  23.823  1.00  0.00     0.227 C 
ATOM     81  O   UNL A   1      31.849  21.018  22.951  1.00  0.00    -0.274 OA
BRANCH  74  82
ATOM     82  N   UNL A   1      32.163  27.188  23.856  1.00  0.00    -0.322 N 
ATOM     83  C   UNL A   1      33.478  27.574  23.736  1.00  0.00     0.108 A 
ATOM     84  C   UNL A   1      31.405  28.268  23.484  1.00  0.00     0.200 A 
ATOM     85  C   UNL A   1      33.439  28.884  23.317  1.00  0.00     0.130 A 
ATOM     86  N   UNL A   1      32.147  29.305  23.166  1.00  0.00    -0.245 NA
ENDBRANCH  74  82
BRANCH  80  87
ATOM     87  C   UNL A   1      33.623  20.905  24.512  1.00  0.00     0.107 C 
ATOM     88  C   UNL A   1      33.425  20.609  25.989  1.00  0.00     0.115 C 
ATOM     89  C   UNL A   1      34.980  21.562  24.396  1.00  0.00     0.133 C 
ATOM     90  C   UNL A   1      34.446  21.469  26.688  1.00  0.00     0.223 C 
ATOM     91  N   UNL A   1      35.282  22.041  25.727  1.00  0.00    -0.339 N 
ATOM     92  O   UNL A   1      34.452  21.666  27.900  1.00  0.00    -0.275 OA
BRANCH  91  93
ATOM     93  C   UNL A   1      36.149  23.174  25.907  1.00  0.00     0.085 C 
ATOM     94  C   UNL A   1      37.649  23.021  25.998  1.00  0.00     0.027 C 
ATOM     95  C   UNL A   1      37.029  23.730  24.828  1.00  0.00     0.027 C 
ENDBRANCH  91  93
ENDBRANCH  80  87
ENDBRANCH  71  74
ENDBRANCH  69  70
ENDBRANCH  68  69
ENDBRANCH   1  68
TORSDOF 16
ENDMDL
MODEL 3
REMARK VINA RESULT:     -12.8      1.480      2.085
REMARK SMILES O=C(NCCCNC(=O)C1(n2ccnc2)CCN(C(=O)[C@@H]2CC(=O)N(C3CC3)C2)CC1)c1ccc(-c2c3nc(c(-c4ccc(S(=O)(=O)[O-])cc4)c4ccc([nH]4)c(-c4ccc(S(=O)(=O)[O-])cc4)c4nc(c(-c5ccc(S(=O)(=O)[O-])cc5)c5ccc2[nH]5)C=C4)C=C3)cc1
REMARK SMILES IDX 4 1 3 2 1 3 2 4 32 6 33 7 91 8 34 9 90 10 35 11 36 12 37 13
REMARK SMILES IDX 84 14 38 15 89 16 83 17 85 18 39 19 88 20 82 21 81 22 40 24
REMARK SMILES IDX 70 25 51 26 69 27 52 28 55 29 68 30 86 31 53 32 54 33 67 35
REMARK SMILES IDX 87 36 56 37 41 38 42 39 50 40 43 41 49 42 44 43 45 44 46 45
REMARK SMILES IDX 47 46 48 47 71 48 72 49 80 50 73 51 79 52 74 53 75 54 76 55
REMARK SMILES IDX 77 56 78 57 57 58 58 59 66 60 59 61 65 62 60 63 61 64 62 65
REMARK SMILES IDX 63 66 64 67 5 68 6 69 7 70 8 71 9 73 10 74 16 75 31 76 17 77
REMARK SMILES IDX 30 78 18 79 19 80 20 81 11 82 12 83 15 84 13 85 14 86 21 87
REMARK SMILES IDX 22 88 29 89 23 90 25 91 24 92 26 93 27 94 28 95
REMARK H PARENT 3 5 85 23 55 34 7 72
REMARK Flexibility Score: inf
ROOT
ATOM      1  C   UNL A   1      39.257  21.599  26.374  1.00  0.00     0.118 C 
ENDROOT
BRANCH   1   2
ATOM      2  N   UNL A   1      40.588  21.696  25.816  1.00  0.00    -0.352 N 
ATOM      3  O   UNL A   1      42.615  22.311  25.235  1.00  0.00    -0.269 OA
ATOM      4  C   UNL A   1      41.582  22.637  25.828  1.00  0.00     0.251 C 
ATOM      5  H   UNL A   1      40.840  20.892  25.306  1.00  0.00     0.163 HD
BRANCH   4   6
ATOM      6  C   UNL A   1      41.508  23.996  26.443  1.00  0.00     0.039 A 
ATOM      7  C   UNL A   1      40.486  24.931  26.272  1.00  0.00     0.014 A 
ATOM      8  C   UNL A   1      42.573  24.328  27.306  1.00  0.00     0.014 A 
ATOM      9  C   UNL A   1      40.550  26.173  26.920  1.00  0.00     0.010 A 
ATOM     10  C   UNL A   1      42.636  25.560  27.958  1.00  0.00     0.010 A 
ATOM     11  C   UNL A   1      41.627  26.494  27.759  1.00  0.00    -0.014 A 
BRANCH  11  12
ATOM     12  C   UNL A   1      41.567  27.726  28.556  1.00  0.00     0.031 A 
ATOM     13  C   UNL A   1      42.625  28.728  28.241  1.00  0.00     0.074 A 
ATOM     14  C   UNL A   1      40.576  28.086  29.400  1.00  0.00     0.049 A 
ATOM     15  N   UNL A   1      43.618  29.093  28.984  1.00  0.00    -0.248 NA
ATOM     16  C   UNL A   1      42.628  29.332  26.900  1.00  0.00     0.031 C 
ATOM     17  C   UNL A   1      39.287  27.429  29.620  1.00  0.00     0.029 A 
ATOM     18  N   UNL A   1      40.489  29.202  30.186  1.00  0.00    -0.354 N 
ATOM     19  C   UNL A   1      44.269  30.112  28.292  1.00  0.00     0.074 A 
ATOM     20  C   UNL A   1      43.704  30.119  26.963  1.00  0.00     0.031 C 
ATOM     21  C   UNL A   1      38.473  28.260  30.312  1.00  0.00     0.029 A 
ATOM     22  C   UNL A   1      39.223  29.443  30.708  1.00  0.00     0.049 A 
ATOM     23  H   UNL A   1      41.260  29.787  30.368  1.00  0.00     0.167 HD
ATOM     24  C   UNL A   1      45.087  31.007  28.915  1.00  0.00     0.031 A 
ATOM     25  C   UNL A   1      38.810  30.548  31.383  1.00  0.00     0.031 A 
ATOM     26  C   UNL A   1      45.417  30.595  30.254  1.00  0.00     0.049 A 
ATOM     27  C   UNL A   1      40.014  31.224  31.920  1.00  0.00     0.074 A 
ATOM     28  C   UNL A   1      46.028  29.493  30.818  1.00  0.00     0.029 A 
ATOM     29  N   UNL A   1      44.768  31.236  31.283  1.00  0.00    -0.354 N 
ATOM     30  N   UNL A   1      40.756  30.730  32.869  1.00  0.00    -0.248 NA
ATOM     31  C   UNL A   1      40.628  32.283  31.136  1.00  0.00     0.031 C 
ATOM     32  C   UNL A   1      45.317  29.262  32.033  1.00  0.00     0.029 A 
ATOM     33  C   UNL A   1      44.359  30.270  32.163  1.00  0.00     0.049 A 
ATOM     34  H   UNL A   1      44.626  32.207  31.371  1.00  0.00     0.167 HD
ATOM     35  C   UNL A   1      42.050  31.093  32.532  1.00  0.00     0.074 A 
ATOM     36  C   UNL A   1      41.898  32.136  31.521  1.00  0.00     0.031 C 
ATOM     37  C   UNL A   1      43.117  30.326  32.905  1.00  0.00     0.031 A 
BRANCH  24  38
ATOM     38  C   UNL A   1      45.300  32.431  28.460  1.00  0.00    -0.014 A 
ATOM     39  C   UNL A   1      46.620  32.922  28.356  1.00  0.00     0.010 A 
ATOM     40  C   UNL A   1      44.260  33.380  28.407  1.00  0.00     0.010 A 
ATOM     41  C   UNL A   1      46.885  34.296  28.279  1.00  0.00     0.020 A 
ATOM     42  C   UNL A   1      44.511  34.749  28.284  1.00  0.00     0.020 A 
ATOM     43  C   UNL A   1      45.824  35.201  28.260  1.00  0.00     0.054 A 
BRANCH  43  44
ATOM     44  S   UNL A   1      46.178  36.977  28.271  1.00  0.00     0.124 S 
ATOM     45  O   UNL A   1      47.091  37.093  29.403  1.00  0.00    -0.237 OA
ATOM     46  O   UNL A   1      46.771  37.183  26.953  1.00  0.00    -0.237 OA
ATOM     47  O   UNL A   1      44.863  37.586  28.459  1.00  0.00    -0.744 OA
ENDBRANCH  43  44
ENDBRANCH  24  38
BRANCH  25  48
ATOM     48  C   UNL A   1      37.478  31.204  31.393  1.00  0.00    -0.014 A 
ATOM     49  C   UNL A   1      36.675  31.200  32.553  1.00  0.00     0.010 A 
ATOM     50  C   UNL A   1      37.131  32.098  30.362  1.00  0.00     0.010 A 
ATOM     51  C   UNL A   1      35.611  32.107  32.702  1.00  0.00     0.020 A 
ATOM     52  C   UNL A   1      36.068  32.999  30.501  1.00  0.00     0.020 A 
ATOM     53  C   UNL A   1      35.330  33.021  31.683  1.00  0.00     0.054 A 
BRANCH  53  54
ATOM     54  S   UNL A   1      34.093  34.324  31.962  1.00  0.00     0.124 S 
ATOM     55  O   UNL A   1      33.497  34.477  30.638  1.00  0.00    -0.237 OA
ATOM     56  O   UNL A   1      33.229  33.732  32.980  1.00  0.00    -0.237 OA
ATOM     57  O   UNL A   1      34.889  35.462  32.419  1.00  0.00    -0.744 OA
ENDBRANCH  53  54
ENDBRANCH  25  48
BRANCH  37  58
ATOM     58  C   UNL A   1      42.931  29.296  33.993  1.00  0.00    -0.014 A 
ATOM     59  C   UNL A   1      43.139  29.542  35.364  1.00  0.00     0.010 A 
ATOM     60  C   UNL A   1      42.406  28.049  33.610  1.00  0.00     0.010 A 
ATOM     61  C   UNL A   1      42.869  28.550  36.318  1.00  0.00     0.020 A 
ATOM     62  C   UNL A   1      42.115  27.065  34.556  1.00  0.00     0.020 A 
ATOM     63  C   UNL A   1      42.362  27.314  35.905  1.00  0.00     0.054 A 
BRANCH  63  64
ATOM     64  S   UNL A   1      41.998  26.038  37.144  1.00  0.00     0.124 S 
ATOM     65  O   UNL A   1      42.290  24.803  36.421  1.00  0.00    -0.237 OA
ATOM     66  O   UNL A   1      42.919  26.366  38.229  1.00  0.00    -0.237 OA
ATOM     67  O   UNL A   1      40.585  26.251  37.457  1.00  0.00    -0.744 OA
ENDBRANCH  63  64
ENDBRANCH  37  58
ENDBRANCH  11  12
ENDBRANCH   4   6
ENDBRANCH   1   2
BRANCH   1  68
ATOM     68  C   UNL A   1      38.146  21.622  25.330  1.00  0.00     0.042 C 
BRANCH  68  69
ATOM     69  C   UNL A   1      37.089  22.717  25.523  1.00  0.00     0.117 C 
BRANCH  69  70
ATOM     70  N   UNL A   1      36.077  22.402  26.518  1.00  0.00    -0.354 N 
ATOM     71  C   UNL A   1      34.799  21.952  26.490  1.00  0.00     0.246 C 
ATOM     72  H   UNL A   1      36.398  22.553  27.436  1.00  0.00     0.163 HD
ATOM     73  O   UNL A   1      34.378  21.612  27.610  1.00  0.00    -0.272 OA
BRANCH  71  74
ATOM     74  C   UNL A   1      33.800  21.959  25.283  1.00  0.00     0.127 C 
ATOM     75  C   UNL A   1      34.192  22.559  23.915  1.00  0.00     0.061 C 
ATOM     76  C   UNL A   1      32.575  22.743  25.813  1.00  0.00     0.061 C 
ATOM     77  C   UNL A   1      34.116  24.083  23.750  1.00  0.00     0.122 C 
ATOM     78  C   UNL A   1      32.917  24.214  25.889  1.00  0.00     0.122 C 
ATOM     79  N   UNL A   1      33.090  24.745  24.554  1.00  0.00    -0.342 N 
ATOM     80  C   UNL A   1      32.577  25.940  24.065  1.00  0.00     0.227 C 
ATOM     81  O   UNL A   1      33.079  26.450  23.058  1.00  0.00    -0.274 OA
BRANCH  74  82
ATOM     82  N   UNL A   1      33.445  20.533  25.020  1.00  0.00    -0.322 N 
ATOM     83  C   UNL A   1      34.333  19.556  24.632  1.00  0.00     0.108 A 
ATOM     84  C   UNL A   1      32.204  19.952  25.022  1.00  0.00     0.200 A 
ATOM     85  C   UNL A   1      33.569  18.438  24.396  1.00  0.00     0.130 A 
ATOM     86  N   UNL A   1      32.247  18.696  24.639  1.00  0.00    -0.245 NA
ENDBRANCH  74  82
BRANCH  80  87
ATOM     87  C   UNL A   1      31.394  26.675  24.702  1.00  0.00     0.107 C 
ATOM     88  C   UNL A   1      30.485  27.416  23.735  1.00  0.00     0.115 C 
ATOM     89  C   UNL A   1      31.744  27.667  25.788  1.00  0.00     0.133 C 
ATOM     90  C   UNL A   1      30.693  28.873  24.059  1.00  0.00     0.223 C 
ATOM     91  N   UNL A   1      31.471  28.967  25.216  1.00  0.00    -0.339 N 
ATOM     92  O   UNL A   1      30.293  29.791  23.349  1.00  0.00    -0.275 OA
BRANCH  91  93
ATOM     93  C   UNL A   1      32.189  30.123  25.677  1.00  0.00     0.085 C 
ATOM     94  C   UNL A   1      31.513  31.213  26.475  1.00  0.00     0.027 C 
ATOM     95  C   UNL A   1      32.568  30.354  27.109  1.00  0.00     0.027 C 
ENDBRANCH  91  93
ENDBRANCH  80  87
ENDBRANCH  71  74
ENDBRANCH  69  70
ENDBRANCH  68  69
ENDBRANCH   1  68
TORSDOF 16
ENDMDL
