MODEL 1
REMARK VINA RESULT:     -12.0      0.000      0.000
REMARK SMILES CC(C)CCc1cc2c(cc1Cl)C=C(C(=O)NCCCNC(=O)c1ccc(-c3c4nc(c(-c5ccc(S(=O)(=O)[O-])cc5)c5ccc([nH]5)c(-c5ccc(S(=O)(=O)[O-])cc5)c5nc(c(-c6ccc(S(=O)(=O)[O-])cc6)c6ccc3[nH]6)C=C5)C=C4)cc1)[C@@H](C(F)(F)F)O2
REMARK SMILES IDX 19 1 18 2 17 3 15 4 16 5 14 7 6 8 7 9 11 10 8 11 10 12 12 13
REMARK SMILES IDX 9 14 89 15 13 16 84 17 5 18 4 19 2 20 1 21 3 22 85 23 86 24
REMARK SMILES IDX 87 25 88 26 20 27 21 28 22 29 23 31 24 32 25 33 83 34 26 35
REMARK SMILES IDX 82 36 27 37 28 38 29 39 76 40 30 41 81 42 75 43 77 44 31 45
REMARK SMILES IDX 80 46 74 47 73 48 32 50 62 51 43 52 61 53 44 54 47 55 60 56
REMARK SMILES IDX 78 57 45 58 46 59 59 61 79 62 48 63 33 64 34 65 42 66 35 67
REMARK SMILES IDX 41 68 36 69 37 70 38 71 39 72 40 73 63 74 64 75 72 76 65 77
REMARK SMILES IDX 71 78 66 79 67 80 68 81 69 82 70 83 49 84 50 85 58 86 51 87
REMARK SMILES IDX 57 88 52 89 53 90 54 91 55 92 56 93
REMARK H PARENT 17 6 21 30 77 49 47 60
REMARK Flexibility Score: inf
ROOT
ATOM      1  C   UNL A   1      34.016  28.193  24.471  1.00  0.00     0.042 C 
ENDROOT
BRANCH   1   2
ATOM      2  C   UNL A   1      33.053  27.055  24.174  1.00  0.00     0.118 C 
BRANCH   2   3
ATOM      3  N   UNL A   1      32.163  26.794  25.295  1.00  0.00    -0.352 N 
ATOM      4  C   UNL A   1      31.689  25.711  25.952  1.00  0.00     0.251 C 
ATOM      5  O   UNL A   1      30.915  25.961  26.881  1.00  0.00    -0.270 OA
ATOM      6  H   UNL A   1      31.811  27.629  25.678  1.00  0.00     0.163 HD
BRANCH   4   7
ATOM      7  C   UNL A   1      32.044  24.297  25.647  1.00  0.00     0.067 C 
ATOM      8  C   UNL A   1      34.487  19.931  24.963  1.00  0.00    -0.026 A 
ATOM      9  C   UNL A   1      33.129  20.308  25.037  1.00  0.00     0.052 A 
ATOM     10  C   UNL A   1      35.450  20.929  25.203  1.00  0.00     0.045 A 
ATOM     11  C   UNL A   1      32.760  21.617  25.338  1.00  0.00     0.128 A 
ATOM     12  C   UNL A   1      35.067  22.226  25.583  1.00  0.00     0.032 A 
ATOM     13  Cl  UNL A   1      37.147  20.691  24.993  1.00  0.00    -0.084 Cl
ATOM     14  C   UNL A   1      33.721  22.574  25.643  1.00  0.00     0.019 A 
ATOM     15  O   UNL A   1      31.426  21.919  25.309  1.00  0.00    -0.475 OA
ATOM     16  C   UNL A   1      33.293  23.925  25.984  1.00  0.00     0.025 C 
ATOM     17  C   UNL A   1      31.136  23.308  24.968  1.00  0.00     0.314 C 
BRANCH   8  18
ATOM     18  C   UNL A   1      34.760  18.504  24.528  1.00  0.00     0.037 C 
BRANCH  18  19
ATOM     19  C   UNL A   1      33.600  17.514  24.349  1.00  0.00     0.008 C 
BRANCH  19  20
ATOM     20  C   UNL A   1      33.959  16.028  24.530  1.00  0.00    -0.017 C 
ATOM     21  C   UNL A   1      35.288  15.850  25.263  1.00  0.00     0.007 C 
ATOM     22  C   UNL A   1      32.837  15.320  25.295  1.00  0.00     0.007 C 
ENDBRANCH  19  20
ENDBRANCH  18  19
ENDBRANCH   8  18
BRANCH  17  23
ATOM     23  C   UNL A   1      31.120  23.482  23.433  1.00  0.00     0.429 C 
ATOM     24  F   UNL A   1      30.021  24.173  23.042  1.00  0.00    -0.167 F 
ATOM     25  F   UNL A   1      32.194  24.176  22.979  1.00  0.00    -0.167 F 
ATOM     26  F   UNL A   1      31.116  22.306  22.765  1.00  0.00    -0.167 F 
ENDBRANCH  17  23
ENDBRANCH   4   7
ENDBRANCH   2   3
ENDBRANCH   1   2
BRANCH   1  27
ATOM     27  C   UNL A   1      34.331  28.316  25.955  1.00  0.00     0.118 C 
BRANCH  27  28
ATOM     28  N   UNL A   1      33.781  29.540  26.537  1.00  0.00    -0.352 N 
ATOM     29  C   UNL A   1      34.271  30.338  27.543  1.00  0.00     0.251 C 
ATOM     30  H   UNL A   1      32.927  29.838  26.147  1.00  0.00     0.163 HD
ATOM     31  O   UNL A   1      33.554  31.203  28.039  1.00  0.00    -0.269 OA
BRANCH  29  32
ATOM     32  C   UNL A   1      35.647  30.134  28.037  1.00  0.00     0.039 A 
ATOM     33  C   UNL A   1      36.734  30.506  27.246  1.00  0.00     0.014 A 
ATOM     34  C   UNL A   1      35.856  29.545  29.288  1.00  0.00     0.014 A 
ATOM     35  C   UNL A   1      38.009  30.099  27.603  1.00  0.00     0.010 A 
ATOM     36  C   UNL A   1      37.158  29.243  29.699  1.00  0.00     0.010 A 
ATOM     37  C   UNL A   1      38.240  29.465  28.836  1.00  0.00    -0.014 A 
BRANCH  37  38
ATOM     38  C   UNL A   1      39.627  29.060  29.182  1.00  0.00     0.031 A 
ATOM     39  C   UNL A   1      40.478  29.907  30.090  1.00  0.00     0.074 A 
ATOM     40  C   UNL A   1      40.086  27.872  28.739  1.00  0.00     0.049 A 
ATOM     41  N   UNL A   1      41.679  29.661  30.548  1.00  0.00    -0.248 NA
ATOM     42  C   UNL A   1      39.921  31.194  30.538  1.00  0.00     0.031 C 
ATOM     43  C   UNL A   1      39.338  26.962  27.867  1.00  0.00     0.029 A 
ATOM     44  N   UNL A   1      41.253  27.202  28.998  1.00  0.00    -0.354 N 
ATOM     45  C   UNL A   1      42.032  30.770  31.309  1.00  0.00     0.074 A 
ATOM     46  C   UNL A   1      40.929  31.701  31.235  1.00  0.00     0.031 C 
ATOM     47  C   UNL A   1      40.021  25.817  27.741  1.00  0.00     0.029 A 
ATOM     48  C   UNL A   1      41.292  25.940  28.449  1.00  0.00     0.049 A 
ATOM     49  H   UNL A   1      41.991  27.585  29.523  1.00  0.00     0.167 HD
ATOM     50  C   UNL A   1      43.170  30.985  32.011  1.00  0.00     0.031 A 
ATOM     51  C   UNL A   1      42.238  24.984  28.501  1.00  0.00     0.031 A 
ATOM     52  C   UNL A   1      44.251  30.038  32.098  1.00  0.00     0.049 A 
ATOM     53  C   UNL A   1      43.496  25.247  29.272  1.00  0.00     0.074 A 
ATOM     54  C   UNL A   1      45.435  30.154  32.806  1.00  0.00     0.029 A 
ATOM     55  N   UNL A   1      44.283  28.803  31.466  1.00  0.00    -0.354 N 
ATOM     56  N   UNL A   1      43.811  26.304  29.982  1.00  0.00    -0.248 NA
ATOM     57  C   UNL A   1      44.527  24.204  29.246  1.00  0.00     0.031 C 
ATOM     58  C   UNL A   1      46.207  29.018  32.553  1.00  0.00     0.029 A 
ATOM     59  C   UNL A   1      45.478  28.161  31.743  1.00  0.00     0.049 A 
ATOM     60  H   UNL A   1      43.562  28.438  30.903  1.00  0.00     0.167 HD
ATOM     61  C   UNL A   1      45.081  26.056  30.485  1.00  0.00     0.074 A 
ATOM     62  C   UNL A   1      45.465  24.738  30.020  1.00  0.00     0.031 C 
ATOM     63  C   UNL A   1      45.857  26.856  31.258  1.00  0.00     0.031 A 
BRANCH  50  64
ATOM     64  C   UNL A   1      43.326  32.302  32.728  1.00  0.00    -0.014 A 
ATOM     65  C   UNL A   1      42.851  32.433  34.047  1.00  0.00     0.010 A 
ATOM     66  C   UNL A   1      43.860  33.429  32.080  1.00  0.00     0.010 A 
ATOM     67  C   UNL A   1      42.896  33.666  34.701  1.00  0.00     0.020 A 
ATOM     68  C   UNL A   1      43.932  34.660  32.742  1.00  0.00     0.020 A 
ATOM     69  C   UNL A   1      43.433  34.775  34.042  1.00  0.00     0.054 A 
BRANCH  69  70
ATOM     70  S   UNL A   1      43.500  36.367  34.909  1.00  0.00     0.124 S 
ATOM     71  O   UNL A   1      42.533  36.174  35.985  1.00  0.00    -0.237 OA
ATOM     72  O   UNL A   1      44.899  36.451  35.322  1.00  0.00    -0.237 OA
ATOM     73  O   UNL A   1      43.109  37.330  33.880  1.00  0.00    -0.744 OA
ENDBRANCH  69  70
ENDBRANCH  50  64
BRANCH  51  74
ATOM     74  C   UNL A   1      41.979  23.691  27.811  1.00  0.00    -0.014 A 
ATOM     75  C   UNL A   1      41.350  22.635  28.499  1.00  0.00     0.010 A 
ATOM     76  C   UNL A   1      42.502  23.457  26.527  1.00  0.00     0.010 A 
ATOM     77  C   UNL A   1      41.329  21.349  27.956  1.00  0.00     0.020 A 
ATOM     78  C   UNL A   1      42.453  22.176  25.967  1.00  0.00     0.020 A 
ATOM     79  C   UNL A   1      41.905  21.123  26.704  1.00  0.00     0.054 A 
BRANCH  79  80
ATOM     80  S   UNL A   1      41.970  19.424  26.069  1.00  0.00     0.124 S 
ATOM     81  O   UNL A   1      42.881  19.566  24.936  1.00  0.00    -0.237 OA
ATOM     82  O   UNL A   1      42.494  18.676  27.209  1.00  0.00    -0.237 OA
ATOM     83  O   UNL A   1      40.581  19.136  25.722  1.00  0.00    -0.744 OA
ENDBRANCH  79  80
ENDBRANCH  51  74
BRANCH  63  84
ATOM     84  C   UNL A   1      47.219  26.351  31.649  1.00  0.00    -0.014 A 
ATOM     85  C   UNL A   1      48.241  26.281  30.684  1.00  0.00     0.010 A 
ATOM     86  C   UNL A   1      47.446  25.822  32.931  1.00  0.00     0.010 A 
ATOM     87  C   UNL A   1      49.454  25.656  30.982  1.00  0.00     0.020 A 
ATOM     88  C   UNL A   1      48.668  25.220  33.242  1.00  0.00     0.020 A 
ATOM     89  C   UNL A   1      49.654  25.118  32.256  1.00  0.00     0.054 A 
BRANCH  89  90
ATOM     90  S   UNL A   1      51.220  24.276  32.614  1.00  0.00     0.124 S 
ATOM     91  O   UNL A   1      52.179  25.082  31.865  1.00  0.00    -0.237 OA
ATOM     92  O   UNL A   1      51.315  24.376  34.069  1.00  0.00    -0.237 OA
ATOM     93  O   UNL A   1      51.006  22.924  32.103  1.00  0.00    -0.744 OA
ENDBRANCH  89  90
ENDBRANCH  63  84
ENDBRANCH  37  38
ENDBRANCH  29  32
ENDBRANCH  27  28
ENDBRANCH   1  27
TORSDOF 17
ENDMDL
MODEL 2
REMARK VINA RESULT:     -11.8      3.160      9.634
REMARK SMILES CC(C)CCc1cc2c(cc1Cl)C=C(C(=O)NCCCNC(=O)c1ccc(-c3c4nc(c(-c5ccc(S(=O)(=O)[O-])cc5)c5ccc([nH]5)c(-c5ccc(S(=O)(=O)[O-])cc5)c5nc(c(-c6ccc(S(=O)(=O)[O-])cc6)c6ccc3[nH]6)C=C5)C=C4)cc1)[C@@H](C(F)(F)F)O2
REMARK SMILES IDX 19 1 18 2 17 3 15 4 16 5 14 7 6 8 7 9 11 10 8 11 10 12 12 13
REMARK SMILES IDX 9 14 89 15 13 16 84 17 5 18 4 19 2 20 1 21 3 22 85 23 86 24
REMARK SMILES IDX 87 25 88 26 20 27 21 28 22 29 23 31 24 32 25 33 83 34 26 35
REMARK SMILES IDX 82 36 27 37 28 38 29 39 76 40 30 41 81 42 75 43 77 44 31 45
REMARK SMILES IDX 80 46 74 47 73 48 32 50 62 51 43 52 61 53 44 54 47 55 60 56
REMARK SMILES IDX 78 57 45 58 46 59 59 61 79 62 48 63 33 64 34 65 42 66 35 67
REMARK SMILES IDX 41 68 36 69 37 70 38 71 39 72 40 73 63 74 64 75 72 76 65 77
REMARK SMILES IDX 71 78 66 79 67 80 68 81 69 82 70 83 49 84 50 85 58 86 51 87
REMARK SMILES IDX 57 88 52 89 53 90 54 91 55 92 56 93
REMARK H PARENT 17 6 21 30 77 49 47 60
REMARK Flexibility Score: inf
ROOT
ATOM      1  C   UNL A   1      35.958  22.611  24.426  1.00  0.00     0.042 C 
ENDROOT
BRANCH   1   2
ATOM      2  C   UNL A   1      35.067  21.717  25.272  1.00  0.00     0.118 C 
BRANCH   2   3
ATOM      3  N   UNL A   1      34.074  21.026  24.465  1.00  0.00    -0.352 N 
ATOM      4  C   UNL A   1      32.944  21.346  23.795  1.00  0.00     0.251 C 
ATOM      5  O   UNL A   1      32.385  20.402  23.229  1.00  0.00    -0.270 OA
ATOM      6  H   UNL A   1      34.278  20.066  24.386  1.00  0.00     0.163 HD
BRANCH   4   7
ATOM      7  C   UNL A   1      32.368  22.716  23.688  1.00  0.00     0.067 C 
ATOM      8  C   UNL A   1      31.628  27.628  22.779  1.00  0.00    -0.026 A 
ATOM      9  C   UNL A   1      30.792  26.546  23.128  1.00  0.00     0.052 A 
ATOM     10  C   UNL A   1      32.984  27.345  22.532  1.00  0.00     0.045 A 
ATOM     11  C   UNL A   1      31.292  25.249  23.220  1.00  0.00     0.128 A 
ATOM     12  C   UNL A   1      33.461  26.023  22.550  1.00  0.00     0.032 A 
ATOM     13  Cl  UNL A   1      34.180  28.559  22.258  1.00  0.00    -0.084 Cl
ATOM     14  C   UNL A   1      32.617  24.974  22.902  1.00  0.00     0.019 A 
ATOM     15  O   UNL A   1      30.435  24.271  23.644  1.00  0.00    -0.475 OA
ATOM     16  C   UNL A   1      33.095  23.600  22.980  1.00  0.00     0.025 C 
ATOM     17  C   UNL A   1      31.088  23.166  24.339  1.00  0.00     0.314 C 
BRANCH   8  18
ATOM     18  C   UNL A   1      30.988  29.003  22.812  1.00  0.00     0.037 C 
BRANCH  18  19
ATOM     19  C   UNL A   1      30.640  29.661  24.154  1.00  0.00     0.008 C 
BRANCH  19  20
ATOM     20  C   UNL A   1      31.716  29.550  25.250  1.00  0.00    -0.017 C 
ATOM     21  C   UNL A   1      31.763  30.799  26.129  1.00  0.00     0.007 C 
ATOM     22  C   UNL A   1      31.445  28.311  26.109  1.00  0.00     0.007 C 
ENDBRANCH  19  20
ENDBRANCH  18  19
ENDBRANCH   8  18
BRANCH  17  23
ATOM     23  C   UNL A   1      31.281  23.521  25.830  1.00  0.00     0.429 C 
ATOM     24  F   UNL A   1      32.542  23.965  26.056  1.00  0.00    -0.167 F 
ATOM     25  F   UNL A   1      30.446  24.508  26.240  1.00  0.00    -0.167 F 
ATOM     26  F   UNL A   1      31.068  22.473  26.657  1.00  0.00    -0.167 F 
ENDBRANCH  17  23
ENDBRANCH   4   7
ENDBRANCH   2   3
ENDBRANCH   1   2
BRANCH   1  27
ATOM     27  C   UNL A   1      37.016  23.329  25.254  1.00  0.00     0.118 C 
BRANCH  27  28
ATOM     28  N   UNL A   1      38.152  22.464  25.569  1.00  0.00    -0.352 N 
ATOM     29  C   UNL A   1      39.361  22.768  26.148  1.00  0.00     0.251 C 
ATOM     30  H   UNL A   1      38.031  21.517  25.329  1.00  0.00     0.163 HD
ATOM     31  O   UNL A   1      40.270  21.942  26.131  1.00  0.00    -0.269 OA
BRANCH  29  32
ATOM     32  C   UNL A   1      39.566  24.092  26.766  1.00  0.00     0.039 A 
ATOM     33  C   UNL A   1      40.242  25.091  26.067  1.00  0.00     0.014 A 
ATOM     34  C   UNL A   1      39.102  24.334  28.063  1.00  0.00     0.014 A 
ATOM     35  C   UNL A   1      40.640  26.241  26.731  1.00  0.00     0.010 A 
ATOM     36  C   UNL A   1      39.404  25.546  28.690  1.00  0.00     0.010 A 
ATOM     37  C   UNL A   1      40.224  26.487  28.050  1.00  0.00    -0.014 A 
BRANCH  37  38
ATOM     38  C   UNL A   1      40.664  27.739  28.716  1.00  0.00     0.031 A 
ATOM     39  C   UNL A   1      42.112  27.969  29.056  1.00  0.00     0.074 A 
ATOM     40  C   UNL A   1      39.756  28.711  28.935  1.00  0.00     0.049 A 
ATOM     41  N   UNL A   1      42.672  29.034  29.570  1.00  0.00    -0.248 NA
ATOM     42  C   UNL A   1      43.055  26.868  28.795  1.00  0.00     0.031 C 
ATOM     43  C   UNL A   1      38.327  28.602  28.627  1.00  0.00     0.029 A 
ATOM     44  N   UNL A   1      39.897  29.989  29.409  1.00  0.00    -0.354 N 
ATOM     45  C   UNL A   1      44.018  28.723  29.722  1.00  0.00     0.074 A 
ATOM     46  C   UNL A   1      44.191  27.363  29.267  1.00  0.00     0.031 C 
ATOM     47  C   UNL A   1      37.744  29.790  28.830  1.00  0.00     0.029 A 
ATOM     48  C   UNL A   1      38.733  30.722  29.363  1.00  0.00     0.049 A 
ATOM     49  H   UNL A   1      40.748  30.348  29.750  1.00  0.00     0.167 HD
ATOM     50  C   UNL A   1      45.018  29.507  30.192  1.00  0.00     0.031 A 
ATOM     51  C   UNL A   1      38.479  31.998  29.710  1.00  0.00     0.031 A 
ATOM     52  C   UNL A   1      44.838  30.870  30.619  1.00  0.00     0.049 A 
ATOM     53  C   UNL A   1      39.597  32.843  30.241  1.00  0.00     0.074 A 
ATOM     54  C   UNL A   1      45.795  31.754  31.086  1.00  0.00     0.029 A 
ATOM     55  N   UNL A   1      43.628  31.550  30.627  1.00  0.00    -0.354 N 
ATOM     56  N   UNL A   1      40.862  32.528  30.380  1.00  0.00    -0.248 NA
ATOM     57  C   UNL A   1      39.259  34.205  30.669  1.00  0.00     0.031 C 
ATOM     58  C   UNL A   1      45.154  32.946  31.434  1.00  0.00     0.029 A 
ATOM     59  C   UNL A   1      43.810  32.831  31.120  1.00  0.00     0.049 A 
ATOM     60  H   UNL A   1      42.768  31.176  30.328  1.00  0.00     0.167 HD
ATOM     61  C   UNL A   1      41.475  33.652  30.916  1.00  0.00     0.074 A 
ATOM     62  C   UNL A   1      40.445  34.664  31.053  1.00  0.00     0.031 C 
ATOM     63  C   UNL A   1      42.772  33.824  31.268  1.00  0.00     0.031 A 
BRANCH  50  64
ATOM     64  C   UNL A   1      46.399  28.912  30.295  1.00  0.00    -0.014 A 
ATOM     65  C   UNL A   1      47.270  28.988  29.192  1.00  0.00     0.010 A 
ATOM     66  C   UNL A   1      46.810  28.209  31.441  1.00  0.00     0.010 A 
ATOM     67  C   UNL A   1      48.519  28.364  29.225  1.00  0.00     0.020 A 
ATOM     68  C   UNL A   1      48.072  27.605  31.489  1.00  0.00     0.020 A 
ATOM     69  C   UNL A   1      48.911  27.671  30.373  1.00  0.00     0.054 A 
BRANCH  69  70
ATOM     70  S   UNL A   1      50.543  26.878  30.409  1.00  0.00     0.124 S 
ATOM     71  O   UNL A   1      51.042  27.137  29.063  1.00  0.00    -0.237 OA
ATOM     72  O   UNL A   1      51.225  27.593  31.486  1.00  0.00    -0.237 OA
ATOM     73  O   UNL A   1      50.233  25.480  30.706  1.00  0.00    -0.744 OA
ENDBRANCH  69  70
ENDBRANCH  50  64
BRANCH  51  74
ATOM     74  C   UNL A   1      37.098  32.522  29.525  1.00  0.00    -0.014 A 
ATOM     75  C   UNL A   1      36.666  32.939  28.251  1.00  0.00     0.010 A 
ATOM     76  C   UNL A   1      36.274  32.755  30.638  1.00  0.00     0.010 A 
ATOM     77  C   UNL A   1      35.479  33.661  28.107  1.00  0.00     0.020 A 
ATOM     78  C   UNL A   1      35.068  33.450  30.492  1.00  0.00     0.020 A 
ATOM     79  C   UNL A   1      34.701  33.934  29.234  1.00  0.00     0.054 A 
BRANCH  79  80
ATOM     80  S   UNL A   1      33.225  34.972  29.043  1.00  0.00     0.124 S 
ATOM     81  O   UNL A   1      33.808  36.240  28.613  1.00  0.00    -0.237 OA
ATOM     82  O   UNL A   1      32.458  34.255  28.027  1.00  0.00    -0.237 OA
ATOM     83  O   UNL A   1      32.635  34.975  30.379  1.00  0.00    -0.744 OA
ENDBRANCH  79  80
ENDBRANCH  51  74
BRANCH  63  84
ATOM     84  C   UNL A   1      43.174  35.148  31.858  1.00  0.00    -0.014 A 
ATOM     85  C   UNL A   1      42.938  35.406  33.221  1.00  0.00     0.010 A 
ATOM     86  C   UNL A   1      43.659  36.180  31.036  1.00  0.00     0.010 A 
ATOM     87  C   UNL A   1      43.143  36.685  33.744  1.00  0.00     0.020 A 
ATOM     88  C   UNL A   1      43.890  37.454  31.562  1.00  0.00     0.020 A 
ATOM     89  C   UNL A   1      43.605  37.704  32.907  1.00  0.00     0.054 A 
BRANCH  89  90
ATOM     90  S   UNL A   1      43.828  39.367  33.595  1.00  0.00     0.124 S 
ATOM     91  O   UNL A   1      45.035  39.823  32.911  1.00  0.00    -0.237 OA
ATOM     92  O   UNL A   1      42.592  40.045  33.209  1.00  0.00    -0.237 OA
ATOM     93  O   UNL A   1      43.976  39.127  35.028  1.00  0.00    -0.744 OA
ENDBRANCH  89  90
ENDBRANCH  63  84
ENDBRANCH  37  38
ENDBRANCH  29  32
ENDBRANCH  27  28
ENDBRANCH   1  27
TORSDOF 17
ENDMDL
MODEL 3
REMARK VINA RESULT:     -11.7      4.326     10.231
REMARK SMILES CC(C)CCc1cc2c(cc1Cl)C=C(C(=O)NCCCNC(=O)c1ccc(-c3c4nc(c(-c5ccc(S(=O)(=O)[O-])cc5)c5ccc([nH]5)c(-c5ccc(S(=O)(=O)[O-])cc5)c5nc(c(-c6ccc(S(=O)(=O)[O-])cc6)c6ccc3[nH]6)C=C5)C=C4)cc1)[C@@H](C(F)(F)F)O2
REMARK SMILES IDX 19 1 18 2 17 3 15 4 16 5 14 7 6 8 7 9 11 10 8 11 10 12 12 13
REMARK SMILES IDX 9 14 89 15 13 16 84 17 5 18 4 19 2 20 1 21 3 22 85 23 86 24
REMARK SMILES IDX 87 25 88 26 20 27 21 28 22 29 23 31 24 32 25 33 83 34 26 35
REMARK SMILES IDX 82 36 27 37 28 38 29 39 76 40 30 41 81 42 75 43 77 44 31 45
REMARK SMILES IDX 80 46 74 47 73 48 32 50 62 51 43 52 61 53 44 54 47 55 60 56
REMARK SMILES IDX 78 57 45 58 46 59 59 61 79 62 48 63 33 64 34 65 42 66 35 67
REMARK SMILES IDX 41 68 36 69 37 70 38 71 39 72 40 73 63 74 64 75 72 76 65 77
REMARK SMILES IDX 71 78 66 79 67 80 68 81 69 82 70 83 49 84 50 85 58 86 51 87
REMARK SMILES IDX 57 88 52 89 53 90 54 91 55 92 56 93
REMARK H PARENT 17 6 21 30 77 49 47 60
REMARK Flexibility Score: inf
ROOT
ATOM      1  C   UNL A   1      40.333  22.236  27.200  1.00  0.00     0.042 C 
ENDROOT
BRANCH   1   2
ATOM      2  C   UNL A   1      39.030  22.706  26.575  1.00  0.00     0.118 C 
BRANCH   2   3
ATOM      3  N   UNL A   1      38.260  21.599  26.031  1.00  0.00    -0.352 N 
ATOM      4  C   UNL A   1      36.991  21.382  25.619  1.00  0.00     0.251 C 
ATOM      5  O   UNL A   1      36.758  20.237  25.220  1.00  0.00    -0.270 OA
ATOM      6  H   UNL A   1      38.812  20.788  25.937  1.00  0.00     0.163 HD
BRANCH   4   7
ATOM      7  C   UNL A   1      35.908  22.404  25.601  1.00  0.00     0.067 C 
ATOM      8  C   UNL A   1      31.586  24.930  26.270  1.00  0.00    -0.026 A 
ATOM      9  C   UNL A   1      32.876  25.273  25.814  1.00  0.00     0.052 A 
ATOM     10  C   UNL A   1      31.394  23.618  26.742  1.00  0.00     0.045 A 
ATOM     11  C   UNL A   1      33.918  24.349  25.833  1.00  0.00     0.128 A 
ATOM     12  C   UNL A   1      32.469  22.718  26.831  1.00  0.00     0.032 A 
ATOM     13  Cl  UNL A   1      29.853  22.975  27.180  1.00  0.00    -0.084 Cl
ATOM     14  C   UNL A   1      33.731  23.079  26.368  1.00  0.00     0.019 A 
ATOM     15  O   UNL A   1      35.115  24.735  25.297  1.00  0.00    -0.475 OA
ATOM     16  C   UNL A   1      34.854  22.150  26.400  1.00  0.00     0.025 C 
ATOM     17  C   UNL A   1      35.902  23.639  24.741  1.00  0.00     0.314 C 
BRANCH   8  18
ATOM     18  C   UNL A   1      30.515  25.991  26.104  1.00  0.00     0.037 C 
BRANCH  18  19
ATOM     19  C   UNL A   1      29.816  26.177  24.750  1.00  0.00     0.008 C 
BRANCH  19  20
ATOM     20  C   UNL A   1      30.513  27.135  23.766  1.00  0.00    -0.017 C 
ATOM     21  C   UNL A   1      31.131  26.385  22.587  1.00  0.00     0.007 C 
ATOM     22  C   UNL A   1      29.507  28.172  23.262  1.00  0.00     0.007 C 
ENDBRANCH  19  20
ENDBRANCH  18  19
ENDBRANCH   8  18
BRANCH  17  23
ATOM     23  C   UNL A   1      35.448  23.344  23.294  1.00  0.00     0.429 C 
ATOM     24  F   UNL A   1      36.505  22.979  22.527  1.00  0.00    -0.167 F 
ATOM     25  F   UNL A   1      34.554  22.326  23.228  1.00  0.00    -0.167 F 
ATOM     26  F   UNL A   1      34.863  24.406  22.695  1.00  0.00    -0.167 F 
ENDBRANCH  17  23
ENDBRANCH   4   7
ENDBRANCH   2   3
ENDBRANCH   1   2
BRANCH   1  27
ATOM     27  C   UNL A   1      41.273  23.389  27.523  1.00  0.00     0.118 C 
BRANCH  27  28
ATOM     28  N   UNL A   1      41.612  24.175  26.338  1.00  0.00    -0.352 N 
ATOM     29  C   UNL A   1      41.422  25.511  26.078  1.00  0.00     0.251 C 
ATOM     30  H   UNL A   1      42.045  23.667  25.613  1.00  0.00     0.163 HD
ATOM     31  O   UNL A   1      41.578  25.939  24.938  1.00  0.00    -0.269 OA
BRANCH  29  32
ATOM     32  C   UNL A   1      41.009  26.418  27.167  1.00  0.00     0.039 A 
ATOM     33  C   UNL A   1      41.630  27.658  27.315  1.00  0.00     0.014 A 
ATOM     34  C   UNL A   1      40.014  26.019  28.064  1.00  0.00     0.014 A 
ATOM     35  C   UNL A   1      41.412  28.399  28.466  1.00  0.00     0.010 A 
ATOM     36  C   UNL A   1      39.711  26.828  29.163  1.00  0.00     0.010 A 
ATOM     37  C   UNL A   1      40.448  27.996  29.405  1.00  0.00    -0.014 A 
BRANCH  37  38
ATOM     38  C   UNL A   1      40.240  28.829  30.617  1.00  0.00     0.031 A 
ATOM     39  C   UNL A   1      41.192  28.755  31.781  1.00  0.00     0.074 A 
ATOM     40  C   UNL A   1      39.229  29.721  30.625  1.00  0.00     0.049 A 
ATOM     41  N   UNL A   1      41.195  29.466  32.880  1.00  0.00    -0.248 NA
ATOM     42  C   UNL A   1      42.273  27.759  31.712  1.00  0.00     0.031 C 
ATOM     43  C   UNL A   1      38.256  29.890  29.542  1.00  0.00     0.029 A 
ATOM     44  N   UNL A   1      38.882  30.684  31.537  1.00  0.00    -0.354 N 
ATOM     45  C   UNL A   1      42.252  28.984  33.643  1.00  0.00     0.074 A 
ATOM     46  C   UNL A   1      42.857  27.907  32.894  1.00  0.00     0.031 C 
ATOM     47  C   UNL A   1      37.486  30.953  29.808  1.00  0.00     0.029 A 
ATOM     48  C   UNL A   1      37.849  31.489  31.116  1.00  0.00     0.049 A 
ATOM     49  H   UNL A   1      39.328  30.789  32.408  1.00  0.00     0.167 HD
ATOM     50  C   UNL A   1      42.682  29.410  34.855  1.00  0.00     0.031 A 
ATOM     51  C   UNL A   1      37.251  32.541  31.707  1.00  0.00     0.031 A 
ATOM     52  C   UNL A   1      42.086  30.502  35.580  1.00  0.00     0.049 A 
ATOM     53  C   UNL A   1      37.733  32.988  33.054  1.00  0.00     0.074 A 
ATOM     54  C   UNL A   1      42.467  31.025  36.804  1.00  0.00     0.029 A 
ATOM     55  N   UNL A   1      40.993  31.243  35.152  1.00  0.00    -0.354 N 
ATOM     56  N   UNL A   1      38.733  32.516  33.761  1.00  0.00    -0.248 NA
ATOM     57  C   UNL A   1      37.009  34.094  33.690  1.00  0.00     0.031 C 
ATOM     58  C   UNL A   1      41.568  32.039  37.143  1.00  0.00     0.029 A 
ATOM     59  C   UNL A   1      40.669  32.197  36.101  1.00  0.00     0.049 A 
ATOM     60  H   UNL A   1      40.519  31.108  34.299  1.00  0.00     0.167 HD
ATOM     61  C   UNL A   1      38.758  33.265  34.928  1.00  0.00     0.074 A 
ATOM     62  C   UNL A   1      37.688  34.239  34.823  1.00  0.00     0.031 C 
ATOM     63  C   UNL A   1      39.589  33.149  35.993  1.00  0.00     0.031 A 
BRANCH  50  64
ATOM     64  C   UNL A   1      43.839  28.686  35.494  1.00  0.00    -0.014 A 
ATOM     65  C   UNL A   1      45.156  29.058  35.166  1.00  0.00     0.010 A 
ATOM     66  C   UNL A   1      43.633  27.589  36.350  1.00  0.00     0.010 A 
ATOM     67  C   UNL A   1      46.245  28.343  35.669  1.00  0.00     0.020 A 
ATOM     68  C   UNL A   1      44.723  26.887  36.879  1.00  0.00     0.020 A 
ATOM     69  C   UNL A   1      46.021  27.258  36.520  1.00  0.00     0.054 A 
BRANCH  69  70
ATOM     70  S   UNL A   1      47.446  26.348  37.180  1.00  0.00     0.124 S 
ATOM     71  O   UNL A   1      48.563  27.210  36.807  1.00  0.00    -0.237 OA
ATOM     72  O   UNL A   1      47.149  26.277  38.609  1.00  0.00    -0.237 OA
ATOM     73  O   UNL A   1      47.382  25.066  36.479  1.00  0.00    -0.744 OA
ENDBRANCH  69  70
ENDBRANCH  50  64
BRANCH  51  74
ATOM     74  C   UNL A   1      36.152  33.234  30.981  1.00  0.00    -0.014 A 
ATOM     75  C   UNL A   1      36.411  33.879  29.756  1.00  0.00     0.010 A 
ATOM     76  C   UNL A   1      34.893  33.390  31.585  1.00  0.00     0.010 A 
ATOM     77  C   UNL A   1      35.465  34.738  29.195  1.00  0.00     0.020 A 
ATOM     78  C   UNL A   1      33.931  34.226  31.007  1.00  0.00     0.020 A 
ATOM     79  C   UNL A   1      34.240  34.926  29.839  1.00  0.00     0.054 A 
BRANCH  79  80
ATOM     80  S   UNL A   1      33.073  36.135  29.155  1.00  0.00     0.124 S 
ATOM     81  O   UNL A   1      33.968  37.042  28.441  1.00  0.00    -0.237 OA
ATOM     82  O   UNL A   1      32.212  35.308  28.313  1.00  0.00    -0.237 OA
ATOM     83  O   UNL A   1      32.429  36.696  30.340  1.00  0.00    -0.744 OA
ENDBRANCH  79  80
ENDBRANCH  51  74
BRANCH  63  84
ATOM     84  C   UNL A   1      39.382  34.082  37.155  1.00  0.00    -0.014 A 
ATOM     85  C   UNL A   1      39.953  35.368  37.128  1.00  0.00     0.010 A 
ATOM     86  C   UNL A   1      38.741  33.638  38.324  1.00  0.00     0.010 A 
ATOM     87  C   UNL A   1      39.920  36.180  38.263  1.00  0.00     0.020 A 
ATOM     88  C   UNL A   1      38.682  34.458  39.454  1.00  0.00     0.020 A 
ATOM     89  C   UNL A   1      39.296  35.714  39.424  1.00  0.00     0.054 A 
BRANCH  89  90
ATOM     90  S   UNL A   1      39.296  36.766  40.901  1.00  0.00     0.124 S 
ATOM     91  O   UNL A   1      38.675  37.991  40.405  1.00  0.00    -0.237 OA
ATOM     92  O   UNL A   1      38.495  35.994  41.848  1.00  0.00    -0.237 OA
ATOM     93  O   UNL A   1      40.712  36.878  41.240  1.00  0.00    -0.744 OA
ENDBRANCH  89  90
ENDBRANCH  63  84
ENDBRANCH  37  38
ENDBRANCH  29  32
ENDBRANCH  27  28
ENDBRANCH   1  27
TORSDOF 17
ENDMDL
