MODEL 1
REMARK VINA RESULT:     -13.6      0.000      0.000
REMARK SMILES Cc1ccc(Oc2cc(C(=O)NCCCNC(=O)c3ccc(-c4c5nc(c(-c6ccc(S(=O)(=O)[O-])cc6)c6ccc([nH]6)c(-c6ccc(S(=O)(=O)[O-])cc6)c6nc(c(-c7ccc(S(=O)(=O)[O-])cc7)c7ccc4[nH]7)C=C6)C=C5)cc3)nc3ccccc23)cc1
REMARK SMILES IDX 14 1 13 2 12 3 10 4 11 5 9 7 7 8 8 9 85 10 80 11 84 12 79 13
REMARK SMILES IDX 81 14 83 15 82 16 6 17 5 18 1 19 2 20 3 21 87 22 4 23 86 24
REMARK SMILES IDX 15 25 16 26 17 27 18 29 19 30 20 31 78 32 21 33 77 34 22 35
REMARK SMILES IDX 23 36 24 37 71 38 25 39 76 40 70 41 72 42 26 43 75 44 69 45
REMARK SMILES IDX 68 46 27 48 57 49 38 50 56 51 39 52 42 53 55 54 73 55 40 56
REMARK SMILES IDX 41 57 54 59 74 60 43 61 28 62 29 63 37 64 30 65 36 66 31 67
REMARK SMILES IDX 32 68 33 69 34 70 35 71 58 72 59 73 67 74 60 75 66 76 61 77
REMARK SMILES IDX 62 78 63 79 64 80 65 81 44 82 45 83 53 84 46 85 52 86 47 87
REMARK SMILES IDX 48 88 49 89 50 90 51 91
REMARK H PARENT 12 6 16 28 72 47 42 58
REMARK Flexibility Score: inf
ROOT
ATOM      1  C   UNL A   1      34.381  28.743  26.255  1.00  0.00     0.042 C 
ENDROOT
BRANCH   1   2
ATOM      2  C   UNL A   1      33.303  29.375  25.376  1.00  0.00     0.118 C 
BRANCH   2   3
ATOM      3  N   UNL A   1      33.570  29.210  23.952  1.00  0.00    -0.351 N 
ATOM      4  C   UNL A   1      33.430  28.098  23.149  1.00  0.00     0.270 C 
ATOM      5  O   UNL A   1      33.593  28.220  21.933  1.00  0.00    -0.268 OA
ATOM      6  H   UNL A   1      33.900  30.016  23.493  1.00  0.00     0.163 HD
BRANCH   4   7
ATOM      7  C   UNL A   1      33.077  26.745  23.699  1.00  0.00     0.132 A 
ATOM      8  C   UNL A   1      33.518  24.417  23.884  1.00  0.00     0.139 A 
ATOM      9  C   UNL A   1      33.857  25.657  23.352  1.00  0.00     0.082 A 
ATOM     10  C   UNL A   1      32.459  24.289  24.811  1.00  0.00     0.043 A 
ATOM     11  C   UNL A   1      31.726  25.457  25.083  1.00  0.00     0.075 A 
ATOM     12  C   UNL A   1      32.089  23.083  25.457  1.00  0.00     0.014 A 
ATOM     13  N   UNL A   1      32.021  26.645  24.540  1.00  0.00    -0.242 NA
ATOM     14  C   UNL A   1      30.641  25.386  25.946  1.00  0.00     0.029 A 
ATOM     15  C   UNL A   1      30.990  23.034  26.313  1.00  0.00     0.001 A 
ATOM     16  C   UNL A   1      30.261  24.189  26.554  1.00  0.00     0.002 A 
BRANCH   8  17
ATOM     17  O   UNL A   1      34.302  23.353  23.492  1.00  0.00    -0.457 OA
BRANCH  17  18
ATOM     18  C   UNL A   1      35.439  23.071  24.224  1.00  0.00     0.127 A 
ATOM     19  C   UNL A   1      39.056  21.840  26.218  1.00  0.00     0.044 C 
ATOM     20  C   UNL A   1      37.789  22.270  25.541  1.00  0.00    -0.051 A 
ATOM     21  C   UNL A   1      36.944  21.319  24.959  1.00  0.00     0.007 A 
ATOM     22  C   UNL A   1      37.422  23.620  25.501  1.00  0.00     0.007 A 
ATOM     23  C   UNL A   1      35.777  21.719  24.303  1.00  0.00     0.047 A 
ATOM     24  C   UNL A   1      36.247  24.019  24.857  1.00  0.00     0.047 A 
ENDBRANCH  17  18
ENDBRANCH   8  17
ENDBRANCH   4   7
ENDBRANCH   2   3
ENDBRANCH   1   2
BRANCH   1  25
ATOM     25  C   UNL A   1      34.397  29.329  27.659  1.00  0.00     0.118 C 
BRANCH  25  26
ATOM     26  N   UNL A   1      35.071  30.617  27.739  1.00  0.00    -0.352 N 
ATOM     27  C   UNL A   1      36.335  30.876  28.239  1.00  0.00     0.251 C 
ATOM     28  H   UNL A   1      34.570  31.394  27.397  1.00  0.00     0.163 HD
ATOM     29  O   UNL A   1      36.707  31.994  28.538  1.00  0.00    -0.269 OA
BRANCH  27  30
ATOM     30  C   UNL A   1      37.278  29.738  28.252  1.00  0.00     0.039 A 
ATOM     31  C   UNL A   1      37.359  29.000  29.440  1.00  0.00     0.014 A 
ATOM     32  C   UNL A   1      38.230  29.597  27.247  1.00  0.00     0.014 A 
ATOM     33  C   UNL A   1      38.492  28.234  29.694  1.00  0.00     0.010 A 
ATOM     34  C   UNL A   1      39.391  28.906  27.538  1.00  0.00     0.010 A 
ATOM     35  C   UNL A   1      39.541  28.260  28.777  1.00  0.00    -0.014 A 
BRANCH  35  36
ATOM     36  C   UNL A   1      40.864  27.703  29.041  1.00  0.00     0.031 A 
ATOM     37  C   UNL A   1      41.168  26.306  28.650  1.00  0.00     0.074 A 
ATOM     38  C   UNL A   1      41.848  28.486  29.535  1.00  0.00     0.049 A 
ATOM     39  N   UNL A   1      42.157  25.608  29.107  1.00  0.00    -0.248 NA
ATOM     40  C   UNL A   1      40.310  25.554  27.741  1.00  0.00     0.031 C 
ATOM     41  C   UNL A   1      43.281  28.209  29.497  1.00  0.00     0.029 A 
ATOM     42  N   UNL A   1      41.741  29.594  30.377  1.00  0.00    -0.354 N 
ATOM     43  C   UNL A   1      42.252  24.473  28.330  1.00  0.00     0.074 A 
ATOM     44  C   UNL A   1      41.021  24.436  27.576  1.00  0.00     0.031 C 
ATOM     45  C   UNL A   1      43.875  28.896  30.484  1.00  0.00     0.029 A 
ATOM     46  C   UNL A   1      42.819  29.509  31.273  1.00  0.00     0.049 A 
ATOM     47  H   UNL A   1      41.048  30.294  30.349  1.00  0.00     0.167 HD
ATOM     48  C   UNL A   1      43.424  23.775  28.288  1.00  0.00     0.031 A 
ATOM     49  C   UNL A   1      42.694  29.410  32.629  1.00  0.00     0.031 A 
ATOM     50  C   UNL A   1      44.388  24.271  29.269  1.00  0.00     0.049 A 
ATOM     51  C   UNL A   1      43.383  28.193  33.205  1.00  0.00     0.074 A 
ATOM     52  C   UNL A   1      45.504  25.087  29.171  1.00  0.00     0.029 A 
ATOM     53  N   UNL A   1      44.106  24.151  30.625  1.00  0.00    -0.354 N 
ATOM     54  N   UNL A   1      43.788  27.182  32.487  1.00  0.00    -0.248 NA
ATOM     55  C   UNL A   1      43.623  27.990  34.632  1.00  0.00     0.031 C 
ATOM     56  C   UNL A   1      45.839  25.530  30.477  1.00  0.00     0.029 A 
ATOM     57  C   UNL A   1      44.945  24.960  31.367  1.00  0.00     0.049 A 
ATOM     58  H   UNL A   1      43.408  23.569  31.003  1.00  0.00     0.167 HD
ATOM     59  C   UNL A   1      44.317  26.219  33.303  1.00  0.00     0.074 A 
ATOM     60  C   UNL A   1      44.203  26.776  34.639  1.00  0.00     0.031 C 
ATOM     61  C   UNL A   1      44.796  25.040  32.813  1.00  0.00     0.031 A 
BRANCH  48  62
ATOM     62  C   UNL A   1      43.799  22.844  27.147  1.00  0.00    -0.014 A 
ATOM     63  C   UNL A   1      42.920  21.804  26.778  1.00  0.00     0.010 A 
ATOM     64  C   UNL A   1      45.024  22.881  26.456  1.00  0.00     0.010 A 
ATOM     65  C   UNL A   1      43.288  20.800  25.865  1.00  0.00     0.020 A 
ATOM     66  C   UNL A   1      45.422  21.870  25.569  1.00  0.00     0.020 A 
ATOM     67  C   UNL A   1      44.555  20.822  25.289  1.00  0.00     0.054 A 
BRANCH  67  68
ATOM     68  S   UNL A   1      45.061  19.473  24.191  1.00  0.00     0.124 S 
ATOM     69  O   UNL A   1      44.468  19.865  22.914  1.00  0.00    -0.237 OA
ATOM     70  O   UNL A   1      46.518  19.544  24.258  1.00  0.00    -0.237 OA
ATOM     71  O   UNL A   1      44.469  18.286  24.805  1.00  0.00    -0.744 OA
ENDBRANCH  67  68
ENDBRANCH  48  62
BRANCH  49  72
ATOM     72  C   UNL A   1      41.456  30.027  33.176  1.00  0.00    -0.014 A 
ATOM     73  C   UNL A   1      41.407  31.437  33.230  1.00  0.00     0.010 A 
ATOM     74  C   UNL A   1      40.252  29.300  33.193  1.00  0.00     0.010 A 
ATOM     75  C   UNL A   1      40.190  32.106  33.106  1.00  0.00     0.020 A 
ATOM     76  C   UNL A   1      39.028  29.973  33.076  1.00  0.00     0.020 A 
ATOM     77  C   UNL A   1      39.016  31.366  32.959  1.00  0.00     0.054 A 
BRANCH  77  78
ATOM     78  S   UNL A   1      37.522  32.243  32.406  1.00  0.00     0.124 S 
ATOM     79  O   UNL A   1      37.078  32.909  33.625  1.00  0.00    -0.237 OA
ATOM     80  O   UNL A   1      38.058  33.122  31.368  1.00  0.00    -0.237 OA
ATOM     81  O   UNL A   1      36.660  31.167  31.927  1.00  0.00    -0.744 OA
ENDBRANCH  77  78
ENDBRANCH  49  72
BRANCH  61  82
ATOM     82  C   UNL A   1      45.242  23.867  33.647  1.00  0.00    -0.014 A 
ATOM     83  C   UNL A   1      46.505  23.778  34.252  1.00  0.00     0.010 A 
ATOM     84  C   UNL A   1      44.303  22.855  33.955  1.00  0.00     0.010 A 
ATOM     85  C   UNL A   1      46.838  22.696  35.080  1.00  0.00     0.020 A 
ATOM     86  C   UNL A   1      44.611  21.793  34.809  1.00  0.00     0.020 A 
ATOM     87  C   UNL A   1      45.890  21.707  35.349  1.00  0.00     0.054 A 
BRANCH  87  88
ATOM     88  S   UNL A   1      46.302  20.344  36.469  1.00  0.00     0.124 S 
ATOM     89  O   UNL A   1      47.759  20.306  36.375  1.00  0.00    -0.237 OA
ATOM     90  O   UNL A   1      45.771  20.799  37.753  1.00  0.00    -0.237 OA
ATOM     91  O   UNL A   1      45.604  19.201  35.887  1.00  0.00    -0.744 OA
ENDBRANCH  87  88
ENDBRANCH  61  82
ENDBRANCH  35  36
ENDBRANCH  27  30
ENDBRANCH  25  26
ENDBRANCH   1  25
TORSDOF 15
ENDMDL
MODEL 2
REMARK VINA RESULT:     -13.4      1.562      2.637
REMARK SMILES Cc1ccc(Oc2cc(C(=O)NCCCNC(=O)c3ccc(-c4c5nc(c(-c6ccc(S(=O)(=O)[O-])cc6)c6ccc([nH]6)c(-c6ccc(S(=O)(=O)[O-])cc6)c6nc(c(-c7ccc(S(=O)(=O)[O-])cc7)c7ccc4[nH]7)C=C6)C=C5)cc3)nc3ccccc23)cc1
REMARK SMILES IDX 14 1 13 2 12 3 10 4 11 5 9 7 7 8 8 9 85 10 80 11 84 12 79 13
REMARK SMILES IDX 81 14 83 15 82 16 6 17 5 18 1 19 2 20 3 21 87 22 4 23 86 24
REMARK SMILES IDX 15 25 16 26 17 27 18 29 19 30 20 31 78 32 21 33 77 34 22 35
REMARK SMILES IDX 23 36 24 37 71 38 25 39 76 40 70 41 72 42 26 43 75 44 69 45
REMARK SMILES IDX 68 46 27 48 57 49 38 50 56 51 39 52 42 53 55 54 73 55 40 56
REMARK SMILES IDX 41 57 54 59 74 60 43 61 28 62 29 63 37 64 30 65 36 66 31 67
REMARK SMILES IDX 32 68 33 69 34 70 35 71 58 72 59 73 67 74 60 75 66 76 61 77
REMARK SMILES IDX 62 78 63 79 64 80 65 81 44 82 45 83 53 84 46 85 52 86 47 87
REMARK SMILES IDX 48 88 49 89 50 90 51 91
REMARK H PARENT 12 6 16 28 72 47 42 58
REMARK Flexibility Score: inf
ROOT
ATOM      1  C   UNL A   1      33.673  29.388  26.164  1.00  0.00     0.042 C 
ENDROOT
BRANCH   1   2
ATOM      2  C   UNL A   1      33.987  28.051  25.496  1.00  0.00     0.118 C 
BRANCH   2   3
ATOM      3  N   UNL A   1      34.338  28.194  24.088  1.00  0.00    -0.351 N 
ATOM      4  C   UNL A   1      33.524  28.278  22.977  1.00  0.00     0.270 C 
ATOM      5  O   UNL A   1      34.036  28.528  21.884  1.00  0.00    -0.268 OA
ATOM      6  H   UNL A   1      35.303  28.238  23.900  1.00  0.00     0.163 HD
BRANCH   4   7
ATOM      7  C   UNL A   1      32.036  28.087  23.051  1.00  0.00     0.132 A 
ATOM      8  C   UNL A   1      30.157  26.704  23.505  1.00  0.00     0.139 A 
ATOM      9  C   UNL A   1      31.538  26.853  23.431  1.00  0.00     0.082 A 
ATOM     10  C   UNL A   1      29.294  27.800  23.276  1.00  0.00     0.043 A 
ATOM     11  C   UNL A   1      29.907  29.003  22.886  1.00  0.00     0.075 A 
ATOM     12  C   UNL A   1      27.883  27.758  23.399  1.00  0.00     0.014 A 
ATOM     13  N   UNL A   1      31.233  29.140  22.771  1.00  0.00    -0.242 NA
ATOM     14  C   UNL A   1      29.110  30.102  22.596  1.00  0.00     0.029 A 
ATOM     15  C   UNL A   1      27.102  28.873  23.094  1.00  0.00     0.001 A 
ATOM     16  C   UNL A   1      27.718  30.047  22.686  1.00  0.00     0.002 A 
BRANCH   8  17
ATOM     17  O   UNL A   1      29.700  25.452  23.859  1.00  0.00    -0.457 OA
BRANCH  17  18
ATOM     18  C   UNL A   1      30.627  24.449  24.061  1.00  0.00     0.127 A 
ATOM     19  C   UNL A   1      33.324  21.253  25.105  1.00  0.00     0.044 C 
ATOM     20  C   UNL A   1      32.400  22.375  24.735  1.00  0.00    -0.051 A 
ATOM     21  C   UNL A   1      31.928  23.251  25.718  1.00  0.00     0.007 A 
ATOM     22  C   UNL A   1      32.017  22.577  23.405  1.00  0.00     0.007 A 
ATOM     23  C   UNL A   1      31.045  24.280  25.383  1.00  0.00     0.047 A 
ATOM     24  C   UNL A   1      31.145  23.615  23.066  1.00  0.00     0.047 A 
ENDBRANCH  17  18
ENDBRANCH   8  17
ENDBRANCH   4   7
ENDBRANCH   2   3
ENDBRANCH   1   2
BRANCH   1  25
ATOM     25  C   UNL A   1      34.444  29.578  27.463  1.00  0.00     0.118 C 
BRANCH  25  26
ATOM     26  N   UNL A   1      35.159  30.845  27.528  1.00  0.00    -0.352 N 
ATOM     27  C   UNL A   1      36.425  31.070  28.039  1.00  0.00     0.251 C 
ATOM     28  H   UNL A   1      34.689  31.631  27.165  1.00  0.00     0.163 HD
ATOM     29  O   UNL A   1      36.830  32.181  28.323  1.00  0.00    -0.269 OA
BRANCH  27  30
ATOM     30  C   UNL A   1      37.329  29.901  28.085  1.00  0.00     0.039 A 
ATOM     31  C   UNL A   1      37.356  29.173  29.281  1.00  0.00     0.014 A 
ATOM     32  C   UNL A   1      38.301  29.721  27.106  1.00  0.00     0.014 A 
ATOM     33  C   UNL A   1      38.456  28.372  29.570  1.00  0.00     0.010 A 
ATOM     34  C   UNL A   1      39.431  28.994  27.433  1.00  0.00     0.010 A 
ATOM     35  C   UNL A   1      39.528  28.355  28.680  1.00  0.00    -0.014 A 
BRANCH  35  36
ATOM     36  C   UNL A   1      40.824  27.756  28.982  1.00  0.00     0.031 A 
ATOM     37  C   UNL A   1      41.095  26.350  28.602  1.00  0.00     0.074 A 
ATOM     38  C   UNL A   1      41.818  28.509  29.503  1.00  0.00     0.049 A 
ATOM     39  N   UNL A   1      42.048  25.622  29.088  1.00  0.00    -0.248 NA
ATOM     40  C   UNL A   1      40.240  25.624  27.670  1.00  0.00     0.031 C 
ATOM     41  C   UNL A   1      43.243  28.187  29.507  1.00  0.00     0.029 A 
ATOM     42  N   UNL A   1      41.722  29.622  30.340  1.00  0.00    -0.354 N 
ATOM     43  C   UNL A   1      42.129  24.483  28.315  1.00  0.00     0.074 A 
ATOM     44  C   UNL A   1      40.919  24.484  27.526  1.00  0.00     0.031 C 
ATOM     45  C   UNL A   1      43.830  28.857  30.509  1.00  0.00     0.029 A 
ATOM     46  C   UNL A   1      42.772  29.505  31.267  1.00  0.00     0.049 A 
ATOM     47  H   UNL A   1      41.054  30.344  30.292  1.00  0.00     0.167 HD
ATOM     48  C   UNL A   1      43.279  23.748  28.307  1.00  0.00     0.031 A 
ATOM     49  C   UNL A   1      42.605  29.412  32.619  1.00  0.00     0.031 A 
ATOM     50  C   UNL A   1      44.230  24.215  29.314  1.00  0.00     0.049 A 
ATOM     51  C   UNL A   1      43.238  28.175  33.215  1.00  0.00     0.074 A 
ATOM     52  C   UNL A   1      45.373  24.995  29.247  1.00  0.00     0.029 A 
ATOM     53  N   UNL A   1      43.906  24.107  30.662  1.00  0.00    -0.354 N 
ATOM     54  N   UNL A   1      43.631  27.150  32.511  1.00  0.00    -0.248 NA
ATOM     55  C   UNL A   1      43.432  27.967  34.649  1.00  0.00     0.031 C 
ATOM     56  C   UNL A   1      45.685  25.431  30.562  1.00  0.00     0.029 A 
ATOM     57  C   UNL A   1      44.748  24.891  31.427  1.00  0.00     0.049 A 
ATOM     58  H   UNL A   1      43.179  23.549  31.021  1.00  0.00     0.167 HD
ATOM     59  C   UNL A   1      44.106  26.173  33.342  1.00  0.00     0.074 A 
ATOM     60  C   UNL A   1      43.972  26.736  34.674  1.00  0.00     0.031 C 
ATOM     61  C   UNL A   1      44.562  24.978  32.868  1.00  0.00     0.031 A 
BRANCH  48  62
ATOM     62  C   UNL A   1      43.657  22.804  27.178  1.00  0.00    -0.014 A 
ATOM     63  C   UNL A   1      42.794  21.738  26.842  1.00  0.00     0.010 A 
ATOM     64  C   UNL A   1      44.871  22.853  26.468  1.00  0.00     0.010 A 
ATOM     65  C   UNL A   1      43.170  20.725  25.942  1.00  0.00     0.020 A 
ATOM     66  C   UNL A   1      45.276  21.833  25.594  1.00  0.00     0.020 A 
ATOM     67  C   UNL A   1      44.428  20.762  25.347  1.00  0.00     0.054 A 
BRANCH  67  68
ATOM     68  S   UNL A   1      44.946  19.404  24.268  1.00  0.00     0.124 S 
ATOM     69  O   UNL A   1      46.402  19.436  24.395  1.00  0.00    -0.237 OA
ATOM     70  O   UNL A   1      44.285  18.252  24.873  1.00  0.00    -0.237 OA
ATOM     71  O   UNL A   1      44.436  19.792  22.953  1.00  0.00    -0.744 OA
ENDBRANCH  67  68
ENDBRANCH  48  62
BRANCH  49  72
ATOM     72  C   UNL A   1      41.372  30.070  33.130  1.00  0.00    -0.014 A 
ATOM     73  C   UNL A   1      41.392  31.475  33.248  1.00  0.00     0.010 A 
ATOM     74  C   UNL A   1      40.134  29.407  33.049  1.00  0.00     0.010 A 
ATOM     75  C   UNL A   1      40.219  32.214  33.094  1.00  0.00     0.020 A 
ATOM     76  C   UNL A   1      38.953  30.149  32.902  1.00  0.00     0.020 A 
ATOM     77  C   UNL A   1      39.019  31.545  32.851  1.00  0.00     0.054 A 
BRANCH  77  78
ATOM     78  S   UNL A   1      37.603  32.524  32.263  1.00  0.00     0.124 S 
ATOM     79  O   UNL A   1      38.196  33.327  31.199  1.00  0.00    -0.237 OA
ATOM     80  O   UNL A   1      36.679  31.479  31.822  1.00  0.00    -0.237 OA
ATOM     81  O   UNL A   1      37.188  33.262  33.452  1.00  0.00    -0.744 OA
ENDBRANCH  77  78
ENDBRANCH  49  72
BRANCH  61  82
ATOM     82  C   UNL A   1      44.946  23.794  33.715  1.00  0.00    -0.014 A 
ATOM     83  C   UNL A   1      44.085  22.721  33.992  1.00  0.00     0.010 A 
ATOM     84  C   UNL A   1      46.287  23.679  34.154  1.00  0.00     0.010 A 
ATOM     85  C   UNL A   1      44.524  21.609  34.726  1.00  0.00     0.020 A 
ATOM     86  C   UNL A   1      46.744  22.559  34.853  1.00  0.00     0.020 A 
ATOM     87  C   UNL A   1      45.850  21.538  35.157  1.00  0.00     0.054 A 
BRANCH  87  88
ATOM     88  S   UNL A   1      46.430  20.072  36.050  1.00  0.00     0.124 S 
ATOM     89  O   UNL A   1      45.836  20.268  37.370  1.00  0.00    -0.237 OA
ATOM     90  O   UNL A   1      45.870  18.968  35.272  1.00  0.00    -0.237 OA
ATOM     91  O   UNL A   1      47.884  20.189  35.990  1.00  0.00    -0.744 OA
ENDBRANCH  87  88
ENDBRANCH  61  82
ENDBRANCH  35  36
ENDBRANCH  27  30
ENDBRANCH  25  26
ENDBRANCH   1  25
TORSDOF 15
ENDMDL
MODEL 3
REMARK VINA RESULT:     -12.1      1.631      2.357
REMARK SMILES Cc1ccc(Oc2cc(C(=O)NCCCNC(=O)c3ccc(-c4c5nc(c(-c6ccc(S(=O)(=O)[O-])cc6)c6ccc([nH]6)c(-c6ccc(S(=O)(=O)[O-])cc6)c6nc(c(-c7ccc(S(=O)(=O)[O-])cc7)c7ccc4[nH]7)C=C6)C=C5)cc3)nc3ccccc23)cc1
REMARK SMILES IDX 14 1 13 2 12 3 10 4 11 5 9 7 7 8 8 9 85 10 80 11 84 12 79 13
REMARK SMILES IDX 81 14 83 15 82 16 6 17 5 18 1 19 2 20 3 21 87 22 4 23 86 24
REMARK SMILES IDX 15 25 16 26 17 27 18 29 19 30 20 31 78 32 21 33 77 34 22 35
REMARK SMILES IDX 23 36 24 37 71 38 25 39 76 40 70 41 72 42 26 43 75 44 69 45
REMARK SMILES IDX 68 46 27 48 57 49 38 50 56 51 39 52 42 53 55 54 73 55 40 56
REMARK SMILES IDX 41 57 54 59 74 60 43 61 28 62 29 63 37 64 30 65 36 66 31 67
REMARK SMILES IDX 32 68 33 69 34 70 35 71 58 72 59 73 67 74 60 75 66 76 61 77
REMARK SMILES IDX 62 78 63 79 64 80 65 81 44 82 45 83 53 84 46 85 52 86 47 87
REMARK SMILES IDX 48 88 49 89 50 90 51 91
REMARK H PARENT 12 6 16 28 72 47 42 58
REMARK Flexibility Score: inf
ROOT
ATOM      1  C   UNL A   1      33.604  29.702  26.034  1.00  0.00     0.042 C 
ENDROOT
BRANCH   1   2
ATOM      2  C   UNL A   1      34.054  28.265  25.771  1.00  0.00     0.118 C 
BRANCH   2   3
ATOM      3  N   UNL A   1      34.008  27.912  24.358  1.00  0.00    -0.351 N 
ATOM      4  C   UNL A   1      33.411  26.837  23.733  1.00  0.00     0.270 C 
ATOM      5  O   UNL A   1      33.388  26.803  22.501  1.00  0.00    -0.268 OA
ATOM      6  H   UNL A   1      34.476  28.535  23.756  1.00  0.00     0.163 HD
BRANCH   4   7
ATOM      7  C   UNL A   1      32.778  25.709  24.499  1.00  0.00     0.132 A 
ATOM      8  C   UNL A   1      32.915  23.543  25.466  1.00  0.00     0.139 A 
ATOM      9  C   UNL A   1      33.519  24.568  24.744  1.00  0.00     0.082 A 
ATOM     10  C   UNL A   1      31.615  23.697  25.999  1.00  0.00     0.043 A 
ATOM     11  C   UNL A   1      30.949  24.893  25.678  1.00  0.00     0.075 A 
ATOM     12  C   UNL A   1      30.951  22.738  26.803  1.00  0.00     0.014 A 
ATOM     13  N   UNL A   1      31.510  25.864  24.948  1.00  0.00    -0.242 NA
ATOM     14  C   UNL A   1      29.651  25.082  26.128  1.00  0.00     0.029 A 
ATOM     15  C   UNL A   1      29.642  22.946  27.237  1.00  0.00     0.001 A 
ATOM     16  C   UNL A   1      28.988  24.120  26.893  1.00  0.00     0.002 A 
BRANCH   8  17
ATOM     17  O   UNL A   1      33.676  22.411  25.664  1.00  0.00    -0.457 OA
BRANCH  17  18
ATOM     18  C   UNL A   1      33.429  21.307  24.872  1.00  0.00     0.127 A 
ATOM     19  C   UNL A   1      32.760  17.605  22.770  1.00  0.00     0.044 C 
ATOM     20  C   UNL A   1      33.002  18.899  23.486  1.00  0.00    -0.051 A 
ATOM     21  C   UNL A   1      33.992  18.984  24.472  1.00  0.00     0.007 A 
ATOM     22  C   UNL A   1      32.264  20.043  23.166  1.00  0.00     0.007 A 
ATOM     23  C   UNL A   1      34.202  20.180  25.161  1.00  0.00     0.047 A 
ATOM     24  C   UNL A   1      32.483  21.245  23.846  1.00  0.00     0.047 A 
ENDBRANCH  17  18
ENDBRANCH   8  17
ENDBRANCH   4   7
ENDBRANCH   2   3
ENDBRANCH   1   2
BRANCH   1  25
ATOM     25  C   UNL A   1      33.313  29.954  27.507  1.00  0.00     0.118 C 
BRANCH  25  26
ATOM     26  N   UNL A   1      33.809  31.239  27.980  1.00  0.00    -0.352 N 
ATOM     27  C   UNL A   1      34.924  31.473  28.766  1.00  0.00     0.251 C 
ATOM     28  H   UNL A   1      33.293  32.033  27.708  1.00  0.00     0.163 HD
ATOM     29  O   UNL A   1      35.104  32.522  29.353  1.00  0.00    -0.269 OA
BRANCH  27  30
ATOM     30  C   UNL A   1      35.973  30.432  28.738  1.00  0.00     0.039 A 
ATOM     31  C   UNL A   1      36.215  29.750  29.937  1.00  0.00     0.014 A 
ATOM     32  C   UNL A   1      36.857  30.349  27.667  1.00  0.00     0.014 A 
ATOM     33  C   UNL A   1      37.435  29.106  30.124  1.00  0.00     0.010 A 
ATOM     34  C   UNL A   1      38.099  29.784  27.887  1.00  0.00     0.010 A 
ATOM     35  C   UNL A   1      38.405  29.201  29.128  1.00  0.00    -0.014 A 
BRANCH  35  36
ATOM     36  C   UNL A   1      39.792  28.783  29.304  1.00  0.00     0.031 A 
ATOM     37  C   UNL A   1      40.210  27.420  28.901  1.00  0.00     0.074 A 
ATOM     38  C   UNL A   1      40.722  29.669  29.725  1.00  0.00     0.049 A 
ATOM     39  N   UNL A   1      41.293  26.832  29.294  1.00  0.00    -0.248 NA
ATOM     40  C   UNL A   1      39.374  26.574  28.057  1.00  0.00     0.031 C 
ATOM     41  C   UNL A   1      42.170  29.538  29.592  1.00  0.00     0.029 A 
ATOM     42  N   UNL A   1      40.559  30.771  30.567  1.00  0.00    -0.354 N 
ATOM     43  C   UNL A   1      41.451  25.703  28.519  1.00  0.00     0.074 A 
ATOM     44  C   UNL A   1      40.183  25.532  27.850  1.00  0.00     0.031 C 
ATOM     45  C   UNL A   1      42.756  30.294  30.532  1.00  0.00     0.029 A 
ATOM     46  C   UNL A   1      41.698  30.807  31.388  1.00  0.00     0.049 A 
ATOM     47  H   UNL A   1      39.798  31.397  30.582  1.00  0.00     0.167 HD
ATOM     48  C   UNL A   1      42.683  25.126  28.401  1.00  0.00     0.031 A 
ATOM     49  C   UNL A   1      41.675  30.712  32.750  1.00  0.00     0.031 A 
ATOM     50  C   UNL A   1      43.655  25.730  29.310  1.00  0.00     0.049 A 
ATOM     51  C   UNL A   1      42.522  29.578  33.284  1.00  0.00     0.074 A 
ATOM     52  C   UNL A   1      44.673  26.653  29.132  1.00  0.00     0.029 A 
ATOM     53  N   UNL A   1      43.479  25.599  30.683  1.00  0.00    -0.354 N 
ATOM     54  N   UNL A   1      42.979  28.605  32.546  1.00  0.00    -0.248 NA
ATOM     55  C   UNL A   1      42.877  29.419  34.692  1.00  0.00     0.031 C 
ATOM     56  C   UNL A   1      45.048  27.145  30.410  1.00  0.00     0.029 A 
ATOM     57  C   UNL A   1      44.278  26.498  31.363  1.00  0.00     0.049 A 
ATOM     58  H   UNL A   1      42.870  24.954  31.112  1.00  0.00     0.167 HD
ATOM     59  C   UNL A   1      43.657  27.711  33.329  1.00  0.00     0.074 A 
ATOM     60  C   UNL A   1      43.577  28.270  34.667  1.00  0.00     0.031 C 
ATOM     61  C   UNL A   1      44.220  26.580  32.815  1.00  0.00     0.031 A 
BRANCH  48  62
ATOM     62  C   UNL A   1      43.073  24.225  27.241  1.00  0.00    -0.014 A 
ATOM     63  C   UNL A   1      42.960  22.825  27.378  1.00  0.00     0.010 A 
ATOM     64  C   UNL A   1      43.635  24.676  26.033  1.00  0.00     0.010 A 
ATOM     65  C   UNL A   1      43.478  21.934  26.422  1.00  0.00     0.020 A 
ATOM     66  C   UNL A   1      44.188  23.803  25.084  1.00  0.00     0.020 A 
ATOM     67  C   UNL A   1      44.121  22.432  25.292  1.00  0.00     0.054 A 
BRANCH  67  68
ATOM     68  S   UNL A   1      44.875  21.282  24.113  1.00  0.00     0.124 S 
ATOM     69  O   UNL A   1      46.298  21.394  24.428  1.00  0.00    -0.237 OA
ATOM     70  O   UNL A   1      44.249  20.012  24.468  1.00  0.00    -0.237 OA
ATOM     71  O   UNL A   1      44.491  21.820  22.809  1.00  0.00    -0.744 OA
ENDBRANCH  67  68
ENDBRANCH  48  62
BRANCH  49  72
ATOM     72  C   UNL A   1      40.420  31.208  33.377  1.00  0.00    -0.014 A 
ATOM     73  C   UNL A   1      40.270  32.605  33.503  1.00  0.00     0.010 A 
ATOM     74  C   UNL A   1      39.276  30.391  33.405  1.00  0.00     0.010 A 
ATOM     75  C   UNL A   1      39.002  33.185  33.462  1.00  0.00     0.020 A 
ATOM     76  C   UNL A   1      38.001  30.974  33.372  1.00  0.00     0.020 A 
ATOM     77  C   UNL A   1      37.881  32.366  33.325  1.00  0.00     0.054 A 
BRANCH  77  78
ATOM     78  S   UNL A   1      36.303  33.151  32.877  1.00  0.00     0.124 S 
ATOM     79  O   UNL A   1      35.489  32.012  32.467  1.00  0.00    -0.237 OA
ATOM     80  O   UNL A   1      35.913  33.781  34.138  1.00  0.00    -0.237 OA
ATOM     81  O   UNL A   1      36.679  34.074  31.810  1.00  0.00    -0.744 OA
ENDBRANCH  77  78
ENDBRANCH  49  72
BRANCH  61  82
ATOM     82  C   UNL A   1      44.838  25.470  33.623  1.00  0.00    -0.014 A 
ATOM     83  C   UNL A   1      44.094  24.524  34.344  1.00  0.00     0.010 A 
ATOM     84  C   UNL A   1      46.238  25.277  33.554  1.00  0.00     0.010 A 
ATOM     85  C   UNL A   1      44.723  23.467  35.019  1.00  0.00     0.020 A 
ATOM     86  C   UNL A   1      46.871  24.206  34.189  1.00  0.00     0.020 A 
ATOM     87  C   UNL A   1      46.109  23.317  34.941  1.00  0.00     0.054 A 
BRANCH  87  88
ATOM     88  S   UNL A   1      46.911  21.915  35.759  1.00  0.00     0.124 S 
ATOM     89  O   UNL A   1      47.389  21.134  34.621  1.00  0.00    -0.237 OA
ATOM     90  O   UNL A   1      47.954  22.552  36.561  1.00  0.00    -0.237 OA
ATOM     91  O   UNL A   1      45.831  21.305  36.530  1.00  0.00    -0.744 OA
ENDBRANCH  87  88
ENDBRANCH  61  82
ENDBRANCH  35  36
ENDBRANCH  27  30
ENDBRANCH  25  26
ENDBRANCH   1  25
TORSDOF 15
ENDMDL
