MODEL 1
REMARK VINA RESULT:     -11.4      0.000      0.000
REMARK SMILES O=C(COc1ccccc1/C=N/NC(=O)c1cc(-c2ccc(F)cc2)nc2ccccc12)NCCCNC(=O)c1ccc(-c2c3nc(c(-c4ccc(S(=O)(=O)[O-])cc4)c4ccc([nH]4)c(-c4ccc(S(=O)(=O)[O-])cc4)c4nc(c(-c5ccc(S(=O)(=O)[O-])cc5)c5ccc2[nH]5)C=C4)C=C3)cc1
REMARK SMILES IDX 1 1 2 2 33 3 3 5 4 6 5 7 6 8 10 9 7 10 9 11 8 12 11 13 12 14
REMARK SMILES IDX 13 15 14 16 15 18 16 19 17 20 32 21 18 22 27 23 31 24 26 25
REMARK SMILES IDX 28 26 30 27 29 28 19 29 20 30 25 31 21 32 24 33 22 34 23 35
REMARK SMILES IDX 34 36 35 37 36 38 37 39 38 40 39 42 40 43 41 44 99 45 42 46
REMARK SMILES IDX 98 47 43 48 44 49 45 50 92 51 46 52 97 53 91 54 93 55 47 56
REMARK SMILES IDX 96 57 90 58 89 59 48 61 78 62 59 63 77 64 60 65 63 66 76 67
REMARK SMILES IDX 94 68 61 69 62 70 75 72 95 73 64 74 49 75 50 76 58 77 51 78
REMARK SMILES IDX 57 79 52 80 53 81 54 82 55 83 56 84 79 85 80 86 88 87 81 88
REMARK SMILES IDX 87 89 82 90 83 91 84 92 85 93 86 94 65 95 66 96 74 97 67 98
REMARK SMILES IDX 73 99 68 100 69 101 70 102 71 103 72 104
REMARK H PARENT 33 4 13 17 37 41 93 60 63 71
REMARK Flexibility Score: inf
ROOT
ATOM      1  O   UNL A   1      31.109  27.768  27.449  1.00  0.00    -0.271 OA
ATOM      2  C   UNL A   1      31.538  28.276  26.431  1.00  0.00     0.257 C 
ATOM      3  N   UNL A   1      32.465  27.690  25.583  1.00  0.00    -0.353 N 
ATOM      4  H   UNL A   1      32.242  27.586  24.630  1.00  0.00     0.163 HD
ENDROOT
BRANCH   2   5
ATOM      5  C   UNL A   1      31.088  29.651  25.966  1.00  0.00     0.329 C 
BRANCH   5   6
ATOM      6  O   UNL A   1      31.362  29.713  24.575  1.00  0.00    -0.483 OA
BRANCH   6   7
ATOM      7  C   UNL A   1      30.292  29.684  23.735  1.00  0.00     0.128 A 
ATOM      8  C   UNL A   1      29.471  30.808  23.956  1.00  0.00     0.047 A 
ATOM      9  C   UNL A   1      29.833  28.617  22.951  1.00  0.00     0.037 A 
ATOM     10  C   UNL A   1      28.184  30.885  23.440  1.00  0.00     0.004 A 
ATOM     11  C   UNL A   1      28.509  28.712  22.458  1.00  0.00     0.013 A 
ATOM     12  C   UNL A   1      27.693  29.823  22.703  1.00  0.00     0.001 A 
BRANCH   9  13
ATOM     13  C   UNL A   1      30.447  27.296  22.596  1.00  0.00     0.145 C 
ATOM     14  N   UNL A   1      31.267  26.500  23.243  1.00  0.00    -0.180 NA
BRANCH  14  15
ATOM     15  N   UNL A   1      31.764  25.529  22.375  1.00  0.00    -0.243 N 
ATOM     16  C   UNL A   1      32.823  24.627  22.387  1.00  0.00     0.272 C 
ATOM     17  H   UNL A   1      31.234  25.465  21.548  1.00  0.00     0.194 HD
ATOM     18  O   UNL A   1      33.001  24.069  21.297  1.00  0.00    -0.267 OA
BRANCH  16  19
ATOM     19  C   UNL A   1      33.642  24.198  23.563  1.00  0.00     0.053 A 
ATOM     20  C   UNL A   1      35.037  24.156  23.501  1.00  0.00     0.043 A 
ATOM     21  C   UNL A   1      32.986  23.723  24.775  1.00  0.00     0.013 A 
ATOM     22  C   UNL A   1      35.719  23.909  24.683  1.00  0.00     0.072 A 
ATOM     23  C   UNL A   1      33.802  23.605  25.908  1.00  0.00     0.072 A 
ATOM     24  C   UNL A   1      31.640  23.290  24.978  1.00  0.00     0.011 A 
ATOM     25  N   UNL A   1      35.094  23.809  25.873  1.00  0.00    -0.248 NA
ATOM     26  C   UNL A   1      33.347  23.149  27.132  1.00  0.00     0.029 A 
ATOM     27  C   UNL A   1      31.199  22.743  26.197  1.00  0.00     0.001 A 
ATOM     28  C   UNL A   1      32.055  22.683  27.284  1.00  0.00     0.002 A 
BRANCH  22  29
ATOM     29  C   UNL A   1      37.110  23.501  24.910  1.00  0.00     0.000 A 
ATOM     30  C   UNL A   1      37.416  22.151  24.626  1.00  0.00     0.013 A 
ATOM     31  C   UNL A   1      37.883  24.175  25.874  1.00  0.00     0.013 A 
ATOM     32  C   UNL A   1      38.355  21.459  25.390  1.00  0.00     0.040 A 
ATOM     33  C   UNL A   1      38.839  23.483  26.623  1.00  0.00     0.040 A 
ATOM     34  C   UNL A   1      39.034  22.125  26.401  1.00  0.00     0.123 A 
ATOM     35  F   UNL A   1      39.846  21.433  27.211  1.00  0.00    -0.207 F 
ENDBRANCH  22  29
ENDBRANCH  16  19
ENDBRANCH  14  15
ENDBRANCH   9  13
ENDBRANCH   6   7
ENDBRANCH   5   6
ENDBRANCH   2   5
BRANCH   3  36
ATOM     36  C   UNL A   1      33.746  27.225  26.058  1.00  0.00     0.117 C 
BRANCH  36  37
ATOM     37  C   UNL A   1      34.495  28.150  26.975  1.00  0.00     0.042 C 
BRANCH  37  38
ATOM     38  C   UNL A   1      34.879  29.438  26.301  1.00  0.00     0.118 C 
BRANCH  38  39
ATOM     39  N   UNL A   1      34.279  30.605  26.935  1.00  0.00    -0.352 N 
ATOM     40  C   UNL A   1      34.665  31.260  28.076  1.00  0.00     0.251 C 
ATOM     41  H   UNL A   1      33.487  30.974  26.481  1.00  0.00     0.163 HD
ATOM     42  O   UNL A   1      33.948  32.136  28.549  1.00  0.00    -0.269 OA
BRANCH  40  43
ATOM     43  C   UNL A   1      35.930  30.878  28.737  1.00  0.00     0.039 A 
ATOM     44  C   UNL A   1      35.924  29.831  29.657  1.00  0.00     0.014 A 
ATOM     45  C   UNL A   1      37.126  31.535  28.426  1.00  0.00     0.014 A 
ATOM     46  C   UNL A   1      37.126  29.422  30.233  1.00  0.00     0.010 A 
ATOM     47  C   UNL A   1      38.331  31.034  28.889  1.00  0.00     0.010 A 
ATOM     48  C   UNL A   1      38.342  30.007  29.836  1.00  0.00    -0.014 A 
BRANCH  48  49
ATOM     49  C   UNL A   1      39.622  29.604  30.458  1.00  0.00     0.031 A 
ATOM     50  C   UNL A   1      40.082  30.277  31.727  1.00  0.00     0.074 A 
ATOM     51  C   UNL A   1      40.375  28.652  29.875  1.00  0.00     0.049 A 
ATOM     52  N   UNL A   1      41.141  30.030  32.453  1.00  0.00    -0.248 NA
ATOM     53  C   UNL A   1      39.264  31.395  32.231  1.00  0.00     0.031 C 
ATOM     54  C   UNL A   1      40.072  27.988  28.603  1.00  0.00     0.029 A 
ATOM     55  N   UNL A   1      41.542  28.062  30.286  1.00  0.00    -0.354 N 
ATOM     56  C   UNL A   1      41.125  30.969  33.476  1.00  0.00     0.074 A 
ATOM     57  C   UNL A   1      39.994  31.836  33.243  1.00  0.00     0.031 C 
ATOM     58  C   UNL A   1      40.998  27.044  28.369  1.00  0.00     0.029 A 
ATOM     59  C   UNL A   1      41.968  27.052  29.458  1.00  0.00     0.049 A 
ATOM     60  H   UNL A   1      42.028  28.337  31.098  1.00  0.00     0.167 HD
ATOM     61  C   UNL A   1      41.954  31.082  34.539  1.00  0.00     0.031 A 
ATOM     62  C   UNL A   1      43.012  26.211  29.581  1.00  0.00     0.031 A 
ATOM     63  C   UNL A   1      43.058  30.196  34.784  1.00  0.00     0.049 A 
ATOM     64  C   UNL A   1      43.883  26.312  30.802  1.00  0.00     0.074 A 
ATOM     65  C   UNL A   1      43.926  30.174  35.860  1.00  0.00     0.029 A 
ATOM     66  N   UNL A   1      43.438  29.164  33.939  1.00  0.00    -0.354 N 
ATOM     67  N   UNL A   1      43.805  27.157  31.803  1.00  0.00    -0.248 NA
ATOM     68  C   UNL A   1      44.967  25.329  30.923  1.00  0.00     0.031 C 
ATOM     69  C   UNL A   1      44.855  29.150  35.648  1.00  0.00     0.029 A 
ATOM     70  C   UNL A   1      44.534  28.503  34.463  1.00  0.00     0.049 A 
ATOM     71  H   UNL A   1      42.994  28.936  33.091  1.00  0.00     0.167 HD
ATOM     72  C   UNL A   1      44.818  26.794  32.683  1.00  0.00     0.074 A 
ATOM     73  C   UNL A   1      45.476  25.638  32.106  1.00  0.00     0.031 C 
ATOM     74  C   UNL A   1      45.175  27.363  33.863  1.00  0.00     0.031 A 
BRANCH  61  75
ATOM     75  C   UNL A   1      41.682  32.197  35.516  1.00  0.00    -0.014 A 
ATOM     76  C   UNL A   1      40.898  31.979  36.665  1.00  0.00     0.010 A 
ATOM     77  C   UNL A   1      42.223  33.475  35.291  1.00  0.00     0.010 A 
ATOM     78  C   UNL A   1      40.622  33.027  37.545  1.00  0.00     0.020 A 
ATOM     79  C   UNL A   1      41.974  34.520  36.186  1.00  0.00     0.020 A 
ATOM     80  C   UNL A   1      41.158  34.294  37.297  1.00  0.00     0.054 A 
BRANCH  80  81
ATOM     81  S   UNL A   1      40.803  35.634  38.468  1.00  0.00     0.124 S 
ATOM     82  O   UNL A   1      39.632  35.117  39.170  1.00  0.00    -0.237 OA
ATOM     83  O   UNL A   1      42.029  35.704  39.259  1.00  0.00    -0.237 OA
ATOM     84  O   UNL A   1      40.554  36.788  37.608  1.00  0.00    -0.744 OA
ENDBRANCH  80  81
ENDBRANCH  61  75
BRANCH  62  85
ATOM     85  C   UNL A   1      43.249  25.167  28.548  1.00  0.00    -0.014 A 
ATOM     86  C   UNL A   1      42.588  23.928  28.623  1.00  0.00     0.010 A 
ATOM     87  C   UNL A   1      44.118  25.414  27.472  1.00  0.00     0.010 A 
ATOM     88  C   UNL A   1      42.810  22.946  27.652  1.00  0.00     0.020 A 
ATOM     89  C   UNL A   1      44.323  24.445  26.485  1.00  0.00     0.020 A 
ATOM     90  C   UNL A   1      43.675  23.212  26.588  1.00  0.00     0.054 A 
BRANCH  90  91
ATOM     91  S   UNL A   1      43.907  21.946  25.309  1.00  0.00     0.124 S 
ATOM     92  O   UNL A   1      45.264  21.484  25.581  1.00  0.00    -0.237 OA
ATOM     93  O   UNL A   1      42.842  20.993  25.607  1.00  0.00    -0.237 OA
ATOM     94  O   UNL A   1      43.736  22.688  24.061  1.00  0.00    -0.744 OA
ENDBRANCH  90  91
ENDBRANCH  62  85
BRANCH  74  95
ATOM     95  C   UNL A   1      46.311  26.721  34.610  1.00  0.00    -0.014 A 
ATOM     96  C   UNL A   1      47.639  27.134  34.409  1.00  0.00     0.010 A 
ATOM     97  C   UNL A   1      46.039  25.701  35.540  1.00  0.00     0.010 A 
ATOM     98  C   UNL A   1      48.684  26.500  35.084  1.00  0.00     0.020 A 
ATOM     99  C   UNL A   1      47.079  25.085  36.238  1.00  0.00     0.020 A 
ATOM    100  C   UNL A   1      48.397  25.472  35.988  1.00  0.00     0.054 A 
BRANCH 100 101
ATOM    101  S   UNL A   1      49.768  24.663  36.857  1.00  0.00     0.124 S 
ATOM    102  O   UNL A   1      49.360  23.261  36.821  1.00  0.00    -0.237 OA
ATOM    103  O   UNL A   1      50.922  25.003  36.029  1.00  0.00    -0.237 OA
ATOM    104  O   UNL A   1      49.753  25.283  38.179  1.00  0.00    -0.744 OA
ENDBRANCH 100 101
ENDBRANCH  74  95
ENDBRANCH  48  49
ENDBRANCH  40  43
ENDBRANCH  38  39
ENDBRANCH  37  38
ENDBRANCH  36  37
ENDBRANCH   3  36
TORSDOF 19
ENDMDL
MODEL 2
REMARK VINA RESULT:     -10.6      4.962      8.964
REMARK SMILES O=C(COc1ccccc1/C=N/NC(=O)c1cc(-c2ccc(F)cc2)nc2ccccc12)NCCCNC(=O)c1ccc(-c2c3nc(c(-c4ccc(S(=O)(=O)[O-])cc4)c4ccc([nH]4)c(-c4ccc(S(=O)(=O)[O-])cc4)c4nc(c(-c5ccc(S(=O)(=O)[O-])cc5)c5ccc2[nH]5)C=C4)C=C3)cc1
REMARK SMILES IDX 1 1 2 2 33 3 3 5 4 6 5 7 6 8 10 9 7 10 9 11 8 12 11 13 12 14
REMARK SMILES IDX 13 15 14 16 15 18 16 19 17 20 32 21 18 22 27 23 31 24 26 25
REMARK SMILES IDX 28 26 30 27 29 28 19 29 20 30 25 31 21 32 24 33 22 34 23 35
REMARK SMILES IDX 34 36 35 37 36 38 37 39 38 40 39 42 40 43 41 44 99 45 42 46
REMARK SMILES IDX 98 47 43 48 44 49 45 50 92 51 46 52 97 53 91 54 93 55 47 56
REMARK SMILES IDX 96 57 90 58 89 59 48 61 78 62 59 63 77 64 60 65 63 66 76 67
REMARK SMILES IDX 94 68 61 69 62 70 75 72 95 73 64 74 49 75 50 76 58 77 51 78
REMARK SMILES IDX 57 79 52 80 53 81 54 82 55 83 56 84 79 85 80 86 88 87 81 88
REMARK SMILES IDX 87 89 82 90 83 91 84 92 85 93 86 94 65 95 66 96 74 97 67 98
REMARK SMILES IDX 73 99 68 100 69 101 70 102 71 103 72 104
REMARK H PARENT 33 4 13 17 37 41 93 60 63 71
REMARK Flexibility Score: inf
ROOT
ATOM      1  O   UNL A   1      32.122  28.360  27.482  1.00  0.00    -0.271 OA
ATOM      2  C   UNL A   1      32.328  28.855  26.390  1.00  0.00     0.257 C 
ATOM      3  N   UNL A   1      33.426  28.579  25.590  1.00  0.00    -0.353 N 
ATOM      4  H   UNL A   1      33.279  28.268  24.668  1.00  0.00     0.163 HD
ENDROOT
BRANCH   2   5
ATOM      5  C   UNL A   1      31.372  29.858  25.769  1.00  0.00     0.329 C 
BRANCH   5   6
ATOM      6  O   UNL A   1      31.512  29.728  24.361  1.00  0.00    -0.483 OA
BRANCH   6   7
ATOM      7  C   UNL A   1      30.369  29.564  23.642  1.00  0.00     0.128 A 
ATOM      8  C   UNL A   1      29.496  30.647  23.865  1.00  0.00     0.047 A 
ATOM      9  C   UNL A   1      29.912  28.411  22.990  1.00  0.00     0.037 A 
ATOM     10  C   UNL A   1      28.162  30.602  23.481  1.00  0.00     0.004 A 
ATOM     11  C   UNL A   1      28.542  28.382  22.632  1.00  0.00     0.013 A 
ATOM     12  C   UNL A   1      27.678  29.455  22.878  1.00  0.00     0.001 A 
BRANCH   9  13
ATOM     13  C   UNL A   1      30.580  27.107  22.670  1.00  0.00     0.145 C 
ATOM     14  N   UNL A   1      31.836  26.785  22.459  1.00  0.00    -0.180 NA
BRANCH  14  15
ATOM     15  N   UNL A   1      31.910  25.500  21.924  1.00  0.00    -0.243 N 
ATOM     16  C   UNL A   1      32.659  24.356  22.175  1.00  0.00     0.272 C 
ATOM     17  H   UNL A   1      31.272  25.369  21.185  1.00  0.00     0.194 HD
ATOM     18  O   UNL A   1      32.516  23.480  21.314  1.00  0.00    -0.267 OA
BRANCH  16  19
ATOM     19  C   UNL A   1      33.479  24.051  23.390  1.00  0.00     0.053 A 
ATOM     20  C   UNL A   1      34.874  24.003  23.330  1.00  0.00     0.043 A 
ATOM     21  C   UNL A   1      32.824  23.705  24.644  1.00  0.00     0.013 A 
ATOM     22  C   UNL A   1      35.556  23.880  24.532  1.00  0.00     0.072 A 
ATOM     23  C   UNL A   1      33.640  23.704  25.783  1.00  0.00     0.072 A 
ATOM     24  C   UNL A   1      31.477  23.295  24.892  1.00  0.00     0.011 A 
ATOM     25  N   UNL A   1      34.932  23.904  25.726  1.00  0.00    -0.248 NA
ATOM     26  C   UNL A   1      33.187  23.378  27.048  1.00  0.00     0.029 A 
ATOM     27  C   UNL A   1      31.038  22.877  26.162  1.00  0.00     0.001 A 
ATOM     28  C   UNL A   1      31.895  22.931  27.249  1.00  0.00     0.002 A 
BRANCH  22  29
ATOM     29  C   UNL A   1      36.948  23.498  24.798  1.00  0.00     0.000 A 
ATOM     30  C   UNL A   1      37.275  22.142  24.570  1.00  0.00     0.013 A 
ATOM     31  C   UNL A   1      37.696  24.216  25.751  1.00  0.00     0.013 A 
ATOM     32  C   UNL A   1      38.208  21.490  25.377  1.00  0.00     0.040 A 
ATOM     33  C   UNL A   1      38.645  23.564  26.542  1.00  0.00     0.040 A 
ATOM     34  C   UNL A   1      38.860  22.201  26.374  1.00  0.00     0.123 A 
ATOM     35  F   UNL A   1      39.664  21.549  27.224  1.00  0.00    -0.207 F 
ENDBRANCH  22  29
ENDBRANCH  16  19
ENDBRANCH  14  15
ENDBRANCH   9  13
ENDBRANCH   6   7
ENDBRANCH   5   6
ENDBRANCH   2   5
BRANCH   3  36
ATOM     36  C   UNL A   1      34.778  28.734  26.070  1.00  0.00     0.117 C 
BRANCH  36  37
ATOM     37  C   UNL A   1      34.966  28.705  27.561  1.00  0.00     0.042 C 
BRANCH  37  38
ATOM     38  C   UNL A   1      35.616  29.957  28.081  1.00  0.00     0.118 C 
BRANCH  38  39
ATOM     39  N   UNL A   1      35.541  30.069  29.532  1.00  0.00    -0.352 N 
ATOM     40  C   UNL A   1      36.506  29.800  30.467  1.00  0.00     0.251 C 
ATOM     41  H   UNL A   1      34.678  30.382  29.888  1.00  0.00     0.163 HD
ATOM     42  O   UNL A   1      36.217  29.804  31.660  1.00  0.00    -0.269 OA
BRANCH  40  43
ATOM     43  C   UNL A   1      37.878  29.479  30.021  1.00  0.00     0.039 A 
ATOM     44  C   UNL A   1      38.352  30.039  28.836  1.00  0.00     0.014 A 
ATOM     45  C   UNL A   1      38.703  28.650  30.788  1.00  0.00     0.014 A 
ATOM     46  C   UNL A   1      39.668  29.794  28.445  1.00  0.00     0.010 A 
ATOM     47  C   UNL A   1      40.046  28.527  30.473  1.00  0.00     0.010 A 
ATOM     48  C   UNL A   1      40.531  29.054  29.273  1.00  0.00    -0.014 A 
BRANCH  48  49
ATOM     49  C   UNL A   1      41.921  28.762  28.859  1.00  0.00     0.031 A 
ATOM     50  C   UNL A   1      42.278  27.386  28.356  1.00  0.00     0.074 A 
ATOM     51  C   UNL A   1      42.860  29.722  28.954  1.00  0.00     0.049 A 
ATOM     52  N   UNL A   1      43.422  26.948  27.897  1.00  0.00    -0.248 NA
ATOM     53  C   UNL A   1      41.225  26.356  28.402  1.00  0.00     0.031 C 
ATOM     54  C   UNL A   1      42.650  31.066  29.502  1.00  0.00     0.029 A 
ATOM     55  N   UNL A   1      44.176  29.723  28.572  1.00  0.00    -0.354 N 
ATOM     56  C   UNL A   1      43.229  25.599  27.625  1.00  0.00     0.074 A 
ATOM     57  C   UNL A   1      41.883  25.269  28.033  1.00  0.00     0.031 C 
ATOM     58  C   UNL A   1      43.781  31.777  29.367  1.00  0.00     0.029 A 
ATOM     59  C   UNL A   1      44.798  30.936  28.748  1.00  0.00     0.049 A 
ATOM     60  H   UNL A   1      44.632  28.930  28.207  1.00  0.00     0.167 HD
ATOM     61  C   UNL A   1      44.079  24.717  27.052  1.00  0.00     0.031 A 
ATOM     62  C   UNL A   1      46.044  31.328  28.420  1.00  0.00     0.031 A 
ATOM     63  C   UNL A   1      45.405  25.060  26.617  1.00  0.00     0.049 A 
ATOM     64  C   UNL A   1      46.951  30.351  27.726  1.00  0.00     0.074 A 
ATOM     65  C   UNL A   1      46.332  24.267  25.966  1.00  0.00     0.029 A 
ATOM     66  N   UNL A   1      45.988  26.307  26.783  1.00  0.00    -0.354 N 
ATOM     67  N   UNL A   1      46.723  29.099  27.403  1.00  0.00    -0.248 NA
ATOM     68  C   UNL A   1      48.275  30.848  27.329  1.00  0.00     0.031 C 
ATOM     69  C   UNL A   1      47.491  25.026  25.769  1.00  0.00     0.029 A 
ATOM     70  C   UNL A   1      47.265  26.305  26.255  1.00  0.00     0.049 A 
ATOM     71  H   UNL A   1      45.555  27.079  27.213  1.00  0.00     0.167 HD
ATOM     72  C   UNL A   1      47.868  28.665  26.746  1.00  0.00     0.074 A 
ATOM     73  C   UNL A   1      48.775  29.796  26.697  1.00  0.00     0.031 C 
ATOM     74  C   UNL A   1      48.149  27.442  26.228  1.00  0.00     0.031 A 
BRANCH  61  75
ATOM     75  C   UNL A   1      43.588  23.306  26.856  1.00  0.00    -0.014 A 
ATOM     76  C   UNL A   1      43.212  22.510  27.954  1.00  0.00     0.010 A 
ATOM     77  C   UNL A   1      43.489  22.772  25.559  1.00  0.00     0.010 A 
ATOM     78  C   UNL A   1      42.791  21.192  27.764  1.00  0.00     0.020 A 
ATOM     79  C   UNL A   1      43.040  21.462  25.362  1.00  0.00     0.020 A 
ATOM     80  C   UNL A   1      42.713  20.674  26.468  1.00  0.00     0.054 A 
BRANCH  80  81
ATOM     81  S   UNL A   1      42.143  18.966  26.246  1.00  0.00     0.124 S 
ATOM     82  O   UNL A   1      40.780  19.164  25.759  1.00  0.00    -0.237 OA
ATOM     83  O   UNL A   1      43.088  18.436  25.266  1.00  0.00    -0.237 OA
ATOM     84  O   UNL A   1      42.248  18.388  27.583  1.00  0.00    -0.744 OA
ENDBRANCH  80  81
ENDBRANCH  61  75
BRANCH  62  85
ATOM     85  C   UNL A   1      46.477  32.724  28.693  1.00  0.00    -0.014 A 
ATOM     86  C   UNL A   1      47.125  33.047  29.898  1.00  0.00     0.010 A 
ATOM     87  C   UNL A   1      46.265  33.735  27.739  1.00  0.00     0.010 A 
ATOM     88  C   UNL A   1      47.534  34.359  30.155  1.00  0.00     0.020 A 
ATOM     89  C   UNL A   1      46.694  35.043  27.982  1.00  0.00     0.020 A 
ATOM     90  C   UNL A   1      47.317  35.349  29.194  1.00  0.00     0.054 A 
BRANCH  90  91
ATOM     91  S   UNL A   1      47.903  37.035  29.523  1.00  0.00     0.124 S 
ATOM     92  O   UNL A   1      48.973  36.802  30.488  1.00  0.00    -0.237 OA
ATOM     93  O   UNL A   1      48.330  37.486  28.202  1.00  0.00    -0.237 OA
ATOM     94  O   UNL A   1      46.719  37.710  30.051  1.00  0.00    -0.744 OA
ENDBRANCH  90  91
ENDBRANCH  62  85
BRANCH  74  95
ATOM     95  C   UNL A   1      49.479  27.282  25.546  1.00  0.00    -0.014 A 
ATOM     96  C   UNL A   1      50.646  27.010  26.281  1.00  0.00     0.010 A 
ATOM     97  C   UNL A   1      49.556  27.390  24.145  1.00  0.00     0.010 A 
ATOM     98  C   UNL A   1      51.878  26.902  25.633  1.00  0.00     0.020 A 
ATOM     99  C   UNL A   1      50.782  27.255  23.491  1.00  0.00     0.020 A 
ATOM    100  C   UNL A   1      51.939  27.035  24.242  1.00  0.00     0.054 A 
BRANCH 100 101
ATOM    101  S   UNL A   1      53.548  26.890  23.418  1.00  0.00     0.124 S 
ATOM    102  O   UNL A   1      53.999  25.576  23.866  1.00  0.00    -0.237 OA
ATOM    103  O   UNL A   1      53.197  26.986  22.004  1.00  0.00    -0.237 OA
ATOM    104  O   UNL A   1      54.307  28.023  23.944  1.00  0.00    -0.744 OA
ENDBRANCH 100 101
ENDBRANCH  74  95
ENDBRANCH  48  49
ENDBRANCH  40  43
ENDBRANCH  38  39
ENDBRANCH  37  38
ENDBRANCH  36  37
ENDBRANCH   3  36
TORSDOF 19
ENDMDL
MODEL 3
REMARK VINA RESULT:     -10.4      1.217      7.761
REMARK SMILES O=C(COc1ccccc1/C=N/NC(=O)c1cc(-c2ccc(F)cc2)nc2ccccc12)NCCCNC(=O)c1ccc(-c2c3nc(c(-c4ccc(S(=O)(=O)[O-])cc4)c4ccc([nH]4)c(-c4ccc(S(=O)(=O)[O-])cc4)c4nc(c(-c5ccc(S(=O)(=O)[O-])cc5)c5ccc2[nH]5)C=C4)C=C3)cc1
REMARK SMILES IDX 1 1 2 2 33 3 3 5 4 6 5 7 6 8 10 9 7 10 9 11 8 12 11 13 12 14
REMARK SMILES IDX 13 15 14 16 15 18 16 19 17 20 32 21 18 22 27 23 31 24 26 25
REMARK SMILES IDX 28 26 30 27 29 28 19 29 20 30 25 31 21 32 24 33 22 34 23 35
REMARK SMILES IDX 34 36 35 37 36 38 37 39 38 40 39 42 40 43 41 44 99 45 42 46
REMARK SMILES IDX 98 47 43 48 44 49 45 50 92 51 46 52 97 53 91 54 93 55 47 56
REMARK SMILES IDX 96 57 90 58 89 59 48 61 78 62 59 63 77 64 60 65 63 66 76 67
REMARK SMILES IDX 94 68 61 69 62 70 75 72 95 73 64 74 49 75 50 76 58 77 51 78
REMARK SMILES IDX 57 79 52 80 53 81 54 82 55 83 56 84 79 85 80 86 88 87 81 88
REMARK SMILES IDX 87 89 82 90 83 91 84 92 85 93 86 94 65 95 66 96 74 97 67 98
REMARK SMILES IDX 73 99 68 100 69 101 70 102 71 103 72 104
REMARK H PARENT 33 4 13 17 37 41 93 60 63 71
REMARK Flexibility Score: inf
ROOT
ATOM      1  O   UNL A   1      31.019  27.731  26.272  1.00  0.00    -0.271 OA
ATOM      2  C   UNL A   1      31.699  28.573  25.717  1.00  0.00     0.257 C 
ATOM      3  N   UNL A   1      32.919  28.328  25.107  1.00  0.00    -0.353 N 
ATOM      4  H   UNL A   1      33.042  28.585  24.165  1.00  0.00     0.163 HD
ENDROOT
BRANCH   2   5
ATOM      5  C   UNL A   1      31.269  30.027  25.633  1.00  0.00     0.329 C 
BRANCH   5   6
ATOM      6  O   UNL A   1      31.256  30.362  24.253  1.00  0.00    -0.483 OA
BRANCH   6   7
ATOM      7  C   UNL A   1      30.136  30.039  23.553  1.00  0.00     0.128 A 
ATOM      8  C   UNL A   1      29.095  30.937  23.860  1.00  0.00     0.047 A 
ATOM      9  C   UNL A   1      29.866  28.860  22.844  1.00  0.00     0.037 A 
ATOM     10  C   UNL A   1      27.778  30.679  23.505  1.00  0.00     0.004 A 
ATOM     11  C   UNL A   1      28.510  28.610  22.517  1.00  0.00     0.013 A 
ATOM     12  C   UNL A   1      27.481  29.499  22.847  1.00  0.00     0.001 A 
BRANCH   9  13
ATOM     13  C   UNL A   1      30.740  27.714  22.432  1.00  0.00     0.145 C 
ATOM     14  N   UNL A   1      32.042  27.593  22.314  1.00  0.00    -0.180 NA
BRANCH  14  15
ATOM     15  N   UNL A   1      32.347  26.417  21.630  1.00  0.00    -0.243 N 
ATOM     16  C   UNL A   1      32.981  25.219  21.938  1.00  0.00     0.272 C 
ATOM     17  H   UNL A   1      32.034  26.440  20.697  1.00  0.00     0.194 HD
ATOM     18  O   UNL A   1      33.195  24.510  20.947  1.00  0.00    -0.267 OA
BRANCH  16  19
ATOM     19  C   UNL A   1      33.299  24.678  23.297  1.00  0.00     0.053 A 
ATOM     20  C   UNL A   1      34.558  24.149  23.592  1.00  0.00     0.043 A 
ATOM     21  C   UNL A   1      32.259  24.609  24.316  1.00  0.00     0.013 A 
ATOM     22  C   UNL A   1      34.816  23.826  24.916  1.00  0.00     0.072 A 
ATOM     23  C   UNL A   1      32.696  24.353  25.622  1.00  0.00     0.072 A 
ATOM     24  C   UNL A   1      30.839  24.696  24.183  1.00  0.00     0.011 A 
ATOM     25  N   UNL A   1      33.946  24.093  25.910  1.00  0.00    -0.248 NA
ATOM     26  C   UNL A   1      31.843  24.234  26.704  1.00  0.00     0.029 A 
ATOM     27  C   UNL A   1      29.966  24.486  25.266  1.00  0.00     0.001 A 
ATOM     28  C   UNL A   1      30.472  24.266  26.537  1.00  0.00     0.002 A 
BRANCH  22  29
ATOM     29  C   UNL A   1      35.873  22.993  25.501  1.00  0.00     0.000 A 
ATOM     30  C   UNL A   1      36.862  23.675  26.246  1.00  0.00     0.013 A 
ATOM     31  C   UNL A   1      36.220  21.776  24.885  1.00  0.00     0.013 A 
ATOM     32  C   UNL A   1      38.186  23.236  26.240  1.00  0.00     0.040 A 
ATOM     33  C   UNL A   1      37.543  21.327  24.900  1.00  0.00     0.040 A 
ATOM     34  C   UNL A   1      38.517  22.083  25.542  1.00  0.00     0.123 A 
ATOM     35  F   UNL A   1      39.804  21.728  25.437  1.00  0.00    -0.207 F 
ENDBRANCH  22  29
ENDBRANCH  16  19
ENDBRANCH  14  15
ENDBRANCH   9  13
ENDBRANCH   6   7
ENDBRANCH   5   6
ENDBRANCH   2   5
BRANCH   3  36
ATOM     36  C   UNL A   1      34.014  27.706  25.811  1.00  0.00     0.117 C 
BRANCH  36  37
ATOM     37  C   UNL A   1      34.431  28.351  27.102  1.00  0.00     0.042 C 
BRANCH  37  38
ATOM     38  C   UNL A   1      35.277  29.575  26.884  1.00  0.00     0.118 C 
BRANCH  38  39
ATOM     39  N   UNL A   1      34.699  30.771  27.483  1.00  0.00    -0.352 N 
ATOM     40  C   UNL A   1      35.093  31.448  28.608  1.00  0.00     0.251 C 
ATOM     41  H   UNL A   1      33.918  31.145  27.014  1.00  0.00     0.163 HD
ATOM     42  O   UNL A   1      34.393  32.352  29.052  1.00  0.00    -0.269 OA
BRANCH  40  43
ATOM     43  C   UNL A   1      36.347  31.057  29.286  1.00  0.00     0.039 A 
ATOM     44  C   UNL A   1      36.309  30.049  30.248  1.00  0.00     0.014 A 
ATOM     45  C   UNL A   1      37.561  31.665  28.951  1.00  0.00     0.014 A 
ATOM     46  C   UNL A   1      37.498  29.630  30.844  1.00  0.00     0.010 A 
ATOM     47  C   UNL A   1      38.751  31.148  29.436  1.00  0.00     0.010 A 
ATOM     48  C   UNL A   1      38.731  30.161  30.425  1.00  0.00    -0.014 A 
BRANCH  48  49
ATOM     49  C   UNL A   1      39.998  29.747  31.066  1.00  0.00     0.031 A 
ATOM     50  C   UNL A   1      40.821  28.643  30.451  1.00  0.00     0.074 A 
ATOM     51  C   UNL A   1      40.396  30.346  32.204  1.00  0.00     0.049 A 
ATOM     52  N   UNL A   1      41.982  28.174  30.829  1.00  0.00    -0.248 NA
ATOM     53  C   UNL A   1      40.255  27.953  29.279  1.00  0.00     0.031 C 
ATOM     54  C   UNL A   1      39.641  31.369  32.935  1.00  0.00     0.029 A 
ATOM     55  N   UNL A   1      41.544  30.196  32.936  1.00  0.00    -0.354 N 
ATOM     56  C   UNL A   1      42.267  27.128  29.958  1.00  0.00     0.074 A 
ATOM     57  C   UNL A   1      41.132  26.983  29.078  1.00  0.00     0.031 C 
ATOM     58  C   UNL A   1      40.374  31.794  33.977  1.00  0.00     0.029 A 
ATOM     59  C   UNL A   1      41.634  31.060  34.002  1.00  0.00     0.049 A 
ATOM     60  H   UNL A   1      42.239  29.532  32.720  1.00  0.00     0.167 HD
ATOM     61  C   UNL A   1      43.389  26.378  29.871  1.00  0.00     0.031 A 
ATOM     62  C   UNL A   1      42.634  31.252  34.882  1.00  0.00     0.031 A 
ATOM     63  C   UNL A   1      44.529  26.550  30.728  1.00  0.00     0.049 A 
ATOM     64  C   UNL A   1      43.898  30.452  34.728  1.00  0.00     0.074 A 
ATOM     65  C   UNL A   1      45.744  25.891  30.692  1.00  0.00     0.029 A 
ATOM     66  N   UNL A   1      44.595  27.457  31.775  1.00  0.00    -0.354 N 
ATOM     67  N   UNL A   1      44.182  29.521  33.847  1.00  0.00    -0.248 NA
ATOM     68  C   UNL A   1      44.984  30.746  35.671  1.00  0.00     0.031 C 
ATOM     69  C   UNL A   1      46.534  26.377  31.740  1.00  0.00     0.029 A 
ATOM     70  C   UNL A   1      45.826  27.372  32.398  1.00  0.00     0.049 A 
ATOM     71  H   UNL A   1      43.871  28.072  32.035  1.00  0.00     0.167 HD
ATOM     72  C   UNL A   1      45.489  29.133  34.118  1.00  0.00     0.074 A 
ATOM     73  C   UNL A   1      45.944  29.948  35.227  1.00  0.00     0.031 C 
ATOM     74  C   UNL A   1      46.248  28.188  33.506  1.00  0.00     0.031 A 
BRANCH  61  75
ATOM     75  C   UNL A   1      43.432  25.316  28.803  1.00  0.00    -0.014 A 
ATOM     76  C   UNL A   1      42.781  24.081  28.981  1.00  0.00     0.010 A 
ATOM     77  C   UNL A   1      44.122  25.558  27.601  1.00  0.00     0.010 A 
ATOM     78  C   UNL A   1      42.858  23.090  27.999  1.00  0.00     0.020 A 
ATOM     79  C   UNL A   1      44.175  24.580  26.603  1.00  0.00     0.020 A 
ATOM     80  C   UNL A   1      43.559  23.344  26.817  1.00  0.00     0.054 A 
BRANCH  80  81
ATOM     81  S   UNL A   1      43.625  22.049  25.548  1.00  0.00     0.124 S 
ATOM     82  O   UNL A   1      45.060  21.793  25.454  1.00  0.00    -0.237 OA
ATOM     83  O   UNL A   1      42.835  20.975  26.144  1.00  0.00    -0.237 OA
ATOM     84  O   UNL A   1      43.026  22.681  24.376  1.00  0.00    -0.744 OA
ENDBRANCH  80  81
ENDBRANCH  61  75
BRANCH  62  85
ATOM     85  C   UNL A   1      42.499  32.284  35.944  1.00  0.00    -0.014 A 
ATOM     86  C   UNL A   1      41.960  31.948  37.199  1.00  0.00     0.010 A 
ATOM     87  C   UNL A   1      42.929  33.602  35.716  1.00  0.00     0.010 A 
ATOM     88  C   UNL A   1      41.833  32.917  38.199  1.00  0.00     0.020 A 
ATOM     89  C   UNL A   1      42.827  34.568  36.722  1.00  0.00     0.020 A 
ATOM     90  C   UNL A   1      42.269  34.221  37.954  1.00  0.00     0.054 A 
BRANCH  90  91
ATOM     91  S   UNL A   1      42.146  35.451  39.282  1.00  0.00     0.124 S 
ATOM     92  O   UNL A   1      43.316  36.287  39.032  1.00  0.00    -0.237 OA
ATOM     93  O   UNL A   1      40.853  36.077  39.018  1.00  0.00    -0.237 OA
ATOM     94  O   UNL A   1      42.201  34.644  40.499  1.00  0.00    -0.744 OA
ENDBRANCH  90  91
ENDBRANCH  62  85
BRANCH  74  95
ATOM     95  C   UNL A   1      47.652  28.012  34.014  1.00  0.00    -0.014 A 
ATOM     96  C   UNL A   1      47.959  27.037  34.979  1.00  0.00     0.010 A 
ATOM     97  C   UNL A   1      48.681  28.825  33.503  1.00  0.00     0.010 A 
ATOM     98  C   UNL A   1      49.263  26.914  35.465  1.00  0.00     0.020 A 
ATOM     99  C   UNL A   1      49.990  28.685  33.966  1.00  0.00     0.020 A 
ATOM    100  C   UNL A   1      50.268  27.746  34.962  1.00  0.00     0.054 A 
BRANCH 100 101
ATOM    101  S   UNL A   1      51.954  27.570  35.605  1.00  0.00     0.124 S 
ATOM    102  O   UNL A   1      51.822  26.410  36.482  1.00  0.00    -0.237 OA
ATOM    103  O   UNL A   1      52.742  27.357  34.394  1.00  0.00    -0.237 OA
ATOM    104  O   UNL A   1      52.199  28.840  36.284  1.00  0.00    -0.744 OA
ENDBRANCH 100 101
ENDBRANCH  74  95
ENDBRANCH  48  49
ENDBRANCH  40  43
ENDBRANCH  38  39
ENDBRANCH  37  38
ENDBRANCH  36  37
ENDBRANCH   3  36
TORSDOF 19
ENDMDL
