MODEL 1
REMARK VINA RESULT:     -11.8      0.000      0.000
REMARK SMILES CC1(C)C(n2c(SCC(=O)NCCCNC(=O)c3ccc(-c4c5nc(c(-c6ccc(S(=O)(=O)[O-])cc6)c6ccc([nH]6)c(-c6ccc(S(=O)(=O)[O-])cc6)c6nc(c(-c7ccc(S(=O)(=O)[O-])cc7)c7ccc4[nH]7)C=C6)C=C5)cc3)nc3cnccc32)C1(C)C
REMARK SMILES IDX 13 1 12 2 11 3 9 4 10 5 8 7 7 8 6 9 5 10 84 11 78 12 79 13
REMARK SMILES IDX 83 14 80 15 82 16 81 17 4 18 1 19 2 20 3 21 85 22 86 23
REMARK SMILES IDX 87 24 14 25 15 26 16 27 17 29 18 30 19 31 77 32 20 33 76 34
REMARK SMILES IDX 21 35 22 36 23 37 70 38 24 39 75 40 69 41 71 42 25 43 74 44
REMARK SMILES IDX 68 45 67 46 26 48 56 49 37 50 55 51 38 52 41 53 54 54 72 55
REMARK SMILES IDX 39 56 40 57 53 59 73 60 42 61 27 62 28 63 36 64 29 65 35 66
REMARK SMILES IDX 30 67 31 68 32 69 33 70 34 71 57 72 58 73 66 74 59 75 65 76
REMARK SMILES IDX 60 77 61 78 62 79 63 80 64 81 43 82 44 83 52 84 45 85 51 86
REMARK SMILES IDX 46 87 47 88 48 89 49 90 50 91
REMARK H PARENT 11 6 15 28 71 47 41 58
REMARK Flexibility Score: inf
ROOT
ATOM      1  C   UNL A   1      39.010  22.803  26.309  1.00  0.00     0.042 C 
ENDROOT
BRANCH   1   2
ATOM      2  C   UNL A   1      37.846  22.063  25.653  1.00  0.00     0.117 C 
BRANCH   2   3
ATOM      3  N   UNL A   1      37.361  22.791  24.501  1.00  0.00    -0.355 N 
ATOM      4  C   UNL A   1      36.248  23.554  24.376  1.00  0.00     0.230 C 
ATOM      5  O   UNL A   1      35.839  23.742  23.230  1.00  0.00    -0.274 OA
ATOM      6  H   UNL A   1      37.918  22.721  23.693  1.00  0.00     0.163 HD
BRANCH   4   7
ATOM      7  C   UNL A   1      35.637  24.223  25.584  1.00  0.00     0.178 C 
BRANCH   7   8
ATOM      8  S   UNL A   1      33.897  24.544  25.510  1.00  0.00    -0.078 SA
BRANCH   8   9
ATOM      9  C   UNL A   1      33.487  26.214  25.671  1.00  0.00     0.169 A 
ATOM     10  N   UNL A   1      32.447  26.989  25.184  1.00  0.00    -0.315 N 
ATOM     11  C   UNL A   1      32.546  28.227  25.815  1.00  0.00     0.072 A 
ATOM     12  N   UNL A   1      34.344  26.960  26.341  1.00  0.00    -0.221 NA
ATOM     13  C   UNL A   1      33.771  28.188  26.471  1.00  0.00     0.108 A 
ATOM     14  C   UNL A   1      31.720  29.350  25.911  1.00  0.00     0.049 A 
ATOM     15  C   UNL A   1      34.215  29.311  27.177  1.00  0.00     0.141 A 
ATOM     16  C   UNL A   1      32.237  30.413  26.641  1.00  0.00     0.113 A 
ATOM     17  N   UNL A   1      33.442  30.427  27.250  1.00  0.00    -0.262 NA
BRANCH  10  18
ATOM     18  C   UNL A   1      31.231  26.597  24.495  1.00  0.00     0.102 C 
ATOM     19  C   UNL A   1      29.168  27.701  23.396  1.00  0.00     0.014 C 
ATOM     20  C   UNL A   1      30.632  27.318  23.291  1.00  0.00    -0.007 C 
ATOM     21  C   UNL A   1      31.417  28.300  22.447  1.00  0.00     0.014 C 
ATOM     22  C   UNL A   1      31.035  25.825  23.193  1.00  0.00    -0.007 C 
ATOM     23  C   UNL A   1      29.897  24.821  23.086  1.00  0.00     0.014 C 
ATOM     24  C   UNL A   1      32.238  25.431  22.353  1.00  0.00     0.014 C 
ENDBRANCH  10  18
ENDBRANCH   8   9
ENDBRANCH   7   8
ENDBRANCH   4   7
ENDBRANCH   2   3
ENDBRANCH   1   2
BRANCH   1  25
ATOM     25  C   UNL A   1      40.139  21.897  26.824  1.00  0.00     0.118 C 
BRANCH  25  26
ATOM     26  N   UNL A   1      41.412  22.026  26.135  1.00  0.00    -0.352 N 
ATOM     27  C   UNL A   1      42.354  23.010  26.017  1.00  0.00     0.251 C 
ATOM     28  H   UNL A   1      41.653  21.213  25.635  1.00  0.00     0.163 HD
ATOM     29  O   UNL A   1      43.357  22.721  25.360  1.00  0.00    -0.269 OA
BRANCH  27  30
ATOM     30  C   UNL A   1      42.230  24.382  26.580  1.00  0.00     0.039 A 
ATOM     31  C   UNL A   1      42.599  24.755  27.870  1.00  0.00     0.014 A 
ATOM     32  C   UNL A   1      41.678  25.361  25.735  1.00  0.00     0.014 A 
ATOM     33  C   UNL A   1      42.314  26.030  28.346  1.00  0.00     0.010 A 
ATOM     34  C   UNL A   1      41.439  26.656  26.191  1.00  0.00     0.010 A 
ATOM     35  C   UNL A   1      41.708  26.979  27.519  1.00  0.00    -0.014 A 
BRANCH  35  36
ATOM     36  C   UNL A   1      41.395  28.277  28.113  1.00  0.00     0.031 A 
ATOM     37  C   UNL A   1      42.421  29.357  27.974  1.00  0.00     0.074 A 
ATOM     38  C   UNL A   1      40.237  28.557  28.741  1.00  0.00     0.049 A 
ATOM     39  N   UNL A   1      43.069  29.979  28.907  1.00  0.00    -0.248 NA
ATOM     40  C   UNL A   1      42.801  29.759  26.613  1.00  0.00     0.031 C 
ATOM     41  C   UNL A   1      38.987  27.794  28.763  1.00  0.00     0.029 A 
ATOM     42  N   UNL A   1      39.928  29.680  29.449  1.00  0.00    -0.354 N 
ATOM     43  C   UNL A   1      43.872  30.928  28.271  1.00  0.00     0.074 A 
ATOM     44  C   UNL A   1      43.707  30.709  26.854  1.00  0.00     0.031 C 
ATOM     45  C   UNL A   1      37.997  28.578  29.249  1.00  0.00     0.029 A 
ATOM     46  C   UNL A   1      38.582  29.816  29.731  1.00  0.00     0.049 A 
ATOM     47  H   UNL A   1      40.604  30.336  29.734  1.00  0.00     0.167 HD
ATOM     48  C   UNL A   1      44.567  31.894  28.936  1.00  0.00     0.031 A 
ATOM     49  C   UNL A   1      37.983  30.901  30.273  1.00  0.00     0.031 A 
ATOM     50  C   UNL A   1      44.663  31.628  30.343  1.00  0.00     0.049 A 
ATOM     51  C   UNL A   1      39.019  31.670  31.000  1.00  0.00     0.074 A 
ATOM     52  C   UNL A   1      45.314  30.683  31.109  1.00  0.00     0.029 A 
ATOM     53  N   UNL A   1      43.763  32.242  31.179  1.00  0.00    -0.354 N 
ATOM     54  N   UNL A   1      39.634  31.238  32.067  1.00  0.00    -0.248 NA
ATOM     55  C   UNL A   1      39.644  32.803  30.337  1.00  0.00     0.031 C 
ATOM     56  C   UNL A   1      44.459  30.459  32.224  1.00  0.00     0.029 A 
ATOM     57  C   UNL A   1      43.348  31.297  32.084  1.00  0.00     0.049 A 
ATOM     58  H   UNL A   1      43.471  33.180  31.136  1.00  0.00     0.167 HD
ATOM     59  C   UNL A   1      40.910  31.776  31.989  1.00  0.00     0.074 A 
ATOM     60  C   UNL A   1      40.816  32.821  30.975  1.00  0.00     0.031 C 
ATOM     61  C   UNL A   1      41.984  31.156  32.561  1.00  0.00     0.031 A 
BRANCH  48  62
ATOM     62  C   UNL A   1      45.032  33.198  28.343  1.00  0.00    -0.014 A 
ATOM     63  C   UNL A   1      44.144  34.244  28.024  1.00  0.00     0.010 A 
ATOM     64  C   UNL A   1      46.412  33.495  28.297  1.00  0.00     0.010 A 
ATOM     65  C   UNL A   1      44.601  35.512  27.647  1.00  0.00     0.020 A 
ATOM     66  C   UNL A   1      46.879  34.774  27.960  1.00  0.00     0.020 A 
ATOM     67  C   UNL A   1      45.967  35.775  27.632  1.00  0.00     0.054 A 
BRANCH  67  68
ATOM     68  S   UNL A   1      46.512  37.465  27.273  1.00  0.00     0.124 S 
ATOM     69  O   UNL A   1      45.305  38.238  27.553  1.00  0.00    -0.237 OA
ATOM     70  O   UNL A   1      47.610  37.648  28.219  1.00  0.00    -0.237 OA
ATOM     71  O   UNL A   1      46.907  37.409  25.867  1.00  0.00    -0.744 OA
ENDBRANCH  67  68
ENDBRANCH  48  62
BRANCH  49  72
ATOM     72  C   UNL A   1      36.720  31.516  29.803  1.00  0.00    -0.014 A 
ATOM     73  C   UNL A   1      36.690  32.184  28.561  1.00  0.00     0.010 A 
ATOM     74  C   UNL A   1      35.650  31.722  30.693  1.00  0.00     0.010 A 
ATOM     75  C   UNL A   1      35.670  33.087  28.247  1.00  0.00     0.020 A 
ATOM     76  C   UNL A   1      34.625  32.628  30.385  1.00  0.00     0.020 A 
ATOM     77  C   UNL A   1      34.664  33.332  29.180  1.00  0.00     0.054 A 
BRANCH  77  78
ATOM     78  S   UNL A   1      33.471  34.653  28.823  1.00  0.00     0.124 S 
ATOM     79  O   UNL A   1      32.555  33.992  27.899  1.00  0.00    -0.237 OA
ATOM     80  O   UNL A   1      32.923  34.947  30.146  1.00  0.00    -0.237 OA
ATOM     81  O   UNL A   1      34.291  35.712  28.242  1.00  0.00    -0.744 OA
ENDBRANCH  77  78
ENDBRANCH  49  72
BRANCH  61  82
ATOM     82  C   UNL A   1      41.744  30.012  33.526  1.00  0.00    -0.014 A 
ATOM     83  C   UNL A   1      42.032  30.224  34.888  1.00  0.00     0.010 A 
ATOM     84  C   UNL A   1      41.480  28.696  33.095  1.00  0.00     0.010 A 
ATOM     85  C   UNL A   1      42.108  29.152  35.783  1.00  0.00     0.020 A 
ATOM     86  C   UNL A   1      41.532  27.619  33.993  1.00  0.00     0.020 A 
ATOM     87  C   UNL A   1      41.880  27.853  35.326  1.00  0.00     0.054 A 
BRANCH  87  88
ATOM     88  S   UNL A   1      42.093  26.477  36.490  1.00  0.00     0.124 S 
ATOM     89  O   UNL A   1      42.772  25.479  35.666  1.00  0.00    -0.237 OA
ATOM     90  O   UNL A   1      42.908  27.070  37.548  1.00  0.00    -0.237 OA
ATOM     91  O   UNL A   1      40.729  26.130  36.884  1.00  0.00    -0.744 OA
ENDBRANCH  87  88
ENDBRANCH  61  82
ENDBRANCH  35  36
ENDBRANCH  27  30
ENDBRANCH  25  26
ENDBRANCH   1  25
TORSDOF 16
ENDMDL
MODEL 2
REMARK VINA RESULT:     -11.6      1.768      3.272
REMARK SMILES CC1(C)C(n2c(SCC(=O)NCCCNC(=O)c3ccc(-c4c5nc(c(-c6ccc(S(=O)(=O)[O-])cc6)c6ccc([nH]6)c(-c6ccc(S(=O)(=O)[O-])cc6)c6nc(c(-c7ccc(S(=O)(=O)[O-])cc7)c7ccc4[nH]7)C=C6)C=C5)cc3)nc3cnccc32)C1(C)C
REMARK SMILES IDX 13 1 12 2 11 3 9 4 10 5 8 7 7 8 6 9 5 10 84 11 78 12 79 13
REMARK SMILES IDX 83 14 80 15 82 16 81 17 4 18 1 19 2 20 3 21 85 22 86 23
REMARK SMILES IDX 87 24 14 25 15 26 16 27 17 29 18 30 19 31 77 32 20 33 76 34
REMARK SMILES IDX 21 35 22 36 23 37 70 38 24 39 75 40 69 41 71 42 25 43 74 44
REMARK SMILES IDX 68 45 67 46 26 48 56 49 37 50 55 51 38 52 41 53 54 54 72 55
REMARK SMILES IDX 39 56 40 57 53 59 73 60 42 61 27 62 28 63 36 64 29 65 35 66
REMARK SMILES IDX 30 67 31 68 32 69 33 70 34 71 57 72 58 73 66 74 59 75 65 76
REMARK SMILES IDX 60 77 61 78 62 79 63 80 64 81 43 82 44 83 52 84 45 85 51 86
REMARK SMILES IDX 46 87 47 88 48 89 49 90 50 91
REMARK H PARENT 11 6 15 28 71 47 41 58
REMARK Flexibility Score: inf
ROOT
ATOM      1  C   UNL A   1      40.984  20.833  27.388  1.00  0.00     0.042 C 
ENDROOT
BRANCH   1   2
ATOM      2  C   UNL A   1      39.854  21.418  26.544  1.00  0.00     0.117 C 
BRANCH   2   3
ATOM      3  N   UNL A   1      39.407  22.680  27.090  1.00  0.00    -0.355 N 
ATOM      4  C   UNL A   1      38.701  23.672  26.493  1.00  0.00     0.230 C 
ATOM      5  O   UNL A   1      38.779  24.787  27.010  1.00  0.00    -0.274 OA
ATOM      6  H   UNL A   1      39.650  22.843  28.030  1.00  0.00     0.163 HD
BRANCH   4   7
ATOM      7  C   UNL A   1      37.786  23.368  25.332  1.00  0.00     0.178 C 
BRANCH   7   8
ATOM      8  S   UNL A   1      36.079  23.792  25.542  1.00  0.00    -0.078 SA
BRANCH   8   9
ATOM      9  C   UNL A   1      34.986  22.523  25.122  1.00  0.00     0.169 A 
ATOM     10  N   UNL A   1      33.698  22.507  24.612  1.00  0.00    -0.315 N 
ATOM     11  C   UNL A   1      33.413  21.180  24.298  1.00  0.00     0.072 A 
ATOM     12  N   UNL A   1      35.397  21.295  25.377  1.00  0.00    -0.221 NA
ATOM     13  C   UNL A   1      34.465  20.456  24.849  1.00  0.00     0.108 A 
ATOM     14  C   UNL A   1      32.394  20.534  23.592  1.00  0.00     0.049 A 
ATOM     15  C   UNL A   1      34.467  19.060  24.758  1.00  0.00     0.141 A 
ATOM     16  C   UNL A   1      32.484  19.149  23.544  1.00  0.00     0.113 A 
ATOM     17  N   UNL A   1      33.465  18.412  24.109  1.00  0.00    -0.262 NA
BRANCH  10  18
ATOM     18  C   UNL A   1      32.886  23.590  24.088  1.00  0.00     0.102 C 
ATOM     19  C   UNL A   1      30.460  24.003  23.298  1.00  0.00     0.014 C 
ATOM     20  C   UNL A   1      31.428  23.851  24.456  1.00  0.00    -0.007 C 
ATOM     21  C   UNL A   1      30.767  23.245  25.674  1.00  0.00     0.014 C 
ATOM     22  C   UNL A   1      32.509  24.934  24.706  1.00  0.00    -0.007 C 
ATOM     23  C   UNL A   1      32.448  26.170  23.821  1.00  0.00     0.014 C 
ATOM     24  C   UNL A   1      32.922  25.259  26.131  1.00  0.00     0.014 C 
ENDBRANCH  10  18
ENDBRANCH   8   9
ENDBRANCH   7   8
ENDBRANCH   4   7
ENDBRANCH   2   3
ENDBRANCH   1   2
BRANCH   1  25
ATOM     25  C   UNL A   1      42.273  21.669  27.406  1.00  0.00     0.118 C 
BRANCH  25  26
ATOM     26  N   UNL A   1      42.750  22.118  26.109  1.00  0.00    -0.352 N 
ATOM     27  C   UNL A   1      43.028  23.332  25.546  1.00  0.00     0.251 C 
ATOM     28  H   UNL A   1      42.909  21.370  25.488  1.00  0.00     0.163 HD
ATOM     29  O   UNL A   1      43.470  23.305  24.395  1.00  0.00    -0.269 OA
BRANCH  27  30
ATOM     30  C   UNL A   1      42.800  24.648  26.201  1.00  0.00     0.039 A 
ATOM     31  C   UNL A   1      43.352  25.046  27.416  1.00  0.00     0.014 A 
ATOM     32  C   UNL A   1      41.941  25.541  25.535  1.00  0.00     0.014 A 
ATOM     33  C   UNL A   1      42.966  26.242  28.011  1.00  0.00     0.010 A 
ATOM     34  C   UNL A   1      41.592  26.766  26.103  1.00  0.00     0.010 A 
ATOM     35  C   UNL A   1      42.064  27.095  27.371  1.00  0.00    -0.014 A 
BRANCH  35  36
ATOM     36  C   UNL A   1      41.671  28.307  28.089  1.00  0.00     0.031 A 
ATOM     37  C   UNL A   1      42.649  29.438  28.106  1.00  0.00     0.074 A 
ATOM     38  C   UNL A   1      40.480  28.467  28.697  1.00  0.00     0.049 A 
ATOM     39  N   UNL A   1      43.235  29.982  29.125  1.00  0.00    -0.248 NA
ATOM     40  C   UNL A   1      43.057  30.002  26.812  1.00  0.00     0.031 C 
ATOM     41  C   UNL A   1      39.267  27.653  28.588  1.00  0.00     0.029 A 
ATOM     42  N   UNL A   1      40.095  29.492  29.508  1.00  0.00    -0.354 N 
ATOM     43  C   UNL A   1      44.014  31.028  28.626  1.00  0.00     0.074 A 
ATOM     44  C   UNL A   1      43.909  30.957  27.189  1.00  0.00     0.031 C 
ATOM     45  C   UNL A   1      38.225  28.337  29.116  1.00  0.00     0.029 A 
ATOM     46  C   UNL A   1      38.735  29.539  29.751  1.00  0.00     0.049 A 
ATOM     47  H   UNL A   1      40.729  30.141  29.889  1.00  0.00     0.167 HD
ATOM     48  C   UNL A   1      44.641  31.945  29.418  1.00  0.00     0.031 A 
ATOM     49  C   UNL A   1      38.068  30.532  30.382  1.00  0.00     0.031 A 
ATOM     50  C   UNL A   1      44.701  31.531  30.791  1.00  0.00     0.049 A 
ATOM     51  C   UNL A   1      39.042  31.261  31.227  1.00  0.00     0.074 A 
ATOM     52  C   UNL A   1      45.368  30.538  31.476  1.00  0.00     0.029 A 
ATOM     53  N   UNL A   1      43.745  32.011  31.652  1.00  0.00    -0.354 N 
ATOM     54  N   UNL A   1      39.639  30.742  32.265  1.00  0.00    -0.248 NA
ATOM     55  C   UNL A   1      39.636  32.485  30.714  1.00  0.00     0.031 C 
ATOM     56  C   UNL A   1      44.486  30.157  32.526  1.00  0.00     0.029 A 
ATOM     57  C   UNL A   1      43.343  30.957  32.434  1.00  0.00     0.049 A 
ATOM     58  H   UNL A   1      43.411  32.935  31.699  1.00  0.00     0.167 HD
ATOM     59  C   UNL A   1      40.890  31.340  32.295  1.00  0.00     0.074 A 
ATOM     60  C   UNL A   1      40.782  32.483  31.396  1.00  0.00     0.031 C 
ATOM     61  C   UNL A   1      41.972  30.707  32.839  1.00  0.00     0.031 A 
BRANCH  48  62
ATOM     62  C   UNL A   1      45.065  33.324  28.987  1.00  0.00    -0.014 A 
ATOM     63  C   UNL A   1      44.150  34.280  28.501  1.00  0.00     0.010 A 
ATOM     64  C   UNL A   1      46.372  33.776  29.269  1.00  0.00     0.010 A 
ATOM     65  C   UNL A   1      44.521  35.610  28.277  1.00  0.00     0.020 A 
ATOM     66  C   UNL A   1      46.743  35.117  29.086  1.00  0.00     0.020 A 
ATOM     67  C   UNL A   1      45.814  36.026  28.586  1.00  0.00     0.054 A 
BRANCH  67  68
ATOM     68  S   UNL A   1      46.214  37.784  28.412  1.00  0.00     0.124 S 
ATOM     69  O   UNL A   1      47.479  37.736  27.683  1.00  0.00    -0.237 OA
ATOM     70  O   UNL A   1      45.072  38.294  27.659  1.00  0.00    -0.237 OA
ATOM     71  O   UNL A   1      46.307  38.254  29.793  1.00  0.00    -0.744 OA
ENDBRANCH  67  68
ENDBRANCH  48  62
BRANCH  49  72
ATOM     72  C   UNL A   1      36.794  31.141  29.932  1.00  0.00    -0.014 A 
ATOM     73  C   UNL A   1      36.629  31.487  28.574  1.00  0.00     0.010 A 
ATOM     74  C   UNL A   1      35.882  31.663  30.866  1.00  0.00     0.010 A 
ATOM     75  C   UNL A   1      35.638  32.386  28.171  1.00  0.00     0.020 A 
ATOM     76  C   UNL A   1      34.886  32.567  30.468  1.00  0.00     0.020 A 
ATOM     77  C   UNL A   1      34.797  32.950  29.128  1.00  0.00     0.054 A 
BRANCH  77  78
ATOM     78  S   UNL A   1      33.657  34.260  28.598  1.00  0.00     0.124 S 
ATOM     79  O   UNL A   1      33.027  34.641  29.859  1.00  0.00    -0.237 OA
ATOM     80  O   UNL A   1      34.565  35.253  28.025  1.00  0.00    -0.237 OA
ATOM     81  O   UNL A   1      32.784  33.592  27.637  1.00  0.00    -0.744 OA
ENDBRANCH  77  78
ENDBRANCH  49  72
BRANCH  61  82
ATOM     82  C   UNL A   1      41.753  29.455  33.666  1.00  0.00    -0.014 A 
ATOM     83  C   UNL A   1      41.597  29.601  35.058  1.00  0.00     0.010 A 
ATOM     84  C   UNL A   1      41.935  28.158  33.145  1.00  0.00     0.010 A 
ATOM     85  C   UNL A   1      41.675  28.496  35.910  1.00  0.00     0.020 A 
ATOM     86  C   UNL A   1      41.990  27.042  33.993  1.00  0.00     0.020 A 
ATOM     87  C   UNL A   1      41.893  27.224  35.375  1.00  0.00     0.054 A 
BRANCH  87  88
ATOM     88  S   UNL A   1      42.097  25.829  36.518  1.00  0.00     0.124 S 
ATOM     89  O   UNL A   1      41.377  24.760  35.828  1.00  0.00    -0.237 OA
ATOM     90  O   UNL A   1      43.547  25.666  36.577  1.00  0.00    -0.237 OA
ATOM     91  O   UNL A   1      41.476  26.293  37.757  1.00  0.00    -0.744 OA
ENDBRANCH  87  88
ENDBRANCH  61  82
ENDBRANCH  35  36
ENDBRANCH  27  30
ENDBRANCH  25  26
ENDBRANCH   1  25
TORSDOF 16
ENDMDL
MODEL 3
REMARK VINA RESULT:     -11.4      2.977      9.427
REMARK SMILES CC1(C)C(n2c(SCC(=O)NCCCNC(=O)c3ccc(-c4c5nc(c(-c6ccc(S(=O)(=O)[O-])cc6)c6ccc([nH]6)c(-c6ccc(S(=O)(=O)[O-])cc6)c6nc(c(-c7ccc(S(=O)(=O)[O-])cc7)c7ccc4[nH]7)C=C6)C=C5)cc3)nc3cnccc32)C1(C)C
REMARK SMILES IDX 13 1 12 2 11 3 9 4 10 5 8 7 7 8 6 9 5 10 84 11 78 12 79 13
REMARK SMILES IDX 83 14 80 15 82 16 81 17 4 18 1 19 2 20 3 21 85 22 86 23
REMARK SMILES IDX 87 24 14 25 15 26 16 27 17 29 18 30 19 31 77 32 20 33 76 34
REMARK SMILES IDX 21 35 22 36 23 37 70 38 24 39 75 40 69 41 71 42 25 43 74 44
REMARK SMILES IDX 68 45 67 46 26 48 56 49 37 50 55 51 38 52 41 53 54 54 72 55
REMARK SMILES IDX 39 56 40 57 53 59 73 60 42 61 27 62 28 63 36 64 29 65 35 66
REMARK SMILES IDX 30 67 31 68 32 69 33 70 34 71 57 72 58 73 66 74 59 75 65 76
REMARK SMILES IDX 60 77 61 78 62 79 63 80 64 81 43 82 44 83 52 84 45 85 51 86
REMARK SMILES IDX 46 87 47 88 48 89 49 90 50 91
REMARK H PARENT 11 6 15 28 71 47 41 58
REMARK Flexibility Score: inf
ROOT
ATOM      1  C   UNL A   1      34.448  32.338  28.064  1.00  0.00     0.042 C 
ENDROOT
BRANCH   1   2
ATOM      2  C   UNL A   1      34.775  30.895  27.688  1.00  0.00     0.117 C 
BRANCH   2   3
ATOM      3  N   UNL A   1      33.616  30.047  27.852  1.00  0.00    -0.355 N 
ATOM      4  C   UNL A   1      33.169  29.042  27.059  1.00  0.00     0.230 C 
ATOM      5  O   UNL A   1      31.982  28.737  27.177  1.00  0.00    -0.274 OA
ATOM      6  H   UNL A   1      33.072  30.225  28.653  1.00  0.00     0.163 HD
BRANCH   4   7
ATOM      7  C   UNL A   1      34.127  28.279  26.177  1.00  0.00     0.178 C 
BRANCH   7   8
ATOM      8  S   UNL A   1      33.721  28.201  24.454  1.00  0.00    -0.078 SA
BRANCH   8   9
ATOM      9  C   UNL A   1      32.085  27.749  24.141  1.00  0.00     0.169 A 
ATOM     10  N   UNL A   1      31.350  26.601  24.389  1.00  0.00    -0.315 N 
ATOM     11  C   UNL A   1      30.026  26.903  24.085  1.00  0.00     0.072 A 
ATOM     12  N   UNL A   1      31.357  28.627  23.476  1.00  0.00    -0.221 NA
ATOM     13  C   UNL A   1      30.085  28.145  23.461  1.00  0.00     0.108 A 
ATOM     14  C   UNL A   1      28.799  26.267  24.294  1.00  0.00     0.049 A 
ATOM     15  C   UNL A   1      28.912  28.732  22.974  1.00  0.00     0.141 A 
ATOM     16  C   UNL A   1      27.687  26.928  23.787  1.00  0.00     0.113 A 
ATOM     17  N   UNL A   1      27.714  28.110  23.134  1.00  0.00    -0.262 NA
BRANCH  10  18
ATOM     18  C   UNL A   1      31.688  25.426  25.173  1.00  0.00     0.102 C 
ATOM     19  C   UNL A   1      30.684  23.118  25.759  1.00  0.00     0.014 C 
ATOM     20  C   UNL A   1      31.419  23.984  24.753  1.00  0.00    -0.007 C 
ATOM     21  C   UNL A   1      31.107  23.587  23.327  1.00  0.00     0.014 C 
ATOM     22  C   UNL A   1      32.863  24.459  25.054  1.00  0.00    -0.007 C 
ATOM     23  C   UNL A   1      33.508  23.912  26.318  1.00  0.00     0.014 C 
ATOM     24  C   UNL A   1      33.853  24.602  23.910  1.00  0.00     0.014 C 
ENDBRANCH  10  18
ENDBRANCH   8   9
ENDBRANCH   7   8
ENDBRANCH   4   7
ENDBRANCH   2   3
ENDBRANCH   1   2
BRANCH   1  25
ATOM     25  C   UNL A   1      35.454  32.999  29.018  1.00  0.00     0.118 C 
BRANCH  25  26
ATOM     26  N   UNL A   1      35.144  32.890  30.434  1.00  0.00    -0.352 N 
ATOM     27  C   UNL A   1      35.707  32.249  31.502  1.00  0.00     0.251 C 
ATOM     28  H   UNL A   1      34.338  33.398  30.681  1.00  0.00     0.163 HD
ATOM     29  O   UNL A   1      35.162  32.438  32.592  1.00  0.00    -0.269 OA
BRANCH  27  30
ATOM     30  C   UNL A   1      36.877  31.333  31.429  1.00  0.00     0.039 A 
ATOM     31  C   UNL A   1      38.211  31.734  31.442  1.00  0.00     0.014 A 
ATOM     32  C   UNL A   1      36.594  29.961  31.319  1.00  0.00     0.014 A 
ATOM     33  C   UNL A   1      39.229  30.811  31.228  1.00  0.00     0.010 A 
ATOM     34  C   UNL A   1      37.614  29.024  31.157  1.00  0.00     0.010 A 
ATOM     35  C   UNL A   1      38.934  29.456  31.057  1.00  0.00    -0.014 A 
BRANCH  35  36
ATOM     36  C   UNL A   1      40.058  28.560  30.785  1.00  0.00     0.031 A 
ATOM     37  C   UNL A   1      41.008  28.294  31.910  1.00  0.00     0.074 A 
ATOM     38  C   UNL A   1      40.260  27.946  29.604  1.00  0.00     0.049 A 
ATOM     39  N   UNL A   1      42.272  28.565  31.979  1.00  0.00    -0.248 NA
ATOM     40  C   UNL A   1      40.460  27.689  33.131  1.00  0.00     0.031 C 
ATOM     41  C   UNL A   1      39.351  27.809  28.463  1.00  0.00     0.029 A 
ATOM     42  N   UNL A   1      41.351  27.225  29.221  1.00  0.00    -0.354 N 
ATOM     43  C   UNL A   1      42.718  28.078  33.208  1.00  0.00     0.074 A 
ATOM     44  C   UNL A   1      41.546  27.598  33.900  1.00  0.00     0.031 C 
ATOM     45  C   UNL A   1      39.835  26.866  27.622  1.00  0.00     0.029 A 
ATOM     46  C   UNL A   1      41.159  26.477  28.074  1.00  0.00     0.049 A 
ATOM     47  H   UNL A   1      42.201  27.236  29.716  1.00  0.00     0.167 HD
ATOM     48  C   UNL A   1      44.034  28.020  33.563  1.00  0.00     0.031 A 
ATOM     49  C   UNL A   1      42.010  25.556  27.566  1.00  0.00     0.031 A 
ATOM     50  C   UNL A   1      44.867  28.812  32.704  1.00  0.00     0.049 A 
ATOM     51  C   UNL A   1      43.362  25.858  28.089  1.00  0.00     0.074 A 
ATOM     52  C   UNL A   1      45.024  30.164  32.483  1.00  0.00     0.029 A 
ATOM     53  N   UNL A   1      45.516  28.180  31.672  1.00  0.00    -0.354 N 
ATOM     54  N   UNL A   1      44.038  26.932  27.785  1.00  0.00    -0.248 NA
ATOM     55  C   UNL A   1      43.845  25.126  29.249  1.00  0.00     0.031 C 
ATOM     56  C   UNL A   1      45.349  30.277  31.102  1.00  0.00     0.029 A 
ATOM     57  C   UNL A   1      45.394  28.986  30.567  1.00  0.00     0.049 A 
ATOM     58  H   UNL A   1      45.979  27.313  31.716  1.00  0.00     0.167 HD
ATOM     59  C   UNL A   1      44.775  27.227  28.923  1.00  0.00     0.074 A 
ATOM     60  C   UNL A   1      44.707  26.019  29.738  1.00  0.00     0.031 C 
ATOM     61  C   UNL A   1      45.153  28.505  29.219  1.00  0.00     0.031 A 
BRANCH  48  62
ATOM     62  C   UNL A   1      44.617  27.100  34.603  1.00  0.00    -0.014 A 
ATOM     63  C   UNL A   1      44.815  25.725  34.372  1.00  0.00     0.010 A 
ATOM     64  C   UNL A   1      45.193  27.640  35.774  1.00  0.00     0.010 A 
ATOM     65  C   UNL A   1      45.521  24.918  35.271  1.00  0.00     0.020 A 
ATOM     66  C   UNL A   1      45.937  26.849  36.661  1.00  0.00     0.020 A 
ATOM     67  C   UNL A   1      46.093  25.489  36.405  1.00  0.00     0.054 A 
BRANCH  67  68
ATOM     68  S   UNL A   1      47.115  24.440  37.471  1.00  0.00     0.124 S 
ATOM     69  O   UNL A   1      47.783  25.426  38.316  1.00  0.00    -0.237 OA
ATOM     70  O   UNL A   1      46.119  23.608  38.141  1.00  0.00    -0.237 OA
ATOM     71  O   UNL A   1      47.982  23.733  36.531  1.00  0.00    -0.744 OA
ENDBRANCH  67  68
ENDBRANCH  48  62
BRANCH  49  72
ATOM     72  C   UNL A   1      41.633  24.214  27.065  1.00  0.00    -0.014 A 
ATOM     73  C   UNL A   1      40.939  23.323  27.912  1.00  0.00     0.010 A 
ATOM     74  C   UNL A   1      42.216  23.699  25.894  1.00  0.00     0.010 A 
ATOM     75  C   UNL A   1      40.897  21.953  27.642  1.00  0.00     0.020 A 
ATOM     76  C   UNL A   1      42.178  22.324  25.619  1.00  0.00     0.020 A 
ATOM     77  C   UNL A   1      41.551  21.457  26.516  1.00  0.00     0.054 A 
BRANCH  77  78
ATOM     78  S   UNL A   1      41.644  19.656  26.306  1.00  0.00     0.124 S 
ATOM     79  O   UNL A   1      42.084  19.220  27.628  1.00  0.00    -0.237 OA
ATOM     80  O   UNL A   1      40.267  19.308  25.957  1.00  0.00    -0.237 OA
ATOM     81  O   UNL A   1      42.618  19.482  25.232  1.00  0.00    -0.744 OA
ENDBRANCH  77  78
ENDBRANCH  49  72
BRANCH  61  82
ATOM     82  C   UNL A   1      45.007  29.580  28.159  1.00  0.00    -0.014 A 
ATOM     83  C   UNL A   1      46.180  30.155  27.635  1.00  0.00     0.010 A 
ATOM     84  C   UNL A   1      43.771  30.185  27.855  1.00  0.00     0.010 A 
ATOM     85  C   UNL A   1      46.129  31.329  26.877  1.00  0.00     0.020 A 
ATOM     86  C   UNL A   1      43.711  31.349  27.075  1.00  0.00     0.020 A 
ATOM     87  C   UNL A   1      44.896  31.932  26.620  1.00  0.00     0.054 A 
BRANCH  87  88
ATOM     88  S   UNL A   1      44.877  33.512  25.725  1.00  0.00     0.124 S 
ATOM     89  O   UNL A   1      44.245  33.141  24.460  1.00  0.00    -0.237 OA
ATOM     90  O   UNL A   1      44.074  34.368  26.595  1.00  0.00    -0.237 OA
ATOM     91  O   UNL A   1      46.288  33.881  25.627  1.00  0.00    -0.744 OA
ENDBRANCH  87  88
ENDBRANCH  61  82
ENDBRANCH  35  36
ENDBRANCH  27  30
ENDBRANCH  25  26
ENDBRANCH   1  25
TORSDOF 16
ENDMDL
