MODEL 1
REMARK VINA RESULT:     -11.3      0.000      0.000
REMARK SMILES O=C(NCCCNC(=O)[C@H]1Cc2cc(O)ccc2C[NH2+]1)c1ccc(-c2c3nc(c(-c4ccc(S(=O)(=O)[O-])cc4)c4ccc([nH]4)c(-c4ccc(S(=O)(=O)[O-])cc4)c4nc(c(-c5ccc(S(=O)(=O)[O-])cc5)c5ccc2[nH]5)C=C4)C=C3)cc1
REMARK SMILES IDX 4 1 3 2 1 3 2 4 21 6 22 7 80 8 23 9 79 10 24 11 25 12 26 13
REMARK SMILES IDX 73 14 27 15 78 16 72 17 74 18 28 19 77 20 71 21 70 22 29 24
REMARK SMILES IDX 59 25 40 26 58 27 41 28 44 29 57 30 75 31 42 32 43 33 56 35
REMARK SMILES IDX 76 36 45 37 30 38 31 39 39 40 32 41 38 42 33 43 34 44 35 45
REMARK SMILES IDX 36 46 37 47 60 48 61 49 69 50 62 51 68 52 63 53 64 54 65 55
REMARK SMILES IDX 66 56 67 57 46 58 47 59 55 60 48 61 54 62 49 63 50 64 51 65
REMARK SMILES IDX 52 66 53 67 5 68 6 69 7 70 8 71 9 73 10 74 11 75 20 76 12 77
REMARK SMILES IDX 19 78 13 81 18 82 14 83 17 84 16 85 15 86
REMARK H PARENT 3 5 74 23 44 34 7 72 20 79 20 80 15 87
REMARK Flexibility Score: inf
ROOT
ATOM      1  C   UNL A   1      33.228  29.088  27.260  1.00  0.00     0.118 C 
ENDROOT
BRANCH   1   2
ATOM      2  N   UNL A   1      33.520  30.442  27.714  1.00  0.00    -0.352 N 
ATOM      3  O   UNL A   1      34.409  32.012  29.030  1.00  0.00    -0.269 OA
ATOM      4  C   UNL A   1      34.562  30.938  28.450  1.00  0.00     0.251 C 
ATOM      5  H   UNL A   1      32.855  31.115  27.444  1.00  0.00     0.163 HD
BRANCH   4   6
ATOM      6  C   UNL A   1      35.867  30.241  28.524  1.00  0.00     0.039 A 
ATOM      7  C   UNL A   1      36.252  29.670  29.744  1.00  0.00     0.014 A 
ATOM      8  C   UNL A   1      36.776  30.277  27.465  1.00  0.00     0.014 A 
ATOM      9  C   UNL A   1      37.544  29.164  29.905  1.00  0.00     0.010 A 
ATOM     10  C   UNL A   1      38.033  29.691  27.595  1.00  0.00     0.010 A 
ATOM     11  C   UNL A   1      38.448  29.183  28.832  1.00  0.00    -0.014 A 
BRANCH  11  12
ATOM     12  C   UNL A   1      39.874  28.814  29.016  1.00  0.00     0.031 A 
ATOM     13  C   UNL A   1      40.812  29.811  29.652  1.00  0.00     0.074 A 
ATOM     14  C   UNL A   1      40.330  27.615  28.609  1.00  0.00     0.049 A 
ATOM     15  N   UNL A   1      42.108  29.736  29.817  1.00  0.00    -0.248 NA
ATOM     16  C   UNL A   1      40.222  31.071  30.142  1.00  0.00     0.031 C 
ATOM     17  C   UNL A   1      39.518  26.568  27.986  1.00  0.00     0.029 A 
ATOM     18  N   UNL A   1      41.588  27.070  28.667  1.00  0.00    -0.354 N 
ATOM     19  C   UNL A   1      42.484  30.942  30.399  1.00  0.00     0.074 A 
ATOM     20  C   UNL A   1      41.295  31.752  30.514  1.00  0.00     0.031 C 
ATOM     21  C   UNL A   1      40.289  25.492  27.759  1.00  0.00     0.029 A 
ATOM     22  C   UNL A   1      41.657  25.785  28.180  1.00  0.00     0.049 A 
ATOM     23  H   UNL A   1      42.368  27.553  29.023  1.00  0.00     0.167 HD
ATOM     24  C   UNL A   1      43.708  31.327  30.828  1.00  0.00     0.031 A 
ATOM     25  C   UNL A   1      42.702  24.938  28.092  1.00  0.00     0.031 A 
ATOM     26  C   UNL A   1      44.874  30.490  30.770  1.00  0.00     0.049 A 
ATOM     27  C   UNL A   1      44.049  25.382  28.595  1.00  0.00     0.074 A 
ATOM     28  C   UNL A   1      46.155  30.775  31.206  1.00  0.00     0.029 A 
ATOM     29  N   UNL A   1      44.893  29.193  30.281  1.00  0.00    -0.354 N 
ATOM     30  N   UNL A   1      44.387  26.530  29.132  1.00  0.00    -0.248 NA
ATOM     31  C   UNL A   1      45.154  24.417  28.491  1.00  0.00     0.031 C 
ATOM     32  C   UNL A   1      46.959  29.663  30.951  1.00  0.00     0.029 A 
ATOM     33  C   UNL A   1      46.164  28.665  30.408  1.00  0.00     0.049 A 
ATOM     34  H   UNL A   1      44.119  28.720  29.900  1.00  0.00     0.167 HD
ATOM     35  C   UNL A   1      45.733  26.413  29.462  1.00  0.00     0.074 A 
ATOM     36  C   UNL A   1      46.147  25.083  29.068  1.00  0.00     0.031 C 
ATOM     37  C   UNL A   1      46.549  27.326  30.038  1.00  0.00     0.031 A 
BRANCH  24  38
ATOM     38  C   UNL A   1      43.857  32.696  31.436  1.00  0.00    -0.014 A 
ATOM     39  C   UNL A   1      43.775  32.856  32.831  1.00  0.00     0.010 A 
ATOM     40  C   UNL A   1      43.956  33.838  30.620  1.00  0.00     0.010 A 
ATOM     41  C   UNL A   1      43.756  34.132  33.399  1.00  0.00     0.020 A 
ATOM     42  C   UNL A   1      43.964  35.116  31.186  1.00  0.00     0.020 A 
ATOM     43  C   UNL A   1      43.837  35.256  32.571  1.00  0.00     0.054 A 
BRANCH  43  44
ATOM     44  S   UNL A   1      43.774  36.906  33.319  1.00  0.00     0.124 S 
ATOM     45  O   UNL A   1      44.998  36.931  34.113  1.00  0.00    -0.237 OA
ATOM     46  O   UNL A   1      43.760  37.787  32.154  1.00  0.00    -0.237 OA
ATOM     47  O   UNL A   1      42.530  36.884  34.085  1.00  0.00    -0.744 OA
ENDBRANCH  43  44
ENDBRANCH  24  38
BRANCH  25  48
ATOM     48  C   UNL A   1      42.490  23.563  27.562  1.00  0.00    -0.014 A 
ATOM     49  C   UNL A   1      41.998  22.539  28.391  1.00  0.00     0.010 A 
ATOM     50  C   UNL A   1      42.834  23.259  26.233  1.00  0.00     0.010 A 
ATOM     51  C   UNL A   1      41.888  21.230  27.912  1.00  0.00     0.020 A 
ATOM     52  C   UNL A   1      42.701  21.957  25.742  1.00  0.00     0.020 A 
ATOM     53  C   UNL A   1      42.251  20.946  26.593  1.00  0.00     0.054 A 
BRANCH  53  54
ATOM     54  S   UNL A   1      42.120  19.238  25.994  1.00  0.00     0.124 S 
ATOM     55  O   UNL A   1      40.689  19.125  25.724  1.00  0.00    -0.237 OA
ATOM     56  O   UNL A   1      42.984  19.244  24.815  1.00  0.00    -0.237 OA
ATOM     57  O   UNL A   1      42.611  18.445  27.116  1.00  0.00    -0.744 OA
ENDBRANCH  53  54
ENDBRANCH  25  48
BRANCH  37  58
ATOM     58  C   UNL A   1      47.972  26.935  30.328  1.00  0.00    -0.014 A 
ATOM     59  C   UNL A   1      48.288  26.355  31.570  1.00  0.00     0.010 A 
ATOM     60  C   UNL A   1      49.010  27.287  29.447  1.00  0.00     0.010 A 
ATOM     61  C   UNL A   1      49.619  26.169  31.947  1.00  0.00     0.020 A 
ATOM     62  C   UNL A   1      50.342  27.078  29.811  1.00  0.00     0.020 A 
ATOM     63  C   UNL A   1      50.639  26.547  31.069  1.00  0.00     0.054 A 
BRANCH  63  64
ATOM     64  S   UNL A   1      52.364  26.343  31.592  1.00  0.00     0.124 S 
ATOM     65  O   UNL A   1      53.050  26.163  30.316  1.00  0.00    -0.237 OA
ATOM     66  O   UNL A   1      52.643  27.598  32.285  1.00  0.00    -0.237 OA
ATOM     67  O   UNL A   1      52.321  25.162  32.451  1.00  0.00    -0.744 OA
ENDBRANCH  63  64
ENDBRANCH  37  58
ENDBRANCH  11  12
ENDBRANCH   4   6
ENDBRANCH   1   2
BRANCH   1  68
ATOM     68  C   UNL A   1      33.192  29.012  25.736  1.00  0.00     0.042 C 
BRANCH  68  69
ATOM     69  C   UNL A   1      31.819  28.615  25.207  1.00  0.00     0.118 C 
BRANCH  69  70
ATOM     70  N   UNL A   1      31.311  27.415  25.847  1.00  0.00    -0.351 N 
ATOM     71  C   UNL A   1      31.694  26.116  25.861  1.00  0.00     0.278 C 
ATOM     72  H   UNL A   1      30.510  27.583  26.394  1.00  0.00     0.163 HD
ATOM     73  O   UNL A   1      31.006  25.370  26.578  1.00  0.00    -0.268 OA
BRANCH  71  74
ATOM     74  C   UNL A   1      32.908  25.499  25.120  1.00  0.00     0.277 C 
ATOM     75  C   UNL A   1      34.044  24.895  25.934  1.00  0.00     0.111 C 
ATOM     76  N   UNL A   1      32.377  24.478  24.175  1.00  0.00    -0.332 N 
ATOM     77  C   UNL A   1      35.079  24.196  25.090  1.00  0.00    -0.029 A 
ATOM     78  C   UNL A   1      33.403  24.109  23.194  1.00  0.00     0.298 C 
ATOM     79  H   UNL A   1      31.567  24.860  23.687  1.00  0.00     0.347 HD
ATOM     80  H   UNL A   1      32.108  23.646  24.702  1.00  0.00     0.347 HD
ATOM     81  C   UNL A   1      36.317  23.862  25.653  1.00  0.00     0.050 A 
ATOM     82  C   UNL A   1      34.726  23.721  23.816  1.00  0.00     0.010 A 
ATOM     83  C   UNL A   1      37.193  23.048  24.952  1.00  0.00     0.115 A 
ATOM     84  C   UNL A   1      35.637  22.918  23.114  1.00  0.00     0.013 A 
ATOM     85  C   UNL A   1      36.864  22.569  23.688  1.00  0.00     0.046 A 
BRANCH  83  86
ATOM     86  O   UNL A   1      38.366  22.716  25.561  1.00  0.00    -0.508 OA
ATOM     87  H   UNL A   1      38.807  23.341  26.103  1.00  0.00     0.293 HD
ENDBRANCH  83  86
ENDBRANCH  71  74
ENDBRANCH  69  70
ENDBRANCH  68  69
ENDBRANCH   1  68
TORSDOF 14
ENDMDL
MODEL 2
REMARK VINA RESULT:     -11.2      2.858      5.259
REMARK SMILES O=C(NCCCNC(=O)[C@H]1Cc2cc(O)ccc2C[NH2+]1)c1ccc(-c2c3nc(c(-c4ccc(S(=O)(=O)[O-])cc4)c4ccc([nH]4)c(-c4ccc(S(=O)(=O)[O-])cc4)c4nc(c(-c5ccc(S(=O)(=O)[O-])cc5)c5ccc2[nH]5)C=C4)C=C3)cc1
REMARK SMILES IDX 4 1 3 2 1 3 2 4 21 6 22 7 80 8 23 9 79 10 24 11 25 12 26 13
REMARK SMILES IDX 73 14 27 15 78 16 72 17 74 18 28 19 77 20 71 21 70 22 29 24
REMARK SMILES IDX 59 25 40 26 58 27 41 28 44 29 57 30 75 31 42 32 43 33 56 35
REMARK SMILES IDX 76 36 45 37 30 38 31 39 39 40 32 41 38 42 33 43 34 44 35 45
REMARK SMILES IDX 36 46 37 47 60 48 61 49 69 50 62 51 68 52 63 53 64 54 65 55
REMARK SMILES IDX 66 56 67 57 46 58 47 59 55 60 48 61 54 62 49 63 50 64 51 65
REMARK SMILES IDX 52 66 53 67 5 68 6 69 7 70 8 71 9 73 10 74 11 75 20 76 12 77
REMARK SMILES IDX 19 78 13 81 18 82 14 83 17 84 16 85 15 86
REMARK H PARENT 3 5 74 23 44 34 7 72 20 79 20 80 15 87
REMARK Flexibility Score: inf
ROOT
ATOM      1  C   UNL A   1      35.078  33.268  29.166  1.00  0.00     0.118 C 
ENDROOT
BRANCH   1   2
ATOM      2  N   UNL A   1      34.202  32.291  28.531  1.00  0.00    -0.352 N 
ATOM      3  O   UNL A   1      33.640  30.677  27.094  1.00  0.00    -0.269 OA
ATOM      4  C   UNL A   1      34.485  31.129  27.863  1.00  0.00     0.251 C 
ATOM      5  H   UNL A   1      33.243  32.503  28.592  1.00  0.00     0.163 HD
BRANCH   4   6
ATOM      6  C   UNL A   1      35.753  30.394  28.080  1.00  0.00     0.039 A 
ATOM      7  C   UNL A   1      35.935  29.720  29.295  1.00  0.00     0.014 A 
ATOM      8  C   UNL A   1      36.816  30.489  27.180  1.00  0.00     0.014 A 
ATOM      9  C   UNL A   1      37.179  29.169  29.611  1.00  0.00     0.010 A 
ATOM     10  C   UNL A   1      38.028  29.861  27.454  1.00  0.00     0.010 A 
ATOM     11  C   UNL A   1      38.239  29.247  28.695  1.00  0.00    -0.014 A 
BRANCH  11  12
ATOM     12  C   UNL A   1      39.614  28.828  29.066  1.00  0.00     0.031 A 
ATOM     13  C   UNL A   1      40.475  29.769  29.872  1.00  0.00     0.074 A 
ATOM     14  C   UNL A   1      40.094  27.632  28.677  1.00  0.00     0.049 A 
ATOM     15  N   UNL A   1      41.730  29.648  30.219  1.00  0.00    -0.248 NA
ATOM     16  C   UNL A   1      39.851  31.027  30.327  1.00  0.00     0.031 C 
ATOM     17  C   UNL A   1      39.355  26.636  27.900  1.00  0.00     0.029 A 
ATOM     18  N   UNL A   1      41.316  27.047  28.892  1.00  0.00    -0.354 N 
ATOM     19  C   UNL A   1      42.048  30.818  30.900  1.00  0.00     0.074 A 
ATOM     20  C   UNL A   1      40.876  31.660  30.878  1.00  0.00     0.031 C 
ATOM     21  C   UNL A   1      40.124  25.546  27.739  1.00  0.00     0.029 A 
ATOM     22  C   UNL A   1      41.423  25.780  28.365  1.00  0.00     0.049 A 
ATOM     23  H   UNL A   1      42.048  27.491  29.377  1.00  0.00     0.167 HD
ATOM     24  C   UNL A   1      43.206  31.148  31.517  1.00  0.00     0.031 A 
ATOM     25  C   UNL A   1      42.448  24.905  28.391  1.00  0.00     0.031 A 
ATOM     26  C   UNL A   1      44.347  30.278  31.591  1.00  0.00     0.049 A 
ATOM     27  C   UNL A   1      43.719  25.288  29.101  1.00  0.00     0.074 A 
ATOM     28  C   UNL A   1      45.558  30.507  32.218  1.00  0.00     0.029 A 
ATOM     29  N   UNL A   1      44.404  29.002  31.054  1.00  0.00    -0.354 N 
ATOM     30  N   UNL A   1      44.004  26.403  29.730  1.00  0.00    -0.248 NA
ATOM     31  C   UNL A   1      44.803  24.293  29.116  1.00  0.00     0.031 C 
ATOM     32  C   UNL A   1      46.363  29.381  32.034  1.00  0.00     0.029 A 
ATOM     33  C   UNL A   1      45.630  28.430  31.339  1.00  0.00     0.049 A 
ATOM     34  H   UNL A   1      43.682  28.568  30.545  1.00  0.00     0.167 HD
ATOM     35  C   UNL A   1      45.284  26.231  30.245  1.00  0.00     0.074 A 
ATOM     36  C   UNL A   1      45.718  24.905  29.857  1.00  0.00     0.031 C 
ATOM     37  C   UNL A   1      46.031  27.096  30.971  1.00  0.00     0.031 A 
BRANCH  24  38
ATOM     38  C   UNL A   1      43.300  32.487  32.199  1.00  0.00    -0.014 A 
ATOM     39  C   UNL A   1      42.866  32.628  33.530  1.00  0.00     0.010 A 
ATOM     40  C   UNL A   1      43.702  33.631  31.485  1.00  0.00     0.010 A 
ATOM     41  C   UNL A   1      42.801  33.890  34.125  1.00  0.00     0.020 A 
ATOM     42  C   UNL A   1      43.664  34.892  32.085  1.00  0.00     0.020 A 
ATOM     43  C   UNL A   1      43.188  35.017  33.393  1.00  0.00     0.054 A 
BRANCH  43  44
ATOM     44  S   UNL A   1      43.063  36.652  34.167  1.00  0.00     0.124 S 
ATOM     45  O   UNL A   1      44.140  36.610  35.151  1.00  0.00    -0.237 OA
ATOM     46  O   UNL A   1      43.274  37.557  33.040  1.00  0.00    -0.237 OA
ATOM     47  O   UNL A   1      41.710  36.665  34.717  1.00  0.00    -0.744 OA
ENDBRANCH  43  44
ENDBRANCH  24  38
BRANCH  25  48
ATOM     48  C   UNL A   1      42.281  23.560  27.777  1.00  0.00    -0.014 A 
ATOM     49  C   UNL A   1      41.685  22.508  28.497  1.00  0.00     0.010 A 
ATOM     50  C   UNL A   1      42.771  23.310  26.483  1.00  0.00     0.010 A 
ATOM     51  C   UNL A   1      41.615  21.225  27.948  1.00  0.00     0.020 A 
ATOM     52  C   UNL A   1      42.679  22.033  25.920  1.00  0.00     0.020 A 
ATOM     53  C   UNL A   1      42.122  20.993  26.667  1.00  0.00     0.054 A 
BRANCH  53  54
ATOM     54  S   UNL A   1      42.039  19.316  25.978  1.00  0.00     0.124 S 
ATOM     55  O   UNL A   1      40.612  19.178  25.700  1.00  0.00    -0.237 OA
ATOM     56  O   UNL A   1      42.903  19.409  24.803  1.00  0.00    -0.237 OA
ATOM     57  O   UNL A   1      42.552  18.479  27.058  1.00  0.00    -0.744 OA
ENDBRANCH  53  54
ENDBRANCH  25  48
BRANCH  37  58
ATOM     58  C   UNL A   1      47.388  26.650  31.446  1.00  0.00    -0.014 A 
ATOM     59  C   UNL A   1      48.488  26.747  30.574  1.00  0.00     0.010 A 
ATOM     60  C   UNL A   1      47.539  25.993  32.679  1.00  0.00     0.010 A 
ATOM     61  C   UNL A   1      49.709  26.160  30.908  1.00  0.00     0.020 A 
ATOM     62  C   UNL A   1      48.768  25.426  33.027  1.00  0.00     0.020 A 
ATOM     63  C   UNL A   1      49.837  25.489  32.128  1.00  0.00     0.054 A 
BRANCH  63  64
ATOM     64  S   UNL A   1      51.414  24.689  32.528  1.00  0.00     0.124 S 
ATOM     65  O   UNL A   1      52.362  25.473  31.741  1.00  0.00    -0.237 OA
ATOM     66  O   UNL A   1      51.506  24.857  33.976  1.00  0.00    -0.237 OA
ATOM     67  O   UNL A   1      51.219  23.311  32.079  1.00  0.00    -0.744 OA
ENDBRANCH  63  64
ENDBRANCH  37  58
ENDBRANCH  11  12
ENDBRANCH   4   6
ENDBRANCH   1   2
BRANCH   1  68
ATOM     68  C   UNL A   1      34.999  33.172  30.688  1.00  0.00     0.042 C 
BRANCH  68  69
ATOM     69  C   UNL A   1      35.889  34.198  31.380  1.00  0.00     0.118 C 
BRANCH  69  70
ATOM     70  N   UNL A   1      35.521  34.395  32.770  1.00  0.00    -0.351 N 
ATOM     71  C   UNL A   1      35.862  33.792  33.933  1.00  0.00     0.278 C 
ATOM     72  H   UNL A   1      34.882  35.132  32.895  1.00  0.00     0.163 HD
ATOM     73  O   UNL A   1      35.349  34.284  34.953  1.00  0.00    -0.268 OA
BRANCH  71  74
ATOM     74  C   UNL A   1      36.844  32.605  34.110  1.00  0.00     0.277 C 
ATOM     75  C   UNL A   1      36.763  31.426  33.149  1.00  0.00     0.111 C 
ATOM     76  N   UNL A   1      38.223  33.166  34.092  1.00  0.00    -0.332 N 
ATOM     77  C   UNL A   1      37.870  30.422  33.339  1.00  0.00    -0.029 A 
ATOM     78  C   UNL A   1      39.181  32.181  34.605  1.00  0.00     0.298 C 
ATOM     79  H   UNL A   1      38.254  34.002  34.676  1.00  0.00     0.347 HD
ATOM     80  H   UNL A   1      38.473  33.402  33.131  1.00  0.00     0.347 HD
ATOM     81  C   UNL A   1      37.763  29.157  32.749  1.00  0.00     0.050 A 
ATOM     82  C   UNL A   1      39.075  30.827  33.940  1.00  0.00     0.010 A 
ATOM     83  C   UNL A   1      38.856  28.303  32.749  1.00  0.00     0.115 A 
ATOM     84  C   UNL A   1      40.160  29.939  33.949  1.00  0.00     0.013 A 
ATOM     85  C   UNL A   1      40.056  28.683  33.342  1.00  0.00     0.046 A 
BRANCH  83  86
ATOM     86  O   UNL A   1      38.714  27.101  32.125  1.00  0.00    -0.508 OA
ATOM     87  H   UNL A   1      38.151  27.022  31.380  1.00  0.00     0.293 HD
ENDBRANCH  83  86
ENDBRANCH  71  74
ENDBRANCH  69  70
ENDBRANCH  68  69
ENDBRANCH   1  68
TORSDOF 14
ENDMDL
MODEL 3
REMARK VINA RESULT:     -11.1      0.781      8.513
REMARK SMILES O=C(NCCCNC(=O)[C@H]1Cc2cc(O)ccc2C[NH2+]1)c1ccc(-c2c3nc(c(-c4ccc(S(=O)(=O)[O-])cc4)c4ccc([nH]4)c(-c4ccc(S(=O)(=O)[O-])cc4)c4nc(c(-c5ccc(S(=O)(=O)[O-])cc5)c5ccc2[nH]5)C=C4)C=C3)cc1
REMARK SMILES IDX 4 1 3 2 1 3 2 4 21 6 22 7 80 8 23 9 79 10 24 11 25 12 26 13
REMARK SMILES IDX 73 14 27 15 78 16 72 17 74 18 28 19 77 20 71 21 70 22 29 24
REMARK SMILES IDX 59 25 40 26 58 27 41 28 44 29 57 30 75 31 42 32 43 33 56 35
REMARK SMILES IDX 76 36 45 37 30 38 31 39 39 40 32 41 38 42 33 43 34 44 35 45
REMARK SMILES IDX 36 46 37 47 60 48 61 49 69 50 62 51 68 52 63 53 64 54 65 55
REMARK SMILES IDX 66 56 67 57 46 58 47 59 55 60 48 61 54 62 49 63 50 64 51 65
REMARK SMILES IDX 52 66 53 67 5 68 6 69 7 70 8 71 9 73 10 74 11 75 20 76 12 77
REMARK SMILES IDX 19 78 13 81 18 82 14 83 17 84 16 85 15 86
REMARK H PARENT 3 5 74 23 44 34 7 72 20 79 20 80 15 87
REMARK Flexibility Score: inf
ROOT
ATOM      1  C   UNL A   1      33.354  28.561  27.251  1.00  0.00     0.118 C 
ENDROOT
BRANCH   1   2
ATOM      2  N   UNL A   1      33.560  29.973  27.548  1.00  0.00    -0.352 N 
ATOM      3  O   UNL A   1      34.349  31.734  28.672  1.00  0.00    -0.269 OA
ATOM      4  C   UNL A   1      34.570  30.614  28.216  1.00  0.00     0.251 C 
ATOM      5  H   UNL A   1      32.853  30.568  27.210  1.00  0.00     0.163 HD
BRANCH   4   6
ATOM      6  C   UNL A   1      35.916  30.013  28.357  1.00  0.00     0.039 A 
ATOM      7  C   UNL A   1      36.289  29.494  29.603  1.00  0.00     0.014 A 
ATOM      8  C   UNL A   1      36.863  30.094  27.334  1.00  0.00     0.014 A 
ATOM      9  C   UNL A   1      37.606  29.085  29.827  1.00  0.00     0.010 A 
ATOM     10  C   UNL A   1      38.151  29.601  27.527  1.00  0.00     0.010 A 
ATOM     11  C   UNL A   1      38.550  29.148  28.791  1.00  0.00    -0.014 A 
BRANCH  11  12
ATOM     12  C   UNL A   1      39.990  28.885  29.039  1.00  0.00     0.031 A 
ATOM     13  C   UNL A   1      40.571  27.552  28.638  1.00  0.00     0.074 A 
ATOM     14  C   UNL A   1      40.765  29.816  29.626  1.00  0.00     0.049 A 
ATOM     15  N   UNL A   1      41.771  27.077  28.850  1.00  0.00    -0.248 NA
ATOM     16  C   UNL A   1      39.677  26.615  27.929  1.00  0.00     0.031 C 
ATOM     17  C   UNL A   1      40.317  31.143  30.053  1.00  0.00     0.029 A 
ATOM     18  N   UNL A   1      42.096  29.791  29.958  1.00  0.00    -0.354 N 
ATOM     19  C   UNL A   1      41.764  25.786  28.331  1.00  0.00     0.074 A 
ATOM     20  C   UNL A   1      40.432  25.530  27.838  1.00  0.00     0.031 C 
ATOM     21  C   UNL A   1      41.366  31.820  30.551  1.00  0.00     0.029 A 
ATOM     22  C   UNL A   1      42.549  30.964  30.517  1.00  0.00     0.049 A 
ATOM     23  H   UNL A   1      42.673  29.008  29.809  1.00  0.00     0.167 HD
ATOM     24  C   UNL A   1      42.787  24.906  28.244  1.00  0.00     0.031 A 
ATOM     25  C   UNL A   1      43.779  31.311  30.945  1.00  0.00     0.031 A 
ATOM     26  C   UNL A   1      44.127  25.192  28.677  1.00  0.00     0.049 A 
ATOM     27  C   UNL A   1      44.905  30.321  30.819  1.00  0.00     0.074 A 
ATOM     28  C   UNL A   1      45.242  24.377  28.605  1.00  0.00     0.029 A 
ATOM     29  N   UNL A   1      44.539  26.396  29.225  1.00  0.00    -0.354 N 
ATOM     30  N   UNL A   1      44.875  29.102  30.335  1.00  0.00    -0.248 NA
ATOM     31  C   UNL A   1      46.231  30.752  31.286  1.00  0.00     0.031 C 
ATOM     32  C   UNL A   1      46.325  25.076  29.140  1.00  0.00     0.029 A 
ATOM     33  C   UNL A   1      45.895  26.346  29.493  1.00  0.00     0.049 A 
ATOM     34  H   UNL A   1      43.956  27.170  29.398  1.00  0.00     0.167 HD
ATOM     35  C   UNL A   1      46.183  28.634  30.406  1.00  0.00     0.074 A 
ATOM     36  C   UNL A   1      46.980  29.700  30.977  1.00  0.00     0.031 C 
ATOM     37  C   UNL A   1      46.676  27.430  30.033  1.00  0.00     0.031 A 
BRANCH  24  38
ATOM     38  C   UNL A   1      42.523  23.559  27.625  1.00  0.00    -0.014 A 
ATOM     39  C   UNL A   1      41.976  22.523  28.405  1.00  0.00     0.010 A 
ATOM     40  C   UNL A   1      42.928  23.282  26.306  1.00  0.00     0.010 A 
ATOM     41  C   UNL A   1      41.870  21.229  27.892  1.00  0.00     0.020 A 
ATOM     42  C   UNL A   1      42.798  21.994  25.780  1.00  0.00     0.020 A 
ATOM     43  C   UNL A   1      42.294  20.969  26.585  1.00  0.00     0.054 A 
BRANCH  43  44
ATOM     44  S   UNL A   1      42.184  19.276  25.946  1.00  0.00     0.124 S 
ATOM     45  O   UNL A   1      40.750  19.126  25.718  1.00  0.00    -0.237 OA
ATOM     46  O   UNL A   1      43.011  19.333  24.743  1.00  0.00    -0.237 OA
ATOM     47  O   UNL A   1      42.735  18.466  27.030  1.00  0.00    -0.744 OA
ENDBRANCH  43  44
ENDBRANCH  24  38
BRANCH  25  48
ATOM     48  C   UNL A   1      44.012  32.684  31.472  1.00  0.00    -0.014 A 
ATOM     49  C   UNL A   1      43.828  32.973  32.836  1.00  0.00     0.010 A 
ATOM     50  C   UNL A   1      44.368  33.724  30.596  1.00  0.00     0.010 A 
ATOM     51  C   UNL A   1      43.959  34.282  33.307  1.00  0.00     0.020 A 
ATOM     52  C   UNL A   1      44.526  35.031  31.068  1.00  0.00     0.020 A 
ATOM     53  C   UNL A   1      44.298  35.305  32.418  1.00  0.00     0.054 A 
BRANCH  53  54
ATOM     54  S   UNL A   1      44.445  37.002  33.044  1.00  0.00     0.124 S 
ATOM     55  O   UNL A   1      43.370  37.051  34.030  1.00  0.00    -0.237 OA
ATOM     56  O   UNL A   1      45.801  37.026  33.589  1.00  0.00    -0.237 OA
ATOM     57  O   UNL A   1      44.243  37.823  31.854  1.00  0.00    -0.744 OA
ENDBRANCH  53  54
ENDBRANCH  25  48
BRANCH  37  58
ATOM     58  C   UNL A   1      48.153  27.182  30.180  1.00  0.00    -0.014 A 
ATOM     59  C   UNL A   1      48.645  26.649  31.386  1.00  0.00     0.010 A 
ATOM     60  C   UNL A   1      49.058  27.621  29.199  1.00  0.00     0.010 A 
ATOM     61  C   UNL A   1      50.018  26.597  31.628  1.00  0.00     0.020 A 
ATOM     62  C   UNL A   1      50.434  27.546  29.428  1.00  0.00     0.020 A 
ATOM     63  C   UNL A   1      50.905  27.061  30.652  1.00  0.00     0.054 A 
BRANCH  63  64
ATOM     64  S   UNL A   1      52.685  27.032  31.000  1.00  0.00     0.124 S 
ATOM     65  O   UNL A   1      52.880  28.298  31.700  1.00  0.00    -0.237 OA
ATOM     66  O   UNL A   1      52.836  25.830  31.816  1.00  0.00    -0.237 OA
ATOM     67  O   UNL A   1      53.289  26.952  29.671  1.00  0.00    -0.744 OA
ENDBRANCH  63  64
ENDBRANCH  37  58
ENDBRANCH  11  12
ENDBRANCH   4   6
ENDBRANCH   1   2
BRANCH   1  68
ATOM     68  C   UNL A   1      33.854  28.212  25.851  1.00  0.00     0.042 C 
BRANCH  68  69
ATOM     69  C   UNL A   1      32.819  27.436  25.044  1.00  0.00     0.118 C 
BRANCH  69  70
ATOM     70  N   UNL A   1      32.079  26.493  25.863  1.00  0.00    -0.351 N 
ATOM     71  C   UNL A   1      32.204  25.172  26.129  1.00  0.00     0.278 C 
ATOM     72  H   UNL A   1      31.317  26.906  26.328  1.00  0.00     0.163 HD
ATOM     73  O   UNL A   1      31.374  24.714  26.933  1.00  0.00    -0.268 OA
BRANCH  71  74
ATOM     74  C   UNL A   1      33.288  24.212  25.576  1.00  0.00     0.277 C 
ATOM     75  C   UNL A   1      34.709  24.309  26.114  1.00  0.00     0.111 C 
ATOM     76  N   UNL A   1      32.783  22.823  25.756  1.00  0.00    -0.332 N 
ATOM     77  C   UNL A   1      35.618  23.220  25.605  1.00  0.00    -0.029 A 
ATOM     78  C   UNL A   1      33.569  21.885  24.947  1.00  0.00     0.298 C 
ATOM     79  H   UNL A   1      31.806  22.780  25.465  1.00  0.00     0.347 HD
ATOM     80  H   UNL A   1      32.868  22.563  26.739  1.00  0.00     0.347 HD
ATOM     81  C   UNL A   1      37.003  23.347  25.764  1.00  0.00     0.050 A 
ATOM     82  C   UNL A   1      35.062  22.011  25.150  1.00  0.00     0.010 A 
ATOM     83  C   UNL A   1      37.829  22.269  25.482  1.00  0.00     0.115 A 
ATOM     84  C   UNL A   1      35.917  20.942  24.849  1.00  0.00     0.013 A 
ATOM     85  C   UNL A   1      37.300  21.066  25.028  1.00  0.00     0.046 A 
BRANCH  83  86
ATOM     86  O   UNL A   1      39.165  22.429  25.695  1.00  0.00    -0.508 OA
ATOM     87  H   UNL A   1      39.537  23.289  25.724  1.00  0.00     0.293 HD
ENDBRANCH  83  86
ENDBRANCH  71  74
ENDBRANCH  69  70
ENDBRANCH  68  69
ENDBRANCH   1  68
TORSDOF 14
ENDMDL
