MODEL 1
REMARK VINA RESULT:     -10.9      0.000      0.000
REMARK SMILES CCN(C(=O)c1ccccc1C(=O)NCCCNC(=O)c1ccc(-c2c3nc(c(-c4ccc(S(=O)(=O)[O-])cc4)c4ccc([nH]4)c(-c4ccc(S(=O)(=O)[O-])cc4)c4nc(c(-c5ccc(S(=O)(=O)[O-])cc5)c5ccc2[nH]5)C=C4)C=C3)cc1)[C@H](CCO)c1ccccc1
REMARK SMILES IDX 12 1 13 2 14 3 11 5 6 6 7 7 8 8 10 9 9 10 4 11 5 12 3 13
REMARK SMILES IDX 2 14 1 15 81 16 85 17 86 18 90 19 87 20 89 21 88 22 82 23
REMARK SMILES IDX 83 24 84 25 15 27 16 28 17 29 18 30 19 31 20 33 21 34 22 35
REMARK SMILES IDX 80 36 23 37 79 38 24 39 25 40 26 41 73 42 27 43 78 44 72 45
REMARK SMILES IDX 74 46 28 47 77 48 71 49 70 50 29 52 59 53 40 54 58 55 41 56
REMARK SMILES IDX 44 57 57 58 75 59 42 60 43 61 56 63 76 64 45 65 30 66 31 67
REMARK SMILES IDX 39 68 32 69 38 70 33 71 34 72 35 73 36 74 37 75 60 76 61 77
REMARK SMILES IDX 69 78 62 79 68 80 63 81 64 82 65 83 66 84 67 85 46 86 47 87
REMARK SMILES IDX 55 88 48 89 54 90 49 91 50 92 51 93 52 94 53 95
REMARK H PARENT 14 4 84 26 18 32 74 51 44 62
REMARK Flexibility Score: inf
ROOT
ATOM      1  C   UNL A   1      34.821  22.573  26.380  1.00  0.00     0.252 C 
ATOM      2  O   UNL A   1      34.267  22.916  27.433  1.00  0.00    -0.269 OA
ATOM      3  N   UNL A   1      36.151  22.924  26.290  1.00  0.00    -0.352 N 
ATOM      4  H   UNL A   1      36.466  23.469  27.047  1.00  0.00     0.163 HD
ENDROOT
BRANCH   1   5
ATOM      5  C   UNL A   1      33.951  21.880  25.366  1.00  0.00     0.052 A 
ATOM      6  C   UNL A   1      33.511  22.317  24.111  1.00  0.00     0.052 A 
ATOM      7  C   UNL A   1      32.779  21.462  23.245  1.00  0.00     0.014 A 
ATOM      8  C   UNL A   1      32.507  20.146  23.594  1.00  0.00     0.001 A 
ATOM      9  C   UNL A   1      33.653  20.530  25.685  1.00  0.00     0.014 A 
ATOM     10  C   UNL A   1      32.950  19.677  24.819  1.00  0.00     0.001 A 
BRANCH   6  11
ATOM     11  C   UNL A   1      33.758  23.636  23.530  1.00  0.00     0.255 C 
ATOM     12  O   UNL A   1      34.813  23.687  22.903  1.00  0.00    -0.269 OA
BRANCH  11  13
ATOM     13  N   UNL A   1      32.865  24.689  23.778  1.00  0.00    -0.332 N 
BRANCH  13  14
ATOM     14  C   UNL A   1      32.462  25.568  22.659  1.00  0.00     0.117 C 
ATOM     15  C   UNL A   1      33.317  26.796  22.377  1.00  0.00     0.027 C 
ENDBRANCH  13  14
BRANCH  13  16
ATOM     16  C   UNL A   1      32.288  24.918  25.151  1.00  0.00     0.118 C 
BRANCH  16  17
ATOM     17  C   UNL A   1      32.474  26.343  25.768  1.00  0.00    -0.025 A 
ATOM     18  C   UNL A   1      31.360  27.095  26.177  1.00  0.00     0.006 A 
ATOM     19  C   UNL A   1      33.716  26.917  26.076  1.00  0.00     0.006 A 
ATOM     20  C   UNL A   1      31.499  28.311  26.877  1.00  0.00     0.000 A 
ATOM     21  C   UNL A   1      33.872  28.113  26.794  1.00  0.00     0.000 A 
ATOM     22  C   UNL A   1      32.754  28.816  27.199  1.00  0.00     0.000 A 
ENDBRANCH  16  17
BRANCH  16  23
ATOM     23  C   UNL A   1      30.894  24.235  25.448  1.00  0.00     0.058 C 
BRANCH  23  24
ATOM     24  C   UNL A   1      30.486  23.751  26.849  1.00  0.00     0.158 C 
BRANCH  24  25
ATOM     25  O   UNL A   1      31.164  22.571  27.269  1.00  0.00    -0.396 OA
ATOM     26  H   UNL A   1      31.156  22.522  28.238  1.00  0.00     0.210 HD
ENDBRANCH  24  25
ENDBRANCH  23  24
ENDBRANCH  16  23
ENDBRANCH  13  16
ENDBRANCH  11  13
ENDBRANCH   6  11
ENDBRANCH   1   5
BRANCH   3  27
ATOM     27  C   UNL A   1      37.178  22.650  25.306  1.00  0.00     0.118 C 
BRANCH  27  28
ATOM     28  C   UNL A   1      38.385  21.791  25.761  1.00  0.00     0.042 C 
BRANCH  28  29
ATOM     29  C   UNL A   1      39.554  22.382  26.602  1.00  0.00     0.118 C 
BRANCH  29  30
ATOM     30  N   UNL A   1      40.738  22.991  25.980  1.00  0.00    -0.352 N 
ATOM     31  C   UNL A   1      41.690  23.961  26.200  1.00  0.00     0.251 C 
ATOM     32  H   UNL A   1      40.909  22.558  25.112  1.00  0.00     0.163 HD
ATOM     33  O   UNL A   1      42.685  23.933  25.468  1.00  0.00    -0.269 OA
BRANCH  31  34
ATOM     34  C   UNL A   1      41.596  25.052  27.184  1.00  0.00     0.039 A 
ATOM     35  C   UNL A   1      42.429  26.183  27.027  1.00  0.00     0.014 A 
ATOM     36  C   UNL A   1      40.736  24.984  28.265  1.00  0.00     0.014 A 
ATOM     37  C   UNL A   1      42.376  27.242  27.938  1.00  0.00     0.010 A 
ATOM     38  C   UNL A   1      40.626  26.065  29.125  1.00  0.00     0.010 A 
ATOM     39  C   UNL A   1      41.458  27.190  28.987  1.00  0.00    -0.014 A 
BRANCH  39  40
ATOM     40  C   UNL A   1      41.359  28.226  30.036  1.00  0.00     0.031 A 
ATOM     41  C   UNL A   1      42.230  28.080  31.254  1.00  0.00     0.074 A 
ATOM     42  C   UNL A   1      40.396  29.163  29.970  1.00  0.00     0.049 A 
ATOM     43  N   UNL A   1      42.131  28.659  32.418  1.00  0.00    -0.248 NA
ATOM     44  C   UNL A   1      43.322  27.091  31.162  1.00  0.00     0.031 C 
ATOM     45  C   UNL A   1      39.490  29.375  28.839  1.00  0.00     0.029 A 
ATOM     46  N   UNL A   1      39.994  30.087  30.898  1.00  0.00    -0.354 N 
ATOM     47  C   UNL A   1      43.111  28.071  33.210  1.00  0.00     0.074 A 
ATOM     48  C   UNL A   1      43.749  27.047  32.415  1.00  0.00     0.031 C 
ATOM     49  C   UNL A   1      38.634  30.364  29.143  1.00  0.00     0.029 A 
ATOM     50  C   UNL A   1      38.900  30.820  30.503  1.00  0.00     0.049 A 
ATOM     51  H   UNL A   1      40.444  30.213  31.764  1.00  0.00     0.167 HD
ATOM     52  C   UNL A   1      43.461  28.376  34.481  1.00  0.00     0.031 A 
ATOM     53  C   UNL A   1      38.186  31.741  31.177  1.00  0.00     0.031 A 
ATOM     54  C   UNL A   1      42.835  29.428  35.234  1.00  0.00     0.049 A 
ATOM     55  C   UNL A   1      38.601  32.077  32.585  1.00  0.00     0.074 A 
ATOM     56  C   UNL A   1      43.148  29.887  36.500  1.00  0.00     0.029 A 
ATOM     57  N   UNL A   1      41.771  30.193  34.778  1.00  0.00    -0.354 N 
ATOM     58  N   UNL A   1      39.563  31.551  33.308  1.00  0.00    -0.248 NA
ATOM     59  C   UNL A   1      37.848  33.139  33.261  1.00  0.00     0.031 C 
ATOM     60  C   UNL A   1      42.241  30.900  36.826  1.00  0.00     0.029 A 
ATOM     61  C   UNL A   1      41.402  31.112  35.741  1.00  0.00     0.049 A 
ATOM     62  H   UNL A   1      41.341  30.094  33.897  1.00  0.00     0.167 HD
ATOM     63  C   UNL A   1      39.555  32.244  34.512  1.00  0.00     0.074 A 
ATOM     64  C   UNL A   1      38.501  33.235  34.413  1.00  0.00     0.031 C 
ATOM     65  C   UNL A   1      40.347  32.085  35.603  1.00  0.00     0.031 A 
BRANCH  52  66
ATOM     66  C   UNL A   1      44.567  27.572  35.113  1.00  0.00    -0.014 A 
ATOM     67  C   UNL A   1      45.912  27.969  35.003  1.00  0.00     0.010 A 
ATOM     68  C   UNL A   1      44.259  26.406  35.839  1.00  0.00     0.010 A 
ATOM     69  C   UNL A   1      46.932  27.193  35.559  1.00  0.00     0.020 A 
ATOM     70  C   UNL A   1      45.274  25.645  36.428  1.00  0.00     0.020 A 
ATOM     71  C   UNL A   1      46.605  26.033  36.268  1.00  0.00     0.054 A 
BRANCH  71  72
ATOM     72  S   UNL A   1      47.948  25.060  37.000  1.00  0.00     0.124 S 
ATOM     73  O   UNL A   1      48.647  26.063  37.800  1.00  0.00    -0.237 OA
ATOM     74  O   UNL A   1      47.227  24.042  37.762  1.00  0.00    -0.237 OA
ATOM     75  O   UNL A   1      48.687  24.561  35.844  1.00  0.00    -0.744 OA
ENDBRANCH  71  72
ENDBRANCH  52  66
BRANCH  53  76
ATOM     76  C   UNL A   1      37.039  32.427  30.520  1.00  0.00    -0.014 A 
ATOM     77  C   UNL A   1      35.721  32.020  30.795  1.00  0.00     0.010 A 
ATOM     78  C   UNL A   1      37.250  33.505  29.641  1.00  0.00     0.010 A 
ATOM     79  C   UNL A   1      34.638  32.662  30.187  1.00  0.00     0.020 A 
ATOM     80  C   UNL A   1      36.167  34.169  29.053  1.00  0.00     0.020 A 
ATOM     81  C   UNL A   1      34.868  33.734  29.321  1.00  0.00     0.054 A 
BRANCH  81  82
ATOM     82  S   UNL A   1      33.441  34.577  28.583  1.00  0.00     0.124 S 
ATOM     83  O   UNL A   1      32.596  34.821  29.748  1.00  0.00    -0.237 OA
ATOM     84  O   UNL A   1      34.051  35.762  27.985  1.00  0.00    -0.237 OA
ATOM     85  O   UNL A   1      32.922  33.602  27.627  1.00  0.00    -0.744 OA
ENDBRANCH  81  82
ENDBRANCH  53  76
BRANCH  65  86
ATOM     86  C   UNL A   1      40.127  33.028  36.753  1.00  0.00    -0.014 A 
ATOM     87  C   UNL A   1      40.810  34.255  36.830  1.00  0.00     0.010 A 
ATOM     88  C   UNL A   1      39.177  32.705  37.739  1.00  0.00     0.010 A 
ATOM     89  C   UNL A   1      40.570  35.126  37.894  1.00  0.00     0.020 A 
ATOM     90  C   UNL A   1      38.911  33.588  38.785  1.00  0.00     0.020 A 
ATOM     91  C   UNL A   1      39.621  34.787  38.864  1.00  0.00     0.054 A 
BRANCH  91  92
ATOM     92  S   UNL A   1      39.298  35.956  40.211  1.00  0.00     0.124 S 
ATOM     93  O   UNL A   1      38.999  37.184  39.481  1.00  0.00    -0.237 OA
ATOM     94  O   UNL A   1      38.167  35.342  40.902  1.00  0.00    -0.237 OA
ATOM     95  O   UNL A   1      40.549  35.969  40.967  1.00  0.00    -0.744 OA
ENDBRANCH  91  92
ENDBRANCH  65  86
ENDBRANCH  39  40
ENDBRANCH  31  34
ENDBRANCH  29  30
ENDBRANCH  28  29
ENDBRANCH  27  28
ENDBRANCH   3  27
TORSDOF 21
ENDMDL
MODEL 2
REMARK VINA RESULT:     -10.9      5.228     10.577
REMARK SMILES CCN(C(=O)c1ccccc1C(=O)NCCCNC(=O)c1ccc(-c2c3nc(c(-c4ccc(S(=O)(=O)[O-])cc4)c4ccc([nH]4)c(-c4ccc(S(=O)(=O)[O-])cc4)c4nc(c(-c5ccc(S(=O)(=O)[O-])cc5)c5ccc2[nH]5)C=C4)C=C3)cc1)[C@H](CCO)c1ccccc1
REMARK SMILES IDX 12 1 13 2 14 3 11 5 6 6 7 7 8 8 10 9 9 10 4 11 5 12 3 13
REMARK SMILES IDX 2 14 1 15 81 16 85 17 86 18 90 19 87 20 89 21 88 22 82 23
REMARK SMILES IDX 83 24 84 25 15 27 16 28 17 29 18 30 19 31 20 33 21 34 22 35
REMARK SMILES IDX 80 36 23 37 79 38 24 39 25 40 26 41 73 42 27 43 78 44 72 45
REMARK SMILES IDX 74 46 28 47 77 48 71 49 70 50 29 52 59 53 40 54 58 55 41 56
REMARK SMILES IDX 44 57 57 58 75 59 42 60 43 61 56 63 76 64 45 65 30 66 31 67
REMARK SMILES IDX 39 68 32 69 38 70 33 71 34 72 35 73 36 74 37 75 60 76 61 77
REMARK SMILES IDX 69 78 62 79 68 80 63 81 64 82 65 83 66 84 67 85 46 86 47 87
REMARK SMILES IDX 55 88 48 89 54 90 49 91 50 92 51 93 52 94 53 95
REMARK H PARENT 14 4 84 26 18 32 74 51 44 62
REMARK Flexibility Score: inf
ROOT
ATOM      1  C   UNL A   1      32.756  28.957  23.815  1.00  0.00     0.252 C 
ATOM      2  O   UNL A   1      33.507  28.848  22.837  1.00  0.00    -0.269 OA
ATOM      3  N   UNL A   1      33.287  29.667  24.870  1.00  0.00    -0.352 N 
ATOM      4  H   UNL A   1      34.226  29.930  24.734  1.00  0.00     0.163 HD
ENDROOT
BRANCH   1   5
ATOM      5  C   UNL A   1      31.422  28.267  23.711  1.00  0.00     0.052 A 
ATOM      6  C   UNL A   1      30.966  27.095  24.324  1.00  0.00     0.052 A 
ATOM      7  C   UNL A   1      29.621  26.661  24.184  1.00  0.00     0.014 A 
ATOM      8  C   UNL A   1      28.696  27.407  23.465  1.00  0.00     0.001 A 
ATOM      9  C   UNL A   1      30.446  29.000  22.985  1.00  0.00     0.014 A 
ATOM     10  C   UNL A   1      29.110  28.584  22.866  1.00  0.00     0.001 A 
BRANCH   6  11
ATOM     11  C   UNL A   1      31.760  26.213  25.179  1.00  0.00     0.255 C 
ATOM     12  O   UNL A   1      31.995  26.707  26.279  1.00  0.00    -0.269 OA
BRANCH  11  13
ATOM     13  N   UNL A   1      32.221  24.985  24.683  1.00  0.00    -0.332 N 
BRANCH  13  14
ATOM     14  C   UNL A   1      31.567  23.737  25.133  1.00  0.00     0.117 C 
ATOM     15  C   UNL A   1      30.688  23.803  26.375  1.00  0.00     0.027 C 
ENDBRANCH  13  14
BRANCH  13  16
ATOM     16  C   UNL A   1      33.345  24.919  23.681  1.00  0.00     0.118 C 
BRANCH  16  17
ATOM     17  C   UNL A   1      34.639  24.158  24.119  1.00  0.00    -0.025 A 
ATOM     18  C   UNL A   1      35.338  23.353  23.204  1.00  0.00     0.006 A 
ATOM     19  C   UNL A   1      35.263  24.308  25.365  1.00  0.00     0.006 A 
ATOM     20  C   UNL A   1      36.587  22.780  23.518  1.00  0.00     0.000 A 
ATOM     21  C   UNL A   1      36.518  23.767  25.686  1.00  0.00     0.000 A 
ATOM     22  C   UNL A   1      37.186  22.997  24.755  1.00  0.00     0.000 A 
ENDBRANCH  16  17
BRANCH  16  23
ATOM     23  C   UNL A   1      32.925  24.716  22.171  1.00  0.00     0.058 C 
BRANCH  23  24
ATOM     24  C   UNL A   1      32.792  25.884  21.180  1.00  0.00     0.158 C 
BRANCH  24  25
ATOM     25  O   UNL A   1      32.106  25.545  19.980  1.00  0.00    -0.396 OA
ATOM     26  H   UNL A   1      32.747  25.445  19.259  1.00  0.00     0.210 HD
ENDBRANCH  24  25
ENDBRANCH  23  24
ENDBRANCH  16  23
ENDBRANCH  13  16
ENDBRANCH  11  13
ENDBRANCH   6  11
ENDBRANCH   1   5
BRANCH   3  27
ATOM     27  C   UNL A   1      32.741  30.105  26.138  1.00  0.00     0.118 C 
BRANCH  27  28
ATOM     28  C   UNL A   1      33.748  30.550  27.229  1.00  0.00     0.042 C 
BRANCH  28  29
ATOM     29  C   UNL A   1      33.711  31.973  27.860  1.00  0.00     0.118 C 
BRANCH  29  30
ATOM     30  N   UNL A   1      33.852  32.195  29.305  1.00  0.00    -0.352 N 
ATOM     31  C   UNL A   1      34.806  32.259  30.296  1.00  0.00     0.251 C 
ATOM     32  H   UNL A   1      32.963  32.350  29.699  1.00  0.00     0.163 HD
ATOM     33  O   UNL A   1      34.450  32.747  31.374  1.00  0.00    -0.269 OA
BRANCH  31  34
ATOM     34  C   UNL A   1      36.184  31.749  30.199  1.00  0.00     0.039 A 
ATOM     35  C   UNL A   1      36.774  31.162  31.341  1.00  0.00     0.014 A 
ATOM     36  C   UNL A   1      36.917  31.853  29.030  1.00  0.00     0.014 A 
ATOM     37  C   UNL A   1      38.080  30.666  31.297  1.00  0.00     0.010 A 
ATOM     38  C   UNL A   1      38.183  31.292  28.962  1.00  0.00     0.010 A 
ATOM     39  C   UNL A   1      38.785  30.718  30.094  1.00  0.00    -0.014 A 
BRANCH  39  40
ATOM     40  C   UNL A   1      40.188  30.275  29.952  1.00  0.00     0.031 A 
ATOM     41  C   UNL A   1      41.268  31.316  30.059  1.00  0.00     0.074 A 
ATOM     42  C   UNL A   1      40.461  29.016  29.567  1.00  0.00     0.049 A 
ATOM     43  N   UNL A   1      42.518  31.256  29.688  1.00  0.00    -0.248 NA
ATOM     44  C   UNL A   1      40.862  32.629  30.598  1.00  0.00     0.031 C 
ATOM     45  C   UNL A   1      39.481  27.938  29.419  1.00  0.00     0.029 A 
ATOM     46  N   UNL A   1      41.648  28.443  29.191  1.00  0.00    -0.354 N 
ATOM     47  C   UNL A   1      43.031  32.531  29.900  1.00  0.00     0.074 A 
ATOM     48  C   UNL A   1      41.943  33.358  30.370  1.00  0.00     0.031 C 
ATOM     49  C   UNL A   1      40.106  26.835  28.977  1.00  0.00     0.029 A 
ATOM     50  C   UNL A   1      41.517  27.141  28.767  1.00  0.00     0.049 A 
ATOM     51  H   UNL A   1      42.509  28.917  29.219  1.00  0.00     0.167 HD
ATOM     52  C   UNL A   1      44.302  32.964  29.739  1.00  0.00     0.031 A 
ATOM     53  C   UNL A   1      42.435  26.304  28.249  1.00  0.00     0.031 A 
ATOM     54  C   UNL A   1      45.372  32.107  29.308  1.00  0.00     0.049 A 
ATOM     55  C   UNL A   1      43.847  26.801  28.091  1.00  0.00     0.074 A 
ATOM     56  C   UNL A   1      46.716  32.402  29.178  1.00  0.00     0.029 A 
ATOM     57  N   UNL A   1      45.214  30.776  28.947  1.00  0.00    -0.354 N 
ATOM     58  N   UNL A   1      44.334  27.994  28.343  1.00  0.00    -0.248 NA
ATOM     59  C   UNL A   1      44.837  25.836  27.596  1.00  0.00     0.031 C 
ATOM     60  C   UNL A   1      47.363  31.261  28.695  1.00  0.00     0.029 A 
ATOM     61  C   UNL A   1      46.433  30.238  28.580  1.00  0.00     0.049 A 
ATOM     62  H   UNL A   1      44.359  30.287  28.953  1.00  0.00     0.167 HD
ATOM     63  C   UNL A   1      45.695  27.914  28.073  1.00  0.00     0.074 A 
ATOM     64  C   UNL A   1      45.953  26.551  27.650  1.00  0.00     0.031 C 
ATOM     65  C   UNL A   1      46.649  28.874  28.167  1.00  0.00     0.031 A 
BRANCH  52  66
ATOM     66  C   UNL A   1      44.590  34.411  30.039  1.00  0.00    -0.014 A 
ATOM     67  C   UNL A   1      44.952  34.829  31.333  1.00  0.00     0.010 A 
ATOM     68  C   UNL A   1      44.510  35.370  29.012  1.00  0.00     0.010 A 
ATOM     69  C   UNL A   1      45.177  36.181  31.608  1.00  0.00     0.020 A 
ATOM     70  C   UNL A   1      44.770  36.720  29.275  1.00  0.00     0.020 A 
ATOM     71  C   UNL A   1      45.083  37.118  30.575  1.00  0.00     0.054 A 
BRANCH  71  72
ATOM     72  S   UNL A   1      45.405  38.861  30.956  1.00  0.00     0.124 S 
ATOM     73  O   UNL A   1      45.216  39.495  29.654  1.00  0.00    -0.237 OA
ATOM     74  O   UNL A   1      44.383  39.164  31.956  1.00  0.00    -0.237 OA
ATOM     75  O   UNL A   1      46.778  38.860  31.454  1.00  0.00    -0.744 OA
ENDBRANCH  71  72
ENDBRANCH  52  66
BRANCH  53  76
ATOM     76  C   UNL A   1      42.055  24.912  27.881  1.00  0.00    -0.014 A 
ATOM     77  C   UNL A   1      41.464  24.648  26.632  1.00  0.00     0.010 A 
ATOM     78  C   UNL A   1      42.303  23.839  28.756  1.00  0.00     0.010 A 
ATOM     79  C   UNL A   1      41.108  23.344  26.275  1.00  0.00     0.020 A 
ATOM     80  C   UNL A   1      41.975  22.529  28.391  1.00  0.00     0.020 A 
ATOM     81  C   UNL A   1      41.368  22.291  27.156  1.00  0.00     0.054 A 
BRANCH  81  82
ATOM     82  S   UNL A   1      40.938  20.604  26.647  1.00  0.00     0.124 S 
ATOM     83  O   UNL A   1      39.649  20.804  25.992  1.00  0.00    -0.237 OA
ATOM     84  O   UNL A   1      42.047  20.250  25.765  1.00  0.00    -0.237 OA
ATOM     85  O   UNL A   1      40.893  19.866  27.907  1.00  0.00    -0.744 OA
ENDBRANCH  81  82
ENDBRANCH  53  76
BRANCH  65  86
ATOM     86  C   UNL A   1      48.062  28.469  27.847  1.00  0.00    -0.014 A 
ATOM     87  C   UNL A   1      48.882  27.859  28.812  1.00  0.00     0.010 A 
ATOM     88  C   UNL A   1      48.551  28.649  26.540  1.00  0.00     0.010 A 
ATOM     89  C   UNL A   1      50.182  27.470  28.484  1.00  0.00     0.020 A 
ATOM     90  C   UNL A   1      49.838  28.230  26.199  1.00  0.00     0.020 A 
ATOM     91  C   UNL A   1      50.650  27.656  27.179  1.00  0.00     0.054 A 
BRANCH  91  92
ATOM     92  S   UNL A   1      52.326  27.101  26.768  1.00  0.00     0.124 S 
ATOM     93  O   UNL A   1      52.362  27.289  25.321  1.00  0.00    -0.237 OA
ATOM     94  O   UNL A   1      53.163  28.015  27.542  1.00  0.00    -0.237 OA
ATOM     95  O   UNL A   1      52.351  25.711  27.218  1.00  0.00    -0.744 OA
ENDBRANCH  91  92
ENDBRANCH  65  86
ENDBRANCH  39  40
ENDBRANCH  31  34
ENDBRANCH  29  30
ENDBRANCH  28  29
ENDBRANCH  27  28
ENDBRANCH   3  27
TORSDOF 21
ENDMDL
MODEL 3
REMARK VINA RESULT:     -10.4      4.009      9.799
REMARK SMILES CCN(C(=O)c1ccccc1C(=O)NCCCNC(=O)c1ccc(-c2c3nc(c(-c4ccc(S(=O)(=O)[O-])cc4)c4ccc([nH]4)c(-c4ccc(S(=O)(=O)[O-])cc4)c4nc(c(-c5ccc(S(=O)(=O)[O-])cc5)c5ccc2[nH]5)C=C4)C=C3)cc1)[C@H](CCO)c1ccccc1
REMARK SMILES IDX 12 1 13 2 14 3 11 5 6 6 7 7 8 8 10 9 9 10 4 11 5 12 3 13
REMARK SMILES IDX 2 14 1 15 81 16 85 17 86 18 90 19 87 20 89 21 88 22 82 23
REMARK SMILES IDX 83 24 84 25 15 27 16 28 17 29 18 30 19 31 20 33 21 34 22 35
REMARK SMILES IDX 80 36 23 37 79 38 24 39 25 40 26 41 73 42 27 43 78 44 72 45
REMARK SMILES IDX 74 46 28 47 77 48 71 49 70 50 29 52 59 53 40 54 58 55 41 56
REMARK SMILES IDX 44 57 57 58 75 59 42 60 43 61 56 63 76 64 45 65 30 66 31 67
REMARK SMILES IDX 39 68 32 69 38 70 33 71 34 72 35 73 36 74 37 75 60 76 61 77
REMARK SMILES IDX 69 78 62 79 68 80 63 81 64 82 65 83 66 84 67 85 46 86 47 87
REMARK SMILES IDX 55 88 48 89 54 90 49 91 50 92 51 93 52 94 53 95
REMARK H PARENT 14 4 84 26 18 32 74 51 44 62
REMARK Flexibility Score: inf
ROOT
ATOM      1  C   UNL A   1      30.187  26.315  23.707  1.00  0.00     0.252 C 
ATOM      2  O   UNL A   1      29.026  25.915  23.542  1.00  0.00    -0.269 OA
ATOM      3  N   UNL A   1      30.317  27.336  24.624  1.00  0.00    -0.352 N 
ATOM      4  H   UNL A   1      29.457  27.664  24.972  1.00  0.00     0.163 HD
ENDROOT
BRANCH   1   5
ATOM      5  C   UNL A   1      31.243  25.661  22.857  1.00  0.00     0.052 A 
ATOM      6  C   UNL A   1      31.857  24.411  22.990  1.00  0.00     0.052 A 
ATOM      7  C   UNL A   1      32.763  23.924  22.010  1.00  0.00     0.014 A 
ATOM      8  C   UNL A   1      33.042  24.653  20.862  1.00  0.00     0.001 A 
ATOM      9  C   UNL A   1      31.555  26.376  21.671  1.00  0.00     0.014 A 
ATOM     10  C   UNL A   1      32.432  25.884  20.690  1.00  0.00     0.001 A 
BRANCH   6  11
ATOM     11  C   UNL A   1      31.641  23.463  24.082  1.00  0.00     0.255 C 
ATOM     12  O   UNL A   1      30.480  23.065  24.139  1.00  0.00    -0.269 OA
BRANCH  11  13
ATOM     13  N   UNL A   1      32.688  23.160  24.965  1.00  0.00    -0.332 N 
BRANCH  13  14
ATOM     14  C   UNL A   1      33.073  24.154  25.990  1.00  0.00     0.117 C 
ATOM     15  C   UNL A   1      34.211  25.111  25.660  1.00  0.00     0.027 C 
ENDBRANCH  13  14
BRANCH  13  16
ATOM     16  C   UNL A   1      33.401  21.834  24.906  1.00  0.00     0.118 C 
BRANCH  16  17
ATOM     17  C   UNL A   1      34.961  21.873  24.791  1.00  0.00    -0.025 A 
ATOM     18  C   UNL A   1      35.579  22.440  23.665  1.00  0.00     0.006 A 
ATOM     19  C   UNL A   1      35.839  21.485  25.812  1.00  0.00     0.006 A 
ATOM     20  C   UNL A   1      36.974  22.632  23.599  1.00  0.00     0.000 A 
ATOM     21  C   UNL A   1      37.227  21.693  25.774  1.00  0.00     0.000 A 
ATOM     22  C   UNL A   1      37.800  22.272  24.659  1.00  0.00     0.000 A 
ENDBRANCH  16  17
BRANCH  16  23
ATOM     23  C   UNL A   1      32.825  20.688  25.830  1.00  0.00     0.058 C 
BRANCH  23  24
ATOM     24  C   UNL A   1      32.881  19.201  25.443  1.00  0.00     0.158 C 
BRANCH  24  25
ATOM     25  O   UNL A   1      32.843  18.315  26.557  1.00  0.00    -0.396 OA
ATOM     26  H   UNL A   1      33.578  18.519  27.156  1.00  0.00     0.210 HD
ENDBRANCH  24  25
ENDBRANCH  23  24
ENDBRANCH  16  23
ENDBRANCH  13  16
ENDBRANCH  11  13
ENDBRANCH   6  11
ENDBRANCH   1   5
BRANCH   3  27
ATOM     27  C   UNL A   1      31.466  28.022  25.179  1.00  0.00     0.118 C 
BRANCH  27  28
ATOM     28  C   UNL A   1      31.758  27.812  26.687  1.00  0.00     0.042 C 
BRANCH  28  29
ATOM     29  C   UNL A   1      33.082  28.292  27.349  1.00  0.00     0.118 C 
BRANCH  29  30
ATOM     30  N   UNL A   1      33.358  29.710  27.616  1.00  0.00    -0.352 N 
ATOM     31  C   UNL A   1      34.400  30.578  27.854  1.00  0.00     0.251 C 
ATOM     32  H   UNL A   1      32.509  30.209  27.631  1.00  0.00     0.163 HD
ATOM     33  O   UNL A   1      34.145  31.783  27.765  1.00  0.00    -0.269 OA
BRANCH  31  34
ATOM     34  C   UNL A   1      35.764  30.195  28.256  1.00  0.00     0.039 A 
ATOM     35  C   UNL A   1      36.781  30.169  27.275  1.00  0.00     0.014 A 
ATOM     36  C   UNL A   1      36.064  29.838  29.559  1.00  0.00     0.014 A 
ATOM     37  C   UNL A   1      38.089  29.810  27.611  1.00  0.00     0.010 A 
ATOM     38  C   UNL A   1      37.375  29.558  29.909  1.00  0.00     0.010 A 
ATOM     39  C   UNL A   1      38.392  29.516  28.940  1.00  0.00    -0.014 A 
BRANCH  39  40
ATOM     40  C   UNL A   1      39.727  29.069  29.393  1.00  0.00     0.031 A 
ATOM     41  C   UNL A   1      40.630  30.087  30.034  1.00  0.00     0.074 A 
ATOM     42  C   UNL A   1      40.169  27.839  29.076  1.00  0.00     0.049 A 
ATOM     43  N   UNL A   1      41.917  30.041  30.241  1.00  0.00    -0.248 NA
ATOM     44  C   UNL A   1      40.000  31.361  30.434  1.00  0.00     0.031 C 
ATOM     45  C   UNL A   1      39.375  26.786  28.439  1.00  0.00     0.029 A 
ATOM     46  N   UNL A   1      41.413  27.282  29.214  1.00  0.00    -0.354 N 
ATOM     47  C   UNL A   1      42.257  31.291  30.746  1.00  0.00     0.074 A 
ATOM     48  C   UNL A   1      41.055  32.093  30.753  1.00  0.00     0.031 C 
ATOM     49  C   UNL A   1      40.155  25.711  28.236  1.00  0.00     0.029 A 
ATOM     50  C   UNL A   1      41.509  26.018  28.684  1.00  0.00     0.049 A 
ATOM     51  H   UNL A   1      42.166  27.744  29.648  1.00  0.00     0.167 HD
ATOM     52  C   UNL A   1      43.462  31.721  31.186  1.00  0.00     0.031 A 
ATOM     53  C   UNL A   1      42.580  25.211  28.559  1.00  0.00     0.031 A 
ATOM     54  C   UNL A   1      44.632  30.887  31.204  1.00  0.00     0.049 A 
ATOM     55  C   UNL A   1      43.909  25.702  29.068  1.00  0.00     0.074 A 
ATOM     56  C   UNL A   1      45.891  31.176  31.694  1.00  0.00     0.029 A 
ATOM     57  N   UNL A   1      44.676  29.588  30.716  1.00  0.00    -0.354 N 
ATOM     58  N   UNL A   1      44.210  26.868  29.592  1.00  0.00    -0.248 NA
ATOM     59  C   UNL A   1      45.036  24.767  28.986  1.00  0.00     0.031 C 
ATOM     60  C   UNL A   1      46.710  30.067  31.460  1.00  0.00     0.029 A 
ATOM     61  C   UNL A   1      45.946  29.065  30.879  1.00  0.00     0.049 A 
ATOM     62  H   UNL A   1      43.916  29.109  30.313  1.00  0.00     0.167 HD
ATOM     63  C   UNL A   1      45.555  26.794  29.936  1.00  0.00     0.074 A 
ATOM     64  C   UNL A   1      46.002  25.463  29.572  1.00  0.00     0.031 C 
ATOM     65  C   UNL A   1      46.351  27.733  30.505  1.00  0.00     0.031 A 
BRANCH  52  66
ATOM     66  C   UNL A   1      43.558  33.139  31.684  1.00  0.00    -0.014 A 
ATOM     67  C   UNL A   1      44.048  34.170  30.861  1.00  0.00     0.010 A 
ATOM     68  C   UNL A   1      43.143  33.452  32.992  1.00  0.00     0.010 A 
ATOM     69  C   UNL A   1      44.170  35.473  31.349  1.00  0.00     0.020 A 
ATOM     70  C   UNL A   1      43.230  34.763  33.473  1.00  0.00     0.020 A 
ATOM     71  C   UNL A   1      43.761  35.761  32.654  1.00  0.00     0.054 A 
BRANCH  71  72
ATOM     72  S   UNL A   1      43.907  37.467  33.250  1.00  0.00     0.124 S 
ATOM     73  O   UNL A   1      42.728  37.590  34.104  1.00  0.00    -0.237 OA
ATOM     74  O   UNL A   1      45.190  37.452  33.951  1.00  0.00    -0.237 OA
ATOM     75  O   UNL A   1      43.878  38.267  32.029  1.00  0.00    -0.744 OA
ENDBRANCH  71  72
ENDBRANCH  52  66
BRANCH  53  76
ATOM     76  C   UNL A   1      42.429  23.854  27.963  1.00  0.00    -0.014 A 
ATOM     77  C   UNL A   1      42.644  23.660  26.587  1.00  0.00     0.010 A 
ATOM     78  C   UNL A   1      42.099  22.745  28.764  1.00  0.00     0.010 A 
ATOM     79  C   UNL A   1      42.510  22.389  26.019  1.00  0.00     0.020 A 
ATOM     80  C   UNL A   1      41.993  21.467  28.205  1.00  0.00     0.020 A 
ATOM     81  C   UNL A   1      42.187  21.300  26.832  1.00  0.00     0.054 A 
BRANCH  81  82
ATOM     82  S   UNL A   1      42.066  19.655  26.076  1.00  0.00     0.124 S 
ATOM     83  O   UNL A   1      42.982  19.773  24.946  1.00  0.00    -0.237 OA
ATOM     84  O   UNL A   1      42.506  18.778  27.159  1.00  0.00    -0.237 OA
ATOM     85  O   UNL A   1      40.652  19.541  25.727  1.00  0.00    -0.744 OA
ENDBRANCH  81  82
ENDBRANCH  53  76
BRANCH  65  86
ATOM     86  C   UNL A   1      47.771  27.338  30.804  1.00  0.00    -0.014 A 
ATOM     87  C   UNL A   1      48.103  26.651  31.984  1.00  0.00     0.010 A 
ATOM     88  C   UNL A   1      48.776  27.609  29.857  1.00  0.00     0.010 A 
ATOM     89  C   UNL A   1      49.424  26.272  32.228  1.00  0.00     0.020 A 
ATOM     90  C   UNL A   1      50.091  27.202  30.082  1.00  0.00     0.020 A 
ATOM     91  C   UNL A   1      50.409  26.549  31.274  1.00  0.00     0.054 A 
BRANCH  91  92
ATOM     92  S   UNL A   1      52.109  26.008  31.596  1.00  0.00     0.124 S 
ATOM     93  O   UNL A   1      52.738  26.190  30.291  1.00  0.00    -0.237 OA
ATOM     94  O   UNL A   1      52.546  26.931  32.641  1.00  0.00    -0.237 OA
ATOM     95  O   UNL A   1      51.955  24.619  32.026  1.00  0.00    -0.744 OA
ENDBRANCH  91  92
ENDBRANCH  65  86
ENDBRANCH  39  40
ENDBRANCH  31  34
ENDBRANCH  29  30
ENDBRANCH  28  29
ENDBRANCH  27  28
ENDBRANCH   3  27
TORSDOF 21
ENDMDL
