MODEL 1
REMARK VINA RESULT:     -10.5      0.000      0.000
REMARK SMILES C[NH+](C)[C@H](CC(=O)Nc1cccc(Cl)c1)C(=O)NCCCNC(=O)c1ccc(-c2c3nc(c(-c4ccc(S(=O)(=O)[O-])cc4)c4ccc([nH]4)c(-c4ccc(S(=O)(=O)[O-])cc4)c4nc(c(-c5ccc(S(=O)(=O)[O-])cc5)c5ccc2[nH]5)C=C4)C=C3)cc1
REMARK SMILES IDX 20 1 19 2 18 3 16 4 17 5 4 7 2 8 1 9 3 10 5 12 6 13 7 14
REMARK SMILES IDX 8 15 9 17 10 18 15 19 11 20 13 21 12 22 14 23 21 24 22 25
REMARK SMILES IDX 23 26 24 28 25 29 26 30 84 31 27 32 83 33 28 34 29 35 30 36
REMARK SMILES IDX 77 37 31 38 82 39 76 40 78 41 32 42 81 43 75 44 74 45 33 47
REMARK SMILES IDX 63 48 44 49 62 50 45 51 48 52 61 53 79 54 46 55 47 56 60 58
REMARK SMILES IDX 80 59 49 60 34 61 35 62 43 63 36 64 42 65 37 66 38 67 39 68
REMARK SMILES IDX 40 69 41 70 64 71 65 72 73 73 66 74 72 75 67 76 68 77 69 78
REMARK SMILES IDX 70 79 71 80 50 81 51 82 59 83 52 84 58 85 53 86 54 87 55 88
REMARK SMILES IDX 56 89 57 90
REMARK H PARENT 18 6 2 11 8 16 22 27 78 46 48 57
REMARK Flexibility Score: inf
ROOT
ATOM      1  C   UNL A   1      32.757  27.960  26.985  1.00  0.00     0.042 C 
ENDROOT
BRANCH   1   2
ATOM      2  C   UNL A   1      32.845  26.619  26.275  1.00  0.00     0.118 C 
BRANCH   2   3
ATOM      3  N   UNL A   1      31.791  25.719  26.717  1.00  0.00    -0.351 N 
ATOM      4  C   UNL A   1      31.558  24.386  26.565  1.00  0.00     0.278 C 
ATOM      5  O   UNL A   1      30.519  23.970  27.098  1.00  0.00    -0.268 OA
ATOM      6  H   UNL A   1      31.092  26.173  27.243  1.00  0.00     0.163 HD
BRANCH   4   7
ATOM      7  C   UNL A   1      32.546  23.386  25.896  1.00  0.00     0.283 C 
BRANCH   7   8
ATOM      8  N   UNL A   1      33.642  23.152  26.859  1.00  0.00    -0.329 N 
ATOM      9  C   UNL A   1      34.985  23.329  26.348  1.00  0.00     0.333 C 
ATOM     10  C   UNL A   1      33.412  22.020  27.735  1.00  0.00     0.333 C 
ATOM     11  H   UNL A   1      33.602  23.948  27.495  1.00  0.00     0.348 HD
ENDBRANCH   7   8
BRANCH   7  12
ATOM     12  C   UNL A   1      32.905  23.702  24.439  1.00  0.00     0.175 C 
BRANCH  12  13
ATOM     13  C   UNL A   1      31.871  23.387  23.373  1.00  0.00     0.230 C 
ATOM     14  O   UNL A   1      31.764  22.262  22.885  1.00  0.00    -0.274 OA
ATOM     15  N   UNL A   1      30.920  24.347  23.090  1.00  0.00    -0.326 N 
ATOM     16  H   UNL A   1      30.021  24.011  22.872  1.00  0.00     0.169 HD
BRANCH  15  17
ATOM     17  C   UNL A   1      31.073  25.746  23.074  1.00  0.00     0.042 A 
ATOM     18  C   UNL A   1      30.101  26.572  23.646  1.00  0.00     0.026 A 
ATOM     19  C   UNL A   1      32.268  26.311  22.638  1.00  0.00     0.046 A 
ATOM     20  C   UNL A   1      30.263  27.960  23.682  1.00  0.00     0.004 A 
ATOM     21  C   UNL A   1      32.434  27.701  22.683  1.00  0.00     0.043 A 
ATOM     22  C   UNL A   1      31.429  28.529  23.184  1.00  0.00     0.020 A 
ATOM     23  Cl  UNL A   1      33.904  28.406  22.134  1.00  0.00    -0.084 Cl
ENDBRANCH  15  17
ENDBRANCH  12  13
ENDBRANCH   7  12
ENDBRANCH   4   7
ENDBRANCH   2   3
ENDBRANCH   1   2
BRANCH   1  24
ATOM     24  C   UNL A   1      33.623  29.015  26.315  1.00  0.00     0.118 C 
BRANCH  24  25
ATOM     25  N   UNL A   1      33.603  30.286  27.035  1.00  0.00    -0.352 N 
ATOM     26  C   UNL A   1      34.497  30.804  27.945  1.00  0.00     0.251 C 
ATOM     27  H   UNL A   1      32.828  30.862  26.840  1.00  0.00     0.163 HD
ATOM     28  O   UNL A   1      34.196  31.803  28.597  1.00  0.00    -0.269 OA
BRANCH  26  29
ATOM     29  C   UNL A   1      35.796  30.134  28.164  1.00  0.00     0.039 A 
ATOM     30  C   UNL A   1      36.767  30.157  27.159  1.00  0.00     0.014 A 
ATOM     31  C   UNL A   1      36.073  29.522  29.385  1.00  0.00     0.014 A 
ATOM     32  C   UNL A   1      38.049  29.671  27.429  1.00  0.00     0.010 A 
ATOM     33  C   UNL A   1      37.377  29.164  29.694  1.00  0.00     0.010 A 
ATOM     34  C   UNL A   1      38.384  29.232  28.721  1.00  0.00    -0.014 A 
BRANCH  34  35
ATOM     35  C   UNL A   1      39.772  28.850  29.094  1.00  0.00     0.031 A 
ATOM     36  C   UNL A   1      40.680  29.860  29.749  1.00  0.00     0.074 A 
ATOM     37  C   UNL A   1      40.252  27.635  28.751  1.00  0.00     0.049 A 
ATOM     38  N   UNL A   1      41.956  29.769  30.022  1.00  0.00    -0.248 NA
ATOM     39  C   UNL A   1      40.085  31.160  30.103  1.00  0.00     0.031 C 
ATOM     40  C   UNL A   1      39.497  26.585  28.060  1.00  0.00     0.029 A 
ATOM     41  N   UNL A   1      41.496  27.082  28.926  1.00  0.00    -0.354 N 
ATOM     42  C   UNL A   1      42.320  31.006  30.541  1.00  0.00     0.074 A 
ATOM     43  C   UNL A   1      41.147  31.849  30.491  1.00  0.00     0.031 C 
ATOM     44  C   UNL A   1      40.281  25.507  27.904  1.00  0.00     0.029 A 
ATOM     45  C   UNL A   1      41.608  25.803  28.433  1.00  0.00     0.049 A 
ATOM     46  H   UNL A   1      42.239  27.557  29.362  1.00  0.00     0.167 HD
ATOM     47  C   UNL A   1      43.515  31.401  31.042  1.00  0.00     0.031 A 
ATOM     48  C   UNL A   1      42.661  24.963  28.400  1.00  0.00     0.031 A 
ATOM     49  C   UNL A   1      44.669  30.548  31.128  1.00  0.00     0.049 A 
ATOM     50  C   UNL A   1      43.974  25.416  28.976  1.00  0.00     0.074 A 
ATOM     51  C   UNL A   1      45.903  30.825  31.688  1.00  0.00     0.029 A 
ATOM     52  N   UNL A   1      44.729  29.250  30.645  1.00  0.00    -0.354 N 
ATOM     53  N   UNL A   1      44.278  26.569  29.525  1.00  0.00    -0.248 NA
ATOM     54  C   UNL A   1      45.084  24.455  28.934  1.00  0.00     0.031 C 
ATOM     55  C   UNL A   1      46.726  29.708  31.502  1.00  0.00     0.029 A 
ATOM     56  C   UNL A   1      45.986  28.719  30.874  1.00  0.00     0.049 A 
ATOM     57  H   UNL A   1      43.987  28.775  30.205  1.00  0.00     0.167 HD
ATOM     58  C   UNL A   1      45.610  26.464  29.911  1.00  0.00     0.074 A 
ATOM     59  C   UNL A   1      46.045  25.130  29.551  1.00  0.00     0.031 C 
ATOM     60  C   UNL A   1      46.402  27.389  30.506  1.00  0.00     0.031 A 
BRANCH  47  61
ATOM     61  C   UNL A   1      43.626  32.817  31.542  1.00  0.00    -0.014 A 
ATOM     62  C   UNL A   1      44.029  33.860  30.687  1.00  0.00     0.010 A 
ATOM     63  C   UNL A   1      43.298  33.117  32.877  1.00  0.00     0.010 A 
ATOM     64  C   UNL A   1      44.151  35.166  31.170  1.00  0.00     0.020 A 
ATOM     65  C   UNL A   1      43.388  34.428  33.355  1.00  0.00     0.020 A 
ATOM     66  C   UNL A   1      43.833  35.441  32.502  1.00  0.00     0.054 A 
BRANCH  66  67
ATOM     67  S   UNL A   1      43.983  37.148  33.095  1.00  0.00     0.124 S 
ATOM     68  O   UNL A   1      43.915  37.905  31.848  1.00  0.00    -0.237 OA
ATOM     69  O   UNL A   1      42.825  37.284  33.976  1.00  0.00    -0.237 OA
ATOM     70  O   UNL A   1      45.280  37.170  33.767  1.00  0.00    -0.744 OA
ENDBRANCH  66  67
ENDBRANCH  47  61
BRANCH  48  71
ATOM     71  C   UNL A   1      42.513  23.601  27.815  1.00  0.00    -0.014 A 
ATOM     72  C   UNL A   1      42.856  23.364  26.472  1.00  0.00     0.010 A 
ATOM     73  C   UNL A   1      42.042  22.531  28.598  1.00  0.00     0.010 A 
ATOM     74  C   UNL A   1      42.716  22.088  25.918  1.00  0.00     0.020 A 
ATOM     75  C   UNL A   1      41.926  21.248  28.056  1.00  0.00     0.020 A 
ATOM     76  C   UNL A   1      42.254  21.036  26.715  1.00  0.00     0.054 A 
BRANCH  76  77
ATOM     77  S   UNL A   1      42.132  19.377  25.990  1.00  0.00     0.124 S 
ATOM     78  O   UNL A   1      42.943  19.513  24.784  1.00  0.00    -0.237 OA
ATOM     79  O   UNL A   1      42.695  18.532  27.040  1.00  0.00    -0.237 OA
ATOM     80  O   UNL A   1      40.698  19.208  25.767  1.00  0.00    -0.744 OA
ENDBRANCH  76  77
ENDBRANCH  48  71
BRANCH  60  81
ATOM     81  C   UNL A   1      47.815  26.985  30.828  1.00  0.00    -0.014 A 
ATOM     82  C   UNL A   1      48.882  27.351  29.989  1.00  0.00     0.010 A 
ATOM     83  C   UNL A   1      48.083  26.283  32.016  1.00  0.00     0.010 A 
ATOM     84  C   UNL A   1      50.191  26.997  30.320  1.00  0.00     0.020 A 
ATOM     85  C   UNL A   1      49.395  25.951  32.365  1.00  0.00     0.020 A 
ATOM     86  C   UNL A   1      50.440  26.300  31.508  1.00  0.00     0.054 A 
BRANCH  86  87
ATOM     87  S   UNL A   1      52.154  25.897  31.940  1.00  0.00     0.124 S 
ATOM     88  O   UNL A   1      52.010  24.580  32.556  1.00  0.00    -0.237 OA
ATOM     89  O   UNL A   1      52.825  25.913  30.643  1.00  0.00    -0.237 OA
ATOM     90  O   UNL A   1      52.543  26.971  32.850  1.00  0.00    -0.744 OA
ENDBRANCH  86  87
ENDBRANCH  60  81
ENDBRANCH  34  35
ENDBRANCH  26  29
ENDBRANCH  24  25
ENDBRANCH   1  24
TORSDOF 17
ENDMDL
MODEL 2
REMARK VINA RESULT:     -10.4      2.574      9.049
REMARK SMILES C[NH+](C)[C@H](CC(=O)Nc1cccc(Cl)c1)C(=O)NCCCNC(=O)c1ccc(-c2c3nc(c(-c4ccc(S(=O)(=O)[O-])cc4)c4ccc([nH]4)c(-c4ccc(S(=O)(=O)[O-])cc4)c4nc(c(-c5ccc(S(=O)(=O)[O-])cc5)c5ccc2[nH]5)C=C4)C=C3)cc1
REMARK SMILES IDX 20 1 19 2 18 3 16 4 17 5 4 7 2 8 1 9 3 10 5 12 6 13 7 14
REMARK SMILES IDX 8 15 9 17 10 18 15 19 11 20 13 21 12 22 14 23 21 24 22 25
REMARK SMILES IDX 23 26 24 28 25 29 26 30 84 31 27 32 83 33 28 34 29 35 30 36
REMARK SMILES IDX 77 37 31 38 82 39 76 40 78 41 32 42 81 43 75 44 74 45 33 47
REMARK SMILES IDX 63 48 44 49 62 50 45 51 48 52 61 53 79 54 46 55 47 56 60 58
REMARK SMILES IDX 80 59 49 60 34 61 35 62 43 63 36 64 42 65 37 66 38 67 39 68
REMARK SMILES IDX 40 69 41 70 64 71 65 72 73 73 66 74 72 75 67 76 68 77 69 78
REMARK SMILES IDX 70 79 71 80 50 81 51 82 59 83 52 84 58 85 53 86 54 87 55 88
REMARK SMILES IDX 56 89 57 90
REMARK H PARENT 18 6 2 11 8 16 22 27 78 46 48 57
REMARK Flexibility Score: inf
ROOT
ATOM      1  C   UNL A   1      36.270  22.653  24.152  1.00  0.00     0.042 C 
ENDROOT
BRANCH   1   2
ATOM      2  C   UNL A   1      35.172  21.914  24.900  1.00  0.00     0.118 C 
BRANCH   2   3
ATOM      3  N   UNL A   1      34.069  21.574  24.015  1.00  0.00    -0.351 N 
ATOM      4  C   UNL A   1      32.886  22.171  23.702  1.00  0.00     0.278 C 
ATOM      5  O   UNL A   1      32.187  21.557  22.884  1.00  0.00    -0.268 OA
ATOM      6  H   UNL A   1      34.208  20.725  23.535  1.00  0.00     0.163 HD
BRANCH   4   7
ATOM      7  C   UNL A   1      32.448  23.579  24.201  1.00  0.00     0.283 C 
BRANCH   7   8
ATOM      8  N   UNL A   1      33.308  24.567  23.516  1.00  0.00    -0.329 N 
ATOM      9  C   UNL A   1      33.901  25.585  24.358  1.00  0.00     0.333 C 
ATOM     10  C   UNL A   1      32.791  24.992  22.229  1.00  0.00     0.333 C 
ATOM     11  H   UNL A   1      34.149  24.049  23.266  1.00  0.00     0.348 HD
ENDBRANCH   7   8
BRANCH   7  12
ATOM     12  C   UNL A   1      32.254  23.702  25.717  1.00  0.00     0.175 C 
BRANCH  12  13
ATOM     13  C   UNL A   1      30.833  23.795  26.241  1.00  0.00     0.230 C 
ATOM     14  O   UNL A   1      30.167  22.791  26.495  1.00  0.00    -0.274 OA
ATOM     15  N   UNL A   1      30.359  25.039  26.608  1.00  0.00    -0.326 N 
ATOM     16  H   UNL A   1      29.756  25.057  27.385  1.00  0.00     0.169 HD
BRANCH  15  17
ATOM     17  C   UNL A   1      30.630  26.285  26.012  1.00  0.00     0.042 A 
ATOM     18  C   UNL A   1      31.431  27.224  26.666  1.00  0.00     0.026 A 
ATOM     19  C   UNL A   1      30.242  26.527  24.697  1.00  0.00     0.046 A 
ATOM     20  C   UNL A   1      31.750  28.446  26.066  1.00  0.00     0.004 A 
ATOM     21  C   UNL A   1      30.570  27.746  24.092  1.00  0.00     0.043 A 
ATOM     22  C   UNL A   1      31.305  28.714  24.776  1.00  0.00     0.020 A 
ATOM     23  Cl  UNL A   1      30.082  28.056  22.471  1.00  0.00    -0.084 Cl
ENDBRANCH  15  17
ENDBRANCH  12  13
ENDBRANCH   7  12
ENDBRANCH   4   7
ENDBRANCH   2   3
ENDBRANCH   1   2
BRANCH   1  24
ATOM     24  C   UNL A   1      37.210  23.382  25.098  1.00  0.00     0.118 C 
BRANCH  24  25
ATOM     25  N   UNL A   1      38.343  22.551  25.500  1.00  0.00    -0.352 N 
ATOM     26  C   UNL A   1      39.494  22.888  26.176  1.00  0.00     0.251 C 
ATOM     27  H   UNL A   1      38.272  21.601  25.248  1.00  0.00     0.163 HD
ATOM     28  O   UNL A   1      40.424  22.086  26.238  1.00  0.00    -0.269 OA
BRANCH  26  29
ATOM     29  C   UNL A   1      39.624  24.228  26.787  1.00  0.00     0.039 A 
ATOM     30  C   UNL A   1      39.111  24.459  28.065  1.00  0.00     0.014 A 
ATOM     31  C   UNL A   1      40.297  25.245  26.113  1.00  0.00     0.014 A 
ATOM     32  C   UNL A   1      39.379  25.672  28.706  1.00  0.00     0.010 A 
ATOM     33  C   UNL A   1      40.676  26.390  26.799  1.00  0.00     0.010 A 
ATOM     34  C   UNL A   1      40.222  26.621  28.105  1.00  0.00    -0.014 A 
BRANCH  34  35
ATOM     35  C   UNL A   1      40.660  27.856  28.810  1.00  0.00     0.031 A 
ATOM     36  C   UNL A   1      42.019  27.908  29.462  1.00  0.00     0.074 A 
ATOM     37  C   UNL A   1      39.801  28.887  28.957  1.00  0.00     0.049 A 
ATOM     38  N   UNL A   1      42.527  28.831  30.237  1.00  0.00    -0.248 NA
ATOM     39  C   UNL A   1      42.904  26.750  29.250  1.00  0.00     0.031 C 
ATOM     40  C   UNL A   1      38.435  28.941  28.427  1.00  0.00     0.029 A 
ATOM     41  N   UNL A   1      39.946  30.086  29.609  1.00  0.00    -0.354 N 
ATOM     42  C   UNL A   1      43.769  28.348  30.633  1.00  0.00     0.074 A 
ATOM     43  C   UNL A   1      43.913  27.028  30.061  1.00  0.00     0.031 C 
ATOM     44  C   UNL A   1      37.884  30.123  28.744  1.00  0.00     0.029 A 
ATOM     45  C   UNL A   1      38.833  30.891  29.543  1.00  0.00     0.049 A 
ATOM     46  H   UNL A   1      40.770  30.345  30.082  1.00  0.00     0.167 HD
ATOM     47  C   UNL A   1      44.720  28.956  31.381  1.00  0.00     0.031 A 
ATOM     48  C   UNL A   1      38.595  32.108  30.072  1.00  0.00     0.031 A 
ATOM     49  C   UNL A   1      44.591  30.285  31.915  1.00  0.00     0.049 A 
ATOM     50  C   UNL A   1      39.671  32.771  30.887  1.00  0.00     0.074 A 
ATOM     51  C   UNL A   1      45.524  31.023  32.620  1.00  0.00     0.029 A 
ATOM     52  N   UNL A   1      43.459  31.076  31.798  1.00  0.00    -0.354 N 
ATOM     53  N   UNL A   1      40.866  32.324  31.192  1.00  0.00    -0.248 NA
ATOM     54  C   UNL A   1      39.368  34.105  31.424  1.00  0.00     0.031 C 
ATOM     55  C   UNL A   1      44.939  32.245  32.970  1.00  0.00     0.029 A 
ATOM     56  C   UNL A   1      43.661  32.287  32.436  1.00  0.00     0.049 A 
ATOM     57  H   UNL A   1      42.633  30.816  31.329  1.00  0.00     0.167 HD
ATOM     58  C   UNL A   1      41.465  33.331  31.941  1.00  0.00     0.074 A 
ATOM     59  C   UNL A   1      40.509  34.416  32.025  1.00  0.00     0.031 C 
ATOM     60  C   UNL A   1      42.695  33.354  32.511  1.00  0.00     0.031 A 
BRANCH  47  61
ATOM     61  C   UNL A   1      45.985  28.188  31.658  1.00  0.00    -0.014 A 
ATOM     62  C   UNL A   1      47.107  28.307  30.816  1.00  0.00     0.010 A 
ATOM     63  C   UNL A   1      46.066  27.354  32.788  1.00  0.00     0.010 A 
ATOM     64  C   UNL A   1      48.266  27.570  31.071  1.00  0.00     0.020 A 
ATOM     65  C   UNL A   1      47.236  26.639  33.064  1.00  0.00     0.020 A 
ATOM     66  C   UNL A   1      48.322  26.738  32.191  1.00  0.00     0.054 A 
BRANCH  66  67
ATOM     67  S   UNL A   1      49.847  25.808  32.506  1.00  0.00     0.124 S 
ATOM     68  O   UNL A   1      49.883  24.896  31.366  1.00  0.00    -0.237 OA
ATOM     69  O   UNL A   1      50.866  26.854  32.505  1.00  0.00    -0.237 OA
ATOM     70  O   UNL A   1      49.607  25.177  33.802  1.00  0.00    -0.744 OA
ENDBRANCH  66  67
ENDBRANCH  47  61
BRANCH  48  71
ATOM     71  C   UNL A   1      37.289  32.784  29.835  1.00  0.00    -0.014 A 
ATOM     72  C   UNL A   1      36.244  32.657  30.767  1.00  0.00     0.010 A 
ATOM     73  C   UNL A   1      37.087  33.569  28.685  1.00  0.00     0.010 A 
ATOM     74  C   UNL A   1      35.016  33.287  30.547  1.00  0.00     0.020 A 
ATOM     75  C   UNL A   1      35.870  34.223  28.475  1.00  0.00     0.020 A 
ATOM     76  C   UNL A   1      34.837  34.070  29.402  1.00  0.00     0.054 A 
BRANCH  76  77
ATOM     77  S   UNL A   1      33.253  34.923  29.164  1.00  0.00     0.124 S 
ATOM     78  O   UNL A   1      32.705  34.927  30.516  1.00  0.00    -0.237 OA
ATOM     79  O   UNL A   1      33.670  36.224  28.646  1.00  0.00    -0.237 OA
ATOM     80  O   UNL A   1      32.551  34.076  28.203  1.00  0.00    -0.744 OA
ENDBRANCH  76  77
ENDBRANCH  48  71
BRANCH  60  81
ATOM     81  C   UNL A   1      43.088  34.600  33.257  1.00  0.00    -0.014 A 
ATOM     82  C   UNL A   1      42.899  34.703  34.646  1.00  0.00     0.010 A 
ATOM     83  C   UNL A   1      43.710  35.656  32.567  1.00  0.00     0.010 A 
ATOM     84  C   UNL A   1      43.300  35.854  35.328  1.00  0.00     0.020 A 
ATOM     85  C   UNL A   1      44.139  36.796  33.251  1.00  0.00     0.020 A 
ATOM     86  C   UNL A   1      43.919  36.893  34.626  1.00  0.00     0.054 A 
BRANCH  86  87
ATOM     87  S   UNL A   1      44.477  38.354  35.544  1.00  0.00     0.124 S 
ATOM     88  O   UNL A   1      43.905  38.118  36.867  1.00  0.00    -0.237 OA
ATOM     89  O   UNL A   1      45.931  38.251  35.459  1.00  0.00    -0.237 OA
ATOM     90  O   UNL A   1      43.893  39.471  34.803  1.00  0.00    -0.744 OA
ENDBRANCH  86  87
ENDBRANCH  60  81
ENDBRANCH  34  35
ENDBRANCH  26  29
ENDBRANCH  24  25
ENDBRANCH   1  24
TORSDOF 17
ENDMDL
MODEL 3
REMARK VINA RESULT:     -10.4      1.176      2.664
REMARK SMILES C[NH+](C)[C@H](CC(=O)Nc1cccc(Cl)c1)C(=O)NCCCNC(=O)c1ccc(-c2c3nc(c(-c4ccc(S(=O)(=O)[O-])cc4)c4ccc([nH]4)c(-c4ccc(S(=O)(=O)[O-])cc4)c4nc(c(-c5ccc(S(=O)(=O)[O-])cc5)c5ccc2[nH]5)C=C4)C=C3)cc1
REMARK SMILES IDX 20 1 19 2 18 3 16 4 17 5 4 7 2 8 1 9 3 10 5 12 6 13 7 14
REMARK SMILES IDX 8 15 9 17 10 18 15 19 11 20 13 21 12 22 14 23 21 24 22 25
REMARK SMILES IDX 23 26 24 28 25 29 26 30 84 31 27 32 83 33 28 34 29 35 30 36
REMARK SMILES IDX 77 37 31 38 82 39 76 40 78 41 32 42 81 43 75 44 74 45 33 47
REMARK SMILES IDX 63 48 44 49 62 50 45 51 48 52 61 53 79 54 46 55 47 56 60 58
REMARK SMILES IDX 80 59 49 60 34 61 35 62 43 63 36 64 42 65 37 66 38 67 39 68
REMARK SMILES IDX 40 69 41 70 64 71 65 72 73 73 66 74 72 75 67 76 68 77 69 78
REMARK SMILES IDX 70 79 71 80 50 81 51 82 59 83 52 84 58 85 53 86 54 87 55 88
REMARK SMILES IDX 56 89 57 90
REMARK H PARENT 18 6 2 11 8 16 22 27 78 46 48 57
REMARK Flexibility Score: inf
ROOT
ATOM      1  C   UNL A   1      33.227  28.122  26.101  1.00  0.00     0.042 C 
ENDROOT
BRANCH   1   2
ATOM      2  C   UNL A   1      32.839  26.655  26.005  1.00  0.00     0.118 C 
BRANCH   2   3
ATOM      3  N   UNL A   1      31.692  26.470  25.131  1.00  0.00    -0.351 N 
ATOM      4  C   UNL A   1      31.258  25.449  24.341  1.00  0.00     0.278 C 
ATOM      5  O   UNL A   1      30.207  25.673  23.724  1.00  0.00    -0.268 OA
ATOM      6  H   UNL A   1      31.097  27.254  25.106  1.00  0.00     0.163 HD
BRANCH   4   7
ATOM      7  C   UNL A   1      31.917  24.041  24.275  1.00  0.00     0.283 C 
BRANCH   7   8
ATOM      8  N   UNL A   1      32.203  23.763  22.852  1.00  0.00    -0.329 N 
ATOM      9  C   UNL A   1      32.399  22.372  22.502  1.00  0.00     0.333 C 
ATOM     10  C   UNL A   1      33.093  24.731  22.240  1.00  0.00     0.333 C 
ATOM     11  H   UNL A   1      31.318  23.930  22.373  1.00  0.00     0.348 HD
ENDBRANCH   7   8
BRANCH   7  12
ATOM     12  C   UNL A   1      31.221  22.957  25.108  1.00  0.00     0.175 C 
BRANCH  12  13
ATOM     13  C   UNL A   1      31.469  22.950  26.605  1.00  0.00     0.230 C 
ATOM     14  O   UNL A   1      30.676  23.460  27.397  1.00  0.00    -0.274 OA
ATOM     15  N   UNL A   1      32.520  22.193  27.083  1.00  0.00    -0.326 N 
ATOM     16  H   UNL A   1      32.373  21.753  27.951  1.00  0.00     0.169 HD
BRANCH  15  17
ATOM     17  C   UNL A   1      33.774  21.967  26.486  1.00  0.00     0.042 A 
ATOM     18  C   UNL A   1      34.001  20.817  25.726  1.00  0.00     0.026 A 
ATOM     19  C   UNL A   1      34.745  22.965  26.508  1.00  0.00     0.046 A 
ATOM     20  C   UNL A   1      35.225  20.603  25.085  1.00  0.00     0.004 A 
ATOM     21  C   UNL A   1      35.968  22.755  25.858  1.00  0.00     0.043 A 
ATOM     22  C   UNL A   1      36.219  21.571  25.164  1.00  0.00     0.020 A 
ATOM     23  Cl  UNL A   1      37.177  23.979  25.893  1.00  0.00    -0.084 Cl
ENDBRANCH  15  17
ENDBRANCH  12  13
ENDBRANCH   7  12
ENDBRANCH   4   7
ENDBRANCH   2   3
ENDBRANCH   1   2
BRANCH   1  24
ATOM     24  C   UNL A   1      33.335  28.587  27.544  1.00  0.00     0.118 C 
BRANCH  24  25
ATOM     25  N   UNL A   1      33.511  30.034  27.647  1.00  0.00    -0.352 N 
ATOM     26  C   UNL A   1      34.602  30.768  28.054  1.00  0.00     0.251 C 
ATOM     27  H   UNL A   1      32.726  30.568  27.385  1.00  0.00     0.163 HD
ATOM     28  O   UNL A   1      34.483  31.973  28.269  1.00  0.00    -0.269 OA
BRANCH  26  29
ATOM     29  C   UNL A   1      35.901  30.098  28.273  1.00  0.00     0.039 A 
ATOM     30  C   UNL A   1      36.847  30.067  27.245  1.00  0.00     0.014 A 
ATOM     31  C   UNL A   1      36.203  29.539  29.513  1.00  0.00     0.014 A 
ATOM     32  C   UNL A   1      38.131  29.582  27.506  1.00  0.00     0.010 A 
ATOM     33  C   UNL A   1      37.511  29.184  29.807  1.00  0.00     0.010 A 
ATOM     34  C   UNL A   1      38.495  29.200  28.808  1.00  0.00    -0.014 A 
BRANCH  34  35
ATOM     35  C   UNL A   1      39.889  28.822  29.166  1.00  0.00     0.031 A 
ATOM     36  C   UNL A   1      40.799  29.836  29.812  1.00  0.00     0.074 A 
ATOM     37  C   UNL A   1      40.369  27.610  28.815  1.00  0.00     0.049 A 
ATOM     38  N   UNL A   1      42.079  29.749  30.070  1.00  0.00    -0.248 NA
ATOM     39  C   UNL A   1      40.203  31.133  30.174  1.00  0.00     0.031 C 
ATOM     40  C   UNL A   1      39.611  26.558  28.131  1.00  0.00     0.029 A 
ATOM     41  N   UNL A   1      41.618  27.062  28.975  1.00  0.00    -0.354 N 
ATOM     42  C   UNL A   1      42.444  30.987  30.587  1.00  0.00     0.074 A 
ATOM     43  C   UNL A   1      41.266  31.825  30.551  1.00  0.00     0.031 C 
ATOM     44  C   UNL A   1      40.398  25.483  27.965  1.00  0.00     0.029 A 
ATOM     45  C   UNL A   1      41.729  25.784  28.479  1.00  0.00     0.049 A 
ATOM     46  H   UNL A   1      42.364  27.540  29.404  1.00  0.00     0.167 HD
ATOM     47  C   UNL A   1      43.642  31.386  31.075  1.00  0.00     0.031 A 
ATOM     48  C   UNL A   1      42.786  24.948  28.433  1.00  0.00     0.031 A 
ATOM     49  C   UNL A   1      44.800  30.538  31.147  1.00  0.00     0.049 A 
ATOM     50  C   UNL A   1      44.103  25.407  28.995  1.00  0.00     0.074 A 
ATOM     51  C   UNL A   1      46.040  30.819  31.693  1.00  0.00     0.029 A 
ATOM     52  N   UNL A   1      44.861  29.241  30.661  1.00  0.00    -0.354 N 
ATOM     53  N   UNL A   1      44.408  26.559  29.542  1.00  0.00    -0.248 NA
ATOM     54  C   UNL A   1      45.217  24.451  28.939  1.00  0.00     0.031 C 
ATOM     55  C   UNL A   1      46.865  29.706  31.497  1.00  0.00     0.029 A 
ATOM     56  C   UNL A   1      46.123  28.714  30.875  1.00  0.00     0.049 A 
ATOM     57  H   UNL A   1      44.116  28.764  30.229  1.00  0.00     0.167 HD
ATOM     58  C   UNL A   1      45.745  26.459  29.913  1.00  0.00     0.074 A 
ATOM     59  C   UNL A   1      46.182  25.128  29.546  1.00  0.00     0.031 C 
ATOM     60  C   UNL A   1      46.539  27.387  30.501  1.00  0.00     0.031 A 
BRANCH  47  61
ATOM     61  C   UNL A   1      43.753  32.802  31.576  1.00  0.00    -0.014 A 
ATOM     62  C   UNL A   1      44.003  33.868  30.692  1.00  0.00     0.010 A 
ATOM     63  C   UNL A   1      43.579  33.077  32.945  1.00  0.00     0.010 A 
ATOM     64  C   UNL A   1      44.127  35.174  31.173  1.00  0.00     0.020 A 
ATOM     65  C   UNL A   1      43.671  34.387  33.426  1.00  0.00     0.020 A 
ATOM     66  C   UNL A   1      43.964  35.425  32.538  1.00  0.00     0.054 A 
BRANCH  66  67
ATOM     67  S   UNL A   1      44.112  37.133  33.130  1.00  0.00     0.124 S 
ATOM     68  O   UNL A   1      42.824  37.334  33.790  1.00  0.00    -0.237 OA
ATOM     69  O   UNL A   1      45.269  37.065  34.018  1.00  0.00    -0.237 OA
ATOM     70  O   UNL A   1      44.312  37.908  31.907  1.00  0.00    -0.744 OA
ENDBRANCH  66  67
ENDBRANCH  47  61
BRANCH  48  71
ATOM     71  C   UNL A   1      42.637  23.587  27.847  1.00  0.00    -0.014 A 
ATOM     72  C   UNL A   1      41.837  22.622  28.486  1.00  0.00     0.010 A 
ATOM     73  C   UNL A   1      43.280  23.251  26.642  1.00  0.00     0.010 A 
ATOM     74  C   UNL A   1      41.697  21.343  27.940  1.00  0.00     0.020 A 
ATOM     75  C   UNL A   1      43.120  21.982  26.078  1.00  0.00     0.020 A 
ATOM     76  C   UNL A   1      42.338  21.031  26.737  1.00  0.00     0.054 A 
BRANCH  76  77
ATOM     77  S   UNL A   1      42.097  19.382  26.019  1.00  0.00     0.124 S 
ATOM     78  O   UNL A   1      42.902  19.458  24.805  1.00  0.00    -0.237 OA
ATOM     79  O   UNL A   1      42.612  18.504  27.067  1.00  0.00    -0.237 OA
ATOM     80  O   UNL A   1      40.652  19.309  25.812  1.00  0.00    -0.744 OA
ENDBRANCH  76  77
ENDBRANCH  48  71
BRANCH  60  81
ATOM     81  C   UNL A   1      47.958  26.989  30.806  1.00  0.00    -0.014 A 
ATOM     82  C   UNL A   1      48.995  27.246  29.892  1.00  0.00     0.010 A 
ATOM     83  C   UNL A   1      48.263  26.406  32.048  1.00  0.00     0.010 A 
ATOM     84  C   UNL A   1      50.311  26.899  30.206  1.00  0.00     0.020 A 
ATOM     85  C   UNL A   1      49.583  26.084  32.377  1.00  0.00     0.020 A 
ATOM     86  C   UNL A   1      50.597  26.322  31.448  1.00  0.00     0.054 A 
BRANCH  86  87
ATOM     87  S   UNL A   1      52.321  25.929  31.851  1.00  0.00     0.124 S 
ATOM     88  O   UNL A   1      53.000  26.215  30.590  1.00  0.00    -0.237 OA
ATOM     89  O   UNL A   1      52.613  26.850  32.945  1.00  0.00    -0.237 OA
ATOM     90  O   UNL A   1      52.275  24.518  32.228  1.00  0.00    -0.744 OA
ENDBRANCH  86  87
ENDBRANCH  60  81
ENDBRANCH  34  35
ENDBRANCH  26  29
ENDBRANCH  24  25
ENDBRANCH   1  24
TORSDOF 17
ENDMDL
