MODEL 1
REMARK VINA RESULT:     -11.2      0.000      0.000
REMARK SMILES C[C@@]1(C(=O)c2ccccc2N)[C@H](C(=O)NCCCNC(=O)c2ccc(-c3c4nc(c(-c5ccc(S(=O)(=O)[O-])cc5)c5ccc([nH]5)c(-c5ccc(S(=O)(=O)[O-])cc5)c5nc(c(-c6ccc(S(=O)(=O)[O-])cc6)c6ccc3[nH]6)C=C5)C=C4)cc2)[C@@H]1C(=O)N1CCOCC1
REMARK SMILES IDX 17 1 16 2 15 3 13 4 14 5 12 7 1 8 2 9 82 10 3 11 4 12 5 13
REMARK SMILES IDX 6 14 10 15 7 16 9 17 8 18 11 19 83 22 84 23 85 24 86 25
REMARK SMILES IDX 90 26 87 27 89 28 88 29 18 30 19 31 20 32 21 34 22 35 23 36
REMARK SMILES IDX 81 37 24 38 80 39 25 40 26 41 27 42 74 43 28 44 79 45 73 46
REMARK SMILES IDX 75 47 29 48 78 49 72 50 71 51 30 53 60 54 41 55 59 56 42 57
REMARK SMILES IDX 45 58 58 59 76 60 43 61 44 62 57 64 77 65 46 66 31 67 32 68
REMARK SMILES IDX 40 69 33 70 39 71 34 72 35 73 36 74 37 75 38 76 61 77 62 78
REMARK SMILES IDX 70 79 63 80 69 81 64 82 65 83 66 84 67 85 68 86 47 87 48 88
REMARK SMILES IDX 56 89 49 90 55 91 50 92 51 93 52 94 53 95 54 96
REMARK H PARENT 15 6 11 20 11 21 19 33 75 52 45 63
REMARK Flexibility Score: inf
ROOT
ATOM      1  C   UNL A   1      32.831  27.612  25.543  1.00  0.00     0.042 C 
ENDROOT
BRANCH   1   2
ATOM      2  C   UNL A   1      33.816  27.711  24.378  1.00  0.00     0.117 C 
BRANCH   2   3
ATOM      3  N   UNL A   1      34.167  26.405  23.847  1.00  0.00    -0.356 N 
ATOM      4  C   UNL A   1      33.809  25.115  24.133  1.00  0.00     0.224 C 
ATOM      5  O   UNL A   1      34.225  24.266  23.338  1.00  0.00    -0.275 OA
ATOM      6  H   UNL A   1      34.815  26.461  23.108  1.00  0.00     0.163 HD
BRANCH   4   7
ATOM      7  C   UNL A   1      32.991  24.591  25.271  1.00  0.00     0.106 C 
ATOM      8  C   UNL A   1      30.657  24.240  26.394  1.00  0.00     0.022 C 
ATOM      9  C   UNL A   1      31.604  23.889  25.238  1.00  0.00     0.056 C 
ATOM     10  C   UNL A   1      32.869  23.188  25.729  1.00  0.00     0.106 C 
BRANCH   9  11
ATOM     11  C   UNL A   1      30.931  24.161  23.916  1.00  0.00     0.172 C 
ATOM     12  O   UNL A   1      30.804  23.180  23.181  1.00  0.00    -0.293 OA
BRANCH  11  13
ATOM     13  C   UNL A   1      30.544  25.492  23.349  1.00  0.00     0.041 A 
ATOM     14  C   UNL A   1      29.621  26.230  24.128  1.00  0.00     0.014 A 
ATOM     15  C   UNL A   1      31.120  26.112  22.233  1.00  0.00     0.042 A 
ATOM     16  C   UNL A   1      29.378  27.583  23.893  1.00  0.00     0.001 A 
ATOM     17  C   UNL A   1      30.914  27.493  22.048  1.00  0.00     0.026 A 
ATOM     18  C   UNL A   1      30.061  28.225  22.872  1.00  0.00     0.002 A 
BRANCH  15  19
ATOM     19  N   UNL A   1      31.919  25.453  21.313  1.00  0.00    -0.398 N 
ATOM     20  H   UNL A   1      32.166  25.895  20.468  1.00  0.00     0.156 HD
ATOM     21  H   UNL A   1      32.241  24.542  21.504  1.00  0.00     0.156 HD
ENDBRANCH  15  19
ENDBRANCH  11  13
ENDBRANCH   9  11
BRANCH  10  22
ATOM     22  C   UNL A   1      33.655  22.040  25.226  1.00  0.00     0.227 C 
ATOM     23  O   UNL A   1      33.215  21.324  24.338  1.00  0.00    -0.275 OA
ATOM     24  N   UNL A   1      34.994  21.987  25.613  1.00  0.00    -0.338 N 
ATOM     25  C   UNL A   1      35.665  22.857  26.585  1.00  0.00     0.148 C 
ATOM     26  C   UNL A   1      35.930  21.169  24.839  1.00  0.00     0.148 C 
ATOM     27  C   UNL A   1      36.731  23.710  25.889  1.00  0.00     0.181 C 
ATOM     28  C   UNL A   1      36.960  22.091  24.169  1.00  0.00     0.181 C 
ATOM     29  O   UNL A   1      37.651  22.890  25.150  1.00  0.00    -0.378 OA
ENDBRANCH  10  22
ENDBRANCH   4   7
ENDBRANCH   2   3
ENDBRANCH   1   2
BRANCH   1  30
ATOM     30  C   UNL A   1      33.421  27.986  26.896  1.00  0.00     0.118 C 
BRANCH  30  31
ATOM     31  N   UNL A   1      33.354  29.420  27.143  1.00  0.00    -0.352 N 
ATOM     32  C   UNL A   1      34.178  30.315  27.781  1.00  0.00     0.251 C 
ATOM     33  H   UNL A   1      32.542  29.838  26.774  1.00  0.00     0.163 HD
ATOM     34  O   UNL A   1      33.706  31.428  28.021  1.00  0.00    -0.269 OA
BRANCH  32  35
ATOM     35  C   UNL A   1      35.583  30.032  28.204  1.00  0.00     0.039 A 
ATOM     36  C   UNL A   1      36.581  30.094  27.216  1.00  0.00     0.014 A 
ATOM     37  C   UNL A   1      35.953  29.592  29.475  1.00  0.00     0.014 A 
ATOM     38  C   UNL A   1      37.909  29.738  27.498  1.00  0.00     0.010 A 
ATOM     39  C   UNL A   1      37.295  29.320  29.782  1.00  0.00     0.010 A 
ATOM     40  C   UNL A   1      38.288  29.363  28.794  1.00  0.00    -0.014 A 
BRANCH  40  41
ATOM     41  C   UNL A   1      39.696  28.987  29.117  1.00  0.00     0.031 A 
ATOM     42  C   UNL A   1      40.635  29.977  29.768  1.00  0.00     0.074 A 
ATOM     43  C   UNL A   1      40.162  27.765  28.785  1.00  0.00     0.049 A 
ATOM     44  N   UNL A   1      41.905  29.843  30.065  1.00  0.00    -0.248 NA
ATOM     45  C   UNL A   1      40.084  31.300  30.103  1.00  0.00     0.031 C 
ATOM     46  C   UNL A   1      39.390  26.717  28.114  1.00  0.00     0.029 A 
ATOM     47  N   UNL A   1      41.402  27.199  28.961  1.00  0.00    -0.354 N 
ATOM     48  C   UNL A   1      42.311  31.068  30.583  1.00  0.00     0.074 A 
ATOM     49  C   UNL A   1      41.160  31.945  30.529  1.00  0.00     0.031 C 
ATOM     50  C   UNL A   1      40.165  25.632  27.955  1.00  0.00     0.029 A 
ATOM     51  C   UNL A   1      41.498  25.915  28.480  1.00  0.00     0.049 A 
ATOM     52  H   UNL A   1      42.152  27.670  29.391  1.00  0.00     0.167 HD
ATOM     53  C   UNL A   1      43.522  31.435  31.073  1.00  0.00     0.031 A 
ATOM     54  C   UNL A   1      42.536  25.056  28.453  1.00  0.00     0.031 A 
ATOM     55  C   UNL A   1      44.663  30.561  31.166  1.00  0.00     0.049 A 
ATOM     56  C   UNL A   1      43.857  25.467  29.041  1.00  0.00     0.074 A 
ATOM     57  C   UNL A   1      45.905  30.822  31.720  1.00  0.00     0.029 A 
ATOM     58  N   UNL A   1      44.702  29.257  30.699  1.00  0.00    -0.354 N 
ATOM     59  N   UNL A   1      44.197  26.612  29.582  1.00  0.00    -0.248 NA
ATOM     60  C   UNL A   1      44.930  24.462  29.028  1.00  0.00     0.031 C 
ATOM     61  C   UNL A   1      46.709  29.687  31.551  1.00  0.00     0.029 A 
ATOM     62  C   UNL A   1      45.952  28.706  30.935  1.00  0.00     0.049 A 
ATOM     63  H   UNL A   1      43.953  28.791  30.263  1.00  0.00     0.167 HD
ATOM     64  C   UNL A   1      45.519  26.460  29.986  1.00  0.00     0.074 A 
ATOM     65  C   UNL A   1      45.908  25.107  29.648  1.00  0.00     0.031 C 
ATOM     66  C   UNL A   1      46.336  27.362  30.584  1.00  0.00     0.031 A 
BRANCH  53  67
ATOM     67  C   UNL A   1      43.679  32.859  31.545  1.00  0.00    -0.014 A 
ATOM     68  C   UNL A   1      44.161  33.862  30.685  1.00  0.00     0.010 A 
ATOM     69  C   UNL A   1      43.312  33.203  32.858  1.00  0.00     0.010 A 
ATOM     70  C   UNL A   1      44.322  35.173  31.146  1.00  0.00     0.020 A 
ATOM     71  C   UNL A   1      43.446  34.518  33.315  1.00  0.00     0.020 A 
ATOM     72  C   UNL A   1      43.972  35.491  32.461  1.00  0.00     0.054 A 
BRANCH  72  73
ATOM     73  S   UNL A   1      44.187  37.199  33.035  1.00  0.00     0.124 S 
ATOM     74  O   UNL A   1      43.071  37.343  33.967  1.00  0.00    -0.237 OA
ATOM     75  O   UNL A   1      45.514  37.170  33.645  1.00  0.00    -0.237 OA
ATOM     76  O   UNL A   1      44.084  37.990  31.812  1.00  0.00    -0.744 OA
ENDBRANCH  72  73
ENDBRANCH  53  67
BRANCH  54  77
ATOM     77  C   UNL A   1      42.357  23.704  27.858  1.00  0.00    -0.014 A 
ATOM     78  C   UNL A   1      42.744  23.454  26.530  1.00  0.00     0.010 A 
ATOM     79  C   UNL A   1      41.827  22.654  28.630  1.00  0.00     0.010 A 
ATOM     80  C   UNL A   1      42.598  22.178  25.980  1.00  0.00     0.020 A 
ATOM     81  C   UNL A   1      41.702  21.371  28.090  1.00  0.00     0.020 A 
ATOM     82  C   UNL A   1      42.081  21.142  26.766  1.00  0.00     0.054 A 
BRANCH  82  83
ATOM     83  S   UNL A   1      41.974  19.475  26.059  1.00  0.00     0.124 S 
ATOM     84  O   UNL A   1      42.462  18.647  27.157  1.00  0.00    -0.237 OA
ATOM     85  O   UNL A   1      40.551  19.349  25.755  1.00  0.00    -0.237 OA
ATOM     86  O   UNL A   1      42.847  19.546  24.889  1.00  0.00    -0.744 OA
ENDBRANCH  82  83
ENDBRANCH  54  77
BRANCH  66  87
ATOM     87  C   UNL A   1      47.729  26.907  30.928  1.00  0.00    -0.014 A 
ATOM     88  C   UNL A   1      48.796  27.093  30.031  1.00  0.00     0.010 A 
ATOM     89  C   UNL A   1      47.977  26.303  32.174  1.00  0.00     0.010 A 
ATOM     90  C   UNL A   1      50.079  26.644  30.357  1.00  0.00     0.020 A 
ATOM     91  C   UNL A   1      49.263  25.875  32.512  1.00  0.00     0.020 A 
ATOM     92  C   UNL A   1      50.304  26.030  31.593  1.00  0.00     0.054 A 
BRANCH  92  93
ATOM     93  S   UNL A   1      51.979  25.469  32.003  1.00  0.00     0.124 S 
ATOM     94  O   UNL A   1      51.792  24.026  32.129  1.00  0.00    -0.237 OA
ATOM     95  O   UNL A   1      52.759  25.902  30.846  1.00  0.00    -0.237 OA
ATOM     96  O   UNL A   1      52.282  26.170  33.248  1.00  0.00    -0.744 OA
ENDBRANCH  92  93
ENDBRANCH  66  87
ENDBRANCH  40  41
ENDBRANCH  32  35
ENDBRANCH  30  31
ENDBRANCH   1  30
TORSDOF 17
ENDMDL
MODEL 2
REMARK VINA RESULT:     -11.1      1.334      3.444
REMARK SMILES C[C@@]1(C(=O)c2ccccc2N)[C@H](C(=O)NCCCNC(=O)c2ccc(-c3c4nc(c(-c5ccc(S(=O)(=O)[O-])cc5)c5ccc([nH]5)c(-c5ccc(S(=O)(=O)[O-])cc5)c5nc(c(-c6ccc(S(=O)(=O)[O-])cc6)c6ccc3[nH]6)C=C5)C=C4)cc2)[C@@H]1C(=O)N1CCOCC1
REMARK SMILES IDX 17 1 16 2 15 3 13 4 14 5 12 7 1 8 2 9 82 10 3 11 4 12 5 13
REMARK SMILES IDX 6 14 10 15 7 16 9 17 8 18 11 19 83 22 84 23 85 24 86 25
REMARK SMILES IDX 90 26 87 27 89 28 88 29 18 30 19 31 20 32 21 34 22 35 23 36
REMARK SMILES IDX 81 37 24 38 80 39 25 40 26 41 27 42 74 43 28 44 79 45 73 46
REMARK SMILES IDX 75 47 29 48 78 49 72 50 71 51 30 53 60 54 41 55 59 56 42 57
REMARK SMILES IDX 45 58 58 59 76 60 43 61 44 62 57 64 77 65 46 66 31 67 32 68
REMARK SMILES IDX 40 69 33 70 39 71 34 72 35 73 36 74 37 75 38 76 61 77 62 78
REMARK SMILES IDX 70 79 63 80 69 81 64 82 65 83 66 84 67 85 68 86 47 87 48 88
REMARK SMILES IDX 56 89 49 90 55 91 50 92 51 93 52 94 53 95 54 96
REMARK H PARENT 15 6 11 20 11 21 19 33 75 52 45 63
REMARK Flexibility Score: inf
ROOT
ATOM      1  C   UNL A   1      31.692  27.781  27.266  1.00  0.00     0.042 C 
ENDROOT
BRANCH   1   2
ATOM      2  C   UNL A   1      31.276  26.742  26.224  1.00  0.00     0.117 C 
BRANCH   2   3
ATOM      3  N   UNL A   1      31.500  25.383  26.689  1.00  0.00    -0.356 N 
ATOM      4  C   UNL A   1      32.566  24.525  26.695  1.00  0.00     0.224 C 
ATOM      5  O   UNL A   1      32.395  23.480  27.331  1.00  0.00    -0.275 OA
ATOM      6  H   UNL A   1      30.695  24.987  27.095  1.00  0.00     0.163 HD
BRANCH   4   7
ATOM      7  C   UNL A   1      33.902  24.672  26.039  1.00  0.00     0.106 C 
ATOM      8  C   UNL A   1      36.356  23.833  25.711  1.00  0.00     0.022 C 
ATOM      9  C   UNL A   1      34.858  23.568  25.505  1.00  0.00     0.056 C 
ATOM     10  C   UNL A   1      34.214  24.610  24.592  1.00  0.00     0.106 C 
BRANCH   9  11
ATOM     11  C   UNL A   1      34.481  22.238  26.107  1.00  0.00     0.172 C 
ATOM     12  O   UNL A   1      34.723  22.120  27.309  1.00  0.00    -0.293 OA
BRANCH  11  13
ATOM     13  C   UNL A   1      33.993  21.018  25.388  1.00  0.00     0.041 A 
ATOM     14  C   UNL A   1      35.010  20.142  24.937  1.00  0.00     0.014 A 
ATOM     15  C   UNL A   1      32.659  20.608  25.270  1.00  0.00     0.042 A 
ATOM     16  C   UNL A   1      34.725  18.845  24.509  1.00  0.00     0.001 A 
ATOM     17  C   UNL A   1      32.393  19.277  24.898  1.00  0.00     0.026 A 
ATOM     18  C   UNL A   1      33.413  18.399  24.529  1.00  0.00     0.002 A 
BRANCH  15  19
ATOM     19  N   UNL A   1      31.575  21.429  25.538  1.00  0.00    -0.398 N 
ATOM     20  H   UNL A   1      31.443  22.256  25.020  1.00  0.00     0.156 HD
ATOM     21  H   UNL A   1      30.936  21.184  26.246  1.00  0.00     0.156 HD
ENDBRANCH  15  19
ENDBRANCH  11  13
ENDBRANCH   9  11
BRANCH  10  22
ATOM     22  C   UNL A   1      33.225  24.527  23.495  1.00  0.00     0.227 C 
ATOM     23  O   UNL A   1      32.465  23.573  23.411  1.00  0.00    -0.275 OA
ATOM     24  N   UNL A   1      33.028  25.688  22.748  1.00  0.00    -0.338 N 
ATOM     25  C   UNL A   1      33.801  26.931  22.833  1.00  0.00     0.148 C 
ATOM     26  C   UNL A   1      31.801  25.832  21.962  1.00  0.00     0.148 C 
ATOM     27  C   UNL A   1      32.919  28.072  23.350  1.00  0.00     0.181 C 
ATOM     28  C   UNL A   1      30.970  26.986  22.542  1.00  0.00     0.181 C 
ATOM     29  O   UNL A   1      31.729  28.212  22.556  1.00  0.00    -0.378 OA
ENDBRANCH  10  22
ENDBRANCH   4   7
ENDBRANCH   2   3
ENDBRANCH   1   2
BRANCH   1  30
ATOM     30  C   UNL A   1      33.121  28.282  27.114  1.00  0.00     0.118 C 
BRANCH  30  31
ATOM     31  N   UNL A   1      33.223  29.717  27.348  1.00  0.00    -0.352 N 
ATOM     32  C   UNL A   1      34.195  30.527  27.884  1.00  0.00     0.251 C 
ATOM     33  H   UNL A   1      32.424  30.213  27.059  1.00  0.00     0.163 HD
ATOM     34  O   UNL A   1      33.864  31.683  28.157  1.00  0.00    -0.269 OA
BRANCH  32  35
ATOM     35  C   UNL A   1      35.601  30.105  28.164  1.00  0.00     0.039 A 
ATOM     36  C   UNL A   1      35.910  29.719  29.480  1.00  0.00     0.014 A 
ATOM     37  C   UNL A   1      36.648  30.186  27.248  1.00  0.00     0.014 A 
ATOM     38  C   UNL A   1      37.226  29.413  29.859  1.00  0.00     0.010 A 
ATOM     39  C   UNL A   1      37.949  29.795  27.602  1.00  0.00     0.010 A 
ATOM     40  C   UNL A   1      38.264  29.429  28.917  1.00  0.00    -0.014 A 
BRANCH  40  41
ATOM     41  C   UNL A   1      39.669  29.099  29.299  1.00  0.00     0.031 A 
ATOM     42  C   UNL A   1      40.543  30.115  30.000  1.00  0.00     0.074 A 
ATOM     43  C   UNL A   1      40.192  27.899  28.976  1.00  0.00     0.049 A 
ATOM     44  N   UNL A   1      41.802  30.022  30.351  1.00  0.00    -0.248 NA
ATOM     45  C   UNL A   1      39.930  31.414  30.323  1.00  0.00     0.031 C 
ATOM     46  C   UNL A   1      39.488  26.831  28.261  1.00  0.00     0.029 A 
ATOM     47  N   UNL A   1      41.443  27.375  29.200  1.00  0.00    -0.354 N 
ATOM     48  C   UNL A   1      42.141  31.256  30.898  1.00  0.00     0.074 A 
ATOM     49  C   UNL A   1      40.963  32.092  30.802  1.00  0.00     0.031 C 
ATOM     50  C   UNL A   1      40.307  25.777  28.126  1.00  0.00     0.029 A 
ATOM     51  C   UNL A   1      41.605  26.100  28.712  1.00  0.00     0.049 A 
ATOM     52  H   UNL A   1      42.156  27.867  29.667  1.00  0.00     0.167 HD
ATOM     53  C   UNL A   1      43.315  31.660  31.445  1.00  0.00     0.031 A 
ATOM     54  C   UNL A   1      42.674  25.279  28.722  1.00  0.00     0.031 A 
ATOM     55  C   UNL A   1      44.482  30.825  31.579  1.00  0.00     0.049 A 
ATOM     56  C   UNL A   1      43.953  25.730  29.372  1.00  0.00     0.074 A 
ATOM     57  C   UNL A   1      45.689  31.124  32.189  1.00  0.00     0.029 A 
ATOM     58  N   UNL A   1      44.588  29.528  31.101  1.00  0.00    -0.354 N 
ATOM     59  N   UNL A   1      44.227  26.880  29.939  1.00  0.00    -0.248 NA
ATOM     60  C   UNL A   1      45.060  24.763  29.397  1.00  0.00     0.031 C 
ATOM     61  C   UNL A   1      46.539  30.020  32.046  1.00  0.00     0.029 A 
ATOM     62  C   UNL A   1      45.845  29.020  31.387  1.00  0.00     0.049 A 
ATOM     63  H   UNL A   1      43.875  29.041  30.629  1.00  0.00     0.167 HD
ATOM     64  C   UNL A   1      45.534  26.770  30.399  1.00  0.00     0.074 A 
ATOM     65  C   UNL A   1      45.987  25.435  30.066  1.00  0.00     0.031 C 
ATOM     66  C   UNL A   1      46.291  27.694  31.041  1.00  0.00     0.031 A 
BRANCH  53  67
ATOM     67  C   UNL A   1      43.401  33.083  31.936  1.00  0.00    -0.014 A 
ATOM     68  C   UNL A   1      43.187  33.401  33.289  1.00  0.00     0.010 A 
ATOM     69  C   UNL A   1      43.731  34.112  31.036  1.00  0.00     0.010 A 
ATOM     70  C   UNL A   1      43.247  34.729  33.722  1.00  0.00     0.020 A 
ATOM     71  C   UNL A   1      43.819  35.439  31.470  1.00  0.00     0.020 A 
ATOM     72  C   UNL A   1      43.554  35.741  32.808  1.00  0.00     0.054 A 
BRANCH  72  73
ATOM     73  S   UNL A   1      43.631  37.456  33.396  1.00  0.00     0.124 S 
ATOM     74  O   UNL A   1      42.375  37.576  34.132  1.00  0.00    -0.237 OA
ATOM     75  O   UNL A   1      44.841  37.463  34.214  1.00  0.00    -0.237 OA
ATOM     76  O   UNL A   1      43.710  38.240  32.165  1.00  0.00    -0.744 OA
ENDBRANCH  72  73
ENDBRANCH  53  67
BRANCH  54  77
ATOM     77  C   UNL A   1      42.569  23.929  28.108  1.00  0.00    -0.014 A 
ATOM     78  C   UNL A   1      42.083  22.842  28.855  1.00  0.00     0.010 A 
ATOM     79  C   UNL A   1      42.927  23.732  26.761  1.00  0.00     0.010 A 
ATOM     80  C   UNL A   1      41.962  21.579  28.269  1.00  0.00     0.020 A 
ATOM     81  C   UNL A   1      42.785  22.476  26.166  1.00  0.00     0.020 A 
ATOM     82  C   UNL A   1      42.310  21.405  26.925  1.00  0.00     0.054 A 
BRANCH  82  83
ATOM     83  S   UNL A   1      42.071  19.777  26.161  1.00  0.00     0.124 S 
ATOM     84  O   UNL A   1      42.513  18.876  27.221  1.00  0.00    -0.237 OA
ATOM     85  O   UNL A   1      40.638  19.766  25.879  1.00  0.00    -0.237 OA
ATOM     86  O   UNL A   1      42.928  19.827  24.979  1.00  0.00    -0.744 OA
ENDBRANCH  82  83
ENDBRANCH  54  77
BRANCH  66  87
ATOM     87  C   UNL A   1      47.684  27.285  31.441  1.00  0.00    -0.014 A 
ATOM     88  C   UNL A   1      47.932  26.664  32.678  1.00  0.00     0.010 A 
ATOM     89  C   UNL A   1      48.756  27.507  30.557  1.00  0.00     0.010 A 
ATOM     90  C   UNL A   1      49.234  26.310  33.042  1.00  0.00     0.020 A 
ATOM     91  C   UNL A   1      50.056  27.133  30.909  1.00  0.00     0.020 A 
ATOM     92  C   UNL A   1      50.290  26.555  32.158  1.00  0.00     0.054 A 
BRANCH  92  93
ATOM     93  S   UNL A   1      51.971  26.075  32.644  1.00  0.00     0.124 S 
ATOM     94  O   UNL A   1      52.691  27.340  32.531  1.00  0.00    -0.237 OA
ATOM     95  O   UNL A   1      51.786  25.577  34.005  1.00  0.00    -0.237 OA
ATOM     96  O   UNL A   1      52.336  25.059  31.660  1.00  0.00    -0.744 OA
ENDBRANCH  92  93
ENDBRANCH  66  87
ENDBRANCH  40  41
ENDBRANCH  32  35
ENDBRANCH  30  31
ENDBRANCH   1  30
TORSDOF 17
ENDMDL
MODEL 3
REMARK VINA RESULT:     -10.9      3.132      3.985
REMARK SMILES C[C@@]1(C(=O)c2ccccc2N)[C@H](C(=O)NCCCNC(=O)c2ccc(-c3c4nc(c(-c5ccc(S(=O)(=O)[O-])cc5)c5ccc([nH]5)c(-c5ccc(S(=O)(=O)[O-])cc5)c5nc(c(-c6ccc(S(=O)(=O)[O-])cc6)c6ccc3[nH]6)C=C5)C=C4)cc2)[C@@H]1C(=O)N1CCOCC1
REMARK SMILES IDX 17 1 16 2 15 3 13 4 14 5 12 7 1 8 2 9 82 10 3 11 4 12 5 13
REMARK SMILES IDX 6 14 10 15 7 16 9 17 8 18 11 19 83 22 84 23 85 24 86 25
REMARK SMILES IDX 90 26 87 27 89 28 88 29 18 30 19 31 20 32 21 34 22 35 23 36
REMARK SMILES IDX 81 37 24 38 80 39 25 40 26 41 27 42 74 43 28 44 79 45 73 46
REMARK SMILES IDX 75 47 29 48 78 49 72 50 71 51 30 53 60 54 41 55 59 56 42 57
REMARK SMILES IDX 45 58 58 59 76 60 43 61 44 62 57 64 77 65 46 66 31 67 32 68
REMARK SMILES IDX 40 69 33 70 39 71 34 72 35 73 36 74 37 75 38 76 61 77 62 78
REMARK SMILES IDX 70 79 63 80 69 81 64 82 65 83 66 84 67 85 68 86 47 87 48 88
REMARK SMILES IDX 56 89 49 90 55 91 50 92 51 93 52 94 53 95 54 96
REMARK H PARENT 15 6 11 20 11 21 19 33 75 52 45 63
REMARK Flexibility Score: inf
ROOT
ATOM      1  C   UNL A   1      33.935  30.426  27.256  1.00  0.00     0.042 C 
ENDROOT
BRANCH   1   2
ATOM      2  C   UNL A   1      34.027  29.027  26.647  1.00  0.00     0.117 C 
BRANCH   2   3
ATOM      3  N   UNL A   1      33.684  29.022  25.234  1.00  0.00    -0.356 N 
ATOM      4  C   UNL A   1      32.760  28.370  24.464  1.00  0.00     0.224 C 
ATOM      5  O   UNL A   1      32.684  28.758  23.294  1.00  0.00    -0.275 OA
ATOM      6  H   UNL A   1      34.251  29.632  24.708  1.00  0.00     0.163 HD
BRANCH   4   7
ATOM      7  C   UNL A   1      31.834  27.256  24.838  1.00  0.00     0.106 C 
ATOM      8  C   UNL A   1      29.477  26.136  24.681  1.00  0.00     0.022 C 
ATOM      9  C   UNL A   1      30.777  26.525  23.962  1.00  0.00     0.056 C 
ATOM     10  C   UNL A   1      31.992  25.811  24.553  1.00  0.00     0.106 C 
BRANCH   9  11
ATOM     11  C   UNL A   1      30.466  27.358  22.745  1.00  0.00     0.172 C 
ATOM     12  O   UNL A   1      31.190  27.151  21.769  1.00  0.00    -0.293 OA
BRANCH  11  13
ATOM     13  C   UNL A   1      29.493  28.492  22.641  1.00  0.00     0.041 A 
ATOM     14  C   UNL A   1      28.205  28.225  23.166  1.00  0.00     0.014 A 
ATOM     15  C   UNL A   1      29.787  29.797  22.229  1.00  0.00     0.042 A 
ATOM     16  C   UNL A   1      27.284  29.245  23.403  1.00  0.00     0.001 A 
ATOM     17  C   UNL A   1      28.873  30.824  22.534  1.00  0.00     0.026 A 
ATOM     18  C   UNL A   1      27.637  30.555  23.123  1.00  0.00     0.002 A 
BRANCH  15  19
ATOM     19  N   UNL A   1      30.953  30.152  21.569  1.00  0.00    -0.398 N 
ATOM     20  H   UNL A   1      30.962  30.934  20.970  1.00  0.00     0.156 HD
ATOM     21  H   UNL A   1      31.772  29.621  21.697  1.00  0.00     0.156 HD
ENDBRANCH  15  19
ENDBRANCH  11  13
ENDBRANCH   9  11
BRANCH  10  22
ATOM     22  C   UNL A   1      33.184  25.171  23.956  1.00  0.00     0.227 C 
ATOM     23  O   UNL A   1      33.874  25.771  23.144  1.00  0.00    -0.275 OA
ATOM     24  N   UNL A   1      33.620  23.989  24.555  1.00  0.00    -0.338 N 
ATOM     25  C   UNL A   1      32.938  23.234  25.612  1.00  0.00     0.148 C 
ATOM     26  C   UNL A   1      34.994  23.537  24.327  1.00  0.00     0.148 C 
ATOM     27  C   UNL A   1      33.769  23.253  26.899  1.00  0.00     0.181 C 
ATOM     28  C   UNL A   1      35.762  23.589  25.656  1.00  0.00     0.181 C 
ATOM     29  O   UNL A   1      35.108  22.788  26.661  1.00  0.00    -0.378 OA
ENDBRANCH  10  22
ENDBRANCH   4   7
ENDBRANCH   2   3
ENDBRANCH   1   2
BRANCH   1  30
ATOM     30  C   UNL A   1      35.253  30.962  27.797  1.00  0.00     0.118 C 
BRANCH  30  31
ATOM     31  N   UNL A   1      35.383  30.742  29.231  1.00  0.00    -0.352 N 
ATOM     32  C   UNL A   1      36.315  30.106  30.015  1.00  0.00     0.251 C 
ATOM     33  H   UNL A   1      34.644  31.133  29.751  1.00  0.00     0.163 HD
ATOM     34  O   UNL A   1      36.000  29.895  31.189  1.00  0.00    -0.269 OA
BRANCH  32  35
ATOM     35  C   UNL A   1      37.660  29.653  29.547  1.00  0.00     0.039 A 
ATOM     36  C   UNL A   1      38.617  29.347  30.530  1.00  0.00     0.014 A 
ATOM     37  C   UNL A   1      38.067  29.631  28.214  1.00  0.00     0.014 A 
ATOM     38  C   UNL A   1      39.937  29.018  30.184  1.00  0.00     0.010 A 
ATOM     39  C   UNL A   1      39.362  29.218  27.861  1.00  0.00     0.010 A 
ATOM     40  C   UNL A   1      40.323  28.931  28.839  1.00  0.00    -0.014 A 
BRANCH  40  41
ATOM     41  C   UNL A   1      41.720  28.576  28.450  1.00  0.00     0.031 A 
ATOM     42  C   UNL A   1      42.799  29.633  28.379  1.00  0.00     0.074 A 
ATOM     43  C   UNL A   1      42.024  27.307  28.108  1.00  0.00     0.049 A 
ATOM     44  N   UNL A   1      44.050  29.516  28.003  1.00  0.00    -0.248 NA
ATOM     45  C   UNL A   1      42.417  31.004  28.752  1.00  0.00     0.031 C 
ATOM     46  C   UNL A   1      41.081  26.186  28.085  1.00  0.00     0.029 A 
ATOM     47  N   UNL A   1      43.213  26.746  27.707  1.00  0.00    -0.354 N 
ATOM     48  C   UNL A   1      44.589  30.797  28.057  1.00  0.00     0.074 A 
ATOM     49  C   UNL A   1      43.521  31.682  28.471  1.00  0.00     0.031 C 
ATOM     50  C   UNL A   1      41.731  25.072  27.713  1.00  0.00     0.029 A 
ATOM     51  C   UNL A   1      43.126  25.401  27.437  1.00  0.00     0.049 A 
ATOM     52  H   UNL A   1      44.048  27.260  27.621  1.00  0.00     0.167 HD
ATOM     53  C   UNL A   1      45.857  31.207  27.802  1.00  0.00     0.031 A 
ATOM     54  C   UNL A   1      44.056  24.524  27.010  1.00  0.00     0.031 A 
ATOM     55  C   UNL A   1      46.937  30.330  27.426  1.00  0.00     0.049 A 
ATOM     56  C   UNL A   1      45.466  24.990  26.775  1.00  0.00     0.074 A 
ATOM     57  C   UNL A   1      48.271  30.644  27.224  1.00  0.00     0.029 A 
ATOM     58  N   UNL A   1      46.810  28.969  27.199  1.00  0.00    -0.354 N 
ATOM     59  N   UNL A   1      45.966  26.196  26.894  1.00  0.00    -0.248 NA
ATOM     60  C   UNL A   1      46.441  23.969  26.364  1.00  0.00     0.031 C 
ATOM     61  C   UNL A   1      48.943  29.478  26.837  1.00  0.00     0.029 A 
ATOM     62  C   UNL A   1      48.037  28.432  26.843  1.00  0.00     0.049 A 
ATOM     63  H   UNL A   1      45.973  28.459  27.280  1.00  0.00     0.167 HD
ATOM     64  C   UNL A   1      47.316  26.077  26.586  1.00  0.00     0.074 A 
ATOM     65  C   UNL A   1      47.559  24.678  26.297  1.00  0.00     0.031 C 
ATOM     66  C   UNL A   1      48.268  27.041  26.545  1.00  0.00     0.031 A 
BRANCH  53  67
ATOM     67  C   UNL A   1      46.148  32.682  27.915  1.00  0.00    -0.014 A 
ATOM     68  C   UNL A   1      45.971  33.545  26.819  1.00  0.00     0.010 A 
ATOM     69  C   UNL A   1      46.576  33.216  29.144  1.00  0.00     0.010 A 
ATOM     70  C   UNL A   1      46.268  34.907  26.935  1.00  0.00     0.020 A 
ATOM     71  C   UNL A   1      46.847  34.583  29.272  1.00  0.00     0.020 A 
ATOM     72  C   UNL A   1      46.713  35.416  28.158  1.00  0.00     0.054 A 
BRANCH  72  73
ATOM     73  S   UNL A   1      47.088  37.187  28.285  1.00  0.00     0.124 S 
ATOM     74  O   UNL A   1      48.516  37.168  28.590  1.00  0.00    -0.237 OA
ATOM     75  O   UNL A   1      46.735  37.687  26.958  1.00  0.00    -0.237 OA
ATOM     76  O   UNL A   1      46.225  37.646  29.370  1.00  0.00    -0.744 OA
ENDBRANCH  72  73
ENDBRANCH  53  67
BRANCH  54  77
ATOM     77  C   UNL A   1      43.680  23.101  26.793  1.00  0.00    -0.014 A 
ATOM     78  C   UNL A   1      43.039  22.371  27.810  1.00  0.00     0.010 A 
ATOM     79  C   UNL A   1      43.935  22.480  25.557  1.00  0.00     0.010 A 
ATOM     80  C   UNL A   1      42.664  21.042  27.596  1.00  0.00     0.020 A 
ATOM     81  C   UNL A   1      43.540  21.158  25.333  1.00  0.00     0.020 A 
ATOM     82  C   UNL A   1      42.913  20.445  26.357  1.00  0.00     0.054 A 
BRANCH  82  83
ATOM     83  S   UNL A   1      42.347  18.744  26.073  1.00  0.00     0.124 S 
ATOM     84  O   UNL A   1      42.565  18.130  27.379  1.00  0.00    -0.237 OA
ATOM     85  O   UNL A   1      40.951  18.934  25.688  1.00  0.00    -0.237 OA
ATOM     86  O   UNL A   1      43.220  18.271  25.001  1.00  0.00    -0.744 OA
ENDBRANCH  82  83
ENDBRANCH  54  77
BRANCH  66  87
ATOM     87  C   UNL A   1      49.668  26.612  26.192  1.00  0.00    -0.014 A 
ATOM     88  C   UNL A   1      50.190  26.825  24.904  1.00  0.00     0.010 A 
ATOM     89  C   UNL A   1      50.477  26.004  27.169  1.00  0.00     0.010 A 
ATOM     90  C   UNL A   1      51.483  26.400  24.587  1.00  0.00     0.020 A 
ATOM     91  C   UNL A   1      51.779  25.599  26.862  1.00  0.00     0.020 A 
ATOM     92  C   UNL A   1      52.267  25.782  25.566  1.00  0.00     0.054 A 
BRANCH  92  93
ATOM     93  S   UNL A   1      53.949  25.251  25.139  1.00  0.00     0.124 S 
ATOM     94  O   UNL A   1      54.175  25.951  23.877  1.00  0.00    -0.237 OA
ATOM     95  O   UNL A   1      54.738  25.729  26.272  1.00  0.00    -0.237 OA
ATOM     96  O   UNL A   1      53.836  23.799  25.035  1.00  0.00    -0.744 OA
ENDBRANCH  92  93
ENDBRANCH  66  87
ENDBRANCH  40  41
ENDBRANCH  32  35
ENDBRANCH  30  31
ENDBRANCH   1  30
TORSDOF 17
ENDMDL
