MODEL 1
REMARK VINA RESULT:     -11.3      0.000      0.000
REMARK SMILES COC(=O)c1cc(-c2ncccc2C(=O)NCCCNC(=O)c2ccc(-c3c4nc(c(-c5ccc(S(=O)(=O)[O-])cc5)c5ccc([nH]5)c(-c5ccc(S(=O)(=O)[O-])cc5)c5nc(c(-c6ccc(S(=O)(=O)[O-])cc6)c6ccc3[nH]6)C=C5)C=C4)cc2)cs1
REMARK SMILES IDX 18 1 17 2 16 3 14 4 15 5 13 7 8 8 9 9 10 10 12 11 11 12 7 13
REMARK SMILES IDX 5 14 6 15 84 16 83 17 3 18 4 19 2 20 1 21 19 22 20 23 21 24
REMARK SMILES IDX 22 26 23 27 24 28 82 29 25 30 81 31 26 32 27 33 28 34 75 35
REMARK SMILES IDX 29 36 80 37 74 38 76 39 30 40 79 41 73 42 72 43 31 45 61 46
REMARK SMILES IDX 42 47 60 48 43 49 46 50 59 51 77 52 44 53 45 54 58 56 78 57
REMARK SMILES IDX 47 58 32 59 33 60 41 61 34 62 40 63 35 64 36 65 37 66 38 67
REMARK SMILES IDX 39 68 62 69 63 70 71 71 64 72 70 73 65 74 66 75 67 76 68 77
REMARK SMILES IDX 69 78 48 79 49 80 57 81 50 82 56 83 51 84 52 85 53 86 54 87
REMARK SMILES IDX 55 88
REMARK H PARENT 16 6 20 25 76 44 46 55
REMARK Flexibility Score: inf
ROOT
ATOM      1  C   UNL A   1      33.770  28.822  27.165  1.00  0.00     0.042 C 
ENDROOT
BRANCH   1   2
ATOM      2  C   UNL A   1      32.983  29.758  26.251  1.00  0.00     0.118 C 
BRANCH   2   3
ATOM      3  N   UNL A   1      33.365  29.556  24.868  1.00  0.00    -0.352 N 
ATOM      4  C   UNL A   1      32.761  29.084  23.735  1.00  0.00     0.253 C 
ATOM      5  O   UNL A   1      33.518  29.042  22.766  1.00  0.00    -0.269 OA
ATOM      6  H   UNL A   1      34.297  29.826  24.701  1.00  0.00     0.163 HD
BRANCH   4   7
ATOM      7  C   UNL A   1      31.315  28.701  23.615  1.00  0.00     0.066 A 
ATOM      8  C   UNL A   1      30.907  27.356  23.704  1.00  0.00     0.084 A 
ATOM      9  N   UNL A   1      29.635  26.930  23.439  1.00  0.00    -0.255 NA
ATOM     10  C   UNL A   1      28.715  27.861  23.128  1.00  0.00     0.112 A 
ATOM     11  C   UNL A   1      30.295  29.630  23.376  1.00  0.00     0.018 A 
ATOM     12  C   UNL A   1      28.989  29.211  23.108  1.00  0.00     0.021 A 
BRANCH   8  13
ATOM     13  C   UNL A   1      31.764  26.265  24.161  1.00  0.00     0.013 A 
ATOM     14  C   UNL A   1      33.208  24.417  24.073  1.00  0.00     0.113 A 
ATOM     15  C   UNL A   1      32.630  25.450  23.358  1.00  0.00     0.038 A 
ATOM     16  S   UNL A   1      32.834  24.542  25.741  1.00  0.00    -0.136 S 
ATOM     17  C   UNL A   1      31.851  25.920  25.494  1.00  0.00     0.076 A 
BRANCH  14  18
ATOM     18  C   UNL A   1      34.023  23.313  23.602  1.00  0.00     0.348 C 
ATOM     19  O   UNL A   1      34.844  23.349  22.693  1.00  0.00    -0.245 OA
BRANCH  18  20
ATOM     20  O   UNL A   1      33.736  22.187  24.325  1.00  0.00    -0.465 OA
ATOM     21  C   UNL A   1      34.868  21.579  24.951  1.00  0.00     0.282 C 
ENDBRANCH  18  20
ENDBRANCH  14  18
ENDBRANCH   8  13
ENDBRANCH   4   7
ENDBRANCH   2   3
ENDBRANCH   1   2
BRANCH   1  22
ATOM     22  C   UNL A   1      35.177  29.340  27.476  1.00  0.00     0.118 C 
BRANCH  22  23
ATOM     23  N   UNL A   1      35.217  30.090  28.726  1.00  0.00    -0.352 N 
ATOM     24  C   UNL A   1      36.206  30.163  29.675  1.00  0.00     0.251 C 
ATOM     25  H   UNL A   1      34.414  30.625  28.919  1.00  0.00     0.163 HD
ATOM     26  O   UNL A   1      35.954  30.625  30.784  1.00  0.00    -0.269 OA
BRANCH  24  27
ATOM     27  C   UNL A   1      37.566  29.685  29.357  1.00  0.00     0.039 A 
ATOM     28  C   UNL A   1      38.023  29.741  28.037  1.00  0.00     0.014 A 
ATOM     29  C   UNL A   1      38.380  29.161  30.363  1.00  0.00     0.014 A 
ATOM     30  C   UNL A   1      39.325  29.334  27.741  1.00  0.00     0.010 A 
ATOM     31  C   UNL A   1      39.700  28.831  30.080  1.00  0.00     0.010 A 
ATOM     32  C   UNL A   1      40.186  28.910  28.766  1.00  0.00    -0.014 A 
BRANCH  32  33
ATOM     33  C   UNL A   1      41.597  28.535  28.501  1.00  0.00     0.031 A 
ATOM     34  C   UNL A   1      42.668  29.591  28.518  1.00  0.00     0.074 A 
ATOM     35  C   UNL A   1      41.898  27.267  28.157  1.00  0.00     0.049 A 
ATOM     36  N   UNL A   1      43.931  29.491  28.198  1.00  0.00    -0.248 NA
ATOM     37  C   UNL A   1      42.254  30.947  28.919  1.00  0.00     0.031 C 
ATOM     38  C   UNL A   1      40.944  26.158  28.085  1.00  0.00     0.029 A 
ATOM     39  N   UNL A   1      43.092  26.700  27.790  1.00  0.00    -0.354 N 
ATOM     40  C   UNL A   1      44.458  30.771  28.335  1.00  0.00     0.074 A 
ATOM     41  C   UNL A   1      43.365  31.639  28.714  1.00  0.00     0.031 C 
ATOM     42  C   UNL A   1      41.594  25.040  27.726  1.00  0.00     0.029 A 
ATOM     43  C   UNL A   1      42.998  25.361  27.489  1.00  0.00     0.049 A 
ATOM     44  H   UNL A   1      43.937  27.204  27.747  1.00  0.00     0.167 HD
ATOM     45  C   UNL A   1      45.738  31.182  28.177  1.00  0.00     0.031 A 
ATOM     46  C   UNL A   1      43.934  24.492  27.058  1.00  0.00     0.031 A 
ATOM     47  C   UNL A   1      46.819  30.311  27.801  1.00  0.00     0.049 A 
ATOM     48  C   UNL A   1      45.341  24.981  26.846  1.00  0.00     0.074 A 
ATOM     49  C   UNL A   1      48.161  30.615  27.659  1.00  0.00     0.029 A 
ATOM     50  N   UNL A   1      46.680  28.963  27.501  1.00  0.00    -0.354 N 
ATOM     51  N   UNL A   1      45.834  26.183  27.036  1.00  0.00    -0.248 NA
ATOM     52  C   UNL A   1      46.321  23.997  26.366  1.00  0.00     0.031 C 
ATOM     53  C   UNL A   1      48.823  29.467  27.214  1.00  0.00     0.029 A 
ATOM     54  C   UNL A   1      47.907  28.429  27.147  1.00  0.00     0.049 A 
ATOM     55  H   UNL A   1      45.834  28.461  27.535  1.00  0.00     0.167 HD
ATOM     56  C   UNL A   1      47.189  26.089  26.738  1.00  0.00     0.074 A 
ATOM     57  C   UNL A   1      47.438  24.713  26.357  1.00  0.00     0.031 C 
ATOM     58  C   UNL A   1      48.140  27.053  26.782  1.00  0.00     0.031 A 
BRANCH  45  59
ATOM     59  C   UNL A   1      46.030  32.646  28.393  1.00  0.00    -0.014 A 
ATOM     60  C   UNL A   1      45.940  33.573  27.337  1.00  0.00     0.010 A 
ATOM     61  C   UNL A   1      46.385  33.107  29.674  1.00  0.00     0.010 A 
ATOM     62  C   UNL A   1      46.258  34.916  27.544  1.00  0.00     0.020 A 
ATOM     63  C   UNL A   1      46.670  34.458  29.893  1.00  0.00     0.020 A 
ATOM     64  C   UNL A   1      46.628  35.350  28.821  1.00  0.00     0.054 A 
BRANCH  64  65
ATOM     65  S   UNL A   1      47.039  37.100  29.058  1.00  0.00     0.124 S 
ATOM     66  O   UNL A   1      47.810  37.060  30.298  1.00  0.00    -0.237 OA
ATOM     67  O   UNL A   1      47.802  37.416  27.854  1.00  0.00    -0.237 OA
ATOM     68  O   UNL A   1      45.735  37.752  29.157  1.00  0.00    -0.744 OA
ENDBRANCH  64  65
ENDBRANCH  45  59
BRANCH  46  69
ATOM     69  C   UNL A   1      43.575  23.067  26.821  1.00  0.00    -0.014 A 
ATOM     70  C   UNL A   1      42.926  22.324  27.823  1.00  0.00     0.010 A 
ATOM     71  C   UNL A   1      43.861  22.448  25.589  1.00  0.00     0.010 A 
ATOM     72  C   UNL A   1      42.584  20.986  27.606  1.00  0.00     0.020 A 
ATOM     73  C   UNL A   1      43.494  21.119  25.358  1.00  0.00     0.020 A 
ATOM     74  C   UNL A   1      42.866  20.394  26.372  1.00  0.00     0.054 A 
BRANCH  74  75
ATOM     75  S   UNL A   1      42.364  18.672  26.098  1.00  0.00     0.124 S 
ATOM     76  O   UNL A   1      40.961  18.819  25.725  1.00  0.00    -0.237 OA
ATOM     77  O   UNL A   1      43.264  18.250  25.027  1.00  0.00    -0.237 OA
ATOM     78  O   UNL A   1      42.607  18.036  27.391  1.00  0.00    -0.744 OA
ENDBRANCH  74  75
ENDBRANCH  46  69
BRANCH  58  79
ATOM     79  C   UNL A   1      49.557  26.654  26.464  1.00  0.00    -0.014 A 
ATOM     80  C   UNL A   1      50.395  26.086  27.438  1.00  0.00     0.010 A 
ATOM     81  C   UNL A   1      50.021  26.769  25.140  1.00  0.00     0.010 A 
ATOM     82  C   UNL A   1      51.678  25.649  27.096  1.00  0.00     0.020 A 
ATOM     83  C   UNL A   1      51.290  26.307  24.787  1.00  0.00     0.020 A 
ATOM     84  C   UNL A   1      52.114  25.754  25.770  1.00  0.00     0.054 A 
BRANCH  84  85
ATOM     85  S   UNL A   1      53.751  25.104  25.336  1.00  0.00     0.124 S 
ATOM     86  O   UNL A   1      53.984  25.712  24.029  1.00  0.00    -0.237 OA
ATOM     87  O   UNL A   1      54.591  25.606  26.422  1.00  0.00    -0.237 OA
ATOM     88  O   UNL A   1      53.558  23.657  25.324  1.00  0.00    -0.744 OA
ENDBRANCH  84  85
ENDBRANCH  58  79
ENDBRANCH  32  33
ENDBRANCH  24  27
ENDBRANCH  22  23
ENDBRANCH   1  22
TORSDOF 16
ENDMDL
MODEL 2
REMARK VINA RESULT:     -11.3      6.611     12.254
REMARK SMILES COC(=O)c1cc(-c2ncccc2C(=O)NCCCNC(=O)c2ccc(-c3c4nc(c(-c5ccc(S(=O)(=O)[O-])cc5)c5ccc([nH]5)c(-c5ccc(S(=O)(=O)[O-])cc5)c5nc(c(-c6ccc(S(=O)(=O)[O-])cc6)c6ccc3[nH]6)C=C5)C=C4)cc2)cs1
REMARK SMILES IDX 18 1 17 2 16 3 14 4 15 5 13 7 8 8 9 9 10 10 12 11 11 12 7 13
REMARK SMILES IDX 5 14 6 15 84 16 83 17 3 18 4 19 2 20 1 21 19 22 20 23 21 24
REMARK SMILES IDX 22 26 23 27 24 28 82 29 25 30 81 31 26 32 27 33 28 34 75 35
REMARK SMILES IDX 29 36 80 37 74 38 76 39 30 40 79 41 73 42 72 43 31 45 61 46
REMARK SMILES IDX 42 47 60 48 43 49 46 50 59 51 77 52 44 53 45 54 58 56 78 57
REMARK SMILES IDX 47 58 32 59 33 60 41 61 34 62 40 63 35 64 36 65 37 66 38 67
REMARK SMILES IDX 39 68 62 69 63 70 71 71 64 72 70 73 65 74 66 75 67 76 68 77
REMARK SMILES IDX 69 78 48 79 49 80 57 81 50 82 56 83 51 84 52 85 53 86 54 87
REMARK SMILES IDX 55 88
REMARK H PARENT 16 6 20 25 76 44 46 55
REMARK Flexibility Score: inf
ROOT
ATOM      1  C   UNL A   1      37.144  23.698  25.275  1.00  0.00     0.042 C 
ENDROOT
BRANCH   1   2
ATOM      2  C   UNL A   1      36.893  22.210  25.508  1.00  0.00     0.118 C 
BRANCH   2   3
ATOM      3  N   UNL A   1      35.862  22.020  26.508  1.00  0.00    -0.352 N 
ATOM      4  C   UNL A   1      34.628  21.430  26.554  1.00  0.00     0.253 C 
ATOM      5  O   UNL A   1      34.069  21.567  27.641  1.00  0.00    -0.269 OA
ATOM      6  H   UNL A   1      36.112  22.416  27.373  1.00  0.00     0.163 HD
BRANCH   4   7
ATOM      7  C   UNL A   1      34.001  20.636  25.446  1.00  0.00     0.066 A 
ATOM      8  C   UNL A   1      32.845  21.095  24.784  1.00  0.00     0.084 A 
ATOM      9  N   UNL A   1      32.137  20.343  23.887  1.00  0.00    -0.255 NA
ATOM     10  C   UNL A   1      32.607  19.120  23.587  1.00  0.00     0.112 A 
ATOM     11  C   UNL A   1      34.489  19.393  25.025  1.00  0.00     0.018 A 
ATOM     12  C   UNL A   1      33.779  18.616  24.106  1.00  0.00     0.021 A 
BRANCH   8  13
ATOM     13  C   UNL A   1      32.306  22.446  24.913  1.00  0.00     0.013 A 
ATOM     14  C   UNL A   1      32.110  24.770  24.651  1.00  0.00     0.113 A 
ATOM     15  C   UNL A   1      32.734  23.619  24.207  1.00  0.00     0.038 A 
ATOM     16  S   UNL A   1      30.890  24.400  25.799  1.00  0.00    -0.136 S 
ATOM     17  C   UNL A   1      31.248  22.728  25.751  1.00  0.00     0.076 A 
BRANCH  14  18
ATOM     18  C   UNL A   1      32.361  26.153  24.293  1.00  0.00     0.348 C 
ATOM     19  O   UNL A   1      32.526  26.595  23.163  1.00  0.00    -0.245 OA
BRANCH  18  20
ATOM     20  O   UNL A   1      32.402  26.922  25.425  1.00  0.00    -0.465 OA
ATOM     21  C   UNL A   1      33.663  27.544  25.675  1.00  0.00     0.282 C 
ENDBRANCH  18  20
ENDBRANCH  14  18
ENDBRANCH   8  13
ENDBRANCH   4   7
ENDBRANCH   2   3
ENDBRANCH   1   2
BRANCH   1  22
ATOM     22  C   UNL A   1      38.000  24.336  26.371  1.00  0.00     0.118 C 
BRANCH  22  23
ATOM     23  N   UNL A   1      39.397  23.930  26.275  1.00  0.00    -0.352 N 
ATOM     24  C   UNL A   1      40.528  24.557  26.738  1.00  0.00     0.251 C 
ATOM     25  H   UNL A   1      39.554  23.077  25.809  1.00  0.00     0.163 HD
ATOM     26  O   UNL A   1      41.630  24.206  26.328  1.00  0.00    -0.269 OA
BRANCH  24  27
ATOM     27  C   UNL A   1      40.411  25.650  27.723  1.00  0.00     0.039 A 
ATOM     28  C   UNL A   1      39.451  25.562  28.735  1.00  0.00     0.014 A 
ATOM     29  C   UNL A   1      41.239  26.771  27.631  1.00  0.00     0.014 A 
ATOM     30  C   UNL A   1      39.369  26.572  29.696  1.00  0.00     0.010 A 
ATOM     31  C   UNL A   1      41.209  27.733  28.633  1.00  0.00     0.010 A 
ATOM     32  C   UNL A   1      40.272  27.647  29.674  1.00  0.00    -0.014 A 
BRANCH  32  33
ATOM     33  C   UNL A   1      40.262  28.703  30.716  1.00  0.00     0.031 A 
ATOM     34  C   UNL A   1      41.190  28.599  31.895  1.00  0.00     0.074 A 
ATOM     35  C   UNL A   1      39.357  29.700  30.648  1.00  0.00     0.049 A 
ATOM     36  N   UNL A   1      41.252  29.347  32.965  1.00  0.00    -0.248 NA
ATOM     37  C   UNL A   1      42.155  27.487  31.882  1.00  0.00     0.031 C 
ATOM     38  C   UNL A   1      38.390  29.897  29.566  1.00  0.00     0.029 A 
ATOM     39  N   UNL A   1      39.096  30.730  31.516  1.00  0.00    -0.354 N 
ATOM     40  C   UNL A   1      42.244  28.786  33.762  1.00  0.00     0.074 A 
ATOM     41  C   UNL A   1      42.717  27.603  33.076  1.00  0.00     0.031 C 
ATOM     42  C   UNL A   1      37.662  30.995  29.820  1.00  0.00     0.029 A 
ATOM     43  C   UNL A   1      38.070  31.550  31.107  1.00  0.00     0.049 A 
ATOM     44  H   UNL A   1      39.596  30.870  32.353  1.00  0.00     0.167 HD
ATOM     45  C   UNL A   1      42.729  29.223  34.948  1.00  0.00     0.031 A 
ATOM     46  C   UNL A   1      37.512  32.620  31.706  1.00  0.00     0.031 A 
ATOM     47  C   UNL A   1      42.253  30.402  35.621  1.00  0.00     0.049 A 
ATOM     48  C   UNL A   1      38.036  33.063  33.045  1.00  0.00     0.074 A 
ATOM     49  C   UNL A   1      42.707  30.961  36.803  1.00  0.00     0.029 A 
ATOM     50  N   UNL A   1      41.210  31.201  35.175  1.00  0.00    -0.354 N 
ATOM     51  N   UNL A   1      39.014  32.553  33.758  1.00  0.00    -0.248 NA
ATOM     52  C   UNL A   1      37.388  34.229  33.660  1.00  0.00     0.031 C 
ATOM     53  C   UNL A   1      41.899  32.061  37.102  1.00  0.00     0.029 A 
ATOM     54  C   UNL A   1      40.987  32.231  36.072  1.00  0.00     0.049 A 
ATOM     55  H   UNL A   1      40.703  31.056  34.344  1.00  0.00     0.167 HD
ATOM     56  C   UNL A   1      39.123  33.360  34.884  1.00  0.00     0.074 A 
ATOM     57  C   UNL A   1      38.115  34.393  34.759  1.00  0.00     0.031 C 
ATOM     58  C   UNL A   1      39.985  33.258  35.925  1.00  0.00     0.031 A 
BRANCH  45  59
ATOM     59  C   UNL A   1      43.818  28.408  35.597  1.00  0.00    -0.014 A 
ATOM     60  C   UNL A   1      45.177  28.644  35.311  1.00  0.00     0.010 A 
ATOM     61  C   UNL A   1      43.483  27.401  36.520  1.00  0.00     0.010 A 
ATOM     62  C   UNL A   1      46.170  27.849  35.885  1.00  0.00     0.020 A 
ATOM     63  C   UNL A   1      44.477  26.626  37.125  1.00  0.00     0.020 A 
ATOM     64  C   UNL A   1      45.814  26.840  36.785  1.00  0.00     0.054 A 
BRANCH  64  65
ATOM     65  S   UNL A   1      47.126  25.822  37.513  1.00  0.00     0.124 S 
ATOM     66  O   UNL A   1      48.294  26.687  37.360  1.00  0.00    -0.237 OA
ATOM     67  O   UNL A   1      46.661  25.631  38.883  1.00  0.00    -0.237 OA
ATOM     68  O   UNL A   1      47.131  24.619  36.685  1.00  0.00    -0.744 OA
ENDBRANCH  64  65
ENDBRANCH  45  59
BRANCH  46  69
ATOM     69  C   UNL A   1      36.409  33.360  31.034  1.00  0.00    -0.014 A 
ATOM     70  C   UNL A   1      35.126  33.395  31.607  1.00  0.00     0.010 A 
ATOM     71  C   UNL A   1      36.636  34.050  29.827  1.00  0.00     0.010 A 
ATOM     72  C   UNL A   1      34.086  34.089  30.982  1.00  0.00     0.020 A 
ATOM     73  C   UNL A   1      35.606  34.771  29.215  1.00  0.00     0.020 A 
ATOM     74  C   UNL A   1      34.335  34.778  29.792  1.00  0.00     0.054 A 
BRANCH  74  75
ATOM     75  S   UNL A   1      32.983  35.715  29.028  1.00  0.00     0.124 S 
ATOM     76  O   UNL A   1      33.701  36.793  28.356  1.00  0.00    -0.237 OA
ATOM     77  O   UNL A   1      32.367  34.721  28.153  1.00  0.00    -0.237 OA
ATOM     78  O   UNL A   1      32.164  36.123  30.168  1.00  0.00    -0.744 OA
ENDBRANCH  74  75
ENDBRANCH  46  69
BRANCH  58  79
ATOM     79  C   UNL A   1      39.923  34.318  36.993  1.00  0.00    -0.014 A 
ATOM     80  C   UNL A   1      40.599  35.542  36.853  1.00  0.00     0.010 A 
ATOM     81  C   UNL A   1      39.094  34.115  38.113  1.00  0.00     0.010 A 
ATOM     82  C   UNL A   1      40.458  36.540  37.821  1.00  0.00     0.020 A 
ATOM     83  C   UNL A   1      38.926  35.121  39.067  1.00  0.00     0.020 A 
ATOM     84  C   UNL A   1      39.614  36.327  38.918  1.00  0.00     0.054 A 
BRANCH  84  85
ATOM     85  S   UNL A   1      39.384  37.669  40.115  1.00  0.00     0.124 S 
ATOM     86  O   UNL A   1      38.241  38.385  39.554  1.00  0.00    -0.237 OA
ATOM     87  O   UNL A   1      39.124  36.947  41.358  1.00  0.00    -0.237 OA
ATOM     88  O   UNL A   1      40.652  38.393  40.075  1.00  0.00    -0.744 OA
ENDBRANCH  84  85
ENDBRANCH  58  79
ENDBRANCH  32  33
ENDBRANCH  24  27
ENDBRANCH  22  23
ENDBRANCH   1  22
TORSDOF 16
ENDMDL
MODEL 3
REMARK VINA RESULT:     -11.2      6.478     11.225
REMARK SMILES COC(=O)c1cc(-c2ncccc2C(=O)NCCCNC(=O)c2ccc(-c3c4nc(c(-c5ccc(S(=O)(=O)[O-])cc5)c5ccc([nH]5)c(-c5ccc(S(=O)(=O)[O-])cc5)c5nc(c(-c6ccc(S(=O)(=O)[O-])cc6)c6ccc3[nH]6)C=C5)C=C4)cc2)cs1
REMARK SMILES IDX 18 1 17 2 16 3 14 4 15 5 13 7 8 8 9 9 10 10 12 11 11 12 7 13
REMARK SMILES IDX 5 14 6 15 84 16 83 17 3 18 4 19 2 20 1 21 19 22 20 23 21 24
REMARK SMILES IDX 22 26 23 27 24 28 82 29 25 30 81 31 26 32 27 33 28 34 75 35
REMARK SMILES IDX 29 36 80 37 74 38 76 39 30 40 79 41 73 42 72 43 31 45 61 46
REMARK SMILES IDX 42 47 60 48 43 49 46 50 59 51 77 52 44 53 45 54 58 56 78 57
REMARK SMILES IDX 47 58 32 59 33 60 41 61 34 62 40 63 35 64 36 65 37 66 38 67
REMARK SMILES IDX 39 68 62 69 63 70 71 71 64 72 70 73 65 74 66 75 67 76 68 77
REMARK SMILES IDX 69 78 48 79 49 80 57 81 50 82 56 83 51 84 52 85 53 86 54 87
REMARK SMILES IDX 55 88
REMARK H PARENT 16 6 20 25 76 44 46 55
REMARK Flexibility Score: inf
ROOT
ATOM      1  C   UNL A   1      32.025  31.327  26.841  1.00  0.00     0.042 C 
ENDROOT
BRANCH   1   2
ATOM      2  C   UNL A   1      32.392  30.044  26.099  1.00  0.00     0.118 C 
BRANCH   2   3
ATOM      3  N   UNL A   1      31.767  28.897  26.727  1.00  0.00    -0.352 N 
ATOM      4  C   UNL A   1      31.699  27.553  26.485  1.00  0.00     0.253 C 
ATOM      5  O   UNL A   1      30.981  26.954  27.284  1.00  0.00    -0.269 OA
ATOM      6  H   UNL A   1      31.263  29.151  27.534  1.00  0.00     0.163 HD
BRANCH   4   7
ATOM      7  C   UNL A   1      32.447  26.824  25.408  1.00  0.00     0.066 A 
ATOM      8  C   UNL A   1      31.865  26.588  24.147  1.00  0.00     0.084 A 
ATOM      9  N   UNL A   1      32.429  25.791  23.189  1.00  0.00    -0.255 NA
ATOM     10  C   UNL A   1      33.630  25.249  23.454  1.00  0.00     0.112 A 
ATOM     11  C   UNL A   1      33.736  26.306  25.587  1.00  0.00     0.018 A 
ATOM     12  C   UNL A   1      34.326  25.494  24.617  1.00  0.00     0.021 A 
BRANCH   8  13
ATOM     13  C   UNL A   1      30.635  27.221  23.678  1.00  0.00     0.013 A 
ATOM     14  C   UNL A   1      29.217  28.809  22.691  1.00  0.00     0.113 A 
ATOM     15  C   UNL A   1      30.524  28.386  22.849  1.00  0.00     0.038 A 
ATOM     16  S   UNL A   1      28.123  27.698  23.406  1.00  0.00    -0.136 S 
ATOM     17  C   UNL A   1      29.392  26.705  23.980  1.00  0.00     0.076 A 
BRANCH  14  18
ATOM     18  C   UNL A   1      28.705  30.005  22.049  1.00  0.00     0.348 C 
ATOM     19  O   UNL A   1      28.180  30.072  20.945  1.00  0.00    -0.245 OA
BRANCH  18  20
ATOM     20  O   UNL A   1      28.904  31.087  22.866  1.00  0.00    -0.465 OA
ATOM     21  C   UNL A   1      27.718  31.585  23.489  1.00  0.00     0.282 C 
ENDBRANCH  18  20
ENDBRANCH  14  18
ENDBRANCH   8  13
ENDBRANCH   4   7
ENDBRANCH   2   3
ENDBRANCH   1   2
BRANCH   1  22
ATOM     22  C   UNL A   1      33.251  32.094  27.341  1.00  0.00     0.118 C 
BRANCH  22  23
ATOM     23  N   UNL A   1      32.945  33.496  27.603  1.00  0.00    -0.352 N 
ATOM     24  C   UNL A   1      33.393  34.320  28.606  1.00  0.00     0.251 C 
ATOM     25  H   UNL A   1      32.325  33.916  26.965  1.00  0.00     0.163 HD
ATOM     26  O   UNL A   1      32.819  35.383  28.823  1.00  0.00    -0.269 OA
BRANCH  24  27
ATOM     27  C   UNL A   1      34.560  33.922  29.418  1.00  0.00     0.039 A 
ATOM     28  C   UNL A   1      34.366  33.150  30.567  1.00  0.00     0.014 A 
ATOM     29  C   UNL A   1      35.844  34.332  29.052  1.00  0.00     0.014 A 
ATOM     30  C   UNL A   1      35.471  32.732  31.311  1.00  0.00     0.010 A 
ATOM     31  C   UNL A   1      36.945  33.849  29.748  1.00  0.00     0.010 A 
ATOM     32  C   UNL A   1      36.772  33.048  30.887  1.00  0.00    -0.014 A 
BRANCH  32  33
ATOM     33  C   UNL A   1      37.973  32.564  31.611  1.00  0.00     0.031 A 
ATOM     34  C   UNL A   1      38.767  31.412  31.059  1.00  0.00     0.074 A 
ATOM     35  C   UNL A   1      38.293  33.099  32.806  1.00  0.00     0.049 A 
ATOM     36  N   UNL A   1      39.770  30.768  31.595  1.00  0.00    -0.248 NA
ATOM     37  C   UNL A   1      38.357  30.897  29.741  1.00  0.00     0.031 C 
ATOM     38  C   UNL A   1      37.587  34.206  33.456  1.00  0.00     0.029 A 
ATOM     39  N   UNL A   1      39.287  32.775  33.694  1.00  0.00    -0.354 N 
ATOM     40  C   UNL A   1      40.096  29.760  30.695  1.00  0.00     0.074 A 
ATOM     41  C   UNL A   1      39.149  29.845  29.605  1.00  0.00     0.031 C 
ATOM     42  C   UNL A   1      38.189  34.486  34.624  1.00  0.00     0.029 A 
ATOM     43  C   UNL A   1      39.286  33.546  34.832  1.00  0.00     0.049 A 
ATOM     44  H   UNL A   1      39.941  32.057  33.531  1.00  0.00     0.167 HD
ATOM     45  C   UNL A   1      41.103  28.856  30.761  1.00  0.00     0.031 A 
ATOM     46  C   UNL A   1      40.070  33.495  35.927  1.00  0.00     0.031 A 
ATOM     47  C   UNL A   1      42.041  28.781  31.849  1.00  0.00     0.049 A 
ATOM     48  C   UNL A   1      41.155  32.454  35.999  1.00  0.00     0.074 A 
ATOM     49  C   UNL A   1      43.126  27.936  31.993  1.00  0.00     0.029 A 
ATOM     50  N   UNL A   1      42.000  29.578  32.984  1.00  0.00    -0.354 N 
ATOM     51  N   UNL A   1      41.485  31.545  35.112  1.00  0.00    -0.248 NA
ATOM     52  C   UNL A   1      41.976  32.435  37.217  1.00  0.00     0.031 C 
ATOM     53  C   UNL A   1      43.705  28.180  33.242  1.00  0.00     0.029 A 
ATOM     54  C   UNL A   1      43.025  29.226  33.846  1.00  0.00     0.049 A 
ATOM     55  H   UNL A   1      41.341  30.289  33.152  1.00  0.00     0.167 HD
ATOM     56  C   UNL A   1      42.578  30.873  35.647  1.00  0.00     0.074 A 
ATOM     57  C   UNL A   1      42.854  31.480  36.933  1.00  0.00     0.031 C 
ATOM     58  C   UNL A   1      43.292  29.849  35.118  1.00  0.00     0.031 A 
BRANCH  45  59
ATOM     59  C   UNL A   1      41.225  27.867  29.630  1.00  0.00    -0.014 A 
ATOM     60  C   UNL A   1      40.321  26.796  29.496  1.00  0.00     0.010 A 
ATOM     61  C   UNL A   1      42.248  28.016  28.677  1.00  0.00     0.010 A 
ATOM     62  C   UNL A   1      40.476  25.862  28.469  1.00  0.00     0.020 A 
ATOM     63  C   UNL A   1      42.385  27.104  27.627  1.00  0.00     0.020 A 
ATOM     64  C   UNL A   1      41.512  26.018  27.544  1.00  0.00     0.054 A 
BRANCH  64  65
ATOM     65  S   UNL A   1      41.690  24.788  26.224  1.00  0.00     0.124 S 
ATOM     66  O   UNL A   1      42.961  24.156  26.573  1.00  0.00    -0.237 OA
ATOM     67  O   UNL A   1      40.505  23.953  26.402  1.00  0.00    -0.237 OA
ATOM     68  O   UNL A   1      41.708  25.589  25.002  1.00  0.00    -0.744 OA
ENDBRANCH  64  65
ENDBRANCH  45  59
BRANCH  46  69
ATOM     69  C   UNL A   1      39.874  34.474  37.031  1.00  0.00    -0.014 A 
ATOM     70  C   UNL A   1      40.527  35.718  36.999  1.00  0.00     0.010 A 
ATOM     71  C   UNL A   1      39.020  34.179  38.111  1.00  0.00     0.010 A 
ATOM     72  C   UNL A   1      40.346  36.643  38.032  1.00  0.00     0.020 A 
ATOM     73  C   UNL A   1      38.812  35.113  39.130  1.00  0.00     0.020 A 
ATOM     74  C   UNL A   1      39.484  36.335  39.089  1.00  0.00     0.054 A 
BRANCH  74  75
ATOM     75  S   UNL A   1      39.224  37.573  40.389  1.00  0.00     0.124 S 
ATOM     76  O   UNL A   1      38.133  38.370  39.837  1.00  0.00    -0.237 OA
ATOM     77  O   UNL A   1      38.885  36.747  41.545  1.00  0.00    -0.237 OA
ATOM     78  O   UNL A   1      40.515  38.253  40.476  1.00  0.00    -0.744 OA
ENDBRANCH  74  75
ENDBRANCH  46  69
BRANCH  58  79
ATOM     79  C   UNL A   1      44.480  29.347  35.897  1.00  0.00    -0.014 A 
ATOM     80  C   UNL A   1      45.732  29.979  35.812  1.00  0.00     0.010 A 
ATOM     81  C   UNL A   1      44.307  28.279  36.798  1.00  0.00     0.010 A 
ATOM     82  C   UNL A   1      46.796  29.543  36.608  1.00  0.00     0.020 A 
ATOM     83  C   UNL A   1      45.359  27.861  37.616  1.00  0.00     0.020 A 
ATOM     84  C   UNL A   1      46.600  28.492  37.511  1.00  0.00     0.054 A 
BRANCH  84  85
ATOM     85  S   UNL A   1      47.972  28.002  38.590  1.00  0.00     0.124 S 
ATOM     86  O   UNL A   1      47.844  28.947  39.696  1.00  0.00    -0.237 OA
ATOM     87  O   UNL A   1      47.647  26.613  38.909  1.00  0.00    -0.237 OA
ATOM     88  O   UNL A   1      49.155  28.182  37.752  1.00  0.00    -0.744 OA
ENDBRANCH  84  85
ENDBRANCH  58  79
ENDBRANCH  32  33
ENDBRANCH  24  27
ENDBRANCH  22  23
ENDBRANCH   1  22
TORSDOF 16
ENDMDL
