MODEL 1
REMARK VINA RESULT:     -11.4      0.000      0.000
REMARK SMILES CC(=O)O[C@@H]1[C@H](O)C(C)=C(CC[C@@H](C)CC(=O)NCCCNC(=O)c2ccc(-c3c4nc(c(-c5ccc(S(=O)(=O)[O-])cc5)c5ccc([nH]5)c(-c5ccc(S(=O)(=O)[O-])cc5)c5nc(c(-c6ccc(S(=O)(=O)[O-])cc6)c6ccc3[nH]6)C=C5)C=C4)cc2)[C@@]2(C)CCCC(C)(C)[C@H]12
REMARK SMILES IDX 16 1 17 2 18 3 15 5 13 6 14 7 12 8 11 9 10 10 5 11 6 12
REMARK SMILES IDX 93 13 8 14 85 15 90 16 9 17 87 18 86 19 89 20 91 21 92 22
REMARK SMILES IDX 88 23 4 24 2 25 1 26 3 27 7 28 19 30 20 31 21 32 22 33 23 34
REMARK SMILES IDX 24 36 25 37 26 38 84 39 27 40 83 41 28 42 29 43 30 44 77 45
REMARK SMILES IDX 31 46 82 47 76 48 78 49 32 50 81 51 75 52 74 53 33 55 63 56
REMARK SMILES IDX 44 57 62 58 45 59 48 60 61 61 79 62 46 63 47 64 60 66 80 67
REMARK SMILES IDX 49 68 34 69 35 70 43 71 36 72 42 73 37 74 38 75 39 76 40 77
REMARK SMILES IDX 41 78 64 79 65 80 73 81 66 82 72 83 67 84 68 85 69 86 70 87
REMARK SMILES IDX 71 88 50 89 51 90 59 91 52 92 58 93 53 94 54 95 55 96 56 97
REMARK SMILES IDX 57 98
REMARK H PARENT 18 4 7 29 22 35 78 54 48 65
REMARK Flexibility Score: inf
ROOT
ATOM      1  C   UNL A   1      31.059  28.330  23.023  1.00  0.00     0.220 C 
ATOM      2  O   UNL A   1      30.472  28.314  21.936  1.00  0.00    -0.275 OA
ATOM      3  N   UNL A   1      32.286  28.930  23.058  1.00  0.00    -0.356 N 
ATOM      4  H   UNL A   1      32.577  29.288  22.188  1.00  0.00     0.163 HD
ENDROOT
BRANCH   1   5
ATOM      5  C   UNL A   1      30.413  27.690  24.249  1.00  0.00     0.103 C 
BRANCH   5   6
ATOM      6  C   UNL A   1      29.757  26.307  23.994  1.00  0.00    -0.005 C 
ATOM      7  C   UNL A   1      28.231  26.415  24.055  1.00  0.00     0.008 C 
BRANCH   6   8
ATOM      8  C   UNL A   1      30.243  25.300  25.040  1.00  0.00     0.008 C 
BRANCH   8   9
ATOM      9  C   UNL A   1      30.875  23.985  24.571  1.00  0.00     0.032 C 
BRANCH   9  10
ATOM     10  C   UNL A   1      32.228  23.795  23.847  1.00  0.00    -0.062 C 
ATOM     11  C   UNL A   1      32.614  21.023  23.805  1.00  0.00     0.213 C 
ATOM     12  C   UNL A   1      31.634  21.725  22.810  1.00  0.00     0.181 C 
ATOM     13  C   UNL A   1      33.671  21.938  24.641  1.00  0.00     0.049 C 
ATOM     14  C   UNL A   1      32.159  23.132  22.635  1.00  0.00    -0.042 C 
ATOM     15  C   UNL A   1      33.575  23.537  24.608  1.00  0.00    -0.004 C 
ATOM     16  C   UNL A   1      35.047  21.396  25.241  1.00  0.00    -0.028 C 
ATOM     17  C   UNL A   1      33.228  23.096  21.544  1.00  0.00     0.042 C 
ATOM     18  C   UNL A   1      33.799  23.963  26.117  1.00  0.00     0.011 C 
ATOM     19  C   UNL A   1      34.580  24.476  23.863  1.00  0.00     0.016 C 
ATOM     20  C   UNL A   1      34.884  21.622  26.759  1.00  0.00     0.007 C 
ATOM     21  C   UNL A   1      36.324  22.142  24.806  1.00  0.00     0.011 C 
ATOM     22  C   UNL A   1      35.389  19.917  25.020  1.00  0.00     0.011 C 
ATOM     23  C   UNL A   1      34.638  23.093  27.096  1.00  0.00     0.001 C 
BRANCH  11  24
ATOM     24  O   UNL A   1      33.188  19.856  23.211  1.00  0.00    -0.459 OA
BRANCH  24  25
ATOM     25  C   UNL A   1      32.571  18.652  23.266  1.00  0.00     0.303 C 
ATOM     26  C   UNL A   1      32.339  18.021  24.611  1.00  0.00     0.139 C 
ATOM     27  O   UNL A   1      32.237  18.081  22.227  1.00  0.00    -0.253 OA
ENDBRANCH  24  25
ENDBRANCH  11  24
BRANCH  12  28
ATOM     28  O   UNL A   1      31.449  21.048  21.575  1.00  0.00    -0.385 OA
ATOM     29  H   UNL A   1      32.301  20.976  21.117  1.00  0.00     0.211 HD
ENDBRANCH  12  28
ENDBRANCH   9  10
ENDBRANCH   8   9
ENDBRANCH   6   8
ENDBRANCH   5   6
ENDBRANCH   1   5
BRANCH   3  30
ATOM     30  C   UNL A   1      33.251  29.145  24.132  1.00  0.00     0.117 C 
BRANCH  30  31
ATOM     31  C   UNL A   1      33.519  27.898  24.999  1.00  0.00     0.042 C 
BRANCH  31  32
ATOM     32  C   UNL A   1      33.548  28.096  26.523  1.00  0.00     0.118 C 
BRANCH  32  33
ATOM     33  N   UNL A   1      33.379  29.480  26.919  1.00  0.00    -0.352 N 
ATOM     34  C   UNL A   1      34.148  30.320  27.694  1.00  0.00     0.251 C 
ATOM     35  H   UNL A   1      32.560  29.900  26.568  1.00  0.00     0.163 HD
ATOM     36  O   UNL A   1      33.634  31.386  28.036  1.00  0.00    -0.269 OA
BRANCH  34  37
ATOM     37  C   UNL A   1      35.542  30.024  28.153  1.00  0.00     0.039 A 
ATOM     38  C   UNL A   1      36.558  30.064  27.188  1.00  0.00     0.014 A 
ATOM     39  C   UNL A   1      35.876  29.566  29.431  1.00  0.00     0.014 A 
ATOM     40  C   UNL A   1      37.873  29.665  27.489  1.00  0.00     0.010 A 
ATOM     41  C   UNL A   1      37.216  29.226  29.746  1.00  0.00     0.010 A 
ATOM     42  C   UNL A   1      38.245  29.259  28.781  1.00  0.00    -0.014 A 
BRANCH  42  43
ATOM     43  C   UNL A   1      39.689  28.919  29.088  1.00  0.00     0.031 A 
ATOM     44  C   UNL A   1      40.630  29.916  29.744  1.00  0.00     0.074 A 
ATOM     45  C   UNL A   1      40.200  27.701  28.782  1.00  0.00     0.049 A 
ATOM     46  N   UNL A   1      41.866  29.738  30.153  1.00  0.00    -0.248 NA
ATOM     47  C   UNL A   1      40.132  31.281  29.961  1.00  0.00     0.031 C 
ATOM     48  C   UNL A   1      39.477  26.615  28.114  1.00  0.00     0.029 A 
ATOM     49  N   UNL A   1      41.457  27.165  28.979  1.00  0.00    -0.354 N 
ATOM     50  C   UNL A   1      42.285  30.956  30.681  1.00  0.00     0.074 A 
ATOM     51  C   UNL A   1      41.197  31.887  30.467  1.00  0.00     0.031 C 
ATOM     52  C   UNL A   1      40.295  25.567  27.937  1.00  0.00     0.029 A 
ATOM     53  C   UNL A   1      41.604  25.881  28.499  1.00  0.00     0.049 A 
ATOM     54  H   UNL A   1      42.184  27.657  29.425  1.00  0.00     0.167 HD
ATOM     55  C   UNL A   1      43.439  31.277  31.322  1.00  0.00     0.031 A 
ATOM     56  C   UNL A   1      42.645  25.023  28.516  1.00  0.00     0.031 A 
ATOM     57  C   UNL A   1      44.538  30.371  31.556  1.00  0.00     0.049 A 
ATOM     58  C   UNL A   1      43.918  25.396  29.226  1.00  0.00     0.074 A 
ATOM     59  C   UNL A   1      45.702  30.600  32.275  1.00  0.00     0.029 A 
ATOM     60  N   UNL A   1      44.624  29.077  31.069  1.00  0.00    -0.354 N 
ATOM     61  N   UNL A   1      44.225  26.513  29.837  1.00  0.00    -0.248 NA
ATOM     62  C   UNL A   1      44.965  24.366  29.291  1.00  0.00     0.031 C 
ATOM     63  C   UNL A   1      46.516  29.465  32.175  1.00  0.00     0.029 A 
ATOM     64  C   UNL A   1      45.831  28.505  31.452  1.00  0.00     0.049 A 
ATOM     65  H   UNL A   1      43.933  28.629  30.532  1.00  0.00     0.167 HD
ATOM     66  C   UNL A   1      45.482  26.302  30.397  1.00  0.00     0.074 A 
ATOM     67  C   UNL A   1      45.868  24.948  30.068  1.00  0.00     0.031 C 
ATOM     68  C   UNL A   1      46.238  27.160  31.128  1.00  0.00     0.031 A 
BRANCH  55  69
ATOM     69  C   UNL A   1      43.570  32.685  31.854  1.00  0.00    -0.014 A 
ATOM     70  C   UNL A   1      43.126  33.012  33.149  1.00  0.00     0.010 A 
ATOM     71  C   UNL A   1      44.195  33.681  31.079  1.00  0.00     0.010 A 
ATOM     72  C   UNL A   1      43.249  34.315  33.636  1.00  0.00     0.020 A 
ATOM     73  C   UNL A   1      44.352  34.980  31.576  1.00  0.00     0.020 A 
ATOM     74  C   UNL A   1      43.858  35.293  32.844  1.00  0.00     0.054 A 
BRANCH  74  75
ATOM     75  S   UNL A   1      44.010  36.974  33.508  1.00  0.00     0.124 S 
ATOM     76  O   UNL A   1      45.332  36.933  34.128  1.00  0.00    -0.237 OA
ATOM     77  O   UNL A   1      43.906  37.803  32.309  1.00  0.00    -0.237 OA
ATOM     78  O   UNL A   1      42.889  37.085  34.437  1.00  0.00    -0.744 OA
ENDBRANCH  74  75
ENDBRANCH  55  69
BRANCH  56  79
ATOM     79  C   UNL A   1      42.508  23.670  27.897  1.00  0.00    -0.014 A 
ATOM     80  C   UNL A   1      41.905  22.617  28.609  1.00  0.00     0.010 A 
ATOM     81  C   UNL A   1      42.994  23.427  26.599  1.00  0.00     0.010 A 
ATOM     82  C   UNL A   1      41.815  21.340  28.047  1.00  0.00     0.020 A 
ATOM     83  C   UNL A   1      42.879  22.157  26.022  1.00  0.00     0.020 A 
ATOM     84  C   UNL A   1      42.300  21.118  26.756  1.00  0.00     0.054 A 
BRANCH  84  85
ATOM     85  S   UNL A   1      42.124  19.463  26.031  1.00  0.00     0.124 S 
ATOM     86  O   UNL A   1      42.650  18.607  27.090  1.00  0.00    -0.237 OA
ATOM     87  O   UNL A   1      40.684  19.373  25.800  1.00  0.00    -0.237 OA
ATOM     88  O   UNL A   1      42.937  19.531  24.818  1.00  0.00    -0.744 OA
ENDBRANCH  84  85
ENDBRANCH  56  79
BRANCH  68  89
ATOM     89  C   UNL A   1      47.549  26.646  31.669  1.00  0.00    -0.014 A 
ATOM     90  C   UNL A   1      48.768  26.882  31.007  1.00  0.00     0.010 A 
ATOM     91  C   UNL A   1      47.562  25.910  32.870  1.00  0.00     0.010 A 
ATOM     92  C   UNL A   1      49.962  26.341  31.499  1.00  0.00     0.020 A 
ATOM     93  C   UNL A   1      48.757  25.397  33.385  1.00  0.00     0.020 A 
ATOM     94  C   UNL A   1      49.947  25.595  32.682  1.00  0.00     0.054 A 
BRANCH  94  95
ATOM     95  S   UNL A   1      51.505  24.898  33.298  1.00  0.00     0.124 S 
ATOM     96  O   UNL A   1      51.046  24.039  34.386  1.00  0.00    -0.237 OA
ATOM     97  O   UNL A   1      52.030  24.202  32.126  1.00  0.00    -0.237 OA
ATOM     98  O   UNL A   1      52.270  26.072  33.712  1.00  0.00    -0.744 OA
ENDBRANCH  94  95
ENDBRANCH  68  89
ENDBRANCH  42  43
ENDBRANCH  34  37
ENDBRANCH  32  33
ENDBRANCH  31  32
ENDBRANCH  30  31
ENDBRANCH   3  30
TORSDOF 20
ENDMDL
MODEL 2
REMARK VINA RESULT:     -11.2      1.218      7.967
REMARK SMILES CC(=O)O[C@@H]1[C@H](O)C(C)=C(CC[C@@H](C)CC(=O)NCCCNC(=O)c2ccc(-c3c4nc(c(-c5ccc(S(=O)(=O)[O-])cc5)c5ccc([nH]5)c(-c5ccc(S(=O)(=O)[O-])cc5)c5nc(c(-c6ccc(S(=O)(=O)[O-])cc6)c6ccc3[nH]6)C=C5)C=C4)cc2)[C@@]2(C)CCCC(C)(C)[C@H]12
REMARK SMILES IDX 16 1 17 2 18 3 15 5 13 6 14 7 12 8 11 9 10 10 5 11 6 12
REMARK SMILES IDX 93 13 8 14 85 15 90 16 9 17 87 18 86 19 89 20 91 21 92 22
REMARK SMILES IDX 88 23 4 24 2 25 1 26 3 27 7 28 19 30 20 31 21 32 22 33 23 34
REMARK SMILES IDX 24 36 25 37 26 38 84 39 27 40 83 41 28 42 29 43 30 44 77 45
REMARK SMILES IDX 31 46 82 47 76 48 78 49 32 50 81 51 75 52 74 53 33 55 63 56
REMARK SMILES IDX 44 57 62 58 45 59 48 60 61 61 79 62 46 63 47 64 60 66 80 67
REMARK SMILES IDX 49 68 34 69 35 70 43 71 36 72 42 73 37 74 38 75 39 76 40 77
REMARK SMILES IDX 41 78 64 79 65 80 73 81 66 82 72 83 67 84 68 85 69 86 70 87
REMARK SMILES IDX 71 88 50 89 51 90 59 91 52 92 58 93 53 94 54 95 55 96 56 97
REMARK SMILES IDX 57 98
REMARK H PARENT 18 4 7 29 22 35 78 54 48 65
REMARK Flexibility Score: inf
ROOT
ATOM      1  C   UNL A   1      31.093  28.503  23.057  1.00  0.00     0.220 C 
ATOM      2  O   UNL A   1      30.520  28.507  21.962  1.00  0.00    -0.275 OA
ATOM      3  N   UNL A   1      32.332  29.074  23.112  1.00  0.00    -0.356 N 
ATOM      4  H   UNL A   1      32.642  29.430  22.248  1.00  0.00     0.163 HD
ENDROOT
BRANCH   1   5
ATOM      5  C   UNL A   1      30.416  27.870  24.270  1.00  0.00     0.103 C 
BRANCH   5   6
ATOM      6  C   UNL A   1      29.826  26.456  24.025  1.00  0.00    -0.005 C 
ATOM      7  C   UNL A   1      28.297  26.513  23.959  1.00  0.00     0.008 C 
BRANCH   6   8
ATOM      8  C   UNL A   1      30.257  25.511  25.150  1.00  0.00     0.008 C 
BRANCH   8   9
ATOM      9  C   UNL A   1      30.919  24.177  24.790  1.00  0.00     0.032 C 
BRANCH   9  10
ATOM     10  C   UNL A   1      32.242  23.959  24.019  1.00  0.00    -0.062 C 
ATOM     11  C   UNL A   1      32.544  21.178  23.922  1.00  0.00     0.213 C 
ATOM     12  C   UNL A   1      31.553  21.925  22.971  1.00  0.00     0.181 C 
ATOM     13  C   UNL A   1      33.654  22.048  24.737  1.00  0.00     0.049 C 
ATOM     14  C   UNL A   1      32.114  23.318  22.800  1.00  0.00    -0.042 C 
ATOM     15  C   UNL A   1      33.604  23.649  24.731  1.00  0.00    -0.004 C 
ATOM     16  C   UNL A   1      35.032  21.456  25.283  1.00  0.00    -0.028 C 
ATOM     17  C   UNL A   1      33.146  23.269  21.674  1.00  0.00     0.042 C 
ATOM     18  C   UNL A   1      33.890  24.044  26.239  1.00  0.00     0.011 C 
ATOM     19  C   UNL A   1      34.612  24.571  23.968  1.00  0.00     0.016 C 
ATOM     20  C   UNL A   1      34.925  21.663  26.809  1.00  0.00     0.007 C 
ATOM     21  C   UNL A   1      36.316  22.172  24.818  1.00  0.00     0.011 C 
ATOM     22  C   UNL A   1      35.323  19.972  25.029  1.00  0.00     0.011 C 
ATOM     23  C   UNL A   1      34.734  23.134  27.176  1.00  0.00     0.001 C 
BRANCH  11  24
ATOM     24  O   UNL A   1      33.064  20.004  23.292  1.00  0.00    -0.459 OA
BRANCH  24  25
ATOM     25  C   UNL A   1      32.489  18.790  23.463  1.00  0.00     0.303 C 
ATOM     26  C   UNL A   1      32.430  17.850  22.291  1.00  0.00     0.139 C 
ATOM     27  O   UNL A   1      32.002  18.485  24.552  1.00  0.00    -0.253 OA
ENDBRANCH  24  25
ENDBRANCH  11  24
BRANCH  12  28
ATOM     28  O   UNL A   1      31.309  21.273  21.732  1.00  0.00    -0.385 OA
ATOM     29  H   UNL A   1      32.151  21.130  21.272  1.00  0.00     0.211 HD
ENDBRANCH  12  28
ENDBRANCH   9  10
ENDBRANCH   8   9
ENDBRANCH   6   8
ENDBRANCH   5   6
ENDBRANCH   1   5
BRANCH   3  30
ATOM     30  C   UNL A   1      33.287  29.260  24.199  1.00  0.00     0.117 C 
BRANCH  30  31
ATOM     31  C   UNL A   1      33.609  27.972  24.984  1.00  0.00     0.042 C 
BRANCH  31  32
ATOM     32  C   UNL A   1      33.985  28.129  26.466  1.00  0.00     0.118 C 
BRANCH  32  33
ATOM     33  N   UNL A   1      33.753  29.468  26.972  1.00  0.00    -0.352 N 
ATOM     34  C   UNL A   1      34.484  30.277  27.814  1.00  0.00     0.251 C 
ATOM     35  H   UNL A   1      32.915  29.876  26.655  1.00  0.00     0.163 HD
ATOM     36  O   UNL A   1      33.921  31.288  28.239  1.00  0.00    -0.269 OA
BRANCH  34  37
ATOM     37  C   UNL A   1      35.890  30.010  28.251  1.00  0.00     0.039 A 
ATOM     38  C   UNL A   1      36.894  30.106  27.277  1.00  0.00     0.014 A 
ATOM     39  C   UNL A   1      36.252  29.529  29.512  1.00  0.00     0.014 A 
ATOM     40  C   UNL A   1      38.224  29.737  27.554  1.00  0.00     0.010 A 
ATOM     41  C   UNL A   1      37.604  29.220  29.805  1.00  0.00     0.010 A 
ATOM     42  C   UNL A   1      38.621  29.308  28.831  1.00  0.00    -0.014 A 
BRANCH  42  43
ATOM     43  C   UNL A   1      40.078  29.003  29.114  1.00  0.00     0.031 A 
ATOM     44  C   UNL A   1      40.697  27.654  28.788  1.00  0.00     0.074 A 
ATOM     45  C   UNL A   1      40.889  29.932  29.676  1.00  0.00     0.049 A 
ATOM     46  N   UNL A   1      41.952  27.276  28.886  1.00  0.00    -0.248 NA
ATOM     47  C   UNL A   1      39.803  26.594  28.301  1.00  0.00     0.031 C 
ATOM     48  C   UNL A   1      40.485  31.274  30.101  1.00  0.00     0.029 A 
ATOM     49  N   UNL A   1      42.230  29.890  30.004  1.00  0.00    -0.354 N 
ATOM     50  C   UNL A   1      41.997  25.949  28.467  1.00  0.00     0.074 A 
ATOM     51  C   UNL A   1      40.629  25.563  28.190  1.00  0.00     0.031 C 
ATOM     52  C   UNL A   1      41.531  31.912  30.648  1.00  0.00     0.029 A 
ATOM     53  C   UNL A   1      42.701  31.043  30.596  1.00  0.00     0.049 A 
ATOM     54  H   UNL A   1      42.800  29.107  29.829  1.00  0.00     0.167 HD
ATOM     55  C   UNL A   1      43.065  25.129  28.284  1.00  0.00     0.031 A 
ATOM     56  C   UNL A   1      43.927  31.400  31.033  1.00  0.00     0.031 A 
ATOM     57  C   UNL A   1      44.439  25.485  28.546  1.00  0.00     0.049 A 
ATOM     58  C   UNL A   1      45.097  30.478  30.828  1.00  0.00     0.074 A 
ATOM     59  C   UNL A   1      45.582  24.739  28.301  1.00  0.00     0.029 A 
ATOM     60  N   UNL A   1      44.861  26.673  29.122  1.00  0.00    -0.354 N 
ATOM     61  N   UNL A   1      45.122  29.281  30.297  1.00  0.00    -0.248 NA
ATOM     62  C   UNL A   1      46.417  30.984  31.235  1.00  0.00     0.031 C 
ATOM     63  C   UNL A   1      46.688  25.449  28.781  1.00  0.00     0.029 A 
ATOM     64  C   UNL A   1      46.243  26.668  29.262  1.00  0.00     0.049 A 
ATOM     65  H   UNL A   1      44.269  27.410  29.391  1.00  0.00     0.167 HD
ATOM     66  C   UNL A   1      46.464  28.910  30.266  1.00  0.00     0.074 A 
ATOM     67  C   UNL A   1      47.219  30.016  30.813  1.00  0.00     0.031 C 
ATOM     68  C   UNL A   1      47.013  27.755  29.812  1.00  0.00     0.031 A 
BRANCH  55  69
ATOM     69  C   UNL A   1      42.794  23.746  27.740  1.00  0.00    -0.014 A 
ATOM     70  C   UNL A   1      42.503  22.674  28.605  1.00  0.00     0.010 A 
ATOM     71  C   UNL A   1      42.770  23.523  26.350  1.00  0.00     0.010 A 
ATOM     72  C   UNL A   1      42.253  21.397  28.097  1.00  0.00     0.020 A 
ATOM     73  C   UNL A   1      42.486  22.253  25.835  1.00  0.00     0.020 A 
ATOM     74  C   UNL A   1      42.250  21.194  26.714  1.00  0.00     0.054 A 
BRANCH  74  75
ATOM     75  S   UNL A   1      41.914  19.526  26.085  1.00  0.00     0.124 S 
ATOM     76  O   UNL A   1      42.819  19.448  24.942  1.00  0.00    -0.237 OA
ATOM     77  O   UNL A   1      42.266  18.678  27.222  1.00  0.00    -0.237 OA
ATOM     78  O   UNL A   1      40.492  19.558  25.754  1.00  0.00    -0.744 OA
ENDBRANCH  74  75
ENDBRANCH  55  69
BRANCH  56  79
ATOM     79  C   UNL A   1      44.138  32.742  31.652  1.00  0.00    -0.014 A 
ATOM     80  C   UNL A   1      44.458  33.855  30.852  1.00  0.00     0.010 A 
ATOM     81  C   UNL A   1      44.034  32.911  33.045  1.00  0.00     0.010 A 
ATOM     82  C   UNL A   1      44.697  35.104  31.435  1.00  0.00     0.020 A 
ATOM     83  C   UNL A   1      44.245  34.166  33.628  1.00  0.00     0.020 A 
ATOM     84  C   UNL A   1      44.587  35.252  32.819  1.00  0.00     0.054 A 
BRANCH  84  85
ATOM     85  S   UNL A   1      44.854  36.895  33.543  1.00  0.00     0.124 S 
ATOM     86  O   UNL A   1      44.832  36.608  34.974  1.00  0.00    -0.237 OA
ATOM     87  O   UNL A   1      46.154  37.273  32.993  1.00  0.00    -0.237 OA
ATOM     88  O   UNL A   1      43.725  37.678  33.043  1.00  0.00    -0.744 OA
ENDBRANCH  84  85
ENDBRANCH  56  79
BRANCH  68  89
ATOM     89  C   UNL A   1      48.518  27.641  29.840  1.00  0.00    -0.014 A 
ATOM     90  C   UNL A   1      49.193  27.020  30.908  1.00  0.00     0.010 A 
ATOM     91  C   UNL A   1      49.273  28.164  28.773  1.00  0.00     0.010 A 
ATOM     92  C   UNL A   1      50.592  26.982  30.938  1.00  0.00     0.020 A 
ATOM     93  C   UNL A   1      50.670  28.097  28.782  1.00  0.00     0.020 A 
ATOM     94  C   UNL A   1      51.322  27.528  29.878  1.00  0.00     0.054 A 
BRANCH  94  95
ATOM     95  S   UNL A   1      53.134  27.473  29.941  1.00  0.00     0.124 S 
ATOM     96  O   UNL A   1      53.503  28.649  29.157  1.00  0.00    -0.237 OA
ATOM     97  O   UNL A   1      53.408  27.562  31.373  1.00  0.00    -0.237 OA
ATOM     98  O   UNL A   1      53.464  26.189  29.329  1.00  0.00    -0.744 OA
ENDBRANCH  94  95
ENDBRANCH  68  89
ENDBRANCH  42  43
ENDBRANCH  34  37
ENDBRANCH  32  33
ENDBRANCH  31  32
ENDBRANCH  30  31
ENDBRANCH   3  30
TORSDOF 20
ENDMDL
MODEL 3
REMARK VINA RESULT:     -11.1      4.331     10.272
REMARK SMILES CC(=O)O[C@@H]1[C@H](O)C(C)=C(CC[C@@H](C)CC(=O)NCCCNC(=O)c2ccc(-c3c4nc(c(-c5ccc(S(=O)(=O)[O-])cc5)c5ccc([nH]5)c(-c5ccc(S(=O)(=O)[O-])cc5)c5nc(c(-c6ccc(S(=O)(=O)[O-])cc6)c6ccc3[nH]6)C=C5)C=C4)cc2)[C@@]2(C)CCCC(C)(C)[C@H]12
REMARK SMILES IDX 16 1 17 2 18 3 15 5 13 6 14 7 12 8 11 9 10 10 5 11 6 12
REMARK SMILES IDX 93 13 8 14 85 15 90 16 9 17 87 18 86 19 89 20 91 21 92 22
REMARK SMILES IDX 88 23 4 24 2 25 1 26 3 27 7 28 19 30 20 31 21 32 22 33 23 34
REMARK SMILES IDX 24 36 25 37 26 38 84 39 27 40 83 41 28 42 29 43 30 44 77 45
REMARK SMILES IDX 31 46 82 47 76 48 78 49 32 50 81 51 75 52 74 53 33 55 63 56
REMARK SMILES IDX 44 57 62 58 45 59 48 60 61 61 79 62 46 63 47 64 60 66 80 67
REMARK SMILES IDX 49 68 34 69 35 70 43 71 36 72 42 73 37 74 38 75 39 76 40 77
REMARK SMILES IDX 41 78 64 79 65 80 73 81 66 82 72 83 67 84 68 85 69 86 70 87
REMARK SMILES IDX 71 88 50 89 51 90 59 91 52 92 58 93 53 94 54 95 55 96 56 97
REMARK SMILES IDX 57 98
REMARK H PARENT 18 4 7 29 22 35 78 54 48 65
REMARK Flexibility Score: inf
ROOT
ATOM      1  C   UNL A   1      37.825  21.267  25.266  1.00  0.00     0.220 C 
ATOM      2  O   UNL A   1      37.711  20.279  24.533  1.00  0.00    -0.275 OA
ATOM      3  N   UNL A   1      39.088  21.602  25.666  1.00  0.00    -0.356 N 
ATOM      4  H   UNL A   1      39.785  20.999  25.321  1.00  0.00     0.163 HD
ENDROOT
BRANCH   1   5
ATOM      5  C   UNL A   1      36.585  22.049  25.692  1.00  0.00     0.103 C 
BRANCH   5   6
ATOM      6  C   UNL A   1      36.178  23.200  24.734  1.00  0.00    -0.005 C 
ATOM      7  C   UNL A   1      35.634  24.393  25.525  1.00  0.00     0.008 C 
BRANCH   6   8
ATOM      8  C   UNL A   1      35.114  22.705  23.751  1.00  0.00     0.008 C 
BRANCH   8   9
ATOM      9  C   UNL A   1      34.536  23.684  22.724  1.00  0.00     0.032 C 
BRANCH   9  10
ATOM     10  C   UNL A   1      33.087  24.222  22.645  1.00  0.00    -0.062 C 
ATOM     11  C   UNL A   1      33.182  26.681  23.981  1.00  0.00     0.213 C 
ATOM     12  C   UNL A   1      33.714  26.525  22.519  1.00  0.00     0.181 C 
ATOM     13  C   UNL A   1      32.259  25.495  24.609  1.00  0.00     0.049 C 
ATOM     14  C   UNL A   1      32.930  25.384  21.912  1.00  0.00    -0.042 C 
ATOM     15  C   UNL A   1      32.068  24.107  23.831  1.00  0.00    -0.004 C 
ATOM     16  C   UNL A   1      31.215  25.706  25.798  1.00  0.00    -0.028 C 
ATOM     17  C   UNL A   1      31.623  25.957  21.366  1.00  0.00     0.042 C 
ATOM     18  C   UNL A   1      32.202  23.012  24.969  1.00  0.00     0.011 C 
ATOM     19  C   UNL A   1      30.752  23.658  23.115  1.00  0.00     0.016 C 
ATOM     20  C   UNL A   1      31.751  24.776  26.907  1.00  0.00     0.007 C 
ATOM     21  C   UNL A   1      29.760  25.282  25.515  1.00  0.00     0.011 C 
ATOM     22  C   UNL A   1      31.082  27.115  26.389  1.00  0.00     0.011 C 
ATOM     23  C   UNL A   1      31.827  23.320  26.447  1.00  0.00     0.001 C 
BRANCH  11  24
ATOM     24  O   UNL A   1      32.672  27.999  24.197  1.00  0.00    -0.459 OA
BRANCH  24  25
ATOM     25  C   UNL A   1      33.248  28.849  25.080  1.00  0.00     0.303 C 
ATOM     26  C   UNL A   1      34.383  28.346  25.929  1.00  0.00     0.139 C 
ATOM     27  O   UNL A   1      32.823  29.999  25.198  1.00  0.00    -0.253 OA
ENDBRANCH  24  25
ENDBRANCH  11  24
BRANCH  12  28
ATOM     28  O   UNL A   1      33.662  27.708  21.735  1.00  0.00    -0.385 OA
ATOM     29  H   UNL A   1      33.975  27.515  20.838  1.00  0.00     0.211 HD
ENDBRANCH  12  28
ENDBRANCH   9  10
ENDBRANCH   8   9
ENDBRANCH   6   8
ENDBRANCH   5   6
ENDBRANCH   1   5
BRANCH   3  30
ATOM     30  C   UNL A   1      39.606  22.677  26.505  1.00  0.00     0.117 C 
BRANCH  30  31
ATOM     31  C   UNL A   1      40.791  22.263  27.402  1.00  0.00     0.042 C 
BRANCH  31  32
ATOM     32  C   UNL A   1      42.092  23.068  27.262  1.00  0.00     0.118 C 
BRANCH  32  33
ATOM     33  N   UNL A   1      42.063  24.008  26.159  1.00  0.00    -0.352 N 
ATOM     34  C   UNL A   1      41.609  25.304  26.061  1.00  0.00     0.251 C 
ATOM     35  H   UNL A   1      42.439  23.653  25.320  1.00  0.00     0.163 HD
ATOM     36  O   UNL A   1      41.517  25.777  24.926  1.00  0.00    -0.269 OA
BRANCH  34  37
ATOM     37  C   UNL A   1      41.212  26.163  27.221  1.00  0.00     0.039 A 
ATOM     38  C   UNL A   1      42.104  27.175  27.605  1.00  0.00     0.014 A 
ATOM     39  C   UNL A   1      40.101  25.932  28.037  1.00  0.00     0.014 A 
ATOM     40  C   UNL A   1      41.890  27.941  28.765  1.00  0.00     0.010 A 
ATOM     41  C   UNL A   1      39.857  26.749  29.169  1.00  0.00     0.010 A 
ATOM     42  C   UNL A   1      40.749  27.767  29.566  1.00  0.00    -0.014 A 
BRANCH  42  43
ATOM     43  C   UNL A   1      40.511  28.669  30.760  1.00  0.00     0.031 A 
ATOM     44  C   UNL A   1      41.281  28.507  32.060  1.00  0.00     0.074 A 
ATOM     45  C   UNL A   1      39.589  29.662  30.711  1.00  0.00     0.049 A 
ATOM     46  N   UNL A   1      41.253  29.261  33.136  1.00  0.00    -0.248 NA
ATOM     47  C   UNL A   1      42.186  27.356  32.175  1.00  0.00     0.031 C 
ATOM     48  C   UNL A   1      38.716  29.962  29.573  1.00  0.00     0.029 A 
ATOM     49  N   UNL A   1      39.216  30.605  31.649  1.00  0.00    -0.354 N 
ATOM     50  C   UNL A   1      42.137  28.685  34.043  1.00  0.00     0.074 A 
ATOM     51  C   UNL A   1      42.626  27.472  33.421  1.00  0.00     0.031 C 
ATOM     52  C   UNL A   1      37.904  30.984  29.882  1.00  0.00     0.029 A 
ATOM     53  C   UNL A   1      38.205  31.444  31.232  1.00  0.00     0.049 A 
ATOM     54  H   UNL A   1      39.637  30.672  32.536  1.00  0.00     0.167 HD
ATOM     55  C   UNL A   1      42.547  29.128  35.261  1.00  0.00     0.031 A 
ATOM     56  C   UNL A   1      37.589  32.485  31.831  1.00  0.00     0.031 A 
ATOM     57  C   UNL A   1      42.084  30.333  35.905  1.00  0.00     0.049 A 
ATOM     58  C   UNL A   1      38.052  32.959  33.182  1.00  0.00     0.074 A 
ATOM     59  C   UNL A   1      42.519  30.892  37.097  1.00  0.00     0.029 A 
ATOM     60  N   UNL A   1      41.077  31.158  35.428  1.00  0.00    -0.354 N 
ATOM     61  N   UNL A   1      38.992  32.469  33.950  1.00  0.00    -0.248 NA
ATOM     62  C   UNL A   1      37.401  34.163  33.719  1.00  0.00     0.031 C 
ATOM     63  C   UNL A   1      41.738  32.021  37.370  1.00  0.00     0.029 A 
ATOM     64  C   UNL A   1      40.862  32.205  36.315  1.00  0.00     0.049 A 
ATOM     65  H   UNL A   1      40.588  31.021  34.586  1.00  0.00     0.167 HD
ATOM     66  C   UNL A   1      39.075  33.331  35.040  1.00  0.00     0.074 A 
ATOM     67  C   UNL A   1      38.104  34.381  34.821  1.00  0.00     0.031 C 
ATOM     68  C   UNL A   1      39.895  33.256  36.119  1.00  0.00     0.031 A 
BRANCH  55  69
ATOM     69  C   UNL A   1      43.589  28.306  35.984  1.00  0.00    -0.014 A 
ATOM     70  C   UNL A   1      44.962  28.553  35.794  1.00  0.00     0.010 A 
ATOM     71  C   UNL A   1      43.198  27.317  36.906  1.00  0.00     0.010 A 
ATOM     72  C   UNL A   1      45.921  27.790  36.465  1.00  0.00     0.020 A 
ATOM     73  C   UNL A   1      44.155  26.574  37.606  1.00  0.00     0.020 A 
ATOM     74  C   UNL A   1      45.511  26.802  37.364  1.00  0.00     0.054 A 
BRANCH  74  75
ATOM     75  S   UNL A   1      46.781  25.834  38.226  1.00  0.00     0.124 S 
ATOM     76  O   UNL A   1      46.366  24.465  37.931  1.00  0.00    -0.237 OA
ATOM     77  O   UNL A   1      48.013  26.270  37.574  1.00  0.00    -0.237 OA
ATOM     78  O   UNL A   1      46.641  26.240  39.621  1.00  0.00    -0.744 OA
ENDBRANCH  74  75
ENDBRANCH  55  69
BRANCH  56  79
ATOM     79  C   UNL A   1      36.497  33.217  31.121  1.00  0.00    -0.014 A 
ATOM     80  C   UNL A   1      35.171  33.149  31.586  1.00  0.00     0.010 A 
ATOM     81  C   UNL A   1      36.779  33.973  29.969  1.00  0.00     0.010 A 
ATOM     82  C   UNL A   1      34.143  33.800  30.898  1.00  0.00     0.020 A 
ATOM     83  C   UNL A   1      35.755  34.649  29.294  1.00  0.00     0.020 A 
ATOM     84  C   UNL A   1      34.441  34.548  29.757  1.00  0.00     0.054 A 
BRANCH  84  85
ATOM     85  S   UNL A   1      33.094  35.423  28.913  1.00  0.00     0.124 S 
ATOM     86  O   UNL A   1      32.462  34.352  28.150  1.00  0.00    -0.237 OA
ATOM     87  O   UNL A   1      32.313  35.950  30.030  1.00  0.00    -0.237 OA
ATOM     88  O   UNL A   1      33.787  36.435  28.118  1.00  0.00    -0.744 OA
ENDBRANCH  84  85
ENDBRANCH  56  79
BRANCH  68  89
ATOM     89  C   UNL A   1      39.816  34.371  37.133  1.00  0.00    -0.014 A 
ATOM     90  C   UNL A   1      39.181  34.198  38.377  1.00  0.00     0.010 A 
ATOM     91  C   UNL A   1      40.393  35.621  36.835  1.00  0.00     0.010 A 
ATOM     92  C   UNL A   1      39.069  35.267  39.273  1.00  0.00     0.020 A 
ATOM     93  C   UNL A   1      40.314  36.682  37.742  1.00  0.00     0.020 A 
ATOM     94  C   UNL A   1      39.630  36.505  38.946  1.00  0.00     0.054 A 
BRANCH  94  95
ATOM     95  S   UNL A   1      39.468  37.879  40.120  1.00  0.00     0.124 S 
ATOM     96  O   UNL A   1      40.722  38.600  39.923  1.00  0.00    -0.237 OA
ATOM     97  O   UNL A   1      38.268  38.565  39.647  1.00  0.00    -0.237 OA
ATOM     98  O   UNL A   1      39.328  37.215  41.414  1.00  0.00    -0.744 OA
ENDBRANCH  94  95
ENDBRANCH  68  89
ENDBRANCH  42  43
ENDBRANCH  34  37
ENDBRANCH  32  33
ENDBRANCH  31  32
ENDBRANCH  30  31
ENDBRANCH   3  30
TORSDOF 20
ENDMDL
