MODEL 1
REMARK VINA RESULT:     -12.5      0.000      0.000
REMARK SMILES O=C(NCCCNC(=O)c1cccc2c1N[C@H](c1ccccc1Br)[C@H]1CC=C[C@H]21)c1ccc(-c2c3nc(c(-c4ccc(S(=O)(=O)[O-])cc4)c4ccc([nH]4)c(-c4ccc(S(=O)(=O)[O-])cc4)c4nc(c(-c5ccc(S(=O)(=O)[O-])cc5)c5ccc2[nH]5)C=C4)C=C3)cc1
REMARK SMILES IDX 4 1 3 2 1 3 2 4 30 6 31 7 89 8 32 9 88 10 33 11 34 12 35 13
REMARK SMILES IDX 82 14 36 15 87 16 81 17 83 18 37 19 86 20 80 21 79 22 38 24
REMARK SMILES IDX 68 25 49 26 67 27 50 28 53 29 66 30 84 31 51 32 52 33 65 35
REMARK SMILES IDX 85 36 54 37 39 38 40 39 48 40 41 41 47 42 42 43 43 44 44 45
REMARK SMILES IDX 45 46 46 47 69 48 70 49 78 50 71 51 77 52 72 53 73 54 74 55
REMARK SMILES IDX 75 56 76 57 55 58 56 59 64 60 57 61 63 62 58 63 59 64 60 65
REMARK SMILES IDX 61 66 62 67 5 68 6 69 7 70 8 71 9 73 10 74 11 75 15 76 12 77
REMARK SMILES IDX 14 78 16 79 13 80 29 81 17 82 25 84 28 85 26 86 27 87 18 88
REMARK SMILES IDX 19 89 23 90 20 91 22 92 24 93 21 94
REMARK H PARENT 3 5 83 23 53 34 7 72 16 83
REMARK Flexibility Score: inf
ROOT
ATOM      1  C   UNL A   1      33.549  28.853  27.056  1.00  0.00     0.118 C 
ENDROOT
BRANCH   1   2
ATOM      2  N   UNL A   1      33.482  30.249  27.471  1.00  0.00    -0.352 N 
ATOM      3  O   UNL A   1      34.102  32.156  28.499  1.00  0.00    -0.269 OA
ATOM      4  C   UNL A   1      34.399  31.022  28.142  1.00  0.00     0.251 C 
ATOM      5  H   UNL A   1      32.646  30.712  27.233  1.00  0.00     0.163 HD
BRANCH   4   6
ATOM      6  C   UNL A   1      35.740  30.484  28.451  1.00  0.00     0.039 A 
ATOM      7  C   UNL A   1      35.933  29.800  29.654  1.00  0.00     0.014 A 
ATOM      8  C   UNL A   1      36.811  30.674  27.578  1.00  0.00     0.014 A 
ATOM      9  C   UNL A   1      37.195  29.289  29.961  1.00  0.00     0.010 A 
ATOM     10  C   UNL A   1      38.025  30.049  27.818  1.00  0.00     0.010 A 
ATOM     11  C   UNL A   1      38.246  29.397  29.038  1.00  0.00    -0.014 A 
BRANCH  11  12
ATOM     12  C   UNL A   1      39.620  28.944  29.366  1.00  0.00     0.031 A 
ATOM     13  C   UNL A   1      40.520  29.851  30.166  1.00  0.00     0.074 A 
ATOM     14  C   UNL A   1      40.064  27.748  28.933  1.00  0.00     0.049 A 
ATOM     15  N   UNL A   1      41.768  29.674  30.512  1.00  0.00    -0.248 NA
ATOM     16  C   UNL A   1      39.957  31.141  30.609  1.00  0.00     0.031 C 
ATOM     17  C   UNL A   1      39.287  26.795  28.138  1.00  0.00     0.029 A 
ATOM     18  N   UNL A   1      41.273  27.125  29.111  1.00  0.00    -0.354 N 
ATOM     19  C   UNL A   1      42.136  30.828  31.195  1.00  0.00     0.074 A 
ATOM     20  C   UNL A   1      41.013  31.732  31.146  1.00  0.00     0.031 C 
ATOM     21  C   UNL A   1      40.020  25.690  27.941  1.00  0.00     0.029 A 
ATOM     22  C   UNL A   1      41.337  25.872  28.547  1.00  0.00     0.049 A 
ATOM     23  H   UNL A   1      42.025  27.536  29.596  1.00  0.00     0.167 HD
ATOM     24  C   UNL A   1      43.290  31.094  31.844  1.00  0.00     0.031 A 
ATOM     25  C   UNL A   1      42.338  24.969  28.526  1.00  0.00     0.031 A 
ATOM     26  C   UNL A   1      44.386  30.167  31.926  1.00  0.00     0.049 A 
ATOM     27  C   UNL A   1      43.624  25.292  29.241  1.00  0.00     0.074 A 
ATOM     28  C   UNL A   1      45.583  30.318  32.601  1.00  0.00     0.029 A 
ATOM     29  N   UNL A   1      44.413  28.914  31.332  1.00  0.00    -0.354 N 
ATOM     30  N   UNL A   1      43.938  26.370  29.920  1.00  0.00    -0.248 NA
ATOM     31  C   UNL A   1      44.684  24.276  29.202  1.00  0.00     0.031 C 
ATOM     32  C   UNL A   1      46.364  29.190  32.354  1.00  0.00     0.029 A 
ATOM     33  C   UNL A   1      45.620  28.294  31.600  1.00  0.00     0.049 A 
ATOM     34  H   UNL A   1      43.684  28.524  30.799  1.00  0.00     0.167 HD
ATOM     35  C   UNL A   1      45.220  26.151  30.411  1.00  0.00     0.074 A 
ATOM     36  C   UNL A   1      45.616  24.832  29.967  1.00  0.00     0.031 C 
ATOM     37  C   UNL A   1      45.998  26.973  31.158  1.00  0.00     0.031 A 
BRANCH  24  38
ATOM     38  C   UNL A   1      43.428  32.418  32.550  1.00  0.00    -0.014 A 
ATOM     39  C   UNL A   1      42.981  32.556  33.877  1.00  0.00     0.010 A 
ATOM     40  C   UNL A   1      43.891  33.558  31.866  1.00  0.00     0.010 A 
ATOM     41  C   UNL A   1      42.951  33.810  34.491  1.00  0.00     0.020 A 
ATOM     42  C   UNL A   1      43.899  34.808  32.489  1.00  0.00     0.020 A 
ATOM     43  C   UNL A   1      43.400  34.931  33.787  1.00  0.00     0.054 A 
BRANCH  43  44
ATOM     44  S   UNL A   1      43.303  36.558  34.581  1.00  0.00     0.124 S 
ATOM     45  O   UNL A   1      43.453  37.464  33.448  1.00  0.00    -0.237 OA
ATOM     46  O   UNL A   1      41.978  36.531  35.198  1.00  0.00    -0.237 OA
ATOM     47  O   UNL A   1      44.418  36.546  35.525  1.00  0.00    -0.744 OA
ENDBRANCH  43  44
ENDBRANCH  24  38
BRANCH  25  48
ATOM     48  C   UNL A   1      42.120  23.655  27.855  1.00  0.00    -0.014 A 
ATOM     49  C   UNL A   1      41.493  22.596  28.539  1.00  0.00     0.010 A 
ATOM     50  C   UNL A   1      42.625  23.425  26.562  1.00  0.00     0.010 A 
ATOM     51  C   UNL A   1      41.436  21.319  27.973  1.00  0.00     0.020 A 
ATOM     52  C   UNL A   1      42.537  22.157  25.978  1.00  0.00     0.020 A 
ATOM     53  C   UNL A   1      41.974  21.105  26.702  1.00  0.00     0.054 A 
BRANCH  53  54
ATOM     54  S   UNL A   1      41.955  19.422  26.023  1.00  0.00     0.124 S 
ATOM     55  O   UNL A   1      42.844  19.556  24.871  1.00  0.00    -0.237 OA
ATOM     56  O   UNL A   1      42.477  18.626  27.131  1.00  0.00    -0.237 OA
ATOM     57  O   UNL A   1      40.548  19.196  25.704  1.00  0.00    -0.744 OA
ENDBRANCH  53  54
ENDBRANCH  25  48
BRANCH  37  58
ATOM     58  C   UNL A   1      47.367  26.489  31.568  1.00  0.00    -0.014 A 
ATOM     59  C   UNL A   1      48.441  26.596  30.663  1.00  0.00     0.010 A 
ATOM     60  C   UNL A   1      47.556  25.793  32.774  1.00  0.00     0.010 A 
ATOM     61  C   UNL A   1      49.662  25.974  30.934  1.00  0.00     0.020 A 
ATOM     62  C   UNL A   1      48.788  25.202  33.066  1.00  0.00     0.020 A 
ATOM     63  C   UNL A   1      49.824  25.272  32.130  1.00  0.00     0.054 A 
BRANCH  63  64
ATOM     64  S   UNL A   1      51.401  24.432  32.442  1.00  0.00     0.124 S 
ATOM     65  O   UNL A   1      51.101  23.059  32.050  1.00  0.00    -0.237 OA
ATOM     66  O   UNL A   1      52.324  25.151  31.567  1.00  0.00    -0.237 OA
ATOM     67  O   UNL A   1      51.623  24.639  33.872  1.00  0.00    -0.744 OA
ENDBRANCH  63  64
ENDBRANCH  37  58
ENDBRANCH  11  12
ENDBRANCH   4   6
ENDBRANCH   1   2
BRANCH   1  68
ATOM     68  C   UNL A   1      34.227  28.653  25.715  1.00  0.00     0.042 C 
BRANCH  68  69
ATOM     69  C   UNL A   1      33.511  29.338  24.575  1.00  0.00     0.118 C 
BRANCH  69  70
ATOM     70  N   UNL A   1      33.693  28.683  23.289  1.00  0.00    -0.352 N 
ATOM     71  C   UNL A   1      32.944  27.670  22.743  1.00  0.00     0.253 C 
ATOM     72  H   UNL A   1      34.446  29.007  22.743  1.00  0.00     0.163 HD
ATOM     73  O   UNL A   1      33.253  27.191  21.657  1.00  0.00    -0.269 OA
BRANCH  71  74
ATOM     74  C   UNL A   1      31.787  27.130  23.490  1.00  0.00     0.063 A 
ATOM     75  C   UNL A   1      30.527  27.587  23.079  1.00  0.00     0.016 A 
ATOM     76  C   UNL A   1      31.922  26.185  24.529  1.00  0.00     0.051 A 
ATOM     77  C   UNL A   1      29.377  27.076  23.669  1.00  0.00     0.001 A 
ATOM     78  C   UNL A   1      30.739  25.655  25.093  1.00  0.00    -0.017 A 
ATOM     79  N   UNL A   1      33.167  25.712  24.946  1.00  0.00    -0.377 N 
ATOM     80  C   UNL A   1      29.482  26.112  24.671  1.00  0.00     0.006 A 
ATOM     81  C   UNL A   1      30.925  24.667  26.209  1.00  0.00     0.049 C 
ATOM     82  C   UNL A   1      33.384  24.480  25.725  1.00  0.00     0.115 C 
ATOM     83  H   UNL A   1      33.960  26.242  24.700  1.00  0.00     0.161 HD
ATOM     84  C   UNL A   1      32.070  23.715  25.819  1.00  0.00     0.031 C 
ATOM     85  C   UNL A   1      29.870  23.650  26.538  1.00  0.00    -0.023 C 
ATOM     86  C   UNL A   1      31.945  22.603  26.857  1.00  0.00     0.034 C 
ATOM     87  C   UNL A   1      30.448  22.506  26.939  1.00  0.00    -0.030 C 
BRANCH  82  88
ATOM     88  C   UNL A   1      34.656  23.785  25.203  1.00  0.00    -0.011 A 
ATOM     89  C   UNL A   1      35.747  23.783  26.118  1.00  0.00     0.007 A 
ATOM     90  C   UNL A   1      34.903  23.185  23.949  1.00  0.00     0.023 A 
ATOM     91  C   UNL A   1      36.985  23.206  25.820  1.00  0.00     0.000 A 
ATOM     92  C   UNL A   1      36.134  22.553  23.682  1.00  0.00     0.016 A 
ATOM     93  Br  UNL A   1      33.765  23.210  22.426  1.00  0.00    -0.050 Br
ATOM     94  C   UNL A   1      37.169  22.565  24.607  1.00  0.00     0.001 A 
ENDBRANCH  82  88
ENDBRANCH  71  74
ENDBRANCH  69  70
ENDBRANCH  68  69
ENDBRANCH   1  68
TORSDOF 14
ENDMDL
MODEL 2
REMARK VINA RESULT:     -11.9      4.168     10.162
REMARK SMILES O=C(NCCCNC(=O)c1cccc2c1N[C@H](c1ccccc1Br)[C@H]1CC=C[C@H]21)c1ccc(-c2c3nc(c(-c4ccc(S(=O)(=O)[O-])cc4)c4ccc([nH]4)c(-c4ccc(S(=O)(=O)[O-])cc4)c4nc(c(-c5ccc(S(=O)(=O)[O-])cc5)c5ccc2[nH]5)C=C4)C=C3)cc1
REMARK SMILES IDX 4 1 3 2 1 3 2 4 30 6 31 7 89 8 32 9 88 10 33 11 34 12 35 13
REMARK SMILES IDX 82 14 36 15 87 16 81 17 83 18 37 19 86 20 80 21 79 22 38 24
REMARK SMILES IDX 68 25 49 26 67 27 50 28 53 29 66 30 84 31 51 32 52 33 65 35
REMARK SMILES IDX 85 36 54 37 39 38 40 39 48 40 41 41 47 42 42 43 43 44 44 45
REMARK SMILES IDX 45 46 46 47 69 48 70 49 78 50 71 51 77 52 72 53 73 54 74 55
REMARK SMILES IDX 75 56 76 57 55 58 56 59 64 60 57 61 63 62 58 63 59 64 60 65
REMARK SMILES IDX 61 66 62 67 5 68 6 69 7 70 8 71 9 73 10 74 11 75 15 76 12 77
REMARK SMILES IDX 14 78 16 79 13 80 29 81 17 82 25 84 28 85 26 86 27 87 18 88
REMARK SMILES IDX 19 89 23 90 20 91 22 92 24 93 21 94
REMARK H PARENT 3 5 83 23 53 34 7 72 16 83
REMARK Flexibility Score: inf
ROOT
ATOM      1  C   UNL A   1      39.149  24.411  27.208  1.00  0.00     0.118 C 
ENDROOT
BRANCH   1   2
ATOM      2  N   UNL A   1      40.039  25.090  26.273  1.00  0.00    -0.352 N 
ATOM      3  O   UNL A   1      41.279  26.759  25.405  1.00  0.00    -0.269 OA
ATOM      4  C   UNL A   1      40.653  26.316  26.360  1.00  0.00     0.251 C 
ATOM      5  H   UNL A   1      40.229  24.590  25.446  1.00  0.00     0.163 HD
BRANCH   4   6
ATOM      6  C   UNL A   1      40.547  27.114  27.600  1.00  0.00     0.039 A 
ATOM      7  C   UNL A   1      41.073  28.408  27.618  1.00  0.00     0.014 A 
ATOM      8  C   UNL A   1      39.958  26.584  28.749  1.00  0.00     0.014 A 
ATOM      9  C   UNL A   1      40.982  29.173  28.782  1.00  0.00     0.010 A 
ATOM     10  C   UNL A   1      39.746  27.391  29.856  1.00  0.00     0.010 A 
ATOM     11  C   UNL A   1      40.305  28.674  29.905  1.00  0.00    -0.014 A 
BRANCH  11  12
ATOM     12  C   UNL A   1      40.265  29.422  31.186  1.00  0.00     0.031 A 
ATOM     13  C   UNL A   1      41.360  29.201  32.198  1.00  0.00     0.074 A 
ATOM     14  C   UNL A   1      39.249  30.267  31.449  1.00  0.00     0.049 A 
ATOM     15  N   UNL A   1      41.487  29.708  33.396  1.00  0.00    -0.248 NA
ATOM     16  C   UNL A   1      42.441  28.266  31.831  1.00  0.00     0.031 C 
ATOM     17  C   UNL A   1      38.127  30.545  30.552  1.00  0.00     0.029 A 
ATOM     18  N   UNL A   1      39.003  31.056  32.544  1.00  0.00    -0.354 N 
ATOM     19  C   UNL A   1      42.643  29.143  33.923  1.00  0.00     0.074 A 
ATOM     20  C   UNL A   1      43.138  28.197  32.954  1.00  0.00     0.031 C 
ATOM     21  C   UNL A   1      37.341  31.478  31.110  1.00  0.00     0.029 A 
ATOM     22  C   UNL A   1      37.871  31.827  32.427  1.00  0.00     0.049 A 
ATOM     23  H   UNL A   1      39.584  31.069  33.340  1.00  0.00     0.167 HD
ATOM     24  C   UNL A   1      43.262  29.421  35.090  1.00  0.00     0.031 A 
ATOM     25  C   UNL A   1      37.323  32.719  33.277  1.00  0.00     0.031 A 
ATOM     26  C   UNL A   1      42.785  30.401  36.029  1.00  0.00     0.049 A 
ATOM     27  C   UNL A   1      38.020  33.001  34.582  1.00  0.00     0.074 A 
ATOM     28  C   UNL A   1      43.365  30.795  37.220  1.00  0.00     0.029 A 
ATOM     29  N   UNL A   1      41.628  31.151  35.875  1.00  0.00    -0.354 N 
ATOM     30  N   UNL A   1      39.137  32.491  35.043  1.00  0.00    -0.248 NA
ATOM     31  C   UNL A   1      37.396  33.987  35.474  1.00  0.00     0.031 C 
ATOM     32  C   UNL A   1      42.522  31.727  37.824  1.00  0.00     0.029 A 
ATOM     33  C   UNL A   1      41.462  31.984  36.967  1.00  0.00     0.049 A 
ATOM     34  H   UNL A   1      41.017  31.098  35.106  1.00  0.00     0.167 HD
ATOM     35  C   UNL A   1      39.364  33.113  36.267  1.00  0.00     0.074 A 
ATOM     36  C   UNL A   1      38.277  34.050  36.464  1.00  0.00     0.031 C 
ATOM     37  C   UNL A   1      40.378  32.920  37.146  1.00  0.00     0.031 A 
BRANCH  24  38
ATOM     38  C   UNL A   1      44.541  28.693  35.416  1.00  0.00    -0.014 A 
ATOM     39  C   UNL A   1      45.770  29.189  34.944  1.00  0.00     0.010 A 
ATOM     40  C   UNL A   1      44.518  27.456  36.087  1.00  0.00     0.010 A 
ATOM     41  C   UNL A   1      46.943  28.445  35.096  1.00  0.00     0.020 A 
ATOM     42  C   UNL A   1      45.694  26.726  36.276  1.00  0.00     0.020 A 
ATOM     43  C   UNL A   1      46.893  27.211  35.752  1.00  0.00     0.054 A 
BRANCH  43  44
ATOM     44  S   UNL A   1      48.416  26.235  35.891  1.00  0.00     0.124 S 
ATOM     45  O   UNL A   1      49.070  26.848  37.043  1.00  0.00    -0.237 OA
ATOM     46  O   UNL A   1      47.907  24.881  36.100  1.00  0.00    -0.237 OA
ATOM     47  O   UNL A   1      49.079  26.450  34.607  1.00  0.00    -0.744 OA
ENDBRANCH  43  44
ENDBRANCH  24  38
BRANCH  25  48
ATOM     48  C   UNL A   1      36.085  33.445  32.873  1.00  0.00    -0.014 A 
ATOM     49  C   UNL A   1      36.163  34.620  32.101  1.00  0.00     0.010 A 
ATOM     50  C   UNL A   1      34.828  33.020  33.340  1.00  0.00     0.010 A 
ATOM     51  C   UNL A   1      35.021  35.390  31.861  1.00  0.00     0.020 A 
ATOM     52  C   UNL A   1      33.678  33.770  33.072  1.00  0.00     0.020 A 
ATOM     53  C   UNL A   1      33.788  34.967  32.364  1.00  0.00     0.054 A 
BRANCH  53  54
ATOM     54  S   UNL A   1      32.336  36.024  32.105  1.00  0.00     0.124 S 
ATOM     55  O   UNL A   1      32.626  37.152  32.987  1.00  0.00    -0.237 OA
ATOM     56  O   UNL A   1      32.404  36.311  30.674  1.00  0.00    -0.237 OA
ATOM     57  O   UNL A   1      31.218  35.180  32.516  1.00  0.00    -0.744 OA
ENDBRANCH  53  54
ENDBRANCH  25  48
BRANCH  37  58
ATOM     58  C   UNL A   1      40.392  33.735  38.415  1.00  0.00    -0.014 A 
ATOM     59  C   UNL A   1      39.743  33.243  39.564  1.00  0.00     0.010 A 
ATOM     60  C   UNL A   1      40.905  35.044  38.427  1.00  0.00     0.010 A 
ATOM     61  C   UNL A   1      39.564  34.060  40.683  1.00  0.00     0.020 A 
ATOM     62  C   UNL A   1      40.761  35.851  39.559  1.00  0.00     0.020 A 
ATOM     63  C   UNL A   1      40.065  35.363  40.668  1.00  0.00     0.054 A 
BRANCH  63  64
ATOM     64  S   UNL A   1      39.781  36.423  42.112  1.00  0.00     0.124 S 
ATOM     65  O   UNL A   1      38.681  35.738  42.785  1.00  0.00    -0.237 OA
ATOM     66  O   UNL A   1      41.069  36.377  42.802  1.00  0.00    -0.237 OA
ATOM     67  O   UNL A   1      39.444  37.719  41.526  1.00  0.00    -0.744 OA
ENDBRANCH  63  64
ENDBRANCH  37  58
ENDBRANCH  11  12
ENDBRANCH   4   6
ENDBRANCH   1   2
BRANCH   1  68
ATOM     68  C   UNL A   1      38.323  23.314  26.567  1.00  0.00     0.042 C 
BRANCH  68  69
ATOM     69  C   UNL A   1      37.064  23.822  25.905  1.00  0.00     0.118 C 
BRANCH  69  70
ATOM     70  N   UNL A   1      37.088  23.737  24.454  1.00  0.00    -0.352 N 
ATOM     71  C   UNL A   1      36.224  23.055  23.632  1.00  0.00     0.253 C 
ATOM     72  H   UNL A   1      37.812  24.230  24.004  1.00  0.00     0.163 HD
ATOM     73  O   UNL A   1      36.404  23.045  22.419  1.00  0.00    -0.269 OA
BRANCH  71  74
ATOM     74  C   UNL A   1      35.100  22.295  24.221  1.00  0.00     0.063 A 
ATOM     75  C   UNL A   1      35.390  20.979  24.610  1.00  0.00     0.016 A 
ATOM     76  C   UNL A   1      33.820  22.855  24.423  1.00  0.00     0.051 A 
ATOM     77  C   UNL A   1      34.420  20.214  25.246  1.00  0.00     0.001 A 
ATOM     78  C   UNL A   1      32.859  22.069  25.098  1.00  0.00    -0.017 A 
ATOM     79  N   UNL A   1      33.516  24.164  24.050  1.00  0.00    -0.377 N 
ATOM     80  C   UNL A   1      33.159  20.757  25.491  1.00  0.00     0.006 A 
ATOM     81  C   UNL A   1      31.503  22.693  25.276  1.00  0.00     0.049 C 
ATOM     82  C   UNL A   1      32.369  24.940  24.554  1.00  0.00     0.115 C 
ATOM     83  H   UNL A   1      34.113  24.603  23.402  1.00  0.00     0.161 HD
ATOM     84  C   UNL A   1      31.703  24.163  25.684  1.00  0.00     0.031 C 
ATOM     85  C   UNL A   1      30.581  22.261  26.379  1.00  0.00    -0.023 C 
ATOM     86  C   UNL A   1      30.303  24.577  26.129  1.00  0.00     0.034 C 
ATOM     87  C   UNL A   1      29.880  23.316  26.827  1.00  0.00    -0.030 C 
BRANCH  82  88
ATOM     88  C   UNL A   1      32.816  26.398  24.768  1.00  0.00    -0.011 A 
ATOM     89  C   UNL A   1      33.599  26.611  25.939  1.00  0.00     0.007 A 
ATOM     90  C   UNL A   1      32.536  27.547  23.997  1.00  0.00     0.023 A 
ATOM     91  C   UNL A   1      34.090  27.869  26.303  1.00  0.00     0.000 A 
ATOM     92  C   UNL A   1      33.086  28.799  24.342  1.00  0.00     0.016 A 
ATOM     93  Br  UNL A   1      31.348  27.669  22.518  1.00  0.00    -0.050 Br
ATOM     94  C   UNL A   1      33.854  28.961  25.486  1.00  0.00     0.001 A 
ENDBRANCH  82  88
ENDBRANCH  71  74
ENDBRANCH  69  70
ENDBRANCH  68  69
ENDBRANCH   1  68
TORSDOF 14
ENDMDL
MODEL 3
REMARK VINA RESULT:     -11.9      3.575      4.535
REMARK SMILES O=C(NCCCNC(=O)c1cccc2c1N[C@H](c1ccccc1Br)[C@H]1CC=C[C@H]21)c1ccc(-c2c3nc(c(-c4ccc(S(=O)(=O)[O-])cc4)c4ccc([nH]4)c(-c4ccc(S(=O)(=O)[O-])cc4)c4nc(c(-c5ccc(S(=O)(=O)[O-])cc5)c5ccc2[nH]5)C=C4)C=C3)cc1
REMARK SMILES IDX 4 1 3 2 1 3 2 4 30 6 31 7 89 8 32 9 88 10 33 11 34 12 35 13
REMARK SMILES IDX 82 14 36 15 87 16 81 17 83 18 37 19 86 20 80 21 79 22 38 24
REMARK SMILES IDX 68 25 49 26 67 27 50 28 53 29 66 30 84 31 51 32 52 33 65 35
REMARK SMILES IDX 85 36 54 37 39 38 40 39 48 40 41 41 47 42 42 43 43 44 44 45
REMARK SMILES IDX 45 46 46 47 69 48 70 49 78 50 71 51 77 52 72 53 73 54 74 55
REMARK SMILES IDX 75 56 76 57 55 58 56 59 64 60 57 61 63 62 58 63 59 64 60 65
REMARK SMILES IDX 61 66 62 67 5 68 6 69 7 70 8 71 9 73 10 74 11 75 15 76 12 77
REMARK SMILES IDX 14 78 16 79 13 80 29 81 17 82 25 84 28 85 26 86 27 87 18 88
REMARK SMILES IDX 19 89 23 90 20 91 22 92 24 93 21 94
REMARK H PARENT 3 5 83 23 53 34 7 72 16 83
REMARK Flexibility Score: inf
ROOT
ATOM      1  C   UNL A   1      35.858  31.020  28.109  1.00  0.00     0.118 C 
ENDROOT
BRANCH   1   2
ATOM      2  N   UNL A   1      35.728  30.595  29.498  1.00  0.00    -0.352 N 
ATOM      3  O   UNL A   1      36.251  29.539  31.418  1.00  0.00    -0.269 OA
ATOM      4  C   UNL A   1      36.600  29.900  30.301  1.00  0.00     0.251 C 
ATOM      5  H   UNL A   1      34.879  30.846  29.930  1.00  0.00     0.163 HD
BRANCH   4   6
ATOM      6  C   UNL A   1      37.955  29.568  29.814  1.00  0.00     0.039 A 
ATOM      7  C   UNL A   1      38.201  29.585  28.439  1.00  0.00     0.014 A 
ATOM      8  C   UNL A   1      38.972  29.214  30.700  1.00  0.00     0.014 A 
ATOM      9  C   UNL A   1      39.476  29.272  27.963  1.00  0.00     0.010 A 
ATOM     10  C   UNL A   1      40.268  29.039  30.238  1.00  0.00     0.010 A 
ATOM     11  C   UNL A   1      40.522  29.010  28.862  1.00  0.00    -0.014 A 
BRANCH  11  12
ATOM     12  C   UNL A   1      41.864  28.588  28.392  1.00  0.00     0.031 A 
ATOM     13  C   UNL A   1      42.980  29.602  28.358  1.00  0.00     0.074 A 
ATOM     14  C   UNL A   1      42.075  27.324  27.979  1.00  0.00     0.049 A 
ATOM     15  N   UNL A   1      44.208  29.458  27.932  1.00  0.00    -0.248 NA
ATOM     16  C   UNL A   1      42.671  30.963  28.834  1.00  0.00     0.031 C 
ATOM     17  C   UNL A   1      41.065  26.264  27.952  1.00  0.00     0.029 A 
ATOM     18  N   UNL A   1      43.211  26.712  27.513  1.00  0.00    -0.354 N 
ATOM     19  C   UNL A   1      44.803  30.706  28.077  1.00  0.00     0.074 A 
ATOM     20  C   UNL A   1      43.788  31.615  28.550  1.00  0.00     0.031 C 
ATOM     21  C   UNL A   1      41.640  25.123  27.542  1.00  0.00     0.029 A 
ATOM     22  C   UNL A   1      43.043  25.378  27.226  1.00  0.00     0.049 A 
ATOM     23  H   UNL A   1      44.067  27.185  27.394  1.00  0.00     0.167 HD
ATOM     24  C   UNL A   1      46.093  31.055  27.876  1.00  0.00     0.031 A 
ATOM     25  C   UNL A   1      43.919  24.461  26.768  1.00  0.00     0.031 A 
ATOM     26  C   UNL A   1      47.108  30.130  27.449  1.00  0.00     0.049 A 
ATOM     27  C   UNL A   1      45.348  24.875  26.534  1.00  0.00     0.074 A 
ATOM     28  C   UNL A   1      48.457  30.370  27.263  1.00  0.00     0.029 A 
ATOM     29  N   UNL A   1      46.892  28.791  27.160  1.00  0.00    -0.354 N 
ATOM     30  N   UNL A   1      45.904  26.049  26.719  1.00  0.00    -0.248 NA
ATOM     31  C   UNL A   1      46.272  23.842  26.045  1.00  0.00     0.031 C 
ATOM     32  C   UNL A   1      49.043  29.197  26.788  1.00  0.00     0.029 A 
ATOM     33  C   UNL A   1      48.079  28.199  26.767  1.00  0.00     0.049 A 
ATOM     34  H   UNL A   1      46.025  28.331  27.224  1.00  0.00     0.167 HD
ATOM     35  C   UNL A   1      47.248  25.889  26.395  1.00  0.00     0.074 A 
ATOM     36  C   UNL A   1      47.423  24.502  26.021  1.00  0.00     0.031 C 
ATOM     37  C   UNL A   1      48.242  26.812  26.405  1.00  0.00     0.031 A 
BRANCH  24  38
ATOM     38  C   UNL A   1      46.502  32.480  28.147  1.00  0.00    -0.014 A 
ATOM     39  C   UNL A   1      46.853  32.874  29.450  1.00  0.00     0.010 A 
ATOM     40  C   UNL A   1      46.425  33.458  27.137  1.00  0.00     0.010 A 
ATOM     41  C   UNL A   1      47.077  34.219  29.752  1.00  0.00     0.020 A 
ATOM     42  C   UNL A   1      46.685  34.800  27.425  1.00  0.00     0.020 A 
ATOM     43  C   UNL A   1      46.979  35.176  28.737  1.00  0.00     0.054 A 
BRANCH  43  44
ATOM     44  S   UNL A   1      47.219  36.923  29.158  1.00  0.00     0.124 S 
ATOM     45  O   UNL A   1      46.424  37.598  28.137  1.00  0.00    -0.237 OA
ATOM     46  O   UNL A   1      46.693  36.997  30.520  1.00  0.00    -0.237 OA
ATOM     47  O   UNL A   1      48.664  37.107  29.048  1.00  0.00    -0.744 OA
ENDBRANCH  43  44
ENDBRANCH  24  38
BRANCH  25  48
ATOM     48  C   UNL A   1      43.465  23.055  26.571  1.00  0.00    -0.014 A 
ATOM     49  C   UNL A   1      42.912  22.323  27.640  1.00  0.00     0.010 A 
ATOM     50  C   UNL A   1      43.672  22.407  25.339  1.00  0.00     0.010 A 
ATOM     51  C   UNL A   1      42.639  20.959  27.502  1.00  0.00     0.020 A 
ATOM     52  C   UNL A   1      43.367  21.050  25.187  1.00  0.00     0.020 A 
ATOM     53  C   UNL A   1      42.885  20.328  26.280  1.00  0.00     0.054 A 
BRANCH  53  54
ATOM     54  S   UNL A   1      42.594  18.541  26.151  1.00  0.00     0.124 S 
ATOM     55  O   UNL A   1      41.176  18.494  25.802  1.00  0.00    -0.237 OA
ATOM     56  O   UNL A   1      43.517  18.146  25.090  1.00  0.00    -0.237 OA
ATOM     57  O   UNL A   1      42.928  18.042  27.482  1.00  0.00    -0.744 OA
ENDBRANCH  53  54
ENDBRANCH  25  48
BRANCH  37  58
ATOM     58  C   UNL A   1      49.630  26.375  26.008  1.00  0.00    -0.014 A 
ATOM     59  C   UNL A   1      50.481  25.803  26.973  1.00  0.00     0.010 A 
ATOM     60  C   UNL A   1      50.144  26.671  24.733  1.00  0.00     0.010 A 
ATOM     61  C   UNL A   1      51.830  25.580  26.688  1.00  0.00     0.020 A 
ATOM     62  C   UNL A   1      51.484  26.414  24.432  1.00  0.00     0.020 A 
ATOM     63  C   UNL A   1      52.325  25.898  25.422  1.00  0.00     0.054 A 
BRANCH  63  64
ATOM     64  S   UNL A   1      54.089  25.646  25.087  1.00  0.00     0.124 S 
ATOM     65  O   UNL A   1      54.718  26.435  26.142  1.00  0.00    -0.237 OA
ATOM     66  O   UNL A   1      54.234  24.197  25.210  1.00  0.00    -0.237 OA
ATOM     67  O   UNL A   1      54.260  26.167  23.732  1.00  0.00    -0.744 OA
ENDBRANCH  63  64
ENDBRANCH  37  58
ENDBRANCH  11  12
ENDBRANCH   4   6
ENDBRANCH   1   2
BRANCH   1  68
ATOM     68  C   UNL A   1      34.591  30.831  27.299  1.00  0.00     0.042 C 
BRANCH  68  69
ATOM     69  C   UNL A   1      34.318  29.388  26.946  1.00  0.00     0.118 C 
BRANCH  69  70
ATOM     70  N   UNL A   1      33.298  28.763  27.774  1.00  0.00    -0.352 N 
ATOM     71  C   UNL A   1      32.074  28.276  27.384  1.00  0.00     0.253 C 
ATOM     72  H   UNL A   1      33.512  28.679  28.731  1.00  0.00     0.163 HD
ATOM     73  O   UNL A   1      31.301  27.814  28.216  1.00  0.00    -0.269 OA
BRANCH  71  74
ATOM     74  C   UNL A   1      31.675  28.353  25.962  1.00  0.00     0.063 A 
ATOM     75  C   UNL A   1      31.233  29.608  25.519  1.00  0.00     0.016 A 
ATOM     76  C   UNL A   1      31.762  27.253  25.082  1.00  0.00     0.051 A 
ATOM     77  C   UNL A   1      30.912  29.798  24.180  1.00  0.00     0.001 A 
ATOM     78  C   UNL A   1      31.460  27.476  23.720  1.00  0.00    -0.017 A 
ATOM     79  N   UNL A   1      32.207  25.999  25.504  1.00  0.00    -0.377 N 
ATOM     80  C   UNL A   1      31.026  28.736  23.283  1.00  0.00     0.006 A 
ATOM     81  C   UNL A   1      31.545  26.277  22.819  1.00  0.00     0.049 C 
ATOM     82  C   UNL A   1      32.688  24.932  24.609  1.00  0.00     0.115 C 
ATOM     83  H   UNL A   1      32.200  25.816  26.471  1.00  0.00     0.161 HD
ATOM     84  C   UNL A   1      32.811  25.486  23.195  1.00  0.00     0.031 C 
ATOM     85  C   UNL A   1      31.782  26.420  21.344  1.00  0.00    -0.023 C 
ATOM     86  C   UNL A   1      32.946  24.504  22.035  1.00  0.00     0.034 C 
ATOM     87  C   UNL A   1      32.536  25.401  20.901  1.00  0.00    -0.030 C 
BRANCH  82  88
ATOM     88  C   UNL A   1      33.884  24.230  25.279  1.00  0.00    -0.011 A 
ATOM     89  C   UNL A   1      35.139  24.467  24.648  1.00  0.00     0.007 A 
ATOM     90  C   UNL A   1      33.911  23.368  26.397  1.00  0.00     0.023 A 
ATOM     91  C   UNL A   1      36.336  23.910  25.108  1.00  0.00     0.000 A 
ATOM     92  C   UNL A   1      35.131  22.860  26.888  1.00  0.00     0.016 A 
ATOM     93  Br  UNL A   1      32.413  22.659  27.330  1.00  0.00    -0.050 Br
ATOM     94  C   UNL A   1      36.334  23.126  26.248  1.00  0.00     0.001 A 
ENDBRANCH  82  88
ENDBRANCH  71  74
ENDBRANCH  69  70
ENDBRANCH  68  69
ENDBRANCH   1  68
TORSDOF 14
ENDMDL
