MODEL 1
REMARK VINA RESULT:     -10.7      0.000      0.000
REMARK SMILES O=C(C[C@@H](NS(=O)(=O)c1ccc(Cl)cc1)c1ccc(F)cc1)NCCCNC(=O)c1ccc(-c2c3nc(c(-c4ccc(S(=O)(=O)[O-])cc4)c4ccc([nH]4)c(-c4ccc(S(=O)(=O)[O-])cc4)c4nc(c(-c5ccc(S(=O)(=O)[O-])cc5)c5ccc2[nH]5)C=C4)C=C3)cc1
REMARK SMILES IDX 24 1 23 2 1 3 2 4 3 6 4 7 5 8 6 10 7 11 8 12 9 13 10 14
REMARK SMILES IDX 15 15 11 16 14 17 12 18 13 19 16 20 17 21 22 22 18 23 21 24
REMARK SMILES IDX 19 25 20 26 25 27 26 28 27 29 28 30 29 32 30 33 31 34 89 35
REMARK SMILES IDX 32 36 88 37 33 38 34 39 35 40 82 41 36 42 87 43 81 44 83 45
REMARK SMILES IDX 37 46 86 47 80 48 79 49 38 51 68 52 49 53 67 54 50 55 53 56
REMARK SMILES IDX 66 57 84 58 51 59 52 60 65 62 85 63 54 64 39 65 40 66 48 67
REMARK SMILES IDX 41 68 47 69 42 70 43 71 44 72 45 73 46 74 69 75 70 76 78 77
REMARK SMILES IDX 71 78 77 79 72 80 73 81 74 82 75 83 76 84 55 85 56 86 64 87
REMARK SMILES IDX 57 88 63 89 58 90 59 91 60 92 61 93 62 94
REMARK H PARENT 23 5 5 9 27 31 83 50 53 61
REMARK Flexibility Score: inf
ROOT
ATOM      1  C   UNL A   1      34.078  23.914  26.096  1.00  0.00     0.117 C 
ENDROOT
BRANCH   1   2
ATOM      2  N   UNL A   1      33.256  25.105  25.974  1.00  0.00    -0.356 N 
ATOM      3  O   UNL A   1      31.498  24.250  27.184  1.00  0.00    -0.275 OA
ATOM      4  C   UNL A   1      32.016  25.176  26.569  1.00  0.00     0.221 C 
ATOM      5  H   UNL A   1      33.591  25.872  25.456  1.00  0.00     0.163 HD
BRANCH   4   6
ATOM      6  C   UNL A   1      31.360  26.530  26.468  1.00  0.00     0.124 C 
BRANCH   6   7
ATOM      7  C   UNL A   1      32.128  27.389  25.447  1.00  0.00     0.109 C 
BRANCH   7   8
ATOM      8  N   UNL A   1      31.193  27.810  24.372  1.00  0.00    -0.203 NA
ATOM      9  H   UNL A   1      31.124  28.827  24.419  1.00  0.00     0.142 HD
BRANCH   8  10
ATOM     10  S   UNL A   1      31.551  27.411  22.771  1.00  0.00     0.241 S 
ATOM     11  O   UNL A   1      30.405  27.754  21.960  1.00  0.00    -0.207 OA
ATOM     12  O   UNL A   1      32.859  27.973  22.519  1.00  0.00    -0.207 OA
BRANCH  10  13
ATOM     13  C   UNL A   1      31.740  25.649  22.768  1.00  0.00     0.082 A 
ATOM     14  C   UNL A   1      30.698  24.860  23.269  1.00  0.00     0.023 A 
ATOM     15  C   UNL A   1      32.937  25.067  22.345  1.00  0.00     0.023 A 
ATOM     16  C   UNL A   1      30.869  23.478  23.370  1.00  0.00     0.022 A 
ATOM     17  C   UNL A   1      33.107  23.686  22.461  1.00  0.00     0.022 A 
ATOM     18  C   UNL A   1      32.077  22.900  22.979  1.00  0.00     0.041 A 
ATOM     19  Cl  UNL A   1      32.301  21.203  23.152  1.00  0.00    -0.084 Cl
ENDBRANCH  10  13
ENDBRANCH   8  10
ENDBRANCH   7   8
BRANCH   7  20
ATOM     20  C   UNL A   1      32.772  28.597  26.116  1.00  0.00    -0.029 A 
ATOM     21  C   UNL A   1      34.070  28.547  26.656  1.00  0.00     0.008 A 
ATOM     22  C   UNL A   1      32.027  29.781  26.265  1.00  0.00     0.008 A 
ATOM     23  C   UNL A   1      34.608  29.651  27.321  1.00  0.00     0.039 A 
ATOM     24  C   UNL A   1      32.561  30.877  26.946  1.00  0.00     0.039 A 
ATOM     25  C   UNL A   1      33.846  30.803  27.466  1.00  0.00     0.123 A 
ATOM     26  F   UNL A   1      34.354  31.853  28.123  1.00  0.00    -0.207 F 
ENDBRANCH   7  20
ENDBRANCH   6   7
ENDBRANCH   4   6
ENDBRANCH   1   2
BRANCH   1  27
ATOM     27  C   UNL A   1      35.380  24.006  25.310  1.00  0.00     0.042 C 
BRANCH  27  28
ATOM     28  C   UNL A   1      36.640  24.071  26.167  1.00  0.00     0.118 C 
BRANCH  28  29
ATOM     29  N   UNL A   1      37.414  22.840  26.157  1.00  0.00    -0.352 N 
ATOM     30  C   UNL A   1      38.766  22.670  26.358  1.00  0.00     0.251 C 
ATOM     31  H   UNL A   1      36.903  22.016  25.983  1.00  0.00     0.163 HD
ATOM     32  O   UNL A   1      39.281  21.570  26.188  1.00  0.00    -0.269 OA
BRANCH  30  33
ATOM     33  C   UNL A   1      39.601  23.830  26.741  1.00  0.00     0.039 A 
ATOM     34  C   UNL A   1      39.959  24.759  25.760  1.00  0.00     0.014 A 
ATOM     35  C   UNL A   1      40.000  24.017  28.067  1.00  0.00     0.014 A 
ATOM     36  C   UNL A   1      40.644  25.921  26.124  1.00  0.00     0.010 A 
ATOM     37  C   UNL A   1      40.630  25.202  28.437  1.00  0.00     0.010 A 
ATOM     38  C   UNL A   1      40.945  26.174  27.472  1.00  0.00    -0.014 A 
BRANCH  38  39
ATOM     39  C   UNL A   1      41.560  27.452  27.910  1.00  0.00     0.031 A 
ATOM     40  C   UNL A   1      43.054  27.611  27.905  1.00  0.00     0.074 A 
ATOM     41  C   UNL A   1      40.780  28.433  28.411  1.00  0.00     0.049 A 
ATOM     42  N   UNL A   1      43.782  28.580  28.398  1.00  0.00    -0.248 NA
ATOM     43  C   UNL A   1      43.832  26.525  27.288  1.00  0.00     0.031 C 
ATOM     44  C   UNL A   1      39.319  28.396  28.497  1.00  0.00     0.029 A 
ATOM     45  N   UNL A   1      41.113  29.646  28.961  1.00  0.00    -0.354 N 
ATOM     46  C   UNL A   1      45.103  28.207  28.180  1.00  0.00     0.074 A 
ATOM     47  C   UNL A   1      45.076  26.912  27.533  1.00  0.00     0.031 C 
ATOM     48  C   UNL A   1      38.882  29.535  29.058  1.00  0.00     0.029 A 
ATOM     49  C   UNL A   1      40.030  30.364  29.410  1.00  0.00     0.049 A 
ATOM     50  H   UNL A   1      42.040  29.971  29.028  1.00  0.00     0.167 HD
ATOM     51  C   UNL A   1      46.236  28.884  28.484  1.00  0.00     0.031 A 
ATOM     52  C   UNL A   1      39.965  31.548  30.050  1.00  0.00     0.031 A 
ATOM     53  C   UNL A   1      46.263  30.181  29.106  1.00  0.00     0.049 A 
ATOM     54  C   UNL A   1      41.235  32.287  30.367  1.00  0.00     0.074 A 
ATOM     55  C   UNL A   1      47.362  30.965  29.415  1.00  0.00     0.029 A 
ATOM     56  N   UNL A   1      45.141  30.891  29.504  1.00  0.00    -0.354 N 
ATOM     57  N   UNL A   1      42.474  31.930  30.129  1.00  0.00    -0.248 NA
ATOM     58  C   UNL A   1      41.099  33.590  31.034  1.00  0.00     0.031 C 
ATOM     59  C   UNL A   1      46.905  32.136  30.027  1.00  0.00     0.029 A 
ATOM     60  C   UNL A   1      45.520  32.099  30.063  1.00  0.00     0.049 A 
ATOM     61  H   UNL A   1      44.212  30.580  29.405  1.00  0.00     0.167 HD
ATOM     62  C   UNL A   1      43.263  32.977  30.590  1.00  0.00     0.074 A 
ATOM     63  C   UNL A   1      42.364  33.981  31.119  1.00  0.00     0.031 C 
ATOM     64  C   UNL A   1      44.613  33.094  30.572  1.00  0.00     0.031 A 
BRANCH  51  65
ATOM     65  C   UNL A   1      47.546  28.221  28.157  1.00  0.00    -0.014 A 
ATOM     66  C   UNL A   1      48.179  27.373  29.083  1.00  0.00     0.010 A 
ATOM     67  C   UNL A   1      48.138  28.429  26.899  1.00  0.00     0.010 A 
ATOM     68  C   UNL A   1      49.406  26.781  28.773  1.00  0.00     0.020 A 
ATOM     69  C   UNL A   1      49.353  27.819  26.577  1.00  0.00     0.020 A 
ATOM     70  C   UNL A   1      49.989  27.015  27.524  1.00  0.00     0.054 A 
BRANCH  70  71
ATOM     71  S   UNL A   1      51.579  26.230  27.140  1.00  0.00     0.124 S 
ATOM     72  O   UNL A   1      52.016  26.996  25.975  1.00  0.00    -0.237 OA
ATOM     73  O   UNL A   1      52.352  26.449  28.360  1.00  0.00    -0.237 OA
ATOM     74  O   UNL A   1      51.221  24.839  26.874  1.00  0.00    -0.744 OA
ENDBRANCH  70  71
ENDBRANCH  51  65
BRANCH  52  75
ATOM     75  C   UNL A   1      38.642  32.113  30.426  1.00  0.00    -0.014 A 
ATOM     76  C   UNL A   1      37.912  32.883  29.506  1.00  0.00     0.010 A 
ATOM     77  C   UNL A   1      38.096  31.863  31.698  1.00  0.00     0.010 A 
ATOM     78  C   UNL A   1      36.663  33.405  29.853  1.00  0.00     0.020 A 
ATOM     79  C   UNL A   1      36.838  32.366  32.042  1.00  0.00     0.020 A 
ATOM     80  C   UNL A   1      36.134  33.142  31.119  1.00  0.00     0.054 A 
BRANCH  80  81
ATOM     81  S   UNL A   1      34.483  33.776  31.531  1.00  0.00     0.124 S 
ATOM     82  O   UNL A   1      33.904  33.990  30.209  1.00  0.00    -0.237 OA
ATOM     83  O   UNL A   1      33.906  32.682  32.307  1.00  0.00    -0.237 OA
ATOM     84  O   UNL A   1      34.768  34.989  32.296  1.00  0.00    -0.744 OA
ENDBRANCH  80  81
ENDBRANCH  52  75
BRANCH  64  85
ATOM     85  C   UNL A   1      45.208  34.372  31.095  1.00  0.00    -0.014 A 
ATOM     86  C   UNL A   1      45.604  34.491  32.437  1.00  0.00     0.010 A 
ATOM     87  C   UNL A   1      45.448  35.435  30.207  1.00  0.00     0.010 A 
ATOM     88  C   UNL A   1      46.223  35.661  32.887  1.00  0.00     0.020 A 
ATOM     89  C   UNL A   1      46.083  36.598  30.649  1.00  0.00     0.020 A 
ATOM     90  C   UNL A   1      46.460  36.707  31.989  1.00  0.00     0.054 A 
BRANCH  90  91
ATOM     91  S   UNL A   1      47.331  38.187  32.575  1.00  0.00     0.124 S 
ATOM     92  O   UNL A   1      48.169  38.520  31.427  1.00  0.00    -0.237 OA
ATOM     93  O   UNL A   1      46.238  39.118  32.848  1.00  0.00    -0.237 OA
ATOM     94  O   UNL A   1      48.051  37.718  33.757  1.00  0.00    -0.744 OA
ENDBRANCH  90  91
ENDBRANCH  64  85
ENDBRANCH  38  39
ENDBRANCH  30  33
ENDBRANCH  28  29
ENDBRANCH  27  28
ENDBRANCH   1  27
TORSDOF 18
ENDMDL
MODEL 2
REMARK VINA RESULT:     -10.5      2.801      8.852
REMARK SMILES O=C(C[C@@H](NS(=O)(=O)c1ccc(Cl)cc1)c1ccc(F)cc1)NCCCNC(=O)c1ccc(-c2c3nc(c(-c4ccc(S(=O)(=O)[O-])cc4)c4ccc([nH]4)c(-c4ccc(S(=O)(=O)[O-])cc4)c4nc(c(-c5ccc(S(=O)(=O)[O-])cc5)c5ccc2[nH]5)C=C4)C=C3)cc1
REMARK SMILES IDX 24 1 23 2 1 3 2 4 3 6 4 7 5 8 6 10 7 11 8 12 9 13 10 14
REMARK SMILES IDX 15 15 11 16 14 17 12 18 13 19 16 20 17 21 22 22 18 23 21 24
REMARK SMILES IDX 19 25 20 26 25 27 26 28 27 29 28 30 29 32 30 33 31 34 89 35
REMARK SMILES IDX 32 36 88 37 33 38 34 39 35 40 82 41 36 42 87 43 81 44 83 45
REMARK SMILES IDX 37 46 86 47 80 48 79 49 38 51 68 52 49 53 67 54 50 55 53 56
REMARK SMILES IDX 66 57 84 58 51 59 52 60 65 62 85 63 54 64 39 65 40 66 48 67
REMARK SMILES IDX 41 68 47 69 42 70 43 71 44 72 45 73 46 74 69 75 70 76 78 77
REMARK SMILES IDX 71 78 77 79 72 80 73 81 74 82 75 83 76 84 55 85 56 86 64 87
REMARK SMILES IDX 57 88 63 89 58 90 59 91 60 92 61 93 62 94
REMARK H PARENT 23 5 5 9 27 31 83 50 53 61
REMARK Flexibility Score: inf
ROOT
ATOM      1  C   UNL A   1      36.513  21.581  25.572  1.00  0.00     0.117 C 
ENDROOT
BRANCH   1   2
ATOM      2  N   UNL A   1      35.970  22.864  25.160  1.00  0.00    -0.356 N 
ATOM      3  O   UNL A   1      34.707  23.157  27.058  1.00  0.00    -0.275 OA
ATOM      4  C   UNL A   1      35.113  23.567  25.976  1.00  0.00     0.221 C 
ATOM      5  H   UNL A   1      36.219  23.235  24.283  1.00  0.00     0.163 HD
BRANCH   4   6
ATOM      6  C   UNL A   1      34.759  24.941  25.463  1.00  0.00     0.124 C 
BRANCH   6   7
ATOM      7  C   UNL A   1      33.685  24.810  24.369  1.00  0.00     0.109 C 
BRANCH   7   8
ATOM      8  N   UNL A   1      32.910  23.564  24.600  1.00  0.00    -0.203 NA
ATOM      9  H   UNL A   1      32.099  23.818  25.165  1.00  0.00     0.142 HD
BRANCH   8  10
ATOM     10  S   UNL A   1      32.337  22.694  23.271  1.00  0.00     0.241 S 
ATOM     11  O   UNL A   1      30.923  22.965  23.137  1.00  0.00    -0.207 OA
ATOM     12  O   UNL A   1      33.270  22.970  22.202  1.00  0.00    -0.207 OA
BRANCH  10  13
ATOM     13  C   UNL A   1      32.548  20.991  23.711  1.00  0.00     0.082 A 
ATOM     14  C   UNL A   1      32.247  20.008  22.761  1.00  0.00     0.023 A 
ATOM     15  C   UNL A   1      32.936  20.638  25.006  1.00  0.00     0.023 A 
ATOM     16  C   UNL A   1      32.310  18.661  23.122  1.00  0.00     0.022 A 
ATOM     17  C   UNL A   1      32.983  19.290  25.365  1.00  0.00     0.022 A 
ATOM     18  C   UNL A   1      32.664  18.309  24.425  1.00  0.00     0.041 A 
ATOM     19  Cl  UNL A   1      32.691  16.650  24.879  1.00  0.00    -0.084 Cl
ENDBRANCH  10  13
ENDBRANCH   8  10
ENDBRANCH   7   8
BRANCH   7  20
ATOM     20  C   UNL A   1      32.768  26.027  24.346  1.00  0.00    -0.029 A 
ATOM     21  C   UNL A   1      32.306  26.591  23.143  1.00  0.00     0.008 A 
ATOM     22  C   UNL A   1      32.427  26.655  25.558  1.00  0.00     0.008 A 
ATOM     23  C   UNL A   1      31.521  27.746  23.153  1.00  0.00     0.039 A 
ATOM     24  C   UNL A   1      31.657  27.820  25.564  1.00  0.00     0.039 A 
ATOM     25  C   UNL A   1      31.210  28.353  24.363  1.00  0.00     0.123 A 
ATOM     26  F   UNL A   1      30.476  29.473  24.370  1.00  0.00    -0.207 F 
ENDBRANCH   7  20
ENDBRANCH   6   7
ENDBRANCH   4   6
ENDBRANCH   1   2
BRANCH   1  27
ATOM     27  C   UNL A   1      37.906  21.318  25.013  1.00  0.00     0.042 C 
BRANCH  27  28
ATOM     28  C   UNL A   1      39.016  21.279  26.058  1.00  0.00     0.118 C 
BRANCH  28  29
ATOM     29  N   UNL A   1      39.822  20.069  26.006  1.00  0.00    -0.352 N 
ATOM     30  C   UNL A   1      41.189  19.939  26.113  1.00  0.00     0.251 C 
ATOM     31  H   UNL A   1      39.324  19.230  25.875  1.00  0.00     0.163 HD
ATOM     32  O   UNL A   1      41.723  18.852  25.918  1.00  0.00    -0.269 OA
BRANCH  30  33
ATOM     33  C   UNL A   1      42.016  21.126  26.427  1.00  0.00     0.039 A 
ATOM     34  C   UNL A   1      42.395  21.980  25.387  1.00  0.00     0.014 A 
ATOM     35  C   UNL A   1      42.386  21.412  27.744  1.00  0.00     0.014 A 
ATOM     36  C   UNL A   1      43.073  23.167  25.678  1.00  0.00     0.010 A 
ATOM     37  C   UNL A   1      43.008  22.623  28.037  1.00  0.00     0.010 A 
ATOM     38  C   UNL A   1      43.344  23.520  27.009  1.00  0.00    -0.014 A 
BRANCH  38  39
ATOM     39  C   UNL A   1      43.949  24.829  27.364  1.00  0.00     0.031 A 
ATOM     40  C   UNL A   1      43.084  25.944  27.881  1.00  0.00     0.074 A 
ATOM     41  C   UNL A   1      45.258  25.048  27.124  1.00  0.00     0.049 A 
ATOM     42  N   UNL A   1      43.393  27.198  28.091  1.00  0.00    -0.248 NA
ATOM     43  C   UNL A   1      41.681  25.610  28.175  1.00  0.00     0.031 C 
ATOM     44  C   UNL A   1      46.203  24.059  26.601  1.00  0.00     0.029 A 
ATOM     45  N   UNL A   1      46.015  26.184  27.272  1.00  0.00    -0.354 N 
ATOM     46  C   UNL A   1      42.218  27.810  28.510  1.00  0.00     0.074 A 
ATOM     47  C   UNL A   1      41.186  26.796  28.501  1.00  0.00     0.031 C 
ATOM     48  C   UNL A   1      47.413  24.628  26.479  1.00  0.00     0.029 A 
ATOM     49  C   UNL A   1      47.323  26.030  26.874  1.00  0.00     0.049 A 
ATOM     50  H   UNL A   1      45.657  27.027  27.629  1.00  0.00     0.167 HD
ATOM     51  C   UNL A   1      42.018  29.099  28.877  1.00  0.00     0.031 A 
ATOM     52  C   UNL A   1      48.333  26.920  26.815  1.00  0.00     0.031 A 
ATOM     53  C   UNL A   1      43.049  30.102  28.908  1.00  0.00     0.049 A 
ATOM     54  C   UNL A   1      48.090  28.342  27.237  1.00  0.00     0.074 A 
ATOM     55  C   UNL A   1      42.951  31.424  29.306  1.00  0.00     0.029 A 
ATOM     56  N   UNL A   1      44.368  29.892  28.537  1.00  0.00    -0.354 N 
ATOM     57  N   UNL A   1      46.978  28.896  27.656  1.00  0.00    -0.248 NA
ATOM     58  C   UNL A   1      49.239  29.258  27.184  1.00  0.00     0.031 C 
ATOM     59  C   UNL A   1      44.205  32.022  29.148  1.00  0.00     0.029 A 
ATOM     60  C   UNL A   1      45.093  31.061  28.690  1.00  0.00     0.049 A 
ATOM     61  H   UNL A   1      44.735  29.038  28.213  1.00  0.00     0.167 HD
ATOM     62  C   UNL A   1      47.300  30.217  27.944  1.00  0.00     0.074 A 
ATOM     63  C   UNL A   1      48.710  30.380  27.654  1.00  0.00     0.031 C 
ATOM     64  C   UNL A   1      46.498  31.204  28.411  1.00  0.00     0.031 A 
BRANCH  51  65
ATOM     65  C   UNL A   1      40.620  29.499  29.262  1.00  0.00    -0.014 A 
ATOM     66  C   UNL A   1      40.281  29.741  30.604  1.00  0.00     0.010 A 
ATOM     67  C   UNL A   1      39.641  29.659  28.265  1.00  0.00     0.010 A 
ATOM     68  C   UNL A   1      38.973  30.092  30.949  1.00  0.00     0.020 A 
ATOM     69  C   UNL A   1      38.338  30.033  28.604  1.00  0.00     0.020 A 
ATOM     70  C   UNL A   1      38.008  30.227  29.946  1.00  0.00     0.054 A 
BRANCH  70  71
ATOM     71  S   UNL A   1      36.318  30.691  30.415  1.00  0.00     0.124 S 
ATOM     72  O   UNL A   1      35.961  29.619  31.341  1.00  0.00    -0.237 OA
ATOM     73  O   UNL A   1      36.499  32.008  31.022  1.00  0.00    -0.237 OA
ATOM     74  O   UNL A   1      35.594  30.688  29.147  1.00  0.00    -0.744 OA
ENDBRANCH  70  71
ENDBRANCH  51  65
BRANCH  52  75
ATOM     75  C   UNL A   1      49.673  26.485  26.341  1.00  0.00    -0.014 A 
ATOM     76  C   UNL A   1      50.086  26.765  25.027  1.00  0.00     0.010 A 
ATOM     77  C   UNL A   1      50.552  25.811  27.208  1.00  0.00     0.010 A 
ATOM     78  C   UNL A   1      51.351  26.368  24.583  1.00  0.00     0.020 A 
ATOM     79  C   UNL A   1      51.825  25.430  26.774  1.00  0.00     0.020 A 
ATOM     80  C   UNL A   1      52.212  25.703  25.460  1.00  0.00     0.054 A 
BRANCH  80  81
ATOM     81  S   UNL A   1      53.873  25.250  24.884  1.00  0.00     0.124 S 
ATOM     82  O   UNL A   1      53.905  25.845  23.553  1.00  0.00    -0.237 OA
ATOM     83  O   UNL A   1      54.738  25.877  25.881  1.00  0.00    -0.237 OA
ATOM     84  O   UNL A   1      53.855  23.789  24.919  1.00  0.00    -0.744 OA
ENDBRANCH  80  81
ENDBRANCH  52  75
BRANCH  64  85
ATOM     85  C   UNL A   1      47.127  32.541  28.687  1.00  0.00    -0.014 A 
ATOM     86  C   UNL A   1      47.727  32.819  29.926  1.00  0.00     0.010 A 
ATOM     87  C   UNL A   1      47.189  33.499  27.659  1.00  0.00     0.010 A 
ATOM     88  C   UNL A   1      48.371  34.042  30.137  1.00  0.00     0.020 A 
ATOM     89  C   UNL A   1      47.848  34.714  27.861  1.00  0.00     0.020 A 
ATOM     90  C   UNL A   1      48.429  34.980  29.102  1.00  0.00     0.054 A 
BRANCH  90  91
ATOM     91  S   UNL A   1      49.334  36.530  29.373  1.00  0.00     0.124 S 
ATOM     92  O   UNL A   1      50.008  36.715  28.091  1.00  0.00    -0.237 OA
ATOM     93  O   UNL A   1      48.264  37.482  29.663  1.00  0.00    -0.237 OA
ATOM     94  O   UNL A   1      50.211  36.225  30.501  1.00  0.00    -0.744 OA
ENDBRANCH  90  91
ENDBRANCH  64  85
ENDBRANCH  38  39
ENDBRANCH  30  33
ENDBRANCH  28  29
ENDBRANCH  27  28
ENDBRANCH   1  27
TORSDOF 18
ENDMDL
MODEL 3
REMARK VINA RESULT:     -10.0      3.612      5.267
REMARK SMILES O=C(C[C@@H](NS(=O)(=O)c1ccc(Cl)cc1)c1ccc(F)cc1)NCCCNC(=O)c1ccc(-c2c3nc(c(-c4ccc(S(=O)(=O)[O-])cc4)c4ccc([nH]4)c(-c4ccc(S(=O)(=O)[O-])cc4)c4nc(c(-c5ccc(S(=O)(=O)[O-])cc5)c5ccc2[nH]5)C=C4)C=C3)cc1
REMARK SMILES IDX 24 1 23 2 1 3 2 4 3 6 4 7 5 8 6 10 7 11 8 12 9 13 10 14
REMARK SMILES IDX 15 15 11 16 14 17 12 18 13 19 16 20 17 21 22 22 18 23 21 24
REMARK SMILES IDX 19 25 20 26 25 27 26 28 27 29 28 30 29 32 30 33 31 34 89 35
REMARK SMILES IDX 32 36 88 37 33 38 34 39 35 40 82 41 36 42 87 43 81 44 83 45
REMARK SMILES IDX 37 46 86 47 80 48 79 49 38 51 68 52 49 53 67 54 50 55 53 56
REMARK SMILES IDX 66 57 84 58 51 59 52 60 65 62 85 63 54 64 39 65 40 66 48 67
REMARK SMILES IDX 41 68 47 69 42 70 43 71 44 72 45 73 46 74 69 75 70 76 78 77
REMARK SMILES IDX 71 78 77 79 72 80 73 81 74 82 75 83 76 84 55 85 56 86 64 87
REMARK SMILES IDX 57 88 63 89 58 90 59 91 60 92 61 93 62 94
REMARK H PARENT 23 5 5 9 27 31 83 50 53 61
REMARK Flexibility Score: inf
ROOT
ATOM      1  C   UNL A   1      39.804  21.240  26.440  1.00  0.00     0.117 C 
ENDROOT
BRANCH   1   2
ATOM      2  N   UNL A   1      38.993  22.147  25.646  1.00  0.00    -0.356 N 
ATOM      3  O   UNL A   1      37.498  20.533  24.979  1.00  0.00    -0.275 OA
ATOM      4  C   UNL A   1      37.866  21.702  24.991  1.00  0.00     0.221 C 
ATOM      5  H   UNL A   1      39.254  23.093  25.575  1.00  0.00     0.163 HD
BRANCH   4   6
ATOM      6  C   UNL A   1      37.060  22.796  24.336  1.00  0.00     0.124 C 
BRANCH   6   7
ATOM      7  C   UNL A   1      35.563  22.454  24.442  1.00  0.00     0.109 C 
BRANCH   7   8
ATOM      8  N   UNL A   1      35.192  22.359  25.877  1.00  0.00    -0.203 NA
ATOM      9  H   UNL A   1      35.143  23.312  26.237  1.00  0.00     0.142 HD
BRANCH   8  10
ATOM     10  S   UNL A   1      33.746  21.595  26.301  1.00  0.00     0.241 S 
ATOM     11  O   UNL A   1      33.524  20.514  25.369  1.00  0.00    -0.207 OA
ATOM     12  O   UNL A   1      33.837  21.367  27.726  1.00  0.00    -0.207 OA
BRANCH  10  13
ATOM     13  C   UNL A   1      32.491  22.822  26.057  1.00  0.00     0.082 A 
ATOM     14  C   UNL A   1      31.497  22.586  25.099  1.00  0.00     0.023 A 
ATOM     15  C   UNL A   1      32.538  24.031  26.755  1.00  0.00     0.023 A 
ATOM     16  C   UNL A   1      30.561  23.583  24.821  1.00  0.00     0.022 A 
ATOM     17  C   UNL A   1      31.607  25.029  26.462  1.00  0.00     0.022 A 
ATOM     18  C   UNL A   1      30.628  24.804  25.493  1.00  0.00     0.041 A 
ATOM     19  Cl  UNL A   1      29.502  26.047  25.111  1.00  0.00    -0.084 Cl
ENDBRANCH  10  13
ENDBRANCH   8  10
ENDBRANCH   7   8
BRANCH   7  20
ATOM     20  C   UNL A   1      34.708  23.491  23.724  1.00  0.00    -0.029 A 
ATOM     21  C   UNL A   1      34.645  24.831  24.150  1.00  0.00     0.008 A 
ATOM     22  C   UNL A   1      33.901  23.091  22.644  1.00  0.00     0.008 A 
ATOM     23  C   UNL A   1      33.801  25.742  23.511  1.00  0.00     0.039 A 
ATOM     24  C   UNL A   1      33.045  23.999  22.018  1.00  0.00     0.039 A 
ATOM     25  C   UNL A   1      33.004  25.316  22.456  1.00  0.00     0.123 A 
ATOM     26  F   UNL A   1      32.180  26.185  21.859  1.00  0.00    -0.207 F 
ENDBRANCH   7  20
ENDBRANCH   6   7
ENDBRANCH   4   6
ENDBRANCH   1   2
BRANCH   1  27
ATOM     27  C   UNL A   1      41.295  21.369  26.153  1.00  0.00     0.042 C 
BRANCH  27  28
ATOM     28  C   UNL A   1      42.133  20.167  26.576  1.00  0.00     0.118 C 
BRANCH  28  29
ATOM     29  N   UNL A   1      42.879  19.565  25.483  1.00  0.00    -0.352 N 
ATOM     30  C   UNL A   1      43.878  20.119  24.713  1.00  0.00     0.251 C 
ATOM     31  H   UNL A   1      42.638  18.636  25.262  1.00  0.00     0.163 HD
ATOM     32  O   UNL A   1      44.317  19.513  23.741  1.00  0.00    -0.269 OA
BRANCH  30  33
ATOM     33  C   UNL A   1      44.392  21.467  25.040  1.00  0.00     0.039 A 
ATOM     34  C   UNL A   1      43.937  22.563  24.301  1.00  0.00     0.014 A 
ATOM     35  C   UNL A   1      45.293  21.654  26.092  1.00  0.00     0.014 A 
ATOM     36  C   UNL A   1      44.318  23.855  24.671  1.00  0.00     0.010 A 
ATOM     37  C   UNL A   1      45.624  22.945  26.496  1.00  0.00     0.010 A 
ATOM     38  C   UNL A   1      45.127  24.059  25.800  1.00  0.00    -0.014 A 
BRANCH  38  39
ATOM     39  C   UNL A   1      45.449  25.421  26.296  1.00  0.00     0.031 A 
ATOM     40  C   UNL A   1      46.800  26.023  26.025  1.00  0.00     0.074 A 
ATOM     41  C   UNL A   1      44.566  26.075  27.079  1.00  0.00     0.049 A 
ATOM     42  N   UNL A   1      47.326  27.120  26.506  1.00  0.00    -0.248 NA
ATOM     43  C   UNL A   1      47.684  25.278  25.114  1.00  0.00     0.031 C 
ATOM     44  C   UNL A   1      43.231  25.592  27.440  1.00  0.00     0.029 A 
ATOM     45  N   UNL A   1      44.669  27.280  27.728  1.00  0.00    -0.354 N 
ATOM     46  C   UNL A   1      48.612  27.182  25.983  1.00  0.00     0.074 A 
ATOM     47  C   UNL A   1      48.795  26.000  25.169  1.00  0.00     0.031 C 
ATOM     48  C   UNL A   1      42.638  26.494  28.238  1.00  0.00     0.029 A 
ATOM     49  C   UNL A   1      43.562  27.597  28.480  1.00  0.00     0.049 A 
ATOM     50  H   UNL A   1      45.460  27.862  27.662  1.00  0.00     0.167 HD
ATOM     51  C   UNL A   1      49.553  28.141  26.159  1.00  0.00     0.031 A 
ATOM     52  C   UNL A   1      43.322  28.648  29.289  1.00  0.00     0.031 A 
ATOM     53  C   UNL A   1      49.363  29.327  26.950  1.00  0.00     0.049 A 
ATOM     54  C   UNL A   1      44.377  29.705  29.460  1.00  0.00     0.074 A 
ATOM     55  C   UNL A   1      50.243  30.376  27.153  1.00  0.00     0.029 A 
ATOM     56  N   UNL A   1      48.211  29.629  27.659  1.00  0.00    -0.354 N 
ATOM     57  N   UNL A   1      45.577  29.759  28.936  1.00  0.00    -0.248 NA
ATOM     58  C   UNL A   1      44.044  30.844  30.328  1.00  0.00     0.031 C 
ATOM     59  C   UNL A   1      49.635  31.299  28.010  1.00  0.00     0.029 A 
ATOM     60  C   UNL A   1      48.360  30.843  28.307  1.00  0.00     0.049 A 
ATOM     61  H   UNL A   1      47.406  29.063  27.697  1.00  0.00     0.167 HD
ATOM     62  C   UNL A   1      46.131  30.952  29.386  1.00  0.00     0.074 A 
ATOM     63  C   UNL A   1      45.136  31.589  30.224  1.00  0.00     0.031 C 
ATOM     64  C   UNL A   1      47.355  31.471  29.125  1.00  0.00     0.031 A 
BRANCH  51  65
ATOM     65  C   UNL A   1      50.883  27.934  25.490  1.00  0.00    -0.014 A 
ATOM     66  C   UNL A   1      51.099  28.348  24.163  1.00  0.00     0.010 A 
ATOM     67  C   UNL A   1      51.939  27.341  26.205  1.00  0.00     0.010 A 
ATOM     68  C   UNL A   1      52.334  28.131  23.548  1.00  0.00     0.020 A 
ATOM     69  C   UNL A   1      53.183  27.144  25.600  1.00  0.00     0.020 A 
ATOM     70  C   UNL A   1      53.366  27.521  24.269  1.00  0.00     0.054 A 
BRANCH  70  71
ATOM     71  S   UNL A   1      54.964  27.256  23.453  1.00  0.00     0.124 S 
ATOM     72  O   UNL A   1      54.550  26.821  22.121  1.00  0.00    -0.237 OA
ATOM     73  O   UNL A   1      55.585  28.577  23.516  1.00  0.00    -0.237 OA
ATOM     74  O   UNL A   1      55.605  26.231  24.273  1.00  0.00    -0.744 OA
ENDBRANCH  70  71
ENDBRANCH  51  65
BRANCH  52  75
ATOM     75  C   UNL A   1      42.018  28.753  29.995  1.00  0.00    -0.014 A 
ATOM     76  C   UNL A   1      40.886  29.245  29.323  1.00  0.00     0.010 A 
ATOM     77  C   UNL A   1      41.896  28.340  31.334  1.00  0.00     0.010 A 
ATOM     78  C   UNL A   1      39.656  29.334  29.980  1.00  0.00     0.020 A 
ATOM     79  C   UNL A   1      40.663  28.409  31.989  1.00  0.00     0.020 A 
ATOM     80  C   UNL A   1      39.552  28.914  31.309  1.00  0.00     0.054 A 
BRANCH  80  81
ATOM     81  S   UNL A   1      37.933  28.979  32.127  1.00  0.00     0.124 S 
ATOM     82  O   UNL A   1      38.001  30.255  32.832  1.00  0.00    -0.237 OA
ATOM     83  O   UNL A   1      37.004  28.925  31.001  1.00  0.00    -0.237 OA
ATOM     84  O   UNL A   1      37.937  27.790  32.978  1.00  0.00    -0.744 OA
ENDBRANCH  80  81
ENDBRANCH  52  75
BRANCH  64  85
ATOM     85  C   UNL A   1      47.679  32.819  29.708  1.00  0.00    -0.014 A 
ATOM     86  C   UNL A   1      47.281  34.002  29.064  1.00  0.00     0.010 A 
ATOM     87  C   UNL A   1      48.317  32.894  30.959  1.00  0.00     0.010 A 
ATOM     88  C   UNL A   1      47.527  35.243  29.659  1.00  0.00     0.020 A 
ATOM     89  C   UNL A   1      48.547  34.131  31.564  1.00  0.00     0.020 A 
ATOM     90  C   UNL A   1      48.157  35.300  30.906  1.00  0.00     0.054 A 
BRANCH  90  91
ATOM     91  S   UNL A   1      48.399  36.916  31.695  1.00  0.00     0.124 S 
ATOM     92  O   UNL A   1      47.802  36.704  33.010  1.00  0.00    -0.237 OA
ATOM     93  O   UNL A   1      49.853  37.067  31.681  1.00  0.00    -0.237 OA
ATOM     94  O   UNL A   1      47.675  37.838  30.822  1.00  0.00    -0.744 OA
ENDBRANCH  90  91
ENDBRANCH  64  85
ENDBRANCH  38  39
ENDBRANCH  30  33
ENDBRANCH  28  29
ENDBRANCH  27  28
ENDBRANCH   1  27
TORSDOF 18
ENDMDL
