MODEL 1
REMARK VINA RESULT:     -11.4      0.000      0.000
REMARK SMILES C[N@@H+](Cc1ncccc1C(=O)NCCCNC(=O)c1ccc(-c2c3nc(c(-c4ccc(S(=O)(=O)[O-])cc4)c4ccc([nH]4)c(-c4ccc(S(=O)(=O)[O-])cc4)c4nc(c(-c5ccc(S(=O)(=O)[O-])cc5)c5ccc2[nH]5)C=C4)C=C3)cc1)C[C@@H]1CCN(c2ccccc2)C1
REMARK SMILES IDX 13 1 12 2 10 3 11 4 9 6 4 7 5 8 6 9 8 10 7 11 3 12 2 13 1 14
REMARK SMILES IDX 79 16 80 17 81 18 90 19 82 20 83 21 84 22 85 23 89 24 86 25
REMARK SMILES IDX 88 26 87 27 14 28 15 29 16 30 17 31 18 33 19 34 20 35 78 36
REMARK SMILES IDX 21 37 77 38 22 39 23 40 24 41 71 42 25 43 76 44 70 45 72 46
REMARK SMILES IDX 26 47 75 48 69 49 68 50 27 52 57 53 38 54 56 55 39 56 42 57
REMARK SMILES IDX 55 58 73 59 40 60 41 61 54 63 74 64 43 65 28 66 29 67 37 68
REMARK SMILES IDX 30 69 36 70 31 71 32 72 33 73 34 74 35 75 58 76 59 77 67 78
REMARK SMILES IDX 60 79 66 80 61 81 62 82 63 83 64 84 65 85 44 86 45 87 53 88
REMARK SMILES IDX 46 89 52 90 47 91 48 92 49 93 50 94 51 95
REMARK H PARENT 12 5 2 15 16 32 72 51 42 62
REMARK Flexibility Score: inf
ROOT
ATOM      1  C   UNL A   1      36.259  23.261  25.810  1.00  0.00     0.118 C 
ENDROOT
BRANCH   1   2
ATOM      2  N   UNL A   1      35.611  23.389  24.518  1.00  0.00    -0.352 N 
ATOM      3  C   UNL A   1      34.650  22.683  23.840  1.00  0.00     0.253 C 
ATOM      4  O   UNL A   1      34.397  23.125  22.719  1.00  0.00    -0.269 OA
ATOM      5  H   UNL A   1      35.939  24.165  24.008  1.00  0.00     0.163 HD
BRANCH   3   6
ATOM      6  C   UNL A   1      33.962  21.444  24.334  1.00  0.00     0.067 A 
ATOM      7  C   UNL A   1      32.567  21.396  24.515  1.00  0.00     0.107 A 
ATOM      8  N   UNL A   1      31.925  20.210  24.740  1.00  0.00    -0.254 NA
ATOM      9  C   UNL A   1      32.631  19.084  24.934  1.00  0.00     0.111 A 
ATOM     10  C   UNL A   1      34.652  20.239  24.552  1.00  0.00     0.017 A 
ATOM     11  C   UNL A   1      33.996  19.057  24.881  1.00  0.00     0.021 A 
BRANCH   7  12
ATOM     12  C   UNL A   1      31.621  22.595  24.573  1.00  0.00     0.320 C 
BRANCH  12  13
ATOM     13  N   UNL A   1      31.786  23.562  25.681  1.00  0.00    -0.332 N 
ATOM     14  C   UNL A   1      31.941  22.966  26.996  1.00  0.00     0.333 C 
ATOM     15  H   UNL A   1      32.701  23.935  25.425  1.00  0.00     0.348 HD
BRANCH  13  16
ATOM     16  C   UNL A   1      30.993  24.796  25.675  1.00  0.00     0.267 C 
BRANCH  16  17
ATOM     17  C   UNL A   1      31.699  26.155  25.522  1.00  0.00     0.065 C 
ATOM     18  C   UNL A   1      32.993  26.069  24.680  1.00  0.00     0.032 C 
ATOM     19  C   UNL A   1      32.146  26.770  26.863  1.00  0.00     0.126 C 
ATOM     20  C   UNL A   1      34.090  26.752  25.480  1.00  0.00     0.117 C 
ATOM     21  N   UNL A   1      33.380  27.462  26.523  1.00  0.00    -0.371 N 
BRANCH  21  22
ATOM     22  C   UNL A   1      33.636  28.761  26.881  1.00  0.00     0.037 A 
ATOM     23  C   UNL A   1      32.657  29.749  26.729  1.00  0.00     0.026 A 
ATOM     24  C   UNL A   1      34.868  29.155  27.423  1.00  0.00     0.026 A 
ATOM     25  C   UNL A   1      32.880  31.068  27.144  1.00  0.00     0.002 A 
ATOM     26  C   UNL A   1      35.107  30.474  27.821  1.00  0.00     0.002 A 
ATOM     27  C   UNL A   1      34.106  31.429  27.693  1.00  0.00     0.000 A 
ENDBRANCH  21  22
ENDBRANCH  16  17
ENDBRANCH  13  16
ENDBRANCH  12  13
ENDBRANCH   7  12
ENDBRANCH   3   6
ENDBRANCH   1   2
BRANCH   1  28
ATOM     28  C   UNL A   1      37.772  23.064  25.682  1.00  0.00     0.042 C 
BRANCH  28  29
ATOM     29  C   UNL A   1      38.593  24.038  26.520  1.00  0.00     0.118 C 
BRANCH  29  30
ATOM     30  N   UNL A   1      40.015  23.915  26.243  1.00  0.00    -0.352 N 
ATOM     31  C   UNL A   1      41.047  24.754  26.569  1.00  0.00     0.251 C 
ATOM     32  H   UNL A   1      40.276  23.106  25.744  1.00  0.00     0.163 HD
ATOM     33  O   UNL A   1      42.125  24.632  25.982  1.00  0.00    -0.269 OA
BRANCH  31  34
ATOM     34  C   UNL A   1      40.889  25.788  27.615  1.00  0.00     0.039 A 
ATOM     35  C   UNL A   1      41.827  26.823  27.690  1.00  0.00     0.014 A 
ATOM     36  C   UNL A   1      39.871  25.700  28.569  1.00  0.00     0.014 A 
ATOM     37  C   UNL A   1      41.727  27.782  28.702  1.00  0.00     0.010 A 
ATOM     38  C   UNL A   1      39.733  26.693  29.537  1.00  0.00     0.010 A 
ATOM     39  C   UNL A   1      40.671  27.732  29.624  1.00  0.00    -0.014 A 
BRANCH  39  40
ATOM     40  C   UNL A   1      40.542  28.741  30.706  1.00  0.00     0.031 A 
ATOM     41  C   UNL A   1      41.408  28.643  31.933  1.00  0.00     0.074 A 
ATOM     42  C   UNL A   1      39.604  29.703  30.611  1.00  0.00     0.049 A 
ATOM     43  N   UNL A   1      41.394  29.381  33.014  1.00  0.00    -0.248 NA
ATOM     44  C   UNL A   1      42.402  27.557  31.962  1.00  0.00     0.031 C 
ATOM     45  C   UNL A   1      38.679  29.874  29.488  1.00  0.00     0.029 A 
ATOM     46  N   UNL A   1      39.266  30.710  31.479  1.00  0.00    -0.354 N 
ATOM     47  C   UNL A   1      42.353  28.834  33.859  1.00  0.00     0.074 A 
ATOM     48  C   UNL A   1      42.904  27.681  33.182  1.00  0.00     0.031 C 
ATOM     49  C   UNL A   1      37.891  30.935  29.728  1.00  0.00     0.029 A 
ATOM     50  C   UNL A   1      38.230  31.496  31.032  1.00  0.00     0.049 A 
ATOM     51  H   UNL A   1      39.722  30.856  32.339  1.00  0.00     0.167 HD
ATOM     52  C   UNL A   1      42.748  29.261  35.082  1.00  0.00     0.031 A 
ATOM     53  C   UNL A   1      37.619  32.547  31.610  1.00  0.00     0.031 A 
ATOM     54  C   UNL A   1      42.212  30.424  35.740  1.00  0.00     0.049 A 
ATOM     55  C   UNL A   1      38.090  33.020  32.957  1.00  0.00     0.074 A 
ATOM     56  C   UNL A   1      42.589  30.980  36.949  1.00  0.00     0.029 A 
ATOM     57  N   UNL A   1      41.186  31.211  35.239  1.00  0.00    -0.354 N 
ATOM     58  N   UNL A   1      39.038  32.523  33.715  1.00  0.00    -0.248 NA
ATOM     59  C   UNL A   1      37.419  34.199  33.519  1.00  0.00     0.031 C 
ATOM     60  C   UNL A   1      41.762  32.079  37.200  1.00  0.00     0.029 A 
ATOM     61  C   UNL A   1      40.904  32.239  36.124  1.00  0.00     0.049 A 
ATOM     62  H   UNL A   1      40.725  31.062  34.382  1.00  0.00     0.167 HD
ATOM     63  C   UNL A   1      39.094  33.344  34.836  1.00  0.00     0.074 A 
ATOM     64  C   UNL A   1      38.093  34.375  34.649  1.00  0.00     0.031 C 
ATOM     65  C   UNL A   1      39.901  33.252  35.921  1.00  0.00     0.031 A 
BRANCH  52  66
ATOM     66  C   UNL A   1      43.809  28.461  35.791  1.00  0.00    -0.014 A 
ATOM     67  C   UNL A   1      45.174  28.766  35.637  1.00  0.00     0.010 A 
ATOM     68  C   UNL A   1      43.437  27.412  36.650  1.00  0.00     0.010 A 
ATOM     69  C   UNL A   1      46.147  28.008  36.294  1.00  0.00     0.020 A 
ATOM     70  C   UNL A   1      44.406  26.668  37.330  1.00  0.00     0.020 A 
ATOM     71  C   UNL A   1      45.757  26.960  37.132  1.00  0.00     0.054 A 
BRANCH  71  72
ATOM     72  S   UNL A   1      47.040  26.003  37.985  1.00  0.00     0.124 S 
ATOM     73  O   UNL A   1      46.547  24.636  37.830  1.00  0.00    -0.237 OA
ATOM     74  O   UNL A   1      48.244  26.325  37.224  1.00  0.00    -0.237 OA
ATOM     75  O   UNL A   1      47.012  26.524  39.350  1.00  0.00    -0.744 OA
ENDBRANCH  71  72
ENDBRANCH  52  66
BRANCH  53  76
ATOM     76  C   UNL A   1      36.508  33.235  30.898  1.00  0.00    -0.014 A 
ATOM     77  C   UNL A   1      35.183  33.100  31.349  1.00  0.00     0.010 A 
ATOM     78  C   UNL A   1      36.775  34.059  29.790  1.00  0.00     0.010 A 
ATOM     79  C   UNL A   1      34.143  33.773  30.701  1.00  0.00     0.020 A 
ATOM     80  C   UNL A   1      35.740  34.753  29.154  1.00  0.00     0.020 A 
ATOM     81  C   UNL A   1      34.429  34.598  29.610  1.00  0.00     0.054 A 
BRANCH  81  82
ATOM     82  S   UNL A   1      33.075  35.522  28.832  1.00  0.00     0.124 S 
ATOM     83  O   UNL A   1      32.379  34.473  28.093  1.00  0.00    -0.237 OA
ATOM     84  O   UNL A   1      32.360  36.066  29.983  1.00  0.00    -0.237 OA
ATOM     85  O   UNL A   1      33.767  36.515  28.013  1.00  0.00    -0.744 OA
ENDBRANCH  81  82
ENDBRANCH  53  76
BRANCH  65  86
ATOM     86  C   UNL A   1      39.754  34.310  36.979  1.00  0.00    -0.014 A 
ATOM     87  C   UNL A   1      38.977  34.083  38.129  1.00  0.00     0.010 A 
ATOM     88  C   UNL A   1      40.449  35.525  36.847  1.00  0.00     0.010 A 
ATOM     89  C   UNL A   1      38.877  35.066  39.116  1.00  0.00     0.020 A 
ATOM     90  C   UNL A   1      40.370  36.502  37.842  1.00  0.00     0.020 A 
ATOM     91  C   UNL A   1      39.572  36.271  38.965  1.00  0.00     0.054 A 
BRANCH  91  92
ATOM     92  S   UNL A   1      39.462  37.515  40.281  1.00  0.00     0.124 S 
ATOM     93  O   UNL A   1      38.844  36.757  41.364  1.00  0.00    -0.237 OA
ATOM     94  O   UNL A   1      40.860  37.886  40.491  1.00  0.00    -0.237 OA
ATOM     95  O   UNL A   1      38.629  38.564  39.697  1.00  0.00    -0.744 OA
ENDBRANCH  91  92
ENDBRANCH  65  86
ENDBRANCH  39  40
ENDBRANCH  31  34
ENDBRANCH  29  30
ENDBRANCH  28  29
ENDBRANCH   1  28
TORSDOF 18
ENDMDL
MODEL 2
REMARK VINA RESULT:     -11.2      1.892      2.591
REMARK SMILES C[N@@H+](Cc1ncccc1C(=O)NCCCNC(=O)c1ccc(-c2c3nc(c(-c4ccc(S(=O)(=O)[O-])cc4)c4ccc([nH]4)c(-c4ccc(S(=O)(=O)[O-])cc4)c4nc(c(-c5ccc(S(=O)(=O)[O-])cc5)c5ccc2[nH]5)C=C4)C=C3)cc1)C[C@@H]1CCN(c2ccccc2)C1
REMARK SMILES IDX 13 1 12 2 10 3 11 4 9 6 4 7 5 8 6 9 8 10 7 11 3 12 2 13 1 14
REMARK SMILES IDX 79 16 80 17 81 18 90 19 82 20 83 21 84 22 85 23 89 24 86 25
REMARK SMILES IDX 88 26 87 27 14 28 15 29 16 30 17 31 18 33 19 34 20 35 78 36
REMARK SMILES IDX 21 37 77 38 22 39 23 40 24 41 71 42 25 43 76 44 70 45 72 46
REMARK SMILES IDX 26 47 75 48 69 49 68 50 27 52 57 53 38 54 56 55 39 56 42 57
REMARK SMILES IDX 55 58 73 59 40 60 41 61 54 63 74 64 43 65 28 66 29 67 37 68
REMARK SMILES IDX 30 69 36 70 31 71 32 72 33 73 34 74 35 75 58 76 59 77 67 78
REMARK SMILES IDX 60 79 66 80 61 81 62 82 63 83 64 84 65 85 44 86 45 87 53 88
REMARK SMILES IDX 46 89 52 90 47 91 48 92 49 93 50 94 51 95
REMARK H PARENT 12 5 2 15 16 32 72 51 42 62
REMARK Flexibility Score: inf
ROOT
ATOM      1  C   UNL A   1      37.623  23.459  25.931  1.00  0.00     0.118 C 
ENDROOT
BRANCH   1   2
ATOM      2  N   UNL A   1      37.453  23.393  24.492  1.00  0.00    -0.352 N 
ATOM      3  C   UNL A   1      36.445  22.992  23.651  1.00  0.00     0.253 C 
ATOM      4  O   UNL A   1      36.726  23.073  22.455  1.00  0.00    -0.269 OA
ATOM      5  H   UNL A   1      38.247  23.710  24.004  1.00  0.00     0.163 HD
BRANCH   3   6
ATOM      6  C   UNL A   1      35.115  22.443  24.078  1.00  0.00     0.067 A 
ATOM      7  C   UNL A   1      33.907  23.064  23.708  1.00  0.00     0.107 A 
ATOM      8  N   UNL A   1      32.705  22.441  23.901  1.00  0.00    -0.254 NA
ATOM      9  C   UNL A   1      32.645  21.283  24.576  1.00  0.00     0.111 A 
ATOM     10  C   UNL A   1      34.993  21.235  24.785  1.00  0.00     0.017 A 
ATOM     11  C   UNL A   1      33.758  20.659  25.064  1.00  0.00     0.021 A 
BRANCH   7  12
ATOM     12  C   UNL A   1      33.752  24.480  23.151  1.00  0.00     0.320 C 
BRANCH  12  13
ATOM     13  N   UNL A   1      33.408  25.567  24.094  1.00  0.00    -0.332 N 
ATOM     14  C   UNL A   1      34.037  25.469  25.398  1.00  0.00     0.333 C 
ATOM     15  H   UNL A   1      33.867  26.340  23.611  1.00  0.00     0.348 HD
BRANCH  13  16
ATOM     16  C   UNL A   1      32.029  26.068  24.133  1.00  0.00     0.267 C 
BRANCH  16  17
ATOM     17  C   UNL A   1      31.720  27.489  23.632  1.00  0.00     0.065 C 
ATOM     18  C   UNL A   1      32.381  28.588  24.496  1.00  0.00     0.032 C 
ATOM     19  C   UNL A   1      30.218  27.833  23.645  1.00  0.00     0.126 C 
ATOM     20  C   UNL A   1      31.293  29.589  24.850  1.00  0.00     0.117 C 
ATOM     21  N   UNL A   1      30.198  29.253  23.964  1.00  0.00    -0.371 N 
BRANCH  21  22
ATOM     22  C   UNL A   1      29.475  30.174  23.251  1.00  0.00     0.037 A 
ATOM     23  C   UNL A   1      29.131  31.405  23.820  1.00  0.00     0.026 A 
ATOM     24  C   UNL A   1      29.063  29.938  21.932  1.00  0.00     0.026 A 
ATOM     25  C   UNL A   1      28.445  32.382  23.088  1.00  0.00     0.002 A 
ATOM     26  C   UNL A   1      28.359  30.900  21.199  1.00  0.00     0.002 A 
ATOM     27  C   UNL A   1      28.060  32.129  21.775  1.00  0.00     0.000 A 
ENDBRANCH  21  22
ENDBRANCH  16  17
ENDBRANCH  13  16
ENDBRANCH  12  13
ENDBRANCH   7  12
ENDBRANCH   3   6
ENDBRANCH   1   2
BRANCH   1  28
ATOM     28  C   UNL A   1      38.834  22.651  26.408  1.00  0.00     0.042 C 
BRANCH  28  29
ATOM     29  C   UNL A   1      39.918  23.497  27.067  1.00  0.00     0.118 C 
BRANCH  29  30
ATOM     30  N   UNL A   1      40.750  24.164  26.078  1.00  0.00    -0.352 N 
ATOM     31  C   UNL A   1      41.139  25.475  26.002  1.00  0.00     0.251 C 
ATOM     32  H   UNL A   1      41.082  23.586  25.353  1.00  0.00     0.163 HD
ATOM     33  O   UNL A   1      41.580  25.906  24.934  1.00  0.00    -0.269 OA
BRANCH  31  34
ATOM     34  C   UNL A   1      41.048  26.368  27.177  1.00  0.00     0.039 A 
ATOM     35  C   UNL A   1      40.013  26.172  28.098  1.00  0.00     0.014 A 
ATOM     36  C   UNL A   1      41.925  27.446  27.334  1.00  0.00     0.014 A 
ATOM     37  C   UNL A   1      39.877  27.036  29.188  1.00  0.00     0.010 A 
ATOM     38  C   UNL A   1      41.829  28.266  28.456  1.00  0.00     0.010 A 
ATOM     39  C   UNL A   1      40.793  28.080  29.383  1.00  0.00    -0.014 A 
BRANCH  39  40
ATOM     40  C   UNL A   1      40.670  29.010  30.534  1.00  0.00     0.031 A 
ATOM     41  C   UNL A   1      41.553  28.836  31.741  1.00  0.00     0.074 A 
ATOM     42  C   UNL A   1      39.722  29.967  30.518  1.00  0.00     0.049 A 
ATOM     43  N   UNL A   1      41.546  29.498  32.870  1.00  0.00    -0.248 NA
ATOM     44  C   UNL A   1      42.557  27.761  31.682  1.00  0.00     0.031 C 
ATOM     45  C   UNL A   1      38.781  30.207  29.422  1.00  0.00     0.029 A 
ATOM     46  N   UNL A   1      39.386  30.908  31.458  1.00  0.00    -0.354 N 
ATOM     47  C   UNL A   1      42.521  28.904  33.663  1.00  0.00     0.074 A 
ATOM     48  C   UNL A   1      43.074  27.805  32.901  1.00  0.00     0.031 C 
ATOM     49  C   UNL A   1      37.986  31.241  29.744  1.00  0.00     0.029 A 
ATOM     50  C   UNL A   1      38.337  31.714  31.080  1.00  0.00     0.049 A 
ATOM     51  H   UNL A   1      39.851  30.999  32.320  1.00  0.00     0.167 HD
ATOM     52  C   UNL A   1      42.928  29.249  34.908  1.00  0.00     0.031 A 
ATOM     53  C   UNL A   1      37.724  32.716  31.736  1.00  0.00     0.031 A 
ATOM     54  C   UNL A   1      42.391  30.358  35.651  1.00  0.00     0.049 A 
ATOM     55  C   UNL A   1      38.209  33.099  33.107  1.00  0.00     0.074 A 
ATOM     56  C   UNL A   1      42.778  30.833  36.892  1.00  0.00     0.029 A 
ATOM     57  N   UNL A   1      41.351  31.167  35.219  1.00  0.00    -0.354 N 
ATOM     58  N   UNL A   1      39.171  32.561  33.817  1.00  0.00    -0.248 NA
ATOM     59  C   UNL A   1      37.535  34.229  33.758  1.00  0.00     0.031 C 
ATOM     60  C   UNL A   1      41.945  31.904  37.229  1.00  0.00     0.029 A 
ATOM     61  C   UNL A   1      41.071  32.129  36.176  1.00  0.00     0.049 A 
ATOM     62  H   UNL A   1      40.880  31.073  34.360  1.00  0.00     0.167 HD
ATOM     63  C   UNL A   1      39.234  33.302  34.991  1.00  0.00     0.074 A 
ATOM     64  C   UNL A   1      38.221  34.333  34.888  1.00  0.00     0.031 C 
ATOM     65  C   UNL A   1      40.056  33.144  36.057  1.00  0.00     0.031 A 
BRANCH  52  66
ATOM     66  C   UNL A   1      44.006  28.413  35.546  1.00  0.00    -0.014 A 
ATOM     67  C   UNL A   1      45.367  28.724  35.374  1.00  0.00     0.010 A 
ATOM     68  C   UNL A   1      43.654  27.320  36.358  1.00  0.00     0.010 A 
ATOM     69  C   UNL A   1      46.355  27.932  35.965  1.00  0.00     0.020 A 
ATOM     70  C   UNL A   1      44.639  26.540  36.973  1.00  0.00     0.020 A 
ATOM     71  C   UNL A   1      45.985  26.842  36.756  1.00  0.00     0.054 A 
BRANCH  71  72
ATOM     72  S   UNL A   1      47.288  25.841  37.525  1.00  0.00     0.124 S 
ATOM     73  O   UNL A   1      47.837  26.770  38.511  1.00  0.00    -0.237 OA
ATOM     74  O   UNL A   1      46.544  24.711  38.075  1.00  0.00    -0.237 OA
ATOM     75  O   UNL A   1      48.177  25.515  36.413  1.00  0.00    -0.744 OA
ENDBRANCH  71  72
ENDBRANCH  52  66
BRANCH  53  76
ATOM     76  C   UNL A   1      36.598  33.440  31.088  1.00  0.00    -0.014 A 
ATOM     77  C   UNL A   1      36.765  34.025  29.820  1.00  0.00     0.010 A 
ATOM     78  C   UNL A   1      35.342  33.514  31.717  1.00  0.00     0.010 A 
ATOM     79  C   UNL A   1      35.698  34.676  29.195  1.00  0.00     0.020 A 
ATOM     80  C   UNL A   1      34.266  34.145  31.084  1.00  0.00     0.020 A 
ATOM     81  C   UNL A   1      34.454  34.728  29.829  1.00  0.00     0.054 A 
BRANCH  81  82
ATOM     82  S   UNL A   1      33.063  35.512  28.967  1.00  0.00     0.124 S 
ATOM     83  O   UNL A   1      33.737  36.526  28.163  1.00  0.00    -0.237 OA
ATOM     84  O   UNL A   1      32.482  34.397  28.224  1.00  0.00    -0.237 OA
ATOM     85  O   UNL A   1      32.232  36.023  30.056  1.00  0.00    -0.744 OA
ENDBRANCH  81  82
ENDBRANCH  53  76
BRANCH  65  86
ATOM     86  C   UNL A   1      39.914  34.124  37.188  1.00  0.00    -0.014 A 
ATOM     87  C   UNL A   1      40.527  35.388  37.134  1.00  0.00     0.010 A 
ATOM     88  C   UNL A   1      39.108  33.796  38.293  1.00  0.00     0.010 A 
ATOM     89  C   UNL A   1      40.359  36.297  38.181  1.00  0.00     0.020 A 
ATOM     90  C   UNL A   1      38.919  34.711  39.331  1.00  0.00     0.020 A 
ATOM     91  C   UNL A   1      39.557  35.952  39.274  1.00  0.00     0.054 A 
BRANCH  91  92
ATOM     92  S   UNL A   1      39.317  37.165  40.602  1.00  0.00     0.124 S 
ATOM     93  O   UNL A   1      40.692  37.515  40.945  1.00  0.00    -0.237 OA
ATOM     94  O   UNL A   1      38.548  38.218  39.941  1.00  0.00    -0.237 OA
ATOM     95  O   UNL A   1      38.588  36.420  41.625  1.00  0.00    -0.744 OA
ENDBRANCH  91  92
ENDBRANCH  65  86
ENDBRANCH  39  40
ENDBRANCH  31  34
ENDBRANCH  29  30
ENDBRANCH  28  29
ENDBRANCH   1  28
TORSDOF 18
ENDMDL
MODEL 3
REMARK VINA RESULT:     -11.2      6.313     12.299
REMARK SMILES C[N@@H+](Cc1ncccc1C(=O)NCCCNC(=O)c1ccc(-c2c3nc(c(-c4ccc(S(=O)(=O)[O-])cc4)c4ccc([nH]4)c(-c4ccc(S(=O)(=O)[O-])cc4)c4nc(c(-c5ccc(S(=O)(=O)[O-])cc5)c5ccc2[nH]5)C=C4)C=C3)cc1)C[C@@H]1CCN(c2ccccc2)C1
REMARK SMILES IDX 13 1 12 2 10 3 11 4 9 6 4 7 5 8 6 9 8 10 7 11 3 12 2 13 1 14
REMARK SMILES IDX 79 16 80 17 81 18 90 19 82 20 83 21 84 22 85 23 89 24 86 25
REMARK SMILES IDX 88 26 87 27 14 28 15 29 16 30 17 31 18 33 19 34 20 35 78 36
REMARK SMILES IDX 21 37 77 38 22 39 23 40 24 41 71 42 25 43 76 44 70 45 72 46
REMARK SMILES IDX 26 47 75 48 69 49 68 50 27 52 57 53 38 54 56 55 39 56 42 57
REMARK SMILES IDX 55 58 73 59 40 60 41 61 54 63 74 64 43 65 28 66 29 67 37 68
REMARK SMILES IDX 30 69 36 70 31 71 32 72 33 73 34 74 35 75 58 76 59 77 67 78
REMARK SMILES IDX 60 79 66 80 61 81 62 82 63 83 64 84 65 85 44 86 45 87 53 88
REMARK SMILES IDX 46 89 52 90 47 91 48 92 49 93 50 94 51 95
REMARK H PARENT 12 5 2 15 16 32 72 51 42 62
REMARK Flexibility Score: inf
ROOT
ATOM      1  C   UNL A   1      33.533  28.860  26.363  1.00  0.00     0.118 C 
ENDROOT
BRANCH   1   2
ATOM      2  N   UNL A   1      33.897  29.010  24.966  1.00  0.00    -0.352 N 
ATOM      3  C   UNL A   1      33.353  28.606  23.773  1.00  0.00     0.253 C 
ATOM      4  O   UNL A   1      34.013  28.927  22.784  1.00  0.00    -0.269 OA
ATOM      5  H   UNL A   1      34.729  29.522  24.847  1.00  0.00     0.163 HD
BRANCH   3   6
ATOM      6  C   UNL A   1      32.099  27.797  23.612  1.00  0.00     0.067 A 
ATOM      7  C   UNL A   1      32.129  26.390  23.569  1.00  0.00     0.107 A 
ATOM      8  N   UNL A   1      30.977  25.657  23.655  1.00  0.00    -0.254 NA
ATOM      9  C   UNL A   1      29.783  26.269  23.640  1.00  0.00     0.111 A 
ATOM     10  C   UNL A   1      30.823  28.385  23.590  1.00  0.00     0.017 A 
ATOM     11  C   UNL A   1      29.656  27.628  23.576  1.00  0.00     0.021 A 
BRANCH   7  12
ATOM     12  C   UNL A   1      33.364  25.518  23.345  1.00  0.00     0.320 C 
BRANCH  12  13
ATOM     13  N   UNL A   1      33.737  24.551  24.400  1.00  0.00    -0.332 N 
ATOM     14  C   UNL A   1      34.075  25.142  25.682  1.00  0.00     0.333 C 
ATOM     15  H   UNL A   1      32.830  24.099  24.523  1.00  0.00     0.348 HD
BRANCH  13  16
ATOM     16  C   UNL A   1      34.558  23.387  24.044  1.00  0.00     0.267 C 
BRANCH  16  17
ATOM     17  C   UNL A   1      33.889  22.018  23.834  1.00  0.00     0.065 C 
ATOM     18  C   UNL A   1      32.374  22.036  24.140  1.00  0.00     0.032 C 
ATOM     19  C   UNL A   1      34.458  20.910  24.741  1.00  0.00     0.126 C 
ATOM     20  C   UNL A   1      32.096  20.873  25.079  1.00  0.00     0.117 C 
ATOM     21  N   UNL A   1      33.301  20.072  25.018  1.00  0.00    -0.371 N 
BRANCH  21  22
ATOM     22  C   UNL A   1      33.311  18.707  24.881  1.00  0.00     0.037 A 
ATOM     23  C   UNL A   1      34.034  18.100  23.849  1.00  0.00     0.026 A 
ATOM     24  C   UNL A   1      32.620  17.865  25.763  1.00  0.00     0.026 A 
ATOM     25  C   UNL A   1      34.104  16.706  23.728  1.00  0.00     0.002 A 
ATOM     26  C   UNL A   1      32.667  16.473  25.639  1.00  0.00     0.002 A 
ATOM     27  C   UNL A   1      33.422  15.892  24.626  1.00  0.00     0.000 A 
ENDBRANCH  21  22
ENDBRANCH  16  17
ENDBRANCH  13  16
ENDBRANCH  12  13
ENDBRANCH   7  12
ENDBRANCH   3   6
ENDBRANCH   1   2
BRANCH   1  28
ATOM     28  C   UNL A   1      34.097  29.988  27.232  1.00  0.00     0.042 C 
BRANCH  28  29
ATOM     29  C   UNL A   1      35.416  29.640  27.913  1.00  0.00     0.118 C 
BRANCH  29  30
ATOM     30  N   UNL A   1      35.441  30.095  29.294  1.00  0.00    -0.352 N 
ATOM     31  C   UNL A   1      36.423  29.969  30.240  1.00  0.00     0.251 C 
ATOM     32  H   UNL A   1      34.628  30.563  29.595  1.00  0.00     0.163 HD
ATOM     33  O   UNL A   1      36.135  30.142  31.427  1.00  0.00    -0.269 OA
BRANCH  31  34
ATOM     34  C   UNL A   1      37.814  29.642  29.858  1.00  0.00     0.039 A 
ATOM     35  C   UNL A   1      38.206  29.803  28.525  1.00  0.00     0.014 A 
ATOM     36  C   UNL A   1      38.710  29.102  30.787  1.00  0.00     0.014 A 
ATOM     37  C   UNL A   1      39.499  29.451  28.131  1.00  0.00     0.010 A 
ATOM     38  C   UNL A   1      40.019  28.815  30.408  1.00  0.00     0.010 A 
ATOM     39  C   UNL A   1      40.420  28.968  29.073  1.00  0.00    -0.014 A 
BRANCH  39  40
ATOM     40  C   UNL A   1      41.801  28.590  28.679  1.00  0.00     0.031 A 
ATOM     41  C   UNL A   1      42.884  29.633  28.633  1.00  0.00     0.074 A 
ATOM     42  C   UNL A   1      42.061  27.323  28.302  1.00  0.00     0.049 A 
ATOM     43  N   UNL A   1      44.129  29.514  28.245  1.00  0.00    -0.248 NA
ATOM     44  C   UNL A   1      42.515  30.996  29.052  1.00  0.00     0.031 C 
ATOM     45  C   UNL A   1      41.084  26.233  28.267  1.00  0.00     0.029 A 
ATOM     46  N   UNL A   1      43.224  26.741  27.865  1.00  0.00    -0.354 N 
ATOM     47  C   UNL A   1      44.681  30.786  28.347  1.00  0.00     0.074 A 
ATOM     48  C   UNL A   1      43.627  31.669  28.796  1.00  0.00     0.031 C 
ATOM     49  C   UNL A   1      41.693  25.111  27.850  1.00  0.00     0.029 A 
ATOM     50  C   UNL A   1      43.091  25.408  27.556  1.00  0.00     0.049 A 
ATOM     51  H   UNL A   1      44.074  27.232  27.782  1.00  0.00     0.167 HD
ATOM     52  C   UNL A   1      45.953  31.181  28.101  1.00  0.00     0.031 A 
ATOM     53  C   UNL A   1      43.991  24.526  27.083  1.00  0.00     0.031 A 
ATOM     54  C   UNL A   1      47.003  30.292  27.676  1.00  0.00     0.049 A 
ATOM     55  C   UNL A   1      45.404  24.980  26.841  1.00  0.00     0.074 A 
ATOM     56  C   UNL A   1      48.339  30.578  27.462  1.00  0.00     0.029 A 
ATOM     57  N   UNL A   1      46.832  28.943  27.403  1.00  0.00    -0.354 N 
ATOM     58  N   UNL A   1      45.920  26.175  26.998  1.00  0.00    -0.248 NA
ATOM     59  C   UNL A   1      46.356  23.965  26.370  1.00  0.00     0.031 C 
ATOM     60  C   UNL A   1      48.970  29.410  27.021  1.00  0.00     0.029 A 
ATOM     61  C   UNL A   1      48.037  28.385  27.007  1.00  0.00     0.049 A 
ATOM     62  H   UNL A   1      45.982  28.453  27.480  1.00  0.00     0.167 HD
ATOM     63  C   UNL A   1      47.265  26.052  26.667  1.00  0.00     0.074 A 
ATOM     64  C   UNL A   1      47.482  24.663  26.314  1.00  0.00     0.031 C 
ATOM     65  C   UNL A   1      48.231  27.002  26.656  1.00  0.00     0.031 A 
BRANCH  52  66
ATOM     66  C   UNL A   1      46.277  32.640  28.279  1.00  0.00    -0.014 A 
ATOM     67  C   UNL A   1      46.677  33.149  29.528  1.00  0.00     0.010 A 
ATOM     68  C   UNL A   1      46.215  33.510  27.176  1.00  0.00     0.010 A 
ATOM     69  C   UNL A   1      46.965  34.508  29.681  1.00  0.00     0.020 A 
ATOM     70  C   UNL A   1      46.528  34.866  27.318  1.00  0.00     0.020 A 
ATOM     71  C   UNL A   1      46.883  35.359  28.576  1.00  0.00     0.054 A 
BRANCH  71  72
ATOM     72  S   UNL A   1      47.279  37.116  28.797  1.00  0.00     0.124 S 
ATOM     73  O   UNL A   1      47.964  37.108  30.088  1.00  0.00    -0.237 OA
ATOM     74  O   UNL A   1      48.124  37.404  27.641  1.00  0.00    -0.237 OA
ATOM     75  O   UNL A   1      45.972  37.769  28.788  1.00  0.00    -0.744 OA
ENDBRANCH  71  72
ENDBRANCH  52  66
BRANCH  53  76
ATOM     76  C   UNL A   1      43.581  23.118  26.834  1.00  0.00    -0.014 A 
ATOM     77  C   UNL A   1      43.747  22.544  25.561  1.00  0.00     0.010 A 
ATOM     78  C   UNL A   1      43.060  22.333  27.877  1.00  0.00     0.010 A 
ATOM     79  C   UNL A   1      43.394  21.211  25.334  1.00  0.00     0.020 A 
ATOM     80  C   UNL A   1      42.727  20.991  27.660  1.00  0.00     0.020 A 
ATOM     81  C   UNL A   1      42.889  20.442  26.386  1.00  0.00     0.054 A 
BRANCH  81  82
ATOM     82  S   UNL A   1      42.508  18.693  26.089  1.00  0.00     0.124 S 
ATOM     83  O   UNL A   1      42.772  18.099  27.395  1.00  0.00    -0.237 OA
ATOM     84  O   UNL A   1      41.105  18.739  25.685  1.00  0.00    -0.237 OA
ATOM     85  O   UNL A   1      43.440  18.318  25.027  1.00  0.00    -0.744 OA
ENDBRANCH  81  82
ENDBRANCH  53  76
BRANCH  65  86
ATOM     86  C   UNL A   1      49.620  26.567  26.276  1.00  0.00    -0.014 A 
ATOM     87  C   UNL A   1      50.121  26.789  24.982  1.00  0.00     0.010 A 
ATOM     88  C   UNL A   1      50.453  25.981  27.246  1.00  0.00     0.010 A 
ATOM     89  C   UNL A   1      51.424  26.406  24.656  1.00  0.00     0.020 A 
ATOM     90  C   UNL A   1      51.764  25.617  26.931  1.00  0.00     0.020 A 
ATOM     91  C   UNL A   1      52.237  25.820  25.632  1.00  0.00     0.054 A 
BRANCH  91  92
ATOM     92  S   UNL A   1      53.940  25.371  25.198  1.00  0.00     0.124 S 
ATOM     93  O   UNL A   1      54.015  25.781  23.799  1.00  0.00    -0.237 OA
ATOM     94  O   UNL A   1      54.732  26.170  26.131  1.00  0.00    -0.237 OA
ATOM     95  O   UNL A   1      53.987  23.929  25.430  1.00  0.00    -0.744 OA
ENDBRANCH  91  92
ENDBRANCH  65  86
ENDBRANCH  39  40
ENDBRANCH  31  34
ENDBRANCH  29  30
ENDBRANCH  28  29
ENDBRANCH   1  28
TORSDOF 18
ENDMDL
