MODEL 1
REMARK VINA RESULT:     -11.7      0.000      0.000
REMARK SMILES Cc1nn(C)c(C)c1[C@H](C)N1C(=O)CC[C@@H](C(=O)NCCCNC(=O)c2ccc(-c3c4nc(c(-c5ccc(S(=O)(=O)[O-])cc5)c5ccc([nH]5)c(-c5ccc(S(=O)(=O)[O-])cc5)c5nc(c(-c6ccc(S(=O)(=O)[O-])cc6)c6ccc3[nH]6)C=C5)C=C4)cc2)[C@@H]1c1ccco1
REMARK SMILES IDX 21 1 20 2 19 3 17 4 18 5 16 7 11 8 12 9 86 10 13 11 14 12
REMARK SMILES IDX 15 13 9 14 10 15 8 16 1 17 2 18 3 19 4 20 6 21 5 22 7 23
REMARK SMILES IDX 87 24 88 25 91 26 89 27 90 28 22 29 23 30 24 31 25 33 26 34
REMARK SMILES IDX 27 35 85 36 28 37 84 38 29 39 30 40 31 41 78 42 32 43 83 44
REMARK SMILES IDX 77 45 79 46 33 47 82 48 76 49 75 50 34 52 64 53 45 54 63 55
REMARK SMILES IDX 46 56 49 57 62 58 80 59 47 60 48 61 61 63 81 64 50 65 35 66
REMARK SMILES IDX 36 67 44 68 37 69 43 70 38 71 39 72 40 73 41 74 42 75 65 76
REMARK SMILES IDX 66 77 74 78 67 79 73 80 68 81 69 82 70 83 71 84 72 85 51 86
REMARK SMILES IDX 52 87 60 88 53 89 59 90 54 91 55 92 56 93 57 94 58 95
REMARK H PARENT 19 6 23 32 79 51 49 62
REMARK Flexibility Score: inf
ROOT
ATOM      1  C   UNL A   1      34.427  32.010  28.010  1.00  0.00     0.042 C 
ENDROOT
BRANCH   1   2
ATOM      2  C   UNL A   1      34.053  30.586  27.604  1.00  0.00     0.117 C 
BRANCH   2   3
ATOM      3  N   UNL A   1      32.787  30.561  26.901  1.00  0.00    -0.356 N 
ATOM      4  C   UNL A   1      32.189  29.571  26.187  1.00  0.00     0.225 C 
ATOM      5  O   UNL A   1      31.234  29.907  25.486  1.00  0.00    -0.275 OA
ATOM      6  H   UNL A   1      32.274  31.400  26.948  1.00  0.00     0.163 HD
BRANCH   4   7
ATOM      7  C   UNL A   1      32.635  28.118  26.332  1.00  0.00     0.109 C 
ATOM      8  N   UNL A   1      32.189  27.444  23.931  1.00  0.00    -0.325 N 
ATOM      9  C   UNL A   1      33.422  27.987  23.571  1.00  0.00     0.223 C 
ATOM     10  C   UNL A   1      31.818  27.261  25.349  1.00  0.00     0.164 C 
ATOM     11  O   UNL A   1      33.696  28.301  22.408  1.00  0.00    -0.275 OA
ATOM     12  C   UNL A   1      34.490  28.208  24.627  1.00  0.00     0.101 C 
ATOM     13  C   UNL A   1      34.118  27.938  26.069  1.00  0.00     0.026 C 
BRANCH   8  14
ATOM     14  C   UNL A   1      31.225  27.175  22.815  1.00  0.00     0.117 C 
ATOM     15  C   UNL A   1      31.113  25.666  22.542  1.00  0.00     0.036 C 
BRANCH  14  16
ATOM     16  C   UNL A   1      29.867  27.873  22.942  1.00  0.00     0.018 A 
ATOM     17  C   UNL A   1      28.193  26.133  24.126  1.00  0.00     0.069 C 
ATOM     18  C   UNL A   1      28.623  27.420  23.514  1.00  0.00     0.065 A 
ATOM     19  N   UNL A   1      27.670  28.356  23.433  1.00  0.00    -0.178 NA
ATOM     20  N   UNL A   1      28.248  29.383  22.813  1.00  0.00    -0.272 N 
ATOM     21  C   UNL A   1      29.526  29.122  22.404  1.00  0.00     0.040 A 
ATOM     22  C   UNL A   1      27.479  30.597  22.666  1.00  0.00     0.174 C 
ATOM     23  C   UNL A   1      30.310  30.091  21.589  1.00  0.00     0.067 C 
ENDBRANCH  14  16
ENDBRANCH   8  14
BRANCH  10  24
ATOM     24  C   UNL A   1      31.798  25.814  25.751  1.00  0.00     0.127 A 
ATOM     25  C   UNL A   1      32.722  24.802  25.564  1.00  0.00     0.048 A 
ATOM     26  O   UNL A   1      30.732  25.339  26.458  1.00  0.00    -0.467 OA
ATOM     27  C   UNL A   1      32.202  23.656  26.207  1.00  0.00     0.042 A 
ATOM     28  C   UNL A   1      30.996  24.038  26.744  1.00  0.00     0.195 A 
ENDBRANCH  10  24
ENDBRANCH   4   7
ENDBRANCH   2   3
ENDBRANCH   1   2
BRANCH   1  29
ATOM     29  C   UNL A   1      35.695  32.101  28.862  1.00  0.00     0.118 C 
BRANCH  29  30
ATOM     30  N   UNL A   1      35.526  31.514  30.185  1.00  0.00    -0.352 N 
ATOM     31  C   UNL A   1      36.346  30.671  30.891  1.00  0.00     0.251 C 
ATOM     32  H   UNL A   1      34.692  31.762  30.645  1.00  0.00     0.163 HD
ATOM     33  O   UNL A   1      35.917  30.133  31.913  1.00  0.00    -0.269 OA
BRANCH  31  34
ATOM     34  C   UNL A   1      37.722  30.391  30.429  1.00  0.00     0.039 A 
ATOM     35  C   UNL A   1      38.745  30.285  31.375  1.00  0.00     0.014 A 
ATOM     36  C   UNL A   1      38.013  30.255  29.069  1.00  0.00     0.014 A 
ATOM     37  C   UNL A   1      40.043  29.974  30.964  1.00  0.00     0.010 A 
ATOM     38  C   UNL A   1      39.290  29.866  28.668  1.00  0.00     0.010 A 
ATOM     39  C   UNL A   1      40.319  29.721  29.610  1.00  0.00    -0.014 A 
BRANCH  39  40
ATOM     40  C   UNL A   1      41.671  29.291  29.165  1.00  0.00     0.031 A 
ATOM     41  C   UNL A   1      42.803  30.283  29.093  1.00  0.00     0.074 A 
ATOM     42  C   UNL A   1      41.864  28.020  28.759  1.00  0.00     0.049 A 
ATOM     43  N   UNL A   1      44.030  30.102  28.676  1.00  0.00    -0.248 NA
ATOM     44  C   UNL A   1      42.511  31.660  29.522  1.00  0.00     0.031 C 
ATOM     45  C   UNL A   1      40.839  26.973  28.740  1.00  0.00     0.029 A 
ATOM     46  N   UNL A   1      42.986  27.391  28.277  1.00  0.00    -0.354 N 
ATOM     47  C   UNL A   1      44.650  31.343  28.774  1.00  0.00     0.074 A 
ATOM     48  C   UNL A   1      43.650  32.278  29.244  1.00  0.00     0.031 C 
ATOM     49  C   UNL A   1      41.385  25.831  28.294  1.00  0.00     0.029 A 
ATOM     50  C   UNL A   1      42.784  26.070  27.952  1.00  0.00     0.049 A 
ATOM     51  H   UNL A   1      43.854  27.845  28.175  1.00  0.00     0.167 HD
ATOM     52  C   UNL A   1      45.938  31.672  28.514  1.00  0.00     0.031 A 
ATOM     53  C   UNL A   1      43.621  25.156  27.426  1.00  0.00     0.031 A 
ATOM     54  C   UNL A   1      46.931  30.738  28.050  1.00  0.00     0.049 A 
ATOM     55  C   UNL A   1      45.043  25.548  27.131  1.00  0.00     0.074 A 
ATOM     56  C   UNL A   1      48.277  30.961  27.816  1.00  0.00     0.029 A 
ATOM     57  N   UNL A   1      46.687  29.408  27.742  1.00  0.00    -0.354 N 
ATOM     58  N   UNL A   1      45.630  26.709  27.303  1.00  0.00    -0.248 NA
ATOM     59  C   UNL A   1      45.920  24.505  26.583  1.00  0.00     0.031 C 
ATOM     60  C   UNL A   1      48.832  29.784  27.305  1.00  0.00     0.029 A 
ATOM     61  C   UNL A   1      47.850  28.806  27.290  1.00  0.00     0.049 A 
ATOM     62  H   UNL A   1      45.816  28.958  27.832  1.00  0.00     0.167 HD
ATOM     63  C   UNL A   1      46.951  26.527  26.911  1.00  0.00     0.074 A 
ATOM     64  C   UNL A   1      47.081  25.142  26.508  1.00  0.00     0.031 C 
ATOM     65  C   UNL A   1      47.966  27.427  26.888  1.00  0.00     0.031 A 
BRANCH  52  66
ATOM     66  C   UNL A   1      46.346  33.111  28.708  1.00  0.00    -0.014 A 
ATOM     67  C   UNL A   1      46.852  33.566  29.939  1.00  0.00     0.010 A 
ATOM     68  C   UNL A   1      46.264  34.011  27.630  1.00  0.00     0.010 A 
ATOM     69  C   UNL A   1      47.225  34.904  30.102  1.00  0.00     0.020 A 
ATOM     70  C   UNL A   1      46.667  35.342  27.779  1.00  0.00     0.020 A 
ATOM     71  C   UNL A   1      47.127  35.784  29.020  1.00  0.00     0.054 A 
BRANCH  71  72
ATOM     72  S   UNL A   1      47.638  37.508  29.256  1.00  0.00     0.124 S 
ATOM     73  O   UNL A   1      49.072  37.367  29.497  1.00  0.00    -0.237 OA
ATOM     74  O   UNL A   1      47.273  38.126  27.984  1.00  0.00    -0.237 OA
ATOM     75  O   UNL A   1      46.854  37.949  30.407  1.00  0.00    -0.744 OA
ENDBRANCH  71  72
ENDBRANCH  52  66
BRANCH  53  76
ATOM     76  C   UNL A   1      43.134  23.776  27.148  1.00  0.00    -0.014 A 
ATOM     77  C   UNL A   1      42.836  23.371  25.835  1.00  0.00     0.010 A 
ATOM     78  C   UNL A   1      42.984  22.851  28.198  1.00  0.00     0.010 A 
ATOM     79  C   UNL A   1      42.381  22.073  25.580  1.00  0.00     0.020 A 
ATOM     80  C   UNL A   1      42.560  21.545  27.943  1.00  0.00     0.020 A 
ATOM     81  C   UNL A   1      42.251  21.167  26.635  1.00  0.00     0.054 A 
BRANCH  81  82
ATOM     82  S   UNL A   1      41.716  19.472  26.272  1.00  0.00     0.124 S 
ATOM     83  O   UNL A   1      42.460  19.172  25.053  1.00  0.00    -0.237 OA
ATOM     84  O   UNL A   1      42.137  18.747  27.468  1.00  0.00    -0.237 OA
ATOM     85  O   UNL A   1      40.269  19.598  26.109  1.00  0.00    -0.744 OA
ENDBRANCH  81  82
ENDBRANCH  53  76
BRANCH  65  86
ATOM     86  C   UNL A   1      49.322  26.936  26.447  1.00  0.00    -0.014 A 
ATOM     87  C   UNL A   1      50.174  26.247  27.327  1.00  0.00     0.010 A 
ATOM     88  C   UNL A   1      49.721  27.121  25.110  1.00  0.00     0.010 A 
ATOM     89  C   UNL A   1      51.416  25.781  26.886  1.00  0.00     0.020 A 
ATOM     90  C   UNL A   1      50.947  26.628  24.657  1.00  0.00     0.020 A 
ATOM     91  C   UNL A   1      51.794  25.972  25.552  1.00  0.00     0.054 A 
BRANCH  91  92
ATOM     92  S   UNL A   1      53.390  25.318  24.995  1.00  0.00     0.124 S 
ATOM     93  O   UNL A   1      53.296  23.914  25.383  1.00  0.00    -0.237 OA
ATOM     94  O   UNL A   1      53.356  25.576  23.557  1.00  0.00    -0.237 OA
ATOM     95  O   UNL A   1      54.368  26.107  25.741  1.00  0.00    -0.744 OA
ENDBRANCH  91  92
ENDBRANCH  65  86
ENDBRANCH  39  40
ENDBRANCH  31  34
ENDBRANCH  29  30
ENDBRANCH   1  29
TORSDOF 16
ENDMDL
MODEL 2
REMARK VINA RESULT:     -11.6      6.221     11.666
REMARK SMILES Cc1nn(C)c(C)c1[C@H](C)N1C(=O)CC[C@@H](C(=O)NCCCNC(=O)c2ccc(-c3c4nc(c(-c5ccc(S(=O)(=O)[O-])cc5)c5ccc([nH]5)c(-c5ccc(S(=O)(=O)[O-])cc5)c5nc(c(-c6ccc(S(=O)(=O)[O-])cc6)c6ccc3[nH]6)C=C5)C=C4)cc2)[C@@H]1c1ccco1
REMARK SMILES IDX 21 1 20 2 19 3 17 4 18 5 16 7 11 8 12 9 86 10 13 11 14 12
REMARK SMILES IDX 15 13 9 14 10 15 8 16 1 17 2 18 3 19 4 20 6 21 5 22 7 23
REMARK SMILES IDX 87 24 88 25 91 26 89 27 90 28 22 29 23 30 24 31 25 33 26 34
REMARK SMILES IDX 27 35 85 36 28 37 84 38 29 39 30 40 31 41 78 42 32 43 83 44
REMARK SMILES IDX 77 45 79 46 33 47 82 48 76 49 75 50 34 52 64 53 45 54 63 55
REMARK SMILES IDX 46 56 49 57 62 58 80 59 47 60 48 61 61 63 81 64 50 65 35 66
REMARK SMILES IDX 36 67 44 68 37 69 43 70 38 71 39 72 40 73 41 74 42 75 65 76
REMARK SMILES IDX 66 77 74 78 67 79 73 80 68 81 69 82 70 83 71 84 72 85 51 86
REMARK SMILES IDX 52 87 60 88 53 89 59 90 54 91 55 92 56 93 57 94 58 95
REMARK H PARENT 19 6 23 32 79 51 49 62
REMARK Flexibility Score: inf
ROOT
ATOM      1  C   UNL A   1      39.663  22.383  27.092  1.00  0.00     0.042 C 
ENDROOT
BRANCH   1   2
ATOM      2  C   UNL A   1      38.788  23.030  26.021  1.00  0.00     0.117 C 
BRANCH   2   3
ATOM      3  N   UNL A   1      37.543  23.510  26.586  1.00  0.00    -0.356 N 
ATOM      4  C   UNL A   1      36.262  23.112  26.372  1.00  0.00     0.225 C 
ATOM      5  O   UNL A   1      35.382  23.863  26.794  1.00  0.00    -0.275 OA
ATOM      6  H   UNL A   1      37.642  24.246  27.232  1.00  0.00     0.163 HD
BRANCH   4   7
ATOM      7  C   UNL A   1      35.954  21.764  25.726  1.00  0.00     0.109 C 
ATOM      8  N   UNL A   1      34.121  22.597  24.190  1.00  0.00    -0.325 N 
ATOM      9  C   UNL A   1      35.096  23.022  23.289  1.00  0.00     0.223 C 
ATOM     10  C   UNL A   1      34.464  21.740  25.342  1.00  0.00     0.164 C 
ATOM     11  O   UNL A   1      34.872  23.866  22.415  1.00  0.00    -0.275 OA
ATOM     12  C   UNL A   1      36.497  22.442  23.360  1.00  0.00     0.101 C 
ATOM     13  C   UNL A   1      36.810  21.500  24.501  1.00  0.00     0.026 C 
BRANCH   8  14
ATOM     14  C   UNL A   1      32.742  23.153  23.995  1.00  0.00     0.117 C 
ATOM     15  C   UNL A   1      31.734  22.028  23.708  1.00  0.00     0.036 C 
BRANCH  14  16
ATOM     16  C   UNL A   1      32.272  24.130  25.079  1.00  0.00     0.018 A 
ATOM     17  C   UNL A   1      30.618  22.768  26.703  1.00  0.00     0.069 C 
ATOM     18  C   UNL A   1      31.401  23.935  26.210  1.00  0.00     0.065 A 
ATOM     19  N   UNL A   1      31.257  25.057  26.926  1.00  0.00    -0.178 NA
ATOM     20  N   UNL A   1      31.987  25.969  26.285  1.00  0.00    -0.272 N 
ATOM     21  C   UNL A   1      32.535  25.506  25.121  1.00  0.00     0.040 A 
ATOM     22  C   UNL A   1      32.103  27.276  26.886  1.00  0.00     0.174 C 
ATOM     23  C   UNL A   1      33.287  26.395  24.193  1.00  0.00     0.067 C 
ENDBRANCH  14  16
ENDBRANCH   8  14
BRANCH  10  24
ATOM     24  C   UNL A   1      33.950  20.337  25.182  1.00  0.00     0.127 A 
ATOM     25  C   UNL A   1      34.336  19.315  24.335  1.00  0.00     0.048 A 
ATOM     26  O   UNL A   1      32.949  19.903  26.001  1.00  0.00    -0.467 OA
ATOM     27  C   UNL A   1      33.542  18.194  24.667  1.00  0.00     0.042 A 
ATOM     28  C   UNL A   1      32.723  18.600  25.694  1.00  0.00     0.195 A 
ENDBRANCH  10  24
ENDBRANCH   4   7
ENDBRANCH   2   3
ENDBRANCH   1   2
BRANCH   1  29
ATOM     29  C   UNL A   1      40.898  23.205  27.466  1.00  0.00     0.118 C 
BRANCH  29  30
ATOM     30  N   UNL A   1      41.475  23.903  26.324  1.00  0.00    -0.352 N 
ATOM     31  C   UNL A   1      41.623  25.248  26.091  1.00  0.00     0.251 C 
ATOM     32  H   UNL A   1      41.812  23.319  25.607  1.00  0.00     0.163 HD
ATOM     33  O   UNL A   1      41.955  25.628  24.967  1.00  0.00    -0.269 OA
BRANCH  31  34
ATOM     34  C   UNL A   1      41.371  26.233  27.162  1.00  0.00     0.039 A 
ATOM     35  C   UNL A   1      40.284  26.038  28.020  1.00  0.00     0.014 A 
ATOM     36  C   UNL A   1      42.183  27.360  27.313  1.00  0.00     0.014 A 
ATOM     37  C   UNL A   1      40.057  26.931  29.069  1.00  0.00     0.010 A 
ATOM     38  C   UNL A   1      42.003  28.206  28.406  1.00  0.00     0.010 A 
ATOM     39  C   UNL A   1      40.938  28.002  29.296  1.00  0.00    -0.014 A 
BRANCH  39  40
ATOM     40  C   UNL A   1      40.770  28.905  30.465  1.00  0.00     0.031 A 
ATOM     41  C   UNL A   1      41.616  28.724  31.698  1.00  0.00     0.074 A 
ATOM     42  C   UNL A   1      39.806  29.847  30.444  1.00  0.00     0.049 A 
ATOM     43  N   UNL A   1      41.571  29.377  32.830  1.00  0.00    -0.248 NA
ATOM     44  C   UNL A   1      42.627  27.655  31.662  1.00  0.00     0.031 C 
ATOM     45  C   UNL A   1      38.891  30.097  29.327  1.00  0.00     0.029 A 
ATOM     46  N   UNL A   1      39.427  30.767  31.391  1.00  0.00    -0.354 N 
ATOM     47  C   UNL A   1      42.531  28.788  33.647  1.00  0.00     0.074 A 
ATOM     48  C   UNL A   1      43.108  27.695  32.896  1.00  0.00     0.031 C 
ATOM     49  C   UNL A   1      38.077  31.115  29.644  1.00  0.00     0.029 A 
ATOM     50  C   UNL A   1      38.376  31.563  31.000  1.00  0.00     0.049 A 
ATOM     51  H   UNL A   1      39.869  30.848  32.268  1.00  0.00     0.167 HD
ATOM     52  C   UNL A   1      42.909  29.137  34.900  1.00  0.00     0.031 A 
ATOM     53  C   UNL A   1      37.717  32.534  31.660  1.00  0.00     0.031 A 
ATOM     54  C   UNL A   1      42.335  30.228  35.642  1.00  0.00     0.049 A 
ATOM     55  C   UNL A   1      38.145  32.894  33.056  1.00  0.00     0.074 A 
ATOM     56  C   UNL A   1      42.692  30.698  36.894  1.00  0.00     0.029 A 
ATOM     57  N   UNL A   1      41.279  31.015  35.207  1.00  0.00    -0.354 N 
ATOM     58  N   UNL A   1      39.107  32.375  33.782  1.00  0.00    -0.248 NA
ATOM     59  C   UNL A   1      37.409  33.979  33.719  1.00  0.00     0.031 C 
ATOM     60  C   UNL A   1      41.811  31.726  37.243  1.00  0.00     0.029 A 
ATOM     61  C   UNL A   1      40.951  31.946  36.178  1.00  0.00     0.049 A 
ATOM     62  H   UNL A   1      40.829  30.925  34.336  1.00  0.00     0.167 HD
ATOM     63  C   UNL A   1      39.109  33.088  34.975  1.00  0.00     0.074 A 
ATOM     64  C   UNL A   1      38.064  34.085  34.867  1.00  0.00     0.031 C 
ATOM     65  C   UNL A   1      39.906  32.932  36.061  1.00  0.00     0.031 A 
BRANCH  52  66
ATOM     66  C   UNL A   1      43.989  28.315  35.559  1.00  0.00    -0.014 A 
ATOM     67  C   UNL A   1      43.675  27.179  36.327  1.00  0.00     0.010 A 
ATOM     68  C   UNL A   1      45.340  28.658  35.370  1.00  0.00     0.010 A 
ATOM     69  C   UNL A   1      44.690  26.429  36.931  1.00  0.00     0.020 A 
ATOM     70  C   UNL A   1      46.359  27.892  35.945  1.00  0.00     0.020 A 
ATOM     71  C   UNL A   1      46.025  26.793  36.738  1.00  0.00     0.054 A 
BRANCH  71  72
ATOM     72  S   UNL A   1      47.319  25.789  37.517  1.00  0.00     0.124 S 
ATOM     73  O   UNL A   1      48.021  25.249  36.356  1.00  0.00    -0.237 OA
ATOM     74  O   UNL A   1      48.062  26.775  38.297  1.00  0.00    -0.237 OA
ATOM     75  O   UNL A   1      46.573  24.810  38.304  1.00  0.00    -0.744 OA
ENDBRANCH  71  72
ENDBRANCH  52  66
BRANCH  53  76
ATOM     76  C   UNL A   1      36.582  33.240  31.002  1.00  0.00    -0.014 A 
ATOM     77  C   UNL A   1      35.321  33.305  31.621  1.00  0.00     0.010 A 
ATOM     78  C   UNL A   1      36.763  33.869  29.756  1.00  0.00     0.010 A 
ATOM     79  C   UNL A   1      34.259  33.971  31.000  1.00  0.00     0.020 A 
ATOM     80  C   UNL A   1      35.714  34.561  29.147  1.00  0.00     0.020 A 
ATOM     81  C   UNL A   1      34.464  34.599  29.769  1.00  0.00     0.054 A 
BRANCH  81  82
ATOM     82  S   UNL A   1      33.089  35.506  29.010  1.00  0.00     0.124 S 
ATOM     83  O   UNL A   1      32.491  34.491  28.150  1.00  0.00    -0.237 OA
ATOM     84  O   UNL A   1      32.295  35.901  30.172  1.00  0.00    -0.237 OA
ATOM     85  O   UNL A   1      33.749  36.609  28.315  1.00  0.00    -0.744 OA
ENDBRANCH  81  82
ENDBRANCH  53  76
BRANCH  65  86
ATOM     86  C   UNL A   1      39.708  33.885  37.213  1.00  0.00    -0.014 A 
ATOM     87  C   UNL A   1      40.147  35.218  37.145  1.00  0.00     0.010 A 
ATOM     88  C   UNL A   1      39.018  33.448  38.359  1.00  0.00     0.010 A 
ATOM     89  C   UNL A   1      39.929  36.089  38.217  1.00  0.00     0.020 A 
ATOM     90  C   UNL A   1      38.770  34.324  39.419  1.00  0.00     0.020 A 
ATOM     91  C   UNL A   1      39.239  35.636  39.347  1.00  0.00     0.054 A 
BRANCH  91  92
ATOM     92  S   UNL A   1      38.930  36.798  40.704  1.00  0.00     0.124 S 
ATOM     93  O   UNL A   1      37.992  36.051  41.537  1.00  0.00    -0.237 OA
ATOM     94  O   UNL A   1      40.263  36.986  41.272  1.00  0.00    -0.237 OA
ATOM     95  O   UNL A   1      38.372  37.971  40.036  1.00  0.00    -0.744 OA
ENDBRANCH  91  92
ENDBRANCH  65  86
ENDBRANCH  39  40
ENDBRANCH  31  34
ENDBRANCH  29  30
ENDBRANCH   1  29
TORSDOF 16
ENDMDL
MODEL 3
REMARK VINA RESULT:     -11.6      1.306      8.487
REMARK SMILES Cc1nn(C)c(C)c1[C@H](C)N1C(=O)CC[C@@H](C(=O)NCCCNC(=O)c2ccc(-c3c4nc(c(-c5ccc(S(=O)(=O)[O-])cc5)c5ccc([nH]5)c(-c5ccc(S(=O)(=O)[O-])cc5)c5nc(c(-c6ccc(S(=O)(=O)[O-])cc6)c6ccc3[nH]6)C=C5)C=C4)cc2)[C@@H]1c1ccco1
REMARK SMILES IDX 21 1 20 2 19 3 17 4 18 5 16 7 11 8 12 9 86 10 13 11 14 12
REMARK SMILES IDX 15 13 9 14 10 15 8 16 1 17 2 18 3 19 4 20 6 21 5 22 7 23
REMARK SMILES IDX 87 24 88 25 91 26 89 27 90 28 22 29 23 30 24 31 25 33 26 34
REMARK SMILES IDX 27 35 85 36 28 37 84 38 29 39 30 40 31 41 78 42 32 43 83 44
REMARK SMILES IDX 77 45 79 46 33 47 82 48 76 49 75 50 34 52 64 53 45 54 63 55
REMARK SMILES IDX 46 56 49 57 62 58 80 59 47 60 48 61 61 63 81 64 50 65 35 66
REMARK SMILES IDX 36 67 44 68 37 69 43 70 38 71 39 72 40 73 41 74 42 75 65 76
REMARK SMILES IDX 66 77 74 78 67 79 73 80 68 81 69 82 70 83 71 84 72 85 51 86
REMARK SMILES IDX 52 87 60 88 53 89 59 90 54 91 55 92 56 93 57 94 58 95
REMARK H PARENT 19 6 23 32 79 51 49 62
REMARK Flexibility Score: inf
ROOT
ATOM      1  C   UNL A   1      35.303  31.828  27.631  1.00  0.00     0.042 C 
ENDROOT
BRANCH   1   2
ATOM      2  C   UNL A   1      34.499  30.537  27.769  1.00  0.00     0.117 C 
BRANCH   2   3
ATOM      3  N   UNL A   1      34.853  29.589  26.733  1.00  0.00    -0.356 N 
ATOM      4  C   UNL A   1      34.096  29.014  25.762  1.00  0.00     0.225 C 
ATOM      5  O   UNL A   1      34.599  28.053  25.178  1.00  0.00    -0.275 OA
ATOM      6  H   UNL A   1      35.799  29.317  26.731  1.00  0.00     0.163 HD
BRANCH   4   7
ATOM      7  C   UNL A   1      32.741  29.598  25.371  1.00  0.00     0.109 C 
ATOM      8  N   UNL A   1      31.517  27.387  25.205  1.00  0.00    -0.325 N 
ATOM      9  C   UNL A   1      31.340  27.403  26.588  1.00  0.00     0.223 C 
ATOM     10  C   UNL A   1      32.011  28.575  24.482  1.00  0.00     0.164 C 
ATOM     11  O   UNL A   1      31.085  26.384  27.238  1.00  0.00    -0.275 OA
ATOM     12  C   UNL A   1      31.457  28.710  27.351  1.00  0.00     0.101 C 
ATOM     13  C   UNL A   1      31.887  29.938  26.579  1.00  0.00     0.026 C 
BRANCH   8  14
ATOM     14  C   UNL A   1      31.296  26.073  24.518  1.00  0.00     0.117 C 
ATOM     15  C   UNL A   1      30.105  26.155  23.548  1.00  0.00     0.036 C 
BRANCH  14  16
ATOM     16  C   UNL A   1      32.546  25.443  23.894  1.00  0.00     0.018 A 
ATOM     17  C   UNL A   1      32.449  25.945  21.254  1.00  0.00     0.069 C 
ATOM     18  C   UNL A   1      33.012  25.424  22.530  1.00  0.00     0.065 A 
ATOM     19  N   UNL A   1      34.173  24.768  22.411  1.00  0.00    -0.178 NA
ATOM     20  N   UNL A   1      34.458  24.348  23.642  1.00  0.00    -0.272 N 
ATOM     21  C   UNL A   1      33.479  24.630  24.553  1.00  0.00     0.040 A 
ATOM     22  C   UNL A   1      35.722  23.681  23.847  1.00  0.00     0.174 C 
ATOM     23  C   UNL A   1      33.544  24.146  25.960  1.00  0.00     0.067 C 
ENDBRANCH  14  16
ENDBRANCH   8  14
BRANCH  10  24
ATOM     24  C   UNL A   1      30.942  29.221  23.648  1.00  0.00     0.127 A 
ATOM     25  C   UNL A   1      29.840  29.979  24.003  1.00  0.00     0.048 A 
ATOM     26  O   UNL A   1      31.013  29.120  22.289  1.00  0.00    -0.467 OA
ATOM     27  C   UNL A   1      29.218  30.376  22.798  1.00  0.00     0.042 A 
ATOM     28  C   UNL A   1      29.976  29.838  21.785  1.00  0.00     0.195 A 
ENDBRANCH  10  24
ENDBRANCH   4   7
ENDBRANCH   2   3
ENDBRANCH   1   2
BRANCH   1  29
ATOM     29  C   UNL A   1      36.351  32.028  28.727  1.00  0.00     0.118 C 
BRANCH  29  30
ATOM     30  N   UNL A   1      36.042  31.287  29.942  1.00  0.00    -0.352 N 
ATOM     31  C   UNL A   1      36.685  30.219  30.518  1.00  0.00     0.251 C 
ATOM     32  H   UNL A   1      35.245  31.600  30.428  1.00  0.00     0.163 HD
ATOM     33  O   UNL A   1      36.137  29.615  31.441  1.00  0.00    -0.269 OA
BRANCH  31  34
ATOM     34  C   UNL A   1      38.009  29.782  30.029  1.00  0.00     0.039 A 
ATOM     35  C   UNL A   1      38.231  29.703  28.651  1.00  0.00     0.014 A 
ATOM     36  C   UNL A   1      39.027  29.429  30.919  1.00  0.00     0.014 A 
ATOM     37  C   UNL A   1      39.490  29.339  28.169  1.00  0.00     0.010 A 
ATOM     38  C   UNL A   1      40.304  29.143  30.438  1.00  0.00     0.010 A 
ATOM     39  C   UNL A   1      40.549  29.095  29.058  1.00  0.00    -0.014 A 
BRANCH  39  40
ATOM     40  C   UNL A   1      41.921  28.804  28.563  1.00  0.00     0.031 A 
ATOM     41  C   UNL A   1      42.289  27.417  28.105  1.00  0.00     0.074 A 
ATOM     42  C   UNL A   1      42.857  29.774  28.589  1.00  0.00     0.049 A 
ATOM     43  N   UNL A   1      43.447  26.965  27.697  1.00  0.00    -0.248 NA
ATOM     44  C   UNL A   1      41.225  26.401  28.134  1.00  0.00     0.031 C 
ATOM     45  C   UNL A   1      42.639  31.148  29.049  1.00  0.00     0.029 A 
ATOM     46  N   UNL A   1      44.182  29.754  28.229  1.00  0.00    -0.354 N 
ATOM     47  C   UNL A   1      43.257  25.612  27.439  1.00  0.00     0.074 A 
ATOM     48  C   UNL A   1      41.885  25.307  27.782  1.00  0.00     0.031 C 
ATOM     49  C   UNL A   1      43.780  31.842  28.920  1.00  0.00     0.029 A 
ATOM     50  C   UNL A   1      44.824  30.956  28.413  1.00  0.00     0.049 A 
ATOM     51  H   UNL A   1      44.629  28.953  27.870  1.00  0.00     0.167 HD
ATOM     52  C   UNL A   1      44.138  24.710  26.944  1.00  0.00     0.031 A 
ATOM     53  C   UNL A   1      46.109  31.306  28.213  1.00  0.00     0.031 A 
ATOM     54  C   UNL A   1      45.502  25.019  26.599  1.00  0.00     0.049 A 
ATOM     55  C   UNL A   1      47.073  30.284  27.677  1.00  0.00     0.074 A 
ATOM     56  C   UNL A   1      46.454  24.189  26.035  1.00  0.00     0.029 A 
ATOM     57  N   UNL A   1      46.110  26.250  26.794  1.00  0.00    -0.354 N 
ATOM     58  N   UNL A   1      46.853  29.028  27.367  1.00  0.00    -0.248 NA
ATOM     59  C   UNL A   1      48.455  30.727  27.452  1.00  0.00     0.031 C 
ATOM     60  C   UNL A   1      47.656  24.899  25.948  1.00  0.00     0.029 A 
ATOM     61  C   UNL A   1      47.433  26.193  26.390  1.00  0.00     0.049 A 
ATOM     62  H   UNL A   1      45.666  27.048  27.164  1.00  0.00     0.167 HD
ATOM     63  C   UNL A   1      48.062  28.539  26.884  1.00  0.00     0.074 A 
ATOM     64  C   UNL A   1      49.004  29.639  26.928  1.00  0.00     0.031 C 
ATOM     65  C   UNL A   1      48.363  27.294  26.441  1.00  0.00     0.031 A 
BRANCH  52  66
ATOM     66  C   UNL A   1      43.659  23.291  26.761  1.00  0.00    -0.014 A 
ATOM     67  C   UNL A   1      43.713  22.660  25.505  1.00  0.00     0.010 A 
ATOM     68  C   UNL A   1      43.189  22.565  27.870  1.00  0.00     0.010 A 
ATOM     69  C   UNL A   1      43.263  21.344  25.354  1.00  0.00     0.020 A 
ATOM     70  C   UNL A   1      42.769  21.239  27.729  1.00  0.00     0.020 A 
ATOM     71  C   UNL A   1      42.792  20.643  26.467  1.00  0.00     0.054 A 
BRANCH  71  72
ATOM     72  S   UNL A   1      42.235  18.932  26.243  1.00  0.00     0.124 S 
ATOM     73  O   UNL A   1      42.397  18.384  27.587  1.00  0.00    -0.237 OA
ATOM     74  O   UNL A   1      40.855  19.101  25.795  1.00  0.00    -0.237 OA
ATOM     75  O   UNL A   1      43.152  18.397  25.239  1.00  0.00    -0.744 OA
ENDBRANCH  71  72
ENDBRANCH  52  66
BRANCH  53  76
ATOM     76  C   UNL A   1      46.556  32.694  28.517  1.00  0.00    -0.014 A 
ATOM     77  C   UNL A   1      46.483  33.703  27.540  1.00  0.00     0.010 A 
ATOM     78  C   UNL A   1      47.040  33.020  29.798  1.00  0.00     0.010 A 
ATOM     79  C   UNL A   1      46.902  35.005  27.832  1.00  0.00     0.020 A 
ATOM     80  C   UNL A   1      47.429  34.326  30.103  1.00  0.00     0.020 A 
ATOM     81  C   UNL A   1      47.367  35.309  29.114  1.00  0.00     0.054 A 
BRANCH  81  82
ATOM     82  S   UNL A   1      47.849  37.018  29.486  1.00  0.00     0.124 S 
ATOM     83  O   UNL A   1      48.827  37.295  28.439  1.00  0.00    -0.237 OA
ATOM     84  O   UNL A   1      46.580  37.733  29.375  1.00  0.00    -0.237 OA
ATOM     85  O   UNL A   1      48.389  36.933  30.842  1.00  0.00    -0.744 OA
ENDBRANCH  81  82
ENDBRANCH  53  76
BRANCH  65  86
ATOM     86  C   UNL A   1      49.762  27.055  25.933  1.00  0.00    -0.014 A 
ATOM     87  C   UNL A   1      50.803  26.679  26.800  1.00  0.00     0.010 A 
ATOM     88  C   UNL A   1      50.022  27.154  24.554  1.00  0.00     0.010 A 
ATOM     89  C   UNL A   1      52.086  26.438  26.301  1.00  0.00     0.020 A 
ATOM     90  C   UNL A   1      51.295  26.882  24.047  1.00  0.00     0.020 A 
ATOM     91  C   UNL A   1      52.323  26.539  24.925  1.00  0.00     0.054 A 
BRANCH  91  92
ATOM     92  S   UNL A   1      53.986  26.179  24.298  1.00  0.00     0.124 S 
ATOM     93  O   UNL A   1      54.799  27.163  25.007  1.00  0.00    -0.237 OA
ATOM     94  O   UNL A   1      54.185  24.790  24.704  1.00  0.00    -0.237 OA
ATOM     95  O   UNL A   1      53.867  26.390  22.858  1.00  0.00    -0.744 OA
ENDBRANCH  91  92
ENDBRANCH  65  86
ENDBRANCH  39  40
ENDBRANCH  31  34
ENDBRANCH  29  30
ENDBRANCH   1  29
TORSDOF 16
ENDMDL
