MODEL 1
REMARK VINA RESULT:     -12.0      0.000      0.000
REMARK SMILES O=C(NCCCNC(=O)c1cccc(OS(=O)(=O)c2cccc([N+](=O)[O-])c2)c1)c1ccc(-c2c3nc(c(-c4ccc(S(=O)(=O)[O-])cc4)c4ccc([nH]4)c(-c4ccc(S(=O)(=O)[O-])cc4)c4nc(c(-c5ccc(S(=O)(=O)[O-])cc5)c5ccc2[nH]5)C=C4)C=C3)cc1
REMARK SMILES IDX 5 1 4 2 3 3 1 4 2 5 29 7 30 8 88 9 31 10 87 11 32 12 33 13
REMARK SMILES IDX 34 14 81 15 35 16 86 17 80 18 82 19 36 20 85 21 79 22 78 23
REMARK SMILES IDX 37 25 67 26 48 27 66 28 49 29 52 30 65 31 83 32 50 33 51 34
REMARK SMILES IDX 64 36 84 37 53 38 38 39 39 40 47 41 40 42 46 43 41 44 42 45
REMARK SMILES IDX 43 46 44 47 45 48 68 49 69 50 77 51 70 52 76 53 71 54 72 55
REMARK SMILES IDX 73 56 74 57 75 58 54 59 55 60 63 61 56 62 62 63 57 64 58 65
REMARK SMILES IDX 59 66 60 67 61 68 6 69 7 70 8 71 9 73 10 74 11 75 28 76
REMARK SMILES IDX 12 77 14 78 13 79 15 80 16 81 17 82 18 83 19 84 20 85 27 86
REMARK SMILES IDX 21 87 23 88 22 89 24 90 25 91 26 92
REMARK H PARENT 3 6 82 24 52 35 7 72
REMARK Flexibility Score: inf
ROOT
ATOM      1  C   UNL A   1      40.124  21.864  26.919  1.00  0.00     0.042 C 
ENDROOT
BRANCH   1   2
ATOM      2  C   UNL A   1      40.988  23.055  27.292  1.00  0.00     0.118 C 
BRANCH   2   3
ATOM      3  N   UNL A   1      41.183  23.998  26.196  1.00  0.00    -0.352 N 
ATOM      4  O   UNL A   1      41.265  25.985  25.137  1.00  0.00    -0.269 OA
ATOM      5  C   UNL A   1      41.219  25.374  26.201  1.00  0.00     0.251 C 
ATOM      6  H   UNL A   1      41.309  23.584  25.311  1.00  0.00     0.163 HD
BRANCH   5   7
ATOM      7  C   UNL A   1      41.157  26.115  27.481  1.00  0.00     0.039 A 
ATOM      8  C   UNL A   1      40.073  25.960  28.343  1.00  0.00     0.014 A 
ATOM      9  C   UNL A   1      42.186  27.001  27.814  1.00  0.00     0.014 A 
ATOM     10  C   UNL A   1      39.902  26.846  29.399  1.00  0.00     0.010 A 
ATOM     11  C   UNL A   1      42.075  27.801  28.957  1.00  0.00     0.010 A 
ATOM     12  C   UNL A   1      40.903  27.774  29.728  1.00  0.00    -0.014 A 
BRANCH  12  13
ATOM     13  C   UNL A   1      40.697  28.674  30.895  1.00  0.00     0.031 A 
ATOM     14  C   UNL A   1      41.586  28.597  32.111  1.00  0.00     0.074 A 
ATOM     15  C   UNL A   1      39.728  29.609  30.829  1.00  0.00     0.049 A 
ATOM     16  N   UNL A   1      41.579  29.350  33.183  1.00  0.00    -0.248 NA
ATOM     17  C   UNL A   1      42.609  27.539  32.136  1.00  0.00     0.031 C 
ATOM     18  C   UNL A   1      38.798  29.784  29.708  1.00  0.00     0.029 A 
ATOM     19  N   UNL A   1      39.382  30.610  31.701  1.00  0.00    -0.354 N 
ATOM     20  C   UNL A   1      42.568  28.841  34.018  1.00  0.00     0.074 A 
ATOM     21  C   UNL A   1      43.139  27.698  33.340  1.00  0.00     0.031 C 
ATOM     22  C   UNL A   1      38.043  30.868  29.926  1.00  0.00     0.029 A 
ATOM     23  C   UNL A   1      38.374  31.420  31.234  1.00  0.00     0.049 A 
ATOM     24  H   UNL A   1      39.814  30.736  32.576  1.00  0.00     0.167 HD
ATOM     25  C   UNL A   1      42.965  29.287  35.236  1.00  0.00     0.031 A 
ATOM     26  C   UNL A   1      37.769  32.485  31.794  1.00  0.00     0.031 A 
ATOM     27  C   UNL A   1      42.397  30.430  35.903  1.00  0.00     0.049 A 
ATOM     28  C   UNL A   1      38.215  32.942  33.152  1.00  0.00     0.074 A 
ATOM     29  C   UNL A   1      42.758  30.983  37.120  1.00  0.00     0.029 A 
ATOM     30  N   UNL A   1      41.348  31.195  35.414  1.00  0.00    -0.354 N 
ATOM     31  N   UNL A   1      39.174  32.465  33.909  1.00  0.00    -0.248 NA
ATOM     32  C   UNL A   1      37.499  34.086  33.729  1.00  0.00     0.031 C 
ATOM     33  C   UNL A   1      41.887  32.043  37.396  1.00  0.00     0.029 A 
ATOM     34  C   UNL A   1      41.030  32.198  36.319  1.00  0.00     0.049 A 
ATOM     35  H   UNL A   1      40.894  31.048  34.553  1.00  0.00     0.167 HD
ATOM     36  C   UNL A   1      39.197  33.271  35.040  1.00  0.00     0.074 A 
ATOM     37  C   UNL A   1      38.167  34.274  34.859  1.00  0.00     0.031 C 
ATOM     38  C   UNL A   1      40.001  33.188  36.129  1.00  0.00     0.031 A 
BRANCH  25  39
ATOM     39  C   UNL A   1      44.047  28.512  35.949  1.00  0.00    -0.014 A 
ATOM     40  C   UNL A   1      45.408  28.816  35.775  1.00  0.00     0.010 A 
ATOM     41  C   UNL A   1      43.688  27.492  36.851  1.00  0.00     0.010 A 
ATOM     42  C   UNL A   1      46.391  28.087  36.453  1.00  0.00     0.020 A 
ATOM     43  C   UNL A   1      44.665  26.779  37.553  1.00  0.00     0.020 A 
ATOM     44  C   UNL A   1      46.013  27.069  37.335  1.00  0.00     0.054 A 
BRANCH  44  45
ATOM     45  S   UNL A   1      47.307  26.149  38.211  1.00  0.00     0.124 S 
ATOM     46  O   UNL A   1      47.583  25.058  37.278  1.00  0.00    -0.237 OA
ATOM     47  O   UNL A   1      48.370  27.140  38.346  1.00  0.00    -0.237 OA
ATOM     48  O   UNL A   1      46.667  25.750  39.461  1.00  0.00    -0.744 OA
ENDBRANCH  44  45
ENDBRANCH  25  39
BRANCH  26  49
ATOM     49  C   UNL A   1      36.674  33.182  31.065  1.00  0.00    -0.014 A 
ATOM     50  C   UNL A   1      36.944  33.910  29.893  1.00  0.00     0.010 A 
ATOM     51  C   UNL A   1      35.349  33.104  31.533  1.00  0.00     0.010 A 
ATOM     52  C   UNL A   1      35.911  34.563  29.214  1.00  0.00     0.020 A 
ATOM     53  C   UNL A   1      34.310  33.727  30.839  1.00  0.00     0.020 A 
ATOM     54  C   UNL A   1      34.600  34.464  29.691  1.00  0.00     0.054 A 
BRANCH  54  55
ATOM     55  S   UNL A   1      33.271  35.283  28.768  1.00  0.00     0.124 S 
ATOM     56  O   UNL A   1      32.467  35.860  29.841  1.00  0.00    -0.237 OA
ATOM     57  O   UNL A   1      34.004  36.239  27.940  1.00  0.00    -0.237 OA
ATOM     58  O   UNL A   1      32.642  34.189  28.031  1.00  0.00    -0.744 OA
ENDBRANCH  54  55
ENDBRANCH  26  49
BRANCH  38  59
ATOM     59  C   UNL A   1      39.832  34.245  37.190  1.00  0.00    -0.014 A 
ATOM     60  C   UNL A   1      38.996  34.045  38.303  1.00  0.00     0.010 A 
ATOM     61  C   UNL A   1      40.545  35.452  37.077  1.00  0.00     0.010 A 
ATOM     62  C   UNL A   1      38.840  35.053  39.258  1.00  0.00     0.020 A 
ATOM     63  C   UNL A   1      40.417  36.449  38.047  1.00  0.00     0.020 A 
ATOM     64  C   UNL A   1      39.549  36.250  39.122  1.00  0.00     0.054 A 
BRANCH  64  65
ATOM     65  S   UNL A   1      39.347  37.535  40.385  1.00  0.00     0.124 S 
ATOM     66  O   UNL A   1      39.176  36.742  41.600  1.00  0.00    -0.237 OA
ATOM     67  O   UNL A   1      40.603  38.277  40.292  1.00  0.00    -0.237 OA
ATOM     68  O   UNL A   1      38.163  38.269  39.948  1.00  0.00    -0.744 OA
ENDBRANCH  64  65
ENDBRANCH  38  59
ENDBRANCH  12  13
ENDBRANCH   5   7
ENDBRANCH   2   3
ENDBRANCH   1   2
BRANCH   1  69
ATOM     69  C   UNL A   1      38.939  22.209  26.034  1.00  0.00     0.118 C 
BRANCH  69  70
ATOM     70  N   UNL A   1      38.221  21.026  25.566  1.00  0.00    -0.352 N 
ATOM     71  C   UNL A   1      36.921  20.894  25.142  1.00  0.00     0.251 C 
ATOM     72  H   UNL A   1      38.751  20.196  25.551  1.00  0.00     0.163 HD
ATOM     73  O   UNL A   1      36.438  19.784  24.949  1.00  0.00    -0.269 OA
BRANCH  71  74
ATOM     74  C   UNL A   1      36.102  22.102  24.911  1.00  0.00     0.043 A 
ATOM     75  C   UNL A   1      36.164  22.761  23.683  1.00  0.00     0.014 A 
ATOM     76  C   UNL A   1      35.267  22.575  25.924  1.00  0.00     0.062 A 
ATOM     77  C   UNL A   1      35.325  23.852  23.452  1.00  0.00     0.005 A 
ATOM     78  C   UNL A   1      34.370  23.606  25.668  1.00  0.00     0.143 A 
ATOM     79  C   UNL A   1      34.415  24.259  24.435  1.00  0.00     0.048 A 
BRANCH  78  80
ATOM     80  O   UNL A   1      33.409  24.019  26.560  1.00  0.00    -0.379 OA
BRANCH  80  81
ATOM     81  S   UNL A   1      31.829  24.054  26.134  1.00  0.00     0.339 S 
ATOM     82  O   UNL A   1      31.627  23.171  25.004  1.00  0.00    -0.181 OA
ATOM     83  O   UNL A   1      31.019  23.939  27.334  1.00  0.00    -0.181 OA
BRANCH  81  84
ATOM     84  C   UNL A   1      31.549  25.703  25.541  1.00  0.00     0.112 A 
ATOM     85  C   UNL A   1      31.721  26.774  26.427  1.00  0.00     0.024 A 
ATOM     86  C   UNL A   1      31.184  25.916  24.211  1.00  0.00     0.109 A 
ATOM     87  C   UNL A   1      31.543  28.081  25.974  1.00  0.00     0.009 A 
ATOM     88  C   UNL A   1      31.008  27.233  23.770  1.00  0.00     0.270 A 
ATOM     89  C   UNL A   1      31.188  28.316  24.644  1.00  0.00     0.086 A 
BRANCH  88  90
ATOM     90  N   UNL A   1      30.643  27.481  22.369  1.00  0.00     0.062 N 
ATOM     91  O   UNL A   1      31.136  26.744  21.504  1.00  0.00    -0.258 OA
ATOM     92  O   UNL A   1      29.857  28.410  22.138  1.00  0.00    -0.258 OA
ENDBRANCH  88  90
ENDBRANCH  81  84
ENDBRANCH  80  81
ENDBRANCH  78  80
ENDBRANCH  71  74
ENDBRANCH  69  70
ENDBRANCH   1  69
TORSDOF 17
ENDMDL
MODEL 2
REMARK VINA RESULT:     -12.0      3.428      4.315
REMARK SMILES O=C(NCCCNC(=O)c1cccc(OS(=O)(=O)c2cccc([N+](=O)[O-])c2)c1)c1ccc(-c2c3nc(c(-c4ccc(S(=O)(=O)[O-])cc4)c4ccc([nH]4)c(-c4ccc(S(=O)(=O)[O-])cc4)c4nc(c(-c5ccc(S(=O)(=O)[O-])cc5)c5ccc2[nH]5)C=C4)C=C3)cc1
REMARK SMILES IDX 5 1 4 2 3 3 1 4 2 5 29 7 30 8 88 9 31 10 87 11 32 12 33 13
REMARK SMILES IDX 34 14 81 15 35 16 86 17 80 18 82 19 36 20 85 21 79 22 78 23
REMARK SMILES IDX 37 25 67 26 48 27 66 28 49 29 52 30 65 31 83 32 50 33 51 34
REMARK SMILES IDX 64 36 84 37 53 38 38 39 39 40 47 41 40 42 46 43 41 44 42 45
REMARK SMILES IDX 43 46 44 47 45 48 68 49 69 50 77 51 70 52 76 53 71 54 72 55
REMARK SMILES IDX 73 56 74 57 75 58 54 59 55 60 63 61 56 62 62 63 57 64 58 65
REMARK SMILES IDX 59 66 60 67 61 68 6 69 7 70 8 71 9 73 10 74 11 75 28 76
REMARK SMILES IDX 12 77 14 78 13 79 15 80 16 81 17 82 18 83 19 84 20 85 27 86
REMARK SMILES IDX 21 87 23 88 22 89 24 90 25 91 26 92
REMARK H PARENT 3 6 82 24 52 35 7 72
REMARK Flexibility Score: inf
ROOT
ATOM      1  C   UNL A   1      35.935  23.790  26.106  1.00  0.00     0.042 C 
ENDROOT
BRANCH   1   2
ATOM      2  C   UNL A   1      36.998  23.702  25.024  1.00  0.00     0.118 C 
BRANCH   2   3
ATOM      3  N   UNL A   1      38.079  22.776  25.346  1.00  0.00    -0.352 N 
ATOM      4  O   UNL A   1      40.075  22.083  26.129  1.00  0.00    -0.269 OA
ATOM      5  C   UNL A   1      39.222  22.966  26.089  1.00  0.00     0.251 C 
ATOM      6  H   UNL A   1      37.974  21.871  24.971  1.00  0.00     0.163 HD
BRANCH   5   7
ATOM      7  C   UNL A   1      39.442  24.244  26.802  1.00  0.00     0.039 A 
ATOM      8  C   UNL A   1      40.152  25.282  26.202  1.00  0.00     0.014 A 
ATOM      9  C   UNL A   1      38.955  24.400  28.103  1.00  0.00     0.014 A 
ATOM     10  C   UNL A   1      40.574  26.360  26.968  1.00  0.00     0.010 A 
ATOM     11  C   UNL A   1      39.268  25.553  28.831  1.00  0.00     0.010 A 
ATOM     12  C   UNL A   1      40.132  26.518  28.292  1.00  0.00    -0.014 A 
BRANCH  12  13
ATOM     13  C   UNL A   1      40.572  27.713  29.062  1.00  0.00     0.031 A 
ATOM     14  C   UNL A   1      41.964  27.808  29.633  1.00  0.00     0.074 A 
ATOM     15  C   UNL A   1      39.717  28.747  29.197  1.00  0.00     0.049 A 
ATOM     16  N   UNL A   1      42.523  28.806  30.273  1.00  0.00    -0.248 NA
ATOM     17  C   UNL A   1      42.842  26.637  29.477  1.00  0.00     0.031 C 
ATOM     18  C   UNL A   1      38.341  28.776  28.692  1.00  0.00     0.029 A 
ATOM     19  N   UNL A   1      39.884  29.985  29.765  1.00  0.00    -0.354 N 
ATOM     20  C   UNL A   1      43.799  28.375  30.620  1.00  0.00     0.074 A 
ATOM     21  C   UNL A   1      43.924  27.015  30.142  1.00  0.00     0.031 C 
ATOM     22  C   UNL A   1      37.817  29.990  28.905  1.00  0.00     0.029 A 
ATOM     23  C   UNL A   1      38.786  30.802  29.632  1.00  0.00     0.049 A 
ATOM     24  H   UNL A   1      40.710  30.261  30.222  1.00  0.00     0.167 HD
ATOM     25  C   UNL A   1      44.777  29.050  31.275  1.00  0.00     0.031 A 
ATOM     26  C   UNL A   1      38.570  32.062  30.055  1.00  0.00     0.031 A 
ATOM     27  C   UNL A   1      44.648  30.407  31.741  1.00  0.00     0.049 A 
ATOM     28  C   UNL A   1      39.663  32.777  30.795  1.00  0.00     0.074 A 
ATOM     29  C   UNL A   1      45.595  31.190  32.380  1.00  0.00     0.029 A 
ATOM     30  N   UNL A   1      43.503  31.183  31.626  1.00  0.00    -0.354 N 
ATOM     31  N   UNL A   1      40.872  32.360  31.083  1.00  0.00    -0.248 NA
ATOM     32  C   UNL A   1      39.361  34.135  31.261  1.00  0.00     0.031 C 
ATOM     33  C   UNL A   1      45.004  32.416  32.704  1.00  0.00     0.029 A 
ATOM     34  C   UNL A   1      43.711  32.425  32.205  1.00  0.00     0.049 A 
ATOM     35  H   UNL A   1      42.666  30.894  31.196  1.00  0.00     0.167 HD
ATOM     36  C   UNL A   1      41.488  33.418  31.740  1.00  0.00     0.074 A 
ATOM     37  C   UNL A   1      40.522  34.497  31.791  1.00  0.00     0.031 C 
ATOM     38  C   UNL A   1      42.741  33.490  32.253  1.00  0.00     0.031 A 
BRANCH  25  39
ATOM     39  C   UNL A   1      46.066  28.320  31.559  1.00  0.00    -0.014 A 
ATOM     40  C   UNL A   1      47.160  28.384  30.679  1.00  0.00     0.010 A 
ATOM     41  C   UNL A   1      46.200  27.594  32.758  1.00  0.00     0.010 A 
ATOM     42  C   UNL A   1      48.347  27.702  30.970  1.00  0.00     0.020 A 
ATOM     43  C   UNL A   1      47.394  26.934  33.068  1.00  0.00     0.020 A 
ATOM     44  C   UNL A   1      48.454  26.977  32.162  1.00  0.00     0.054 A 
BRANCH  44  45
ATOM     45  S   UNL A   1      50.008  26.113  32.519  1.00  0.00     0.124 S 
ATOM     46  O   UNL A   1      50.688  27.068  33.393  1.00  0.00    -0.237 OA
ATOM     47  O   UNL A   1      49.552  24.887  33.167  1.00  0.00    -0.237 OA
ATOM     48  O   UNL A   1      50.618  25.932  31.204  1.00  0.00    -0.744 OA
ENDBRANCH  44  45
ENDBRANCH  25  39
BRANCH  26  49
ATOM     49  C   UNL A   1      37.261  32.717  29.788  1.00  0.00    -0.014 A 
ATOM     50  C   UNL A   1      36.224  32.659  30.735  1.00  0.00     0.010 A 
ATOM     51  C   UNL A   1      37.052  33.421  28.587  1.00  0.00     0.010 A 
ATOM     52  C   UNL A   1      34.996  33.275  30.478  1.00  0.00     0.020 A 
ATOM     53  C   UNL A   1      35.839  34.067  28.341  1.00  0.00     0.020 A 
ATOM     54  C   UNL A   1      34.813  33.978  29.283  1.00  0.00     0.054 A 
BRANCH  54  55
ATOM     55  S   UNL A   1      33.227  34.807  28.991  1.00  0.00     0.124 S 
ATOM     56  O   UNL A   1      32.627  34.791  30.321  1.00  0.00    -0.237 OA
ATOM     57  O   UNL A   1      33.642  36.118  28.497  1.00  0.00    -0.237 OA
ATOM     58  O   UNL A   1      32.574  33.956  27.999  1.00  0.00    -0.744 OA
ENDBRANCH  54  55
ENDBRANCH  26  49
BRANCH  38  59
ATOM     59  C   UNL A   1      43.158  34.800  32.868  1.00  0.00    -0.014 A 
ATOM     60  C   UNL A   1      43.058  35.029  34.253  1.00  0.00     0.010 A 
ATOM     61  C   UNL A   1      43.682  35.812  32.043  1.00  0.00     0.010 A 
ATOM     62  C   UNL A   1      43.429  36.263  34.793  1.00  0.00     0.020 A 
ATOM     63  C   UNL A   1      44.085  37.035  32.584  1.00  0.00     0.020 A 
ATOM     64  C   UNL A   1      43.937  37.259  33.954  1.00  0.00     0.054 A 
BRANCH  64  65
ATOM     65  S   UNL A   1      44.433  38.845  34.680  1.00  0.00     0.124 S 
ATOM     66  O   UNL A   1      44.036  38.677  36.075  1.00  0.00    -0.237 OA
ATOM     67  O   UNL A   1      45.874  38.874  34.436  1.00  0.00    -0.237 OA
ATOM     68  O   UNL A   1      43.660  39.829  33.926  1.00  0.00    -0.744 OA
ENDBRANCH  64  65
ENDBRANCH  38  59
ENDBRANCH  12  13
ENDBRANCH   5   7
ENDBRANCH   2   3
ENDBRANCH   1   2
BRANCH   1  69
ATOM     69  C   UNL A   1      35.554  22.451  26.712  1.00  0.00     0.118 C 
BRANCH  69  70
ATOM     70  N   UNL A   1      34.293  22.505  27.447  1.00  0.00    -0.352 N 
ATOM     71  C   UNL A   1      33.000  22.517  26.980  1.00  0.00     0.251 C 
ATOM     72  H   UNL A   1      34.382  22.537  28.427  1.00  0.00     0.163 HD
ATOM     73  O   UNL A   1      32.065  22.742  27.741  1.00  0.00    -0.269 OA
BRANCH  71  74
ATOM     74  C   UNL A   1      32.736  22.250  25.551  1.00  0.00     0.043 A 
ATOM     75  C   UNL A   1      32.565  20.939  25.108  1.00  0.00     0.014 A 
ATOM     76  C   UNL A   1      32.659  23.315  24.652  1.00  0.00     0.062 A 
ATOM     77  C   UNL A   1      32.237  20.709  23.771  1.00  0.00     0.005 A 
ATOM     78  C   UNL A   1      32.249  23.096  23.342  1.00  0.00     0.143 A 
ATOM     79  C   UNL A   1      32.058  21.787  22.896  1.00  0.00     0.048 A 
BRANCH  78  80
ATOM     80  O   UNL A   1      31.993  24.106  22.445  1.00  0.00    -0.379 OA
BRANCH  80  81
ATOM     81  S   UNL A   1      33.167  25.162  22.012  1.00  0.00     0.339 S 
ATOM     82  O   UNL A   1      34.434  24.696  22.538  1.00  0.00    -0.181 OA
ATOM     83  O   UNL A   1      33.009  25.484  20.605  1.00  0.00    -0.181 OA
BRANCH  81  84
ATOM     84  C   UNL A   1      32.782  26.661  22.880  1.00  0.00     0.112 A 
ATOM     85  C   UNL A   1      33.634  27.079  23.909  1.00  0.00     0.024 A 
ATOM     86  C   UNL A   1      31.661  27.410  22.520  1.00  0.00     0.109 A 
ATOM     87  C   UNL A   1      33.373  28.273  24.580  1.00  0.00     0.009 A 
ATOM     88  C   UNL A   1      31.410  28.606  23.202  1.00  0.00     0.270 A 
ATOM     89  C   UNL A   1      32.262  29.042  24.228  1.00  0.00     0.086 A 
BRANCH  88  90
ATOM     90  N   UNL A   1      30.246  29.419  22.826  1.00  0.00     0.062 N 
ATOM     91  O   UNL A   1      29.768  29.256  21.695  1.00  0.00    -0.258 OA
ATOM     92  O   UNL A   1      29.808  30.216  23.667  1.00  0.00    -0.258 OA
ENDBRANCH  88  90
ENDBRANCH  81  84
ENDBRANCH  80  81
ENDBRANCH  78  80
ENDBRANCH  71  74
ENDBRANCH  69  70
ENDBRANCH   1  69
TORSDOF 17
ENDMDL
MODEL 3
REMARK VINA RESULT:     -11.8      6.012      8.245
REMARK SMILES O=C(NCCCNC(=O)c1cccc(OS(=O)(=O)c2cccc([N+](=O)[O-])c2)c1)c1ccc(-c2c3nc(c(-c4ccc(S(=O)(=O)[O-])cc4)c4ccc([nH]4)c(-c4ccc(S(=O)(=O)[O-])cc4)c4nc(c(-c5ccc(S(=O)(=O)[O-])cc5)c5ccc2[nH]5)C=C4)C=C3)cc1
REMARK SMILES IDX 5 1 4 2 3 3 1 4 2 5 29 7 30 8 88 9 31 10 87 11 32 12 33 13
REMARK SMILES IDX 34 14 81 15 35 16 86 17 80 18 82 19 36 20 85 21 79 22 78 23
REMARK SMILES IDX 37 25 67 26 48 27 66 28 49 29 52 30 65 31 83 32 50 33 51 34
REMARK SMILES IDX 64 36 84 37 53 38 38 39 39 40 47 41 40 42 46 43 41 44 42 45
REMARK SMILES IDX 43 46 44 47 45 48 68 49 69 50 77 51 70 52 76 53 71 54 72 55
REMARK SMILES IDX 73 56 74 57 75 58 54 59 55 60 63 61 56 62 62 63 57 64 58 65
REMARK SMILES IDX 59 66 60 67 61 68 6 69 7 70 8 71 9 73 10 74 11 75 28 76
REMARK SMILES IDX 12 77 14 78 13 79 15 80 16 81 17 82 18 83 19 84 20 85 27 86
REMARK SMILES IDX 21 87 23 88 22 89 24 90 25 91 26 92
REMARK H PARENT 3 6 82 24 52 35 7 72
REMARK Flexibility Score: inf
ROOT
ATOM      1  C   UNL A   1      37.881  21.373  24.997  1.00  0.00     0.042 C 
ENDROOT
BRANCH   1   2
ATOM      2  C   UNL A   1      38.897  21.333  26.126  1.00  0.00     0.118 C 
BRANCH   2   3
ATOM      3  N   UNL A   1      39.799  20.189  26.055  1.00  0.00    -0.352 N 
ATOM      4  O   UNL A   1      41.751  19.071  25.916  1.00  0.00    -0.269 OA
ATOM      5  C   UNL A   1      41.173  20.133  26.130  1.00  0.00     0.251 C 
ATOM      6  H   UNL A   1      39.355  19.318  25.935  1.00  0.00     0.163 HD
BRANCH   5   7
ATOM      7  C   UNL A   1      41.952  21.357  26.424  1.00  0.00     0.039 A 
ATOM      8  C   UNL A   1      42.302  21.682  27.733  1.00  0.00     0.014 A 
ATOM      9  C   UNL A   1      42.316  22.209  25.377  1.00  0.00     0.014 A 
ATOM     10  C   UNL A   1      42.795  22.949  28.019  1.00  0.00     0.010 A 
ATOM     11  C   UNL A   1      42.939  23.431  25.657  1.00  0.00     0.010 A 
ATOM     12  C   UNL A   1      43.129  23.840  26.986  1.00  0.00    -0.014 A 
BRANCH  12  13
ATOM     13  C   UNL A   1      43.698  25.169  27.336  1.00  0.00     0.031 A 
ATOM     14  C   UNL A   1      45.145  25.500  27.065  1.00  0.00     0.074 A 
ATOM     15  C   UNL A   1      42.880  26.108  27.854  1.00  0.00     0.049 A 
ATOM     16  N   UNL A   1      45.777  26.632  27.252  1.00  0.00    -0.248 NA
ATOM     17  C   UNL A   1      45.994  24.427  26.523  1.00  0.00     0.031 C 
ATOM     18  C   UNL A   1      41.460  25.911  28.166  1.00  0.00     0.029 A 
ATOM     19  N   UNL A   1      43.107  27.422  28.178  1.00  0.00    -0.354 N 
ATOM     20  C   UNL A   1      47.098  26.401  26.882  1.00  0.00     0.074 A 
ATOM     21  C   UNL A   1      47.183  25.012  26.483  1.00  0.00     0.031 C 
ATOM     22  C   UNL A   1      40.930  27.075  28.562  1.00  0.00     0.029 A 
ATOM     23  C   UNL A   1      41.982  28.082  28.613  1.00  0.00     0.049 A 
ATOM     24  H   UNL A   1      43.990  27.849  28.106  1.00  0.00     0.167 HD
ATOM     25  C   UNL A   1      48.143  27.265  26.873  1.00  0.00     0.031 A 
ATOM     26  C   UNL A   1      41.810  29.354  29.019  1.00  0.00     0.031 A 
ATOM     27  C   UNL A   1      48.051  28.648  27.264  1.00  0.00     0.049 A 
ATOM     28  C   UNL A   1      42.990  30.282  29.019  1.00  0.00     0.074 A 
ATOM     29  C   UNL A   1      49.044  29.613  27.253  1.00  0.00     0.029 A 
ATOM     30  N   UNL A   1      46.903  29.265  27.741  1.00  0.00    -0.354 N 
ATOM     31  N   UNL A   1      44.222  30.050  28.634  1.00  0.00    -0.248 NA
ATOM     32  C   UNL A   1      42.752  31.647  29.502  1.00  0.00     0.031 C 
ATOM     33  C   UNL A   1      48.513  30.795  27.780  1.00  0.00     0.029 A 
ATOM     34  C   UNL A   1      47.170  30.589  28.052  1.00  0.00     0.049 A 
ATOM     35  H   UNL A   1      46.027  28.827  27.843  1.00  0.00     0.167 HD
ATOM     36  C   UNL A   1      44.901  31.250  28.802  1.00  0.00     0.074 A 
ATOM     37  C   UNL A   1      43.938  32.208  29.306  1.00  0.00     0.031 C 
ATOM     38  C   UNL A   1      46.205  31.533  28.557  1.00  0.00     0.031 A 
BRANCH  25  39
ATOM     39  C   UNL A   1      49.493  26.732  26.459  1.00  0.00    -0.014 A 
ATOM     40  C   UNL A   1      50.335  26.067  27.369  1.00  0.00     0.010 A 
ATOM     41  C   UNL A   1      49.905  26.856  25.118  1.00  0.00     0.010 A 
ATOM     42  C   UNL A   1      51.579  25.577  26.957  1.00  0.00     0.020 A 
ATOM     43  C   UNL A   1      51.135  26.342  24.695  1.00  0.00     0.020 A 
ATOM     44  C   UNL A   1      51.972  25.722  25.623  1.00  0.00     0.054 A 
BRANCH  44  45
ATOM     45  S   UNL A   1      53.585  25.065  25.114  1.00  0.00     0.124 S 
ATOM     46  O   UNL A   1      53.703  25.581  23.751  1.00  0.00    -0.237 OA
ATOM     47  O   UNL A   1      54.495  25.659  26.089  1.00  0.00    -0.237 OA
ATOM     48  O   UNL A   1      53.421  23.617  25.218  1.00  0.00    -0.744 OA
ENDBRANCH  44  45
ENDBRANCH  25  39
BRANCH  26  49
ATOM     49  C   UNL A   1      40.465  29.813  29.462  1.00  0.00    -0.014 A 
ATOM     50  C   UNL A   1      40.189  30.009  30.827  1.00  0.00     0.010 A 
ATOM     51  C   UNL A   1      39.458  30.076  28.515  1.00  0.00     0.010 A 
ATOM     52  C   UNL A   1      38.924  30.439  31.236  1.00  0.00     0.020 A 
ATOM     53  C   UNL A   1      38.204  30.539  28.919  1.00  0.00     0.020 A 
ATOM     54  C   UNL A   1      37.941  30.704  30.279  1.00  0.00     0.054 A 
BRANCH  54  55
ATOM     55  S   UNL A   1      36.321  31.303  30.832  1.00  0.00     0.124 S 
ATOM     56  O   UNL A   1      36.658  32.604  31.404  1.00  0.00    -0.237 OA
ATOM     57  O   UNL A   1      35.555  31.336  29.588  1.00  0.00    -0.237 OA
ATOM     58  O   UNL A   1      35.891  30.289  31.792  1.00  0.00    -0.744 OA
ENDBRANCH  54  55
ENDBRANCH  26  49
BRANCH  38  59
ATOM     59  C   UNL A   1      46.653  32.953  28.784  1.00  0.00    -0.014 A 
ATOM     60  C   UNL A   1      46.560  33.926  27.773  1.00  0.00     0.010 A 
ATOM     61  C   UNL A   1      47.157  33.322  30.045  1.00  0.00     0.010 A 
ATOM     62  C   UNL A   1      47.006  35.230  28.004  1.00  0.00     0.020 A 
ATOM     63  C   UNL A   1      47.574  34.632  30.290  1.00  0.00     0.020 A 
ATOM     64  C   UNL A   1      47.513  35.573  29.261  1.00  0.00     0.054 A 
BRANCH  64  65
ATOM     65  S   UNL A   1      48.067  37.277  29.545  1.00  0.00     0.124 S 
ATOM     66  O   UNL A   1      48.525  37.220  30.931  1.00  0.00    -0.237 OA
ATOM     67  O   UNL A   1      49.118  37.444  28.543  1.00  0.00    -0.237 OA
ATOM     68  O   UNL A   1      46.865  38.074  29.318  1.00  0.00    -0.744 OA
ENDBRANCH  64  65
ENDBRANCH  38  59
ENDBRANCH  12  13
ENDBRANCH   5   7
ENDBRANCH   2   3
ENDBRANCH   1   2
BRANCH   1  69
ATOM     69  C   UNL A   1      36.547  20.734  25.341  1.00  0.00     0.118 C 
BRANCH  69  70
ATOM     70  N   UNL A   1      35.793  21.502  26.329  1.00  0.00    -0.352 N 
ATOM     71  C   UNL A   1      34.767  22.399  26.152  1.00  0.00     0.251 C 
ATOM     72  H   UNL A   1      36.060  21.354  27.265  1.00  0.00     0.163 HD
ATOM     73  O   UNL A   1      34.369  23.083  27.089  1.00  0.00    -0.269 OA
BRANCH  71  74
ATOM     74  C   UNL A   1      34.136  22.535  24.823  1.00  0.00     0.043 A 
ATOM     75  C   UNL A   1      33.160  21.624  24.419  1.00  0.00     0.014 A 
ATOM     76  C   UNL A   1      34.520  23.578  23.979  1.00  0.00     0.062 A 
ATOM     77  C   UNL A   1      32.516  21.812  23.196  1.00  0.00     0.005 A 
ATOM     78  C   UNL A   1      33.822  23.817  22.800  1.00  0.00     0.143 A 
ATOM     79  C   UNL A   1      32.832  22.919  22.399  1.00  0.00     0.048 A 
BRANCH  78  80
ATOM     80  O   UNL A   1      34.034  24.914  22.000  1.00  0.00    -0.379 OA
BRANCH  80  81
ATOM     81  S   UNL A   1      32.942  26.132  21.939  1.00  0.00     0.339 S 
ATOM     82  O   UNL A   1      33.635  27.369  21.640  1.00  0.00    -0.181 OA
ATOM     83  O   UNL A   1      31.801  25.698  21.151  1.00  0.00    -0.181 OA
BRANCH  81  84
ATOM     84  C   UNL A   1      32.330  26.286  23.598  1.00  0.00     0.112 A 
ATOM     85  C   UNL A   1      31.177  25.578  23.957  1.00  0.00     0.024 A 
ATOM     86  C   UNL A   1      33.006  27.083  24.522  1.00  0.00     0.109 A 
ATOM     87  C   UNL A   1      30.699  25.652  25.264  1.00  0.00     0.009 A 
ATOM     88  C   UNL A   1      32.515  27.150  25.832  1.00  0.00     0.270 A 
ATOM     89  C   UNL A   1      31.367  26.437  26.207  1.00  0.00     0.086 A 
BRANCH  88  90
ATOM     90  N   UNL A   1      33.222  27.969  26.825  1.00  0.00     0.062 N 
ATOM     91  O   UNL A   1      32.605  28.298  27.848  1.00  0.00    -0.258 OA
ATOM     92  O   UNL A   1      34.398  28.275  26.583  1.00  0.00    -0.258 OA
ENDBRANCH  88  90
ENDBRANCH  81  84
ENDBRANCH  80  81
ENDBRANCH  78  80
ENDBRANCH  71  74
ENDBRANCH  69  70
ENDBRANCH   1  69
TORSDOF 17
ENDMDL
