MODEL 1
REMARK VINA RESULT:     -14.4      0.000      0.000
REMARK SMILES O=C(NCCCNC(=O)[C@H]1[C@H](C(=O)NC2CC[NH+](Cc3ccccc3)CC2)[C@H]2C=C[C@@H]1C2)c1ccc(-c2c3nc(c(-c4ccc(S(=O)(=O)[O-])cc4)c4ccc([nH]4)c(-c4ccc(S(=O)(=O)[O-])cc4)c4nc(c(-c5ccc(S(=O)(=O)[O-])cc5)c5ccc2[nH]5)C=C4)C=C3)cc1
REMARK SMILES IDX 5 1 4 2 3 3 1 4 2 5 33 7 34 8 92 9 35 10 91 11 36 12 37 13
REMARK SMILES IDX 38 14 85 15 39 16 90 17 84 18 86 19 40 20 89 21 83 22 82 23
REMARK SMILES IDX 41 25 71 26 52 27 70 28 53 29 56 30 69 31 87 32 54 33 55 34
REMARK SMILES IDX 68 36 88 37 57 38 42 39 43 40 51 41 44 42 50 43 45 44 46 45
REMARK SMILES IDX 47 46 48 47 49 48 72 49 73 50 81 51 74 52 80 53 75 54 76 55
REMARK SMILES IDX 77 56 78 57 79 58 58 59 59 60 67 61 60 62 66 63 61 64 62 65
REMARK SMILES IDX 63 66 64 67 65 68 6 69 7 70 8 71 9 73 10 74 11 75 31 76
REMARK SMILES IDX 28 77 30 78 32 79 29 80 12 81 13 82 14 83 15 85 16 86 27 87
REMARK SMILES IDX 17 88 26 89 18 90 19 92 20 93 21 94 25 95 22 96 24 97 23 98
REMARK H PARENT 3 6 86 24 56 35 7 72 14 84 18 91
REMARK Flexibility Score: inf
ROOT
ATOM      1  C   UNL A   1      35.055  30.002  27.650  1.00  0.00     0.042 C 
ENDROOT
BRANCH   1   2
ATOM      2  C   UNL A   1      35.491  31.127  28.568  1.00  0.00     0.118 C 
BRANCH   2   3
ATOM      3  N   UNL A   1      35.617  30.652  29.941  1.00  0.00    -0.352 N 
ATOM      4  O   UNL A   1      36.373  29.340  31.592  1.00  0.00    -0.269 OA
ATOM      5  C   UNL A   1      36.636  29.966  30.565  1.00  0.00     0.251 C 
ATOM      6  H   UNL A   1      34.845  30.856  30.518  1.00  0.00     0.163 HD
BRANCH   5   7
ATOM      7  C   UNL A   1      38.031  29.977  30.050  1.00  0.00     0.039 A 
ATOM      8  C   UNL A   1      39.117  29.823  30.906  1.00  0.00     0.014 A 
ATOM      9  C   UNL A   1      38.265  30.001  28.666  1.00  0.00     0.014 A 
ATOM     10  C   UNL A   1      40.416  29.837  30.420  1.00  0.00     0.010 A 
ATOM     11  C   UNL A   1      39.566  29.839  28.163  1.00  0.00     0.010 A 
ATOM     12  C   UNL A   1      40.653  29.740  29.043  1.00  0.00    -0.014 A 
BRANCH  12  13
ATOM     13  C   UNL A   1      42.020  29.344  28.609  1.00  0.00     0.031 A 
ATOM     14  C   UNL A   1      43.174  30.300  28.657  1.00  0.00     0.074 A 
ATOM     15  C   UNL A   1      42.205  28.061  28.224  1.00  0.00     0.049 A 
ATOM     16  N   UNL A   1      44.428  30.076  28.360  1.00  0.00    -0.248 NA
ATOM     17  C   UNL A   1      42.893  31.681  29.078  1.00  0.00     0.031 C 
ATOM     18  C   UNL A   1      41.142  27.049  28.124  1.00  0.00     0.029 A 
ATOM     19  N   UNL A   1      43.339  27.364  27.896  1.00  0.00    -0.354 N 
ATOM     20  C   UNL A   1      45.082  31.290  28.528  1.00  0.00     0.074 A 
ATOM     21  C   UNL A   1      44.084  32.253  28.943  1.00  0.00     0.031 C 
ATOM     22  C   UNL A   1      41.685  25.854  27.862  1.00  0.00     0.029 A 
ATOM     23  C   UNL A   1      43.115  26.025  27.661  1.00  0.00     0.049 A 
ATOM     24  H   UNL A   1      44.229  27.780  27.833  1.00  0.00     0.167 HD
ATOM     25  C   UNL A   1      46.396  31.568  28.346  1.00  0.00     0.031 A 
ATOM     26  C   UNL A   1      43.957  25.042  27.293  1.00  0.00     0.031 A 
ATOM     27  C   UNL A   1      47.374  30.591  27.939  1.00  0.00     0.049 A 
ATOM     28  C   UNL A   1      45.400  25.390  27.082  1.00  0.00     0.074 A 
ATOM     29  C   UNL A   1      48.734  30.766  27.747  1.00  0.00     0.029 A 
ATOM     30  N   UNL A   1      47.101  29.259  27.661  1.00  0.00    -0.354 N 
ATOM     31  N   UNL A   1      45.999  26.542  27.265  1.00  0.00    -0.248 NA
ATOM     32  C   UNL A   1      46.277  24.316  26.603  1.00  0.00     0.031 C 
ATOM     33  C   UNL A   1      49.272  29.556  27.298  1.00  0.00     0.029 A 
ATOM     34  C   UNL A   1      48.261  28.608  27.273  1.00  0.00     0.049 A 
ATOM     35  H   UNL A   1      46.213  28.838  27.730  1.00  0.00     0.167 HD
ATOM     36  C   UNL A   1      47.329  26.331  26.931  1.00  0.00     0.074 A 
ATOM     37  C   UNL A   1      47.450  24.932  26.568  1.00  0.00     0.031 C 
ATOM     38  C   UNL A   1      48.355  27.215  26.916  1.00  0.00     0.031 A 
BRANCH  25  39
ATOM     39  C   UNL A   1      46.854  32.989  28.546  1.00  0.00    -0.014 A 
ATOM     40  C   UNL A   1      47.349  33.435  29.783  1.00  0.00     0.010 A 
ATOM     41  C   UNL A   1      46.862  33.874  27.449  1.00  0.00     0.010 A 
ATOM     42  C   UNL A   1      47.825  34.743  29.926  1.00  0.00     0.020 A 
ATOM     43  C   UNL A   1      47.360  35.173  27.581  1.00  0.00     0.020 A 
ATOM     44  C   UNL A   1      47.830  35.603  28.823  1.00  0.00     0.054 A 
BRANCH  44  45
ATOM     45  S   UNL A   1      48.504  37.276  29.024  1.00  0.00     0.124 S 
ATOM     46  O   UNL A   1      49.229  37.463  27.769  1.00  0.00    -0.237 OA
ATOM     47  O   UNL A   1      47.300  38.089  29.178  1.00  0.00    -0.237 OA
ATOM     48  O   UNL A   1      49.340  37.175  30.216  1.00  0.00    -0.744 OA
ENDBRANCH  44  45
ENDBRANCH  25  39
BRANCH  26  49
ATOM     49  C   UNL A   1      43.444  23.665  27.042  1.00  0.00    -0.014 A 
ATOM     50  C   UNL A   1      43.181  23.212  25.738  1.00  0.00     0.010 A 
ATOM     51  C   UNL A   1      43.214  22.791  28.123  1.00  0.00     0.010 A 
ATOM     52  C   UNL A   1      42.672  21.927  25.522  1.00  0.00     0.020 A 
ATOM     53  C   UNL A   1      42.743  21.494  27.910  1.00  0.00     0.020 A 
ATOM     54  C   UNL A   1      42.455  21.077  26.611  1.00  0.00     0.054 A 
BRANCH  54  55
ATOM     55  S   UNL A   1      41.815  19.407  26.311  1.00  0.00     0.124 S 
ATOM     56  O   UNL A   1      42.489  19.043  25.069  1.00  0.00    -0.237 OA
ATOM     57  O   UNL A   1      42.247  18.681  27.504  1.00  0.00    -0.237 OA
ATOM     58  O   UNL A   1      40.371  19.608  26.205  1.00  0.00    -0.744 OA
ENDBRANCH  54  55
ENDBRANCH  26  49
BRANCH  38  59
ATOM     59  C   UNL A   1      49.704  26.680  26.522  1.00  0.00    -0.014 A 
ATOM     60  C   UNL A   1      50.519  26.006  27.449  1.00  0.00     0.010 A 
ATOM     61  C   UNL A   1      50.145  26.826  25.195  1.00  0.00     0.010 A 
ATOM     62  C   UNL A   1      51.768  25.518  27.062  1.00  0.00     0.020 A 
ATOM     63  C   UNL A   1      51.380  26.312  24.797  1.00  0.00     0.020 A 
ATOM     64  C   UNL A   1      52.191  25.675  25.738  1.00  0.00     0.054 A 
BRANCH  64  65
ATOM     65  S   UNL A   1      53.800  24.998  25.251  1.00  0.00     0.124 S 
ATOM     66  O   UNL A   1      54.637  25.355  26.392  1.00  0.00    -0.237 OA
ATOM     67  O   UNL A   1      53.515  23.572  25.101  1.00  0.00    -0.237 OA
ATOM     68  O   UNL A   1      54.108  25.699  24.006  1.00  0.00    -0.744 OA
ENDBRANCH  64  65
ENDBRANCH  38  59
ENDBRANCH  12  13
ENDBRANCH   5   7
ENDBRANCH   2   3
ENDBRANCH   1   2
BRANCH   1  69
ATOM     69  C   UNL A   1      33.687  30.239  27.020  1.00  0.00     0.117 C 
BRANCH  69  70
ATOM     70  N   UNL A   1      32.703  29.347  27.609  1.00  0.00    -0.356 N 
ATOM     71  C   UNL A   1      31.871  28.370  27.215  1.00  0.00     0.224 C 
ATOM     72  H   UNL A   1      32.624  29.506  28.578  1.00  0.00     0.163 HD
ATOM     73  O   UNL A   1      30.979  28.211  28.081  1.00  0.00    -0.275 OA
BRANCH  71  74
ATOM     74  C   UNL A   1      31.917  27.233  26.105  1.00  0.00     0.098 C 
ATOM     75  C   UNL A   1      31.199  25.482  25.132  1.00  0.00     0.098 C 
ATOM     76  C   UNL A   1      31.778  28.596  24.542  1.00  0.00     0.025 C 
ATOM     77  C   UNL A   1      30.691  26.412  23.273  1.00  0.00     0.025 C 
ATOM     78  C   UNL A   1      30.302  29.005  23.796  1.00  0.00    -0.027 C 
ATOM     79  C   UNL A   1      31.833  27.851  22.865  1.00  0.00     0.017 C 
ATOM     80  C   UNL A   1      29.734  27.927  23.118  1.00  0.00    -0.027 C 
BRANCH  75  81
ATOM     81  C   UNL A   1      32.259  24.392  25.738  1.00  0.00     0.224 C 
ATOM     82  O   UNL A   1      31.853  23.644  26.645  1.00  0.00    -0.275 OA
ATOM     83  N   UNL A   1      33.599  24.252  25.529  1.00  0.00    -0.353 N 
ATOM     84  H   UNL A   1      34.067  23.802  26.269  1.00  0.00     0.163 HD
BRANCH  83  85
ATOM     85  C   UNL A   1      34.474  24.631  24.434  1.00  0.00     0.093 C 
ATOM     86  C   UNL A   1      33.936  24.487  23.030  1.00  0.00     0.086 C 
ATOM     87  C   UNL A   1      35.720  23.830  24.488  1.00  0.00     0.086 C 
ATOM     88  C   UNL A   1      33.308  23.129  22.737  1.00  0.00     0.264 C 
ATOM     89  C   UNL A   1      35.305  22.389  24.359  1.00  0.00     0.264 C 
ATOM     90  N   UNL A   1      33.688  21.932  23.771  1.00  0.00    -0.331 N 
ATOM     91  H   UNL A   1      32.966  21.218  23.677  1.00  0.00     0.348 HD
BRANCH  90  92
ATOM     92  C   UNL A   1      32.644  20.205  24.476  1.00  0.00     0.299 C 
BRANCH  92  93
ATOM     93  C   UNL A   1      33.211  18.470  24.610  1.00  0.00     0.006 A 
ATOM     94  C   UNL A   1      32.620  17.764  25.704  1.00  0.00     0.009 A 
ATOM     95  C   UNL A   1      33.972  17.742  23.676  1.00  0.00     0.009 A 
ATOM     96  C   UNL A   1      32.692  16.374  25.779  1.00  0.00     0.001 A 
ATOM     97  C   UNL A   1      34.019  16.343  23.763  1.00  0.00     0.001 A 
ATOM     98  C   UNL A   1      33.369  15.663  24.795  1.00  0.00     0.000 A 
ENDBRANCH  92  93
ENDBRANCH  90  92
ENDBRANCH  83  85
ENDBRANCH  75  81
ENDBRANCH  71  74
ENDBRANCH  69  70
ENDBRANCH   1  69
TORSDOF 17
ENDMDL
MODEL 2
REMARK VINA RESULT:     -13.9      6.198     11.697
REMARK SMILES O=C(NCCCNC(=O)[C@H]1[C@H](C(=O)NC2CC[NH+](Cc3ccccc3)CC2)[C@H]2C=C[C@@H]1C2)c1ccc(-c2c3nc(c(-c4ccc(S(=O)(=O)[O-])cc4)c4ccc([nH]4)c(-c4ccc(S(=O)(=O)[O-])cc4)c4nc(c(-c5ccc(S(=O)(=O)[O-])cc5)c5ccc2[nH]5)C=C4)C=C3)cc1
REMARK SMILES IDX 5 1 4 2 3 3 1 4 2 5 33 7 34 8 92 9 35 10 91 11 36 12 37 13
REMARK SMILES IDX 38 14 85 15 39 16 90 17 84 18 86 19 40 20 89 21 83 22 82 23
REMARK SMILES IDX 41 25 71 26 52 27 70 28 53 29 56 30 69 31 87 32 54 33 55 34
REMARK SMILES IDX 68 36 88 37 57 38 42 39 43 40 51 41 44 42 50 43 45 44 46 45
REMARK SMILES IDX 47 46 48 47 49 48 72 49 73 50 81 51 74 52 80 53 75 54 76 55
REMARK SMILES IDX 77 56 78 57 79 58 58 59 59 60 67 61 60 62 66 63 61 64 62 65
REMARK SMILES IDX 63 66 64 67 65 68 6 69 7 70 8 71 9 73 10 74 11 75 31 76
REMARK SMILES IDX 28 77 30 78 32 79 29 80 12 81 13 82 14 83 15 85 16 86 27 87
REMARK SMILES IDX 17 88 26 89 18 90 19 92 20 93 21 94 25 95 22 96 24 97 23 98
REMARK H PARENT 3 6 86 24 56 35 7 72 14 84 18 91
REMARK Flexibility Score: inf
ROOT
ATOM      1  C   UNL A   1      38.773  22.709  26.124  1.00  0.00     0.042 C 
ENDROOT
BRANCH   1   2
ATOM      2  C   UNL A   1      39.864  23.213  27.048  1.00  0.00     0.118 C 
BRANCH   2   3
ATOM      3  N   UNL A   1      40.954  23.806  26.282  1.00  0.00    -0.352 N 
ATOM      4  O   UNL A   1      42.015  25.417  25.143  1.00  0.00    -0.269 OA
ATOM      5  C   UNL A   1      41.326  25.123  26.119  1.00  0.00     0.251 C 
ATOM      6  H   UNL A   1      41.518  23.158  25.801  1.00  0.00     0.163 HD
BRANCH   5   7
ATOM      7  C   UNL A   1      40.939  26.183  27.089  1.00  0.00     0.039 A 
ATOM      8  C   UNL A   1      40.229  25.877  28.245  1.00  0.00     0.014 A 
ATOM      9  C   UNL A   1      41.414  27.493  26.919  1.00  0.00     0.014 A 
ATOM     10  C   UNL A   1      39.869  26.870  29.144  1.00  0.00     0.010 A 
ATOM     11  C   UNL A   1      41.201  28.460  27.914  1.00  0.00     0.010 A 
ATOM     12  C   UNL A   1      40.436  28.147  29.046  1.00  0.00    -0.014 A 
BRANCH  12  13
ATOM     13  C   UNL A   1      40.350  29.029  30.241  1.00  0.00     0.031 A 
ATOM     14  C   UNL A   1      39.282  30.071  30.382  1.00  0.00     0.074 A 
ATOM     15  C   UNL A   1      41.240  28.817  31.238  1.00  0.00     0.049 A 
ATOM     16  N   UNL A   1      39.055  30.872  31.391  1.00  0.00    -0.248 NA
ATOM     17  C   UNL A   1      38.355  30.249  29.253  1.00  0.00     0.031 C 
ATOM     18  C   UNL A   1      42.336  27.837  31.195  1.00  0.00     0.029 A 
ATOM     19  N   UNL A   1      41.348  29.359  32.492  1.00  0.00    -0.354 N 
ATOM     20  C   UNL A   1      37.983  31.670  31.011  1.00  0.00     0.074 A 
ATOM     21  C   UNL A   1      37.609  31.263  29.673  1.00  0.00     0.031 C 
ATOM     22  C   UNL A   1      42.931  27.778  32.392  1.00  0.00     0.029 A 
ATOM     23  C   UNL A   1      42.343  28.791  33.255  1.00  0.00     0.049 A 
ATOM     24  H   UNL A   1      40.768  30.086  32.817  1.00  0.00     0.167 HD
ATOM     25  C   UNL A   1      37.375  32.653  31.719  1.00  0.00     0.031 A 
ATOM     26  C   UNL A   1      42.765  29.067  34.503  1.00  0.00     0.031 A 
ATOM     27  C   UNL A   1      37.760  33.036  33.054  1.00  0.00     0.049 A 
ATOM     28  C   UNL A   1      42.082  30.174  35.249  1.00  0.00     0.074 A 
ATOM     29  C   UNL A   1      37.195  34.004  33.867  1.00  0.00     0.029 A 
ATOM     30  N   UNL A   1      38.805  32.472  33.774  1.00  0.00    -0.354 N 
ATOM     31  N   UNL A   1      41.058  30.903  34.876  1.00  0.00    -0.248 NA
ATOM     32  C   UNL A   1      42.616  30.507  36.574  1.00  0.00     0.031 C 
ATOM     33  C   UNL A   1      37.934  34.066  35.053  1.00  0.00     0.029 A 
ATOM     34  C   UNL A   1      38.919  33.091  35.008  1.00  0.00     0.049 A 
ATOM     35  H   UNL A   1      39.381  31.741  33.454  1.00  0.00     0.167 HD
ATOM     36  C   UNL A   1      40.817  31.777  35.925  1.00  0.00     0.074 A 
ATOM     37  C   UNL A   1      41.782  31.463  36.961  1.00  0.00     0.031 C 
ATOM     38  C   UNL A   1      39.889  32.760  36.021  1.00  0.00     0.031 A 
BRANCH  25  39
ATOM     39  C   UNL A   1      36.255  33.413  31.059  1.00  0.00    -0.014 A 
ATOM     40  C   UNL A   1      35.072  33.727  31.750  1.00  0.00     0.010 A 
ATOM     41  C   UNL A   1      36.424  33.890  29.745  1.00  0.00     0.010 A 
ATOM     42  C   UNL A   1      34.072  34.487  31.133  1.00  0.00     0.020 A 
ATOM     43  C   UNL A   1      35.438  34.671  29.133  1.00  0.00     0.020 A 
ATOM     44  C   UNL A   1      34.263  34.957  29.830  1.00  0.00     0.054 A 
BRANCH  44  45
ATOM     45  S   UNL A   1      32.973  35.986  29.075  1.00  0.00     0.124 S 
ATOM     46  O   UNL A   1      32.338  35.048  28.152  1.00  0.00    -0.237 OA
ATOM     47  O   UNL A   1      32.162  36.378  30.226  1.00  0.00    -0.237 OA
ATOM     48  O   UNL A   1      33.717  37.072  28.444  1.00  0.00    -0.744 OA
ENDBRANCH  44  45
ENDBRANCH  25  39
BRANCH  26  49
ATOM     49  C   UNL A   1      43.922  28.332  35.088  1.00  0.00    -0.014 A 
ATOM     50  C   UNL A   1      43.733  27.172  35.858  1.00  0.00     0.010 A 
ATOM     51  C   UNL A   1      45.234  28.798  34.873  1.00  0.00     0.010 A 
ATOM     52  C   UNL A   1      44.829  26.510  36.423  1.00  0.00     0.020 A 
ATOM     53  C   UNL A   1      46.333  28.120  35.403  1.00  0.00     0.020 A 
ATOM     54  C   UNL A   1      46.122  26.991  36.193  1.00  0.00     0.054 A 
BRANCH  54  55
ATOM     55  S   UNL A   1      47.531  26.108  36.918  1.00  0.00     0.124 S 
ATOM     56  O   UNL A   1      48.504  27.183  37.091  1.00  0.00    -0.237 OA
ATOM     57  O   UNL A   1      46.965  25.560  38.148  1.00  0.00    -0.237 OA
ATOM     58  O   UNL A   1      47.870  25.114  35.902  1.00  0.00    -0.744 OA
ENDBRANCH  54  55
ENDBRANCH  26  49
BRANCH  38  59
ATOM     59  C   UNL A   1      39.858  33.540  37.305  1.00  0.00    -0.014 A 
ATOM     60  C   UNL A   1      40.640  34.697  37.474  1.00  0.00     0.010 A 
ATOM     61  C   UNL A   1      39.006  33.127  38.345  1.00  0.00     0.010 A 
ATOM     62  C   UNL A   1      40.595  35.407  38.675  1.00  0.00     0.020 A 
ATOM     63  C   UNL A   1      38.937  33.852  39.535  1.00  0.00     0.020 A 
ATOM     64  C   UNL A   1      39.744  34.979  39.699  1.00  0.00     0.054 A 
BRANCH  64  65
ATOM     65  S   UNL A   1      39.676  35.939  41.234  1.00  0.00     0.124 S 
ATOM     66  O   UNL A   1      40.084  37.266  40.781  1.00  0.00    -0.237 OA
ATOM     67  O   UNL A   1      38.274  35.814  41.628  1.00  0.00    -0.237 OA
ATOM     68  O   UNL A   1      40.626  35.260  42.111  1.00  0.00    -0.744 OA
ENDBRANCH  64  65
ENDBRANCH  38  59
ENDBRANCH  12  13
ENDBRANCH   5   7
ENDBRANCH   2   3
ENDBRANCH   1   2
BRANCH   1  69
ATOM     69  C   UNL A   1      37.643  23.713  25.929  1.00  0.00     0.117 C 
BRANCH  69  70
ATOM     70  N   UNL A   1      37.098  23.598  24.587  1.00  0.00    -0.356 N 
ATOM     71  C   UNL A   1      36.039  23.042  23.978  1.00  0.00     0.224 C 
ATOM     72  H   UNL A   1      37.672  24.064  23.936  1.00  0.00     0.163 HD
ATOM     73  O   UNL A   1      36.274  22.937  22.752  1.00  0.00    -0.275 OA
BRANCH  71  74
ATOM     74  C   UNL A   1      34.526  22.767  24.381  1.00  0.00     0.098 C 
ATOM     75  C   UNL A   1      32.473  22.398  23.960  1.00  0.00     0.098 C 
ATOM     76  C   UNL A   1      35.000  21.028  25.416  1.00  0.00     0.025 C 
ATOM     77  C   UNL A   1      32.398  20.417  24.766  1.00  0.00     0.025 C 
ATOM     78  C   UNL A   1      34.901  19.477  24.717  1.00  0.00    -0.027 C 
ATOM     79  C   UNL A   1      33.572  20.199  26.220  1.00  0.00     0.017 C 
ATOM     80  C   UNL A   1      33.591  19.120  24.400  1.00  0.00    -0.027 C 
BRANCH  75  81
ATOM     81  C   UNL A   1      31.872  23.892  24.253  1.00  0.00     0.224 C 
ATOM     82  O   UNL A   1      31.417  24.111  25.390  1.00  0.00    -0.275 OA
ATOM     83  N   UNL A   1      31.631  24.930  23.402  1.00  0.00    -0.353 N 
ATOM     84  H   UNL A   1      30.935  25.547  23.724  1.00  0.00     0.163 HD
BRANCH  83  85
ATOM     85  C   UNL A   1      32.195  25.308  22.119  1.00  0.00     0.093 C 
ATOM     86  C   UNL A   1      33.555  25.965  22.122  1.00  0.00     0.086 C 
ATOM     87  C   UNL A   1      31.280  26.246  21.426  1.00  0.00     0.086 C 
ATOM     88  C   UNL A   1      33.687  27.126  23.101  1.00  0.00     0.264 C 
ATOM     89  C   UNL A   1      31.147  27.449  22.322  1.00  0.00     0.264 C 
ATOM     90  N   UNL A   1      32.291  27.755  23.650  1.00  0.00    -0.331 N 
ATOM     91  H   UNL A   1      32.508  28.250  24.514  1.00  0.00     0.348 HD
BRANCH  90  92
ATOM     92  C   UNL A   1      31.710  28.676  25.490  1.00  0.00     0.299 C 
BRANCH  92  93
ATOM     93  C   UNL A   1      32.707  29.648  26.676  1.00  0.00     0.006 A 
ATOM     94  C   UNL A   1      33.928  29.006  27.051  1.00  0.00     0.009 A 
ATOM     95  C   UNL A   1      32.502  30.981  27.078  1.00  0.00     0.009 A 
ATOM     96  C   UNL A   1      34.943  29.716  27.690  1.00  0.00     0.001 A 
ATOM     97  C   UNL A   1      33.541  31.681  27.709  1.00  0.00     0.001 A 
ATOM     98  C   UNL A   1      34.758  31.060  27.996  1.00  0.00     0.000 A 
ENDBRANCH  92  93
ENDBRANCH  90  92
ENDBRANCH  83  85
ENDBRANCH  75  81
ENDBRANCH  71  74
ENDBRANCH  69  70
ENDBRANCH   1  69
TORSDOF 17
ENDMDL
MODEL 3
REMARK VINA RESULT:     -13.6      2.362      9.334
REMARK SMILES O=C(NCCCNC(=O)[C@H]1[C@H](C(=O)NC2CC[NH+](Cc3ccccc3)CC2)[C@H]2C=C[C@@H]1C2)c1ccc(-c2c3nc(c(-c4ccc(S(=O)(=O)[O-])cc4)c4ccc([nH]4)c(-c4ccc(S(=O)(=O)[O-])cc4)c4nc(c(-c5ccc(S(=O)(=O)[O-])cc5)c5ccc2[nH]5)C=C4)C=C3)cc1
REMARK SMILES IDX 5 1 4 2 3 3 1 4 2 5 33 7 34 8 92 9 35 10 91 11 36 12 37 13
REMARK SMILES IDX 38 14 85 15 39 16 90 17 84 18 86 19 40 20 89 21 83 22 82 23
REMARK SMILES IDX 41 25 71 26 52 27 70 28 53 29 56 30 69 31 87 32 54 33 55 34
REMARK SMILES IDX 68 36 88 37 57 38 42 39 43 40 51 41 44 42 50 43 45 44 46 45
REMARK SMILES IDX 47 46 48 47 49 48 72 49 73 50 81 51 74 52 80 53 75 54 76 55
REMARK SMILES IDX 77 56 78 57 79 58 58 59 59 60 67 61 60 62 66 63 61 64 62 65
REMARK SMILES IDX 63 66 64 67 65 68 6 69 7 70 8 71 9 73 10 74 11 75 31 76
REMARK SMILES IDX 28 77 30 78 32 79 29 80 12 81 13 82 14 83 15 85 16 86 27 87
REMARK SMILES IDX 17 88 26 89 18 90 19 92 20 93 21 94 25 95 22 96 24 97 23 98
REMARK H PARENT 3 6 86 24 56 35 7 72 14 84 18 91
REMARK Flexibility Score: inf
ROOT
ATOM      1  C   UNL A   1      38.528  21.279  25.694  1.00  0.00     0.042 C 
ENDROOT
BRANCH   1   2
ATOM      2  C   UNL A   1      39.691  21.313  26.666  1.00  0.00     0.118 C 
BRANCH   2   3
ATOM      3  N   UNL A   1      40.658  20.268  26.349  1.00  0.00    -0.352 N 
ATOM      4  O   UNL A   1      42.467  19.383  25.369  1.00  0.00    -0.269 OA
ATOM      5  C   UNL A   1      41.972  20.353  25.943  1.00  0.00     0.251 C 
ATOM      6  H   UNL A   1      40.314  19.350  26.441  1.00  0.00     0.163 HD
BRANCH   5   7
ATOM      7  C   UNL A   1      42.804  21.560  26.193  1.00  0.00     0.039 A 
ATOM      8  C   UNL A   1      42.898  22.579  25.251  1.00  0.00     0.014 A 
ATOM      9  C   UNL A   1      43.395  21.751  27.452  1.00  0.00     0.014 A 
ATOM     10  C   UNL A   1      43.678  23.701  25.490  1.00  0.00     0.010 A 
ATOM     11  C   UNL A   1      44.037  22.962  27.757  1.00  0.00     0.010 A 
ATOM     12  C   UNL A   1      44.169  23.955  26.777  1.00  0.00    -0.014 A 
BRANCH  12  13
ATOM     13  C   UNL A   1      44.628  25.339  27.074  1.00  0.00     0.031 A 
ATOM     14  C   UNL A   1      46.020  25.797  26.758  1.00  0.00     0.074 A 
ATOM     15  C   UNL A   1      43.720  26.200  27.587  1.00  0.00     0.049 A 
ATOM     16  N   UNL A   1      46.540  26.987  26.914  1.00  0.00    -0.248 NA
ATOM     17  C   UNL A   1      46.954  24.801  26.210  1.00  0.00     0.031 C 
ATOM     18  C   UNL A   1      42.338  25.851  27.950  1.00  0.00     0.029 A 
ATOM     19  N   UNL A   1      43.787  27.544  27.849  1.00  0.00    -0.354 N 
ATOM     20  C   UNL A   1      47.866  26.880  26.513  1.00  0.00     0.074 A 
ATOM     21  C   UNL A   1      48.076  25.504  26.116  1.00  0.00     0.031 C 
ATOM     22  C   UNL A   1      41.669  26.961  28.284  1.00  0.00     0.029 A 
ATOM     23  C   UNL A   1      42.594  28.084  28.274  1.00  0.00     0.049 A 
ATOM     24  H   UNL A   1      44.611  28.074  27.742  1.00  0.00     0.167 HD
ATOM     25  C   UNL A   1      48.815  27.846  26.486  1.00  0.00     0.031 A 
ATOM     26  C   UNL A   1      42.276  29.337  28.648  1.00  0.00     0.031 A 
ATOM     27  C   UNL A   1      48.581  29.213  26.879  1.00  0.00     0.049 A 
ATOM     28  C   UNL A   1      43.357  30.376  28.624  1.00  0.00     0.074 A 
ATOM     29  C   UNL A   1      49.470  30.275  26.869  1.00  0.00     0.029 A 
ATOM     30  N   UNL A   1      47.374  29.709  27.353  1.00  0.00    -0.354 N 
ATOM     31  N   UNL A   1      44.600  30.255  28.223  1.00  0.00    -0.248 NA
ATOM     32  C   UNL A   1      43.002  31.712  29.113  1.00  0.00     0.031 C 
ATOM     33  C   UNL A   1      48.819  31.397  27.390  1.00  0.00     0.029 A 
ATOM     34  C   UNL A   1      47.504  31.053  27.665  1.00  0.00     0.049 A 
ATOM     35  H   UNL A   1      46.548  29.184  27.454  1.00  0.00     0.167 HD
ATOM     36  C   UNL A   1      45.175  31.504  28.404  1.00  0.00     0.074 A 
ATOM     37  C   UNL A   1      44.134  32.373  28.918  1.00  0.00     0.031 C 
ATOM     38  C   UNL A   1      46.452  31.896  28.176  1.00  0.00     0.031 A 
BRANCH  25  39
ATOM     39  C   UNL A   1      50.206  27.462  26.053  1.00  0.00    -0.014 A 
ATOM     40  C   UNL A   1      51.145  26.951  26.965  1.00  0.00     0.010 A 
ATOM     41  C   UNL A   1      50.552  27.541  24.690  1.00  0.00     0.010 A 
ATOM     42  C   UNL A   1      52.409  26.544  26.526  1.00  0.00     0.020 A 
ATOM     43  C   UNL A   1      51.806  27.113  24.244  1.00  0.00     0.020 A 
ATOM     44  C   UNL A   1      52.731  26.624  25.168  1.00  0.00     0.054 A 
BRANCH  44  45
ATOM     45  S   UNL A   1      54.359  26.039  24.619  1.00  0.00     0.124 S 
ATOM     46  O   UNL A   1      55.262  26.862  25.420  1.00  0.00    -0.237 OA
ATOM     47  O   UNL A   1      54.324  24.622  24.972  1.00  0.00    -0.237 OA
ATOM     48  O   UNL A   1      54.366  26.320  23.186  1.00  0.00    -0.744 OA
ENDBRANCH  44  45
ENDBRANCH  25  39
BRANCH  26  49
ATOM     49  C   UNL A   1      40.903  29.653  29.133  1.00  0.00    -0.014 A 
ATOM     50  C   UNL A   1      39.812  29.705  28.248  1.00  0.00     0.010 A 
ATOM     51  C   UNL A   1      40.680  29.907  30.500  1.00  0.00     0.010 A 
ATOM     52  C   UNL A   1      38.534  30.032  28.715  1.00  0.00     0.020 A 
ATOM     53  C   UNL A   1      39.400  30.196  30.977  1.00  0.00     0.020 A 
ATOM     54  C   UNL A   1      38.338  30.278  30.078  1.00  0.00     0.054 A 
BRANCH  54  55
ATOM     55  S   UNL A   1      36.671  30.680  30.669  1.00  0.00     0.124 S 
ATOM     56  O   UNL A   1      36.917  31.865  31.484  1.00  0.00    -0.237 OA
ATOM     57  O   UNL A   1      35.938  30.906  29.425  1.00  0.00    -0.237 OA
ATOM     58  O   UNL A   1      36.272  29.483  31.407  1.00  0.00    -0.744 OA
ENDBRANCH  54  55
ENDBRANCH  26  49
BRANCH  38  59
ATOM     59  C   UNL A   1      46.779  33.337  28.453  1.00  0.00    -0.014 A 
ATOM     60  C   UNL A   1      47.347  33.733  29.676  1.00  0.00     0.010 A 
ATOM     61  C   UNL A   1      46.545  34.303  27.457  1.00  0.00     0.010 A 
ATOM     62  C   UNL A   1      47.642  35.077  29.913  1.00  0.00     0.020 A 
ATOM     63  C   UNL A   1      46.867  35.642  27.679  1.00  0.00     0.020 A 
ATOM     64  C   UNL A   1      47.400  36.023  28.912  1.00  0.00     0.054 A 
BRANCH  64  65
ATOM     65  S   UNL A   1      47.828  37.755  29.228  1.00  0.00     0.124 S 
ATOM     66  O   UNL A   1      47.044  38.049  30.423  1.00  0.00    -0.237 OA
ATOM     67  O   UNL A   1      49.275  37.696  29.424  1.00  0.00    -0.237 OA
ATOM     68  O   UNL A   1      47.399  38.446  28.014  1.00  0.00    -0.744 OA
ENDBRANCH  64  65
ENDBRANCH  38  59
ENDBRANCH  12  13
ENDBRANCH   5   7
ENDBRANCH   2   3
ENDBRANCH   1   2
BRANCH   1  69
ATOM     69  C   UNL A   1      37.751  22.589  25.644  1.00  0.00     0.117 C 
BRANCH  69  70
ATOM     70  N   UNL A   1      37.407  22.915  24.271  1.00  0.00    -0.356 N 
ATOM     71  C   UNL A   1      36.309  22.991  23.502  1.00  0.00     0.224 C 
ATOM     72  H   UNL A   1      38.213  23.148  23.755  1.00  0.00     0.163 HD
ATOM     73  O   UNL A   1      36.645  22.953  22.295  1.00  0.00    -0.275 OA
BRANCH  71  74
ATOM     74  C   UNL A   1      34.789  23.387  23.747  1.00  0.00     0.098 C 
ATOM     75  C   UNL A   1      32.791  23.772  23.125  1.00  0.00     0.098 C 
ATOM     76  C   UNL A   1      34.465  21.792  25.039  1.00  0.00     0.025 C 
ATOM     77  C   UNL A   1      31.883  22.130  24.155  1.00  0.00     0.025 C 
ATOM     78  C   UNL A   1      33.802  20.307  24.531  1.00  0.00    -0.027 C 
ATOM     79  C   UNL A   1      32.777  21.717  25.759  1.00  0.00     0.017 C 
ATOM     80  C   UNL A   1      32.481  20.434  24.102  1.00  0.00    -0.027 C 
BRANCH  75  81
ATOM     81  C   UNL A   1      32.817  25.408  23.155  1.00  0.00     0.224 C 
ATOM     82  O   UNL A   1      32.639  26.001  22.076  1.00  0.00    -0.275 OA
ATOM     83  N   UNL A   1      33.162  26.268  24.155  1.00  0.00    -0.353 N 
ATOM     84  H   UNL A   1      33.467  27.146  23.830  1.00  0.00     0.163 HD
BRANCH  83  85
ATOM     85  C   UNL A   1      33.170  26.150  25.602  1.00  0.00     0.093 C 
ATOM     86  C   UNL A   1      31.987  25.473  26.253  1.00  0.00     0.086 C 
ATOM     87  C   UNL A   1      33.268  27.496  26.214  1.00  0.00     0.086 C 
ATOM     88  C   UNL A   1      30.632  25.998  25.789  1.00  0.00     0.264 C 
ATOM     89  C   UNL A   1      32.059  28.263  25.751  1.00  0.00     0.264 C 
ATOM     90  N   UNL A   1      30.649  27.441  25.040  1.00  0.00    -0.331 N 
ATOM     91  H   UNL A   1      29.788  27.504  24.497  1.00  0.00     0.348 HD
BRANCH  90  92
ATOM     92  C   UNL A   1      29.452  28.318  23.501  1.00  0.00     0.299 C 
BRANCH  92  93
ATOM     93  C   UNL A   1      29.264  30.075  23.024  1.00  0.00     0.006 A 
ATOM     94  C   UNL A   1      29.079  30.264  21.619  1.00  0.00     0.009 A 
ATOM     95  C   UNL A   1      29.088  31.181  23.876  1.00  0.00     0.009 A 
ATOM     96  C   UNL A   1      28.619  31.479  21.116  1.00  0.00     0.001 A 
ATOM     97  C   UNL A   1      28.611  32.390  23.351  1.00  0.00     0.001 A 
ATOM     98  C   UNL A   1      28.361  32.533  21.985  1.00  0.00     0.000 A 
ENDBRANCH  92  93
ENDBRANCH  90  92
ENDBRANCH  83  85
ENDBRANCH  75  81
ENDBRANCH  71  74
ENDBRANCH  69  70
ENDBRANCH   1  69
TORSDOF 17
ENDMDL
