MODEL 1
REMARK VINA RESULT:      -9.7      0.000      0.000
REMARK SMILES CCC[N@H+](CC)[C@H]1CC[C@]([NH2+]C)(C(=O)NCCCNC(=O)c2ccc(-c3c4nc(c(-c5ccc(S(=O)(=O)[O-])cc5)c5ccc([nH]5)c(-c5ccc(S(=O)(=O)[O-])cc5)c5nc(c(-c6ccc(S(=O)(=O)[O-])cc6)c6ccc3[nH]6)C=C5)C=C4)cc2)C1
REMARK SMILES IDX 17 1 16 2 15 3 13 4 14 5 10 7 7 8 8 9 82 10 9 11 4 12 3 14
REMARK SMILES IDX 2 15 1 16 5 17 6 18 11 19 12 20 18 23 19 24 20 25 21 27
REMARK SMILES IDX 22 28 23 29 81 30 24 31 80 32 25 33 26 34 27 35 74 36 28 37
REMARK SMILES IDX 79 38 73 39 75 40 29 41 78 42 72 43 71 44 30 46 60 47 41 48
REMARK SMILES IDX 59 49 42 50 45 51 58 52 76 53 43 54 44 55 57 57 77 58 46 59
REMARK SMILES IDX 31 60 32 61 40 62 33 63 39 64 34 65 35 66 36 67 37 68 38 69
REMARK SMILES IDX 61 70 62 71 70 72 63 73 69 74 64 75 65 76 66 77 67 78 68 79
REMARK SMILES IDX 47 80 48 81 56 82 49 83 55 84 50 85 51 86 52 87 53 88 54 89
REMARK H PARENT 15 6 4 13 11 21 11 22 19 26 75 45 45 56
REMARK Flexibility Score: inf
ROOT
ATOM      1  C   UNL A   1      32.335  28.016  26.556  1.00  0.00     0.042 C 
ENDROOT
BRANCH   1   2
ATOM      2  C   UNL A   1      32.477  27.434  25.162  1.00  0.00     0.118 C 
BRANCH   2   3
ATOM      3  N   UNL A   1      31.463  26.425  24.855  1.00  0.00    -0.351 N 
ATOM      4  C   UNL A   1      31.591  25.068  24.648  1.00  0.00     0.281 C 
ATOM      5  O   UNL A   1      30.567  24.412  24.453  1.00  0.00    -0.268 OA
ATOM      6  H   UNL A   1      30.544  26.770  24.786  1.00  0.00     0.163 HD
BRANCH   4   7
ATOM      7  C   UNL A   1      33.017  24.433  24.703  1.00  0.00     0.181 C 
ATOM      8  C   UNL A   1      33.946  22.268  25.566  1.00  0.00     0.191 C 
ATOM      9  C   UNL A   1      34.485  23.410  26.439  1.00  0.00     0.072 C 
ATOM     10  C   UNL A   1      32.781  22.899  24.803  1.00  0.00     0.144 C 
ATOM     11  C   UNL A   1      33.753  24.700  26.034  1.00  0.00     0.085 C 
BRANCH   8  12
ATOM     12  N   UNL A   1      34.877  21.538  24.676  1.00  0.00    -0.333 N 
ATOM     13  H   UNL A   1      34.459  21.628  23.750  1.00  0.00     0.348 HD
BRANCH  12  14
ATOM     14  C   UNL A   1      34.932  20.097  24.931  1.00  0.00     0.262 C 
BRANCH  14  15
ATOM     15  C   UNL A   1      33.728  19.320  24.368  1.00  0.00     0.058 C 
ATOM     16  C   UNL A   1      32.784  18.796  25.444  1.00  0.00     0.010 C 
ENDBRANCH  14  15
ENDBRANCH  12  14
BRANCH  12  17
ATOM     17  C   UNL A   1      36.195  22.162  24.537  1.00  0.00     0.258 C 
ATOM     18  C   UNL A   1      36.509  22.832  23.205  1.00  0.00     0.071 C 
ENDBRANCH  12  17
ENDBRANCH   8  12
BRANCH   7  19
ATOM     19  N   UNL A   1      33.719  24.871  23.465  1.00  0.00    -0.336 N 
ATOM     20  C   UNL A   1      33.085  24.696  22.177  1.00  0.00     0.331 C 
ATOM     21  H   UNL A   1      34.602  24.362  23.430  1.00  0.00     0.346 HD
ATOM     22  H   UNL A   1      33.769  25.884  23.568  1.00  0.00     0.346 HD
ENDBRANCH   7  19
ENDBRANCH   4   7
ENDBRANCH   2   3
ENDBRANCH   1   2
BRANCH   1  23
ATOM     23  C   UNL A   1      33.660  28.479  27.130  1.00  0.00     0.118 C 
BRANCH  23  24
ATOM     24  N   UNL A   1      33.634  29.890  27.507  1.00  0.00    -0.352 N 
ATOM     25  C   UNL A   1      34.553  30.643  28.195  1.00  0.00     0.251 C 
ATOM     26  H   UNL A   1      32.829  30.379  27.223  1.00  0.00     0.163 HD
ATOM     27  O   UNL A   1      34.236  31.746  28.624  1.00  0.00    -0.269 OA
BRANCH  25  28
ATOM     28  C   UNL A   1      35.913  30.113  28.421  1.00  0.00     0.039 A 
ATOM     29  C   UNL A   1      36.863  30.208  27.401  1.00  0.00     0.014 A 
ATOM     30  C   UNL A   1      36.246  29.520  29.640  1.00  0.00     0.014 A 
ATOM     31  C   UNL A   1      38.167  29.771  27.638  1.00  0.00     0.010 A 
ATOM     32  C   UNL A   1      37.568  29.198  29.911  1.00  0.00     0.010 A 
ATOM     33  C   UNL A   1      38.539  29.304  28.909  1.00  0.00    -0.014 A 
BRANCH  33  34
ATOM     34  C   UNL A   1      39.937  28.910  29.212  1.00  0.00     0.031 A 
ATOM     35  C   UNL A   1      40.867  29.886  29.882  1.00  0.00     0.074 A 
ATOM     36  C   UNL A   1      40.386  27.702  28.818  1.00  0.00     0.049 A 
ATOM     37  N   UNL A   1      42.129  29.741  30.190  1.00  0.00    -0.248 NA
ATOM     38  C   UNL A   1      40.316  31.208  30.222  1.00  0.00     0.031 C 
ATOM     39  C   UNL A   1      39.592  26.691  28.114  1.00  0.00     0.029 A 
ATOM     40  N   UNL A   1      41.619  27.119  28.953  1.00  0.00    -0.354 N 
ATOM     41  C   UNL A   1      42.527  30.957  30.734  1.00  0.00     0.074 A 
ATOM     42  C   UNL A   1      41.390  31.846  30.658  1.00  0.00     0.031 C 
ATOM     43  C   UNL A   1      40.344  25.595  27.925  1.00  0.00     0.029 A 
ATOM     44  C   UNL A   1      41.685  25.844  28.446  1.00  0.00     0.049 A 
ATOM     45  H   UNL A   1      42.385  27.571  29.374  1.00  0.00     0.167 HD
ATOM     46  C   UNL A   1      43.723  31.296  31.272  1.00  0.00     0.031 A 
ATOM     47  C   UNL A   1      42.709  24.970  28.405  1.00  0.00     0.031 A 
ATOM     48  C   UNL A   1      44.846  30.401  31.350  1.00  0.00     0.049 A 
ATOM     49  C   UNL A   1      44.031  25.371  28.995  1.00  0.00     0.074 A 
ATOM     50  C   UNL A   1      46.080  30.619  31.934  1.00  0.00     0.029 A 
ATOM     51  N   UNL A   1      44.874  29.119  30.819  1.00  0.00    -0.354 N 
ATOM     52  N   UNL A   1      44.365  26.497  29.580  1.00  0.00    -0.248 NA
ATOM     53  C   UNL A   1      45.112  24.379  28.931  1.00  0.00     0.031 C 
ATOM     54  C   UNL A   1      46.878  29.493  31.698  1.00  0.00     0.029 A 
ATOM     55  C   UNL A   1      46.117  28.546  31.032  1.00  0.00     0.049 A 
ATOM     56  H   UNL A   1      44.121  28.680  30.361  1.00  0.00     0.167 HD
ATOM     57  C   UNL A   1      45.688  26.339  29.978  1.00  0.00     0.074 A 
ATOM     58  C   UNL A   1      46.085  25.002  29.580  1.00  0.00     0.031 C 
ATOM     59  C   UNL A   1      46.499  27.218  30.617  1.00  0.00     0.031 A 
BRANCH  46  60
ATOM     60  C   UNL A   1      43.876  32.703  31.792  1.00  0.00    -0.014 A 
ATOM     61  C   UNL A   1      44.288  33.756  30.953  1.00  0.00     0.010 A 
ATOM     62  C   UNL A   1      43.593  32.981  33.142  1.00  0.00     0.010 A 
ATOM     63  C   UNL A   1      44.472  35.042  31.467  1.00  0.00     0.020 A 
ATOM     64  C   UNL A   1      43.741  34.274  33.652  1.00  0.00     0.020 A 
ATOM     65  C   UNL A   1      44.202  35.292  32.815  1.00  0.00     0.054 A 
BRANCH  65  66
ATOM     66  S   UNL A   1      44.451  36.970  33.455  1.00  0.00     0.124 S 
ATOM     67  O   UNL A   1      45.335  37.549  32.446  1.00  0.00    -0.237 OA
ATOM     68  O   UNL A   1      43.093  37.508  33.481  1.00  0.00    -0.237 OA
ATOM     69  O   UNL A   1      45.059  36.756  34.765  1.00  0.00    -0.744 OA
ENDBRANCH  65  66
ENDBRANCH  46  60
BRANCH  47  70
ATOM     70  C   UNL A   1      42.505  23.619  27.813  1.00  0.00    -0.014 A 
ATOM     71  C   UNL A   1      42.851  23.371  26.473  1.00  0.00     0.010 A 
ATOM     72  C   UNL A   1      41.999  22.563  28.594  1.00  0.00     0.010 A 
ATOM     73  C   UNL A   1      42.690  22.097  25.922  1.00  0.00     0.020 A 
ATOM     74  C   UNL A   1      41.863  21.280  28.056  1.00  0.00     0.020 A 
ATOM     75  C   UNL A   1      42.203  21.057  26.720  1.00  0.00     0.054 A 
BRANCH  75  76
ATOM     76  S   UNL A   1      42.069  19.396  26.001  1.00  0.00     0.124 S 
ATOM     77  O   UNL A   1      40.635  19.283  25.762  1.00  0.00    -0.237 OA
ATOM     78  O   UNL A   1      42.904  19.504  24.807  1.00  0.00    -0.237 OA
ATOM     79  O   UNL A   1      42.601  18.526  27.048  1.00  0.00    -0.744 OA
ENDBRANCH  75  76
ENDBRANCH  47  70
BRANCH  59  80
ATOM     80  C   UNL A   1      47.893  26.754  30.953  1.00  0.00    -0.014 A 
ATOM     81  C   UNL A   1      48.971  26.986  30.081  1.00  0.00     0.010 A 
ATOM     82  C   UNL A   1      48.133  26.121  32.187  1.00  0.00     0.010 A 
ATOM     83  C   UNL A   1      50.257  26.558  30.420  1.00  0.00     0.020 A 
ATOM     84  C   UNL A   1      49.422  25.722  32.545  1.00  0.00     0.020 A 
ATOM     85  C   UNL A   1      50.475  25.930  31.651  1.00  0.00     0.054 A 
BRANCH  85  86
ATOM     86  S   UNL A   1      52.161  25.421  32.084  1.00  0.00     0.124 S 
ATOM     87  O   UNL A   1      52.409  26.193  33.298  1.00  0.00    -0.237 OA
ATOM     88  O   UNL A   1      52.020  23.979  32.273  1.00  0.00    -0.237 OA
ATOM     89  O   UNL A   1      52.952  25.817  30.920  1.00  0.00    -0.744 OA
ENDBRANCH  85  86
ENDBRANCH  59  80
ENDBRANCH  33  34
ENDBRANCH  25  28
ENDBRANCH  23  24
ENDBRANCH   1  23
TORSDOF 18
ENDMDL
MODEL 2
REMARK VINA RESULT:      -9.4      3.459      8.416
REMARK SMILES CCC[N@H+](CC)[C@H]1CC[C@]([NH2+]C)(C(=O)NCCCNC(=O)c2ccc(-c3c4nc(c(-c5ccc(S(=O)(=O)[O-])cc5)c5ccc([nH]5)c(-c5ccc(S(=O)(=O)[O-])cc5)c5nc(c(-c6ccc(S(=O)(=O)[O-])cc6)c6ccc3[nH]6)C=C5)C=C4)cc2)C1
REMARK SMILES IDX 17 1 16 2 15 3 13 4 14 5 10 7 7 8 8 9 82 10 9 11 4 12 3 14
REMARK SMILES IDX 2 15 1 16 5 17 6 18 11 19 12 20 18 23 19 24 20 25 21 27
REMARK SMILES IDX 22 28 23 29 81 30 24 31 80 32 25 33 26 34 27 35 74 36 28 37
REMARK SMILES IDX 79 38 73 39 75 40 29 41 78 42 72 43 71 44 30 46 60 47 41 48
REMARK SMILES IDX 59 49 42 50 45 51 58 52 76 53 43 54 44 55 57 57 77 58 46 59
REMARK SMILES IDX 31 60 32 61 40 62 33 63 39 64 34 65 35 66 36 67 37 68 38 69
REMARK SMILES IDX 61 70 62 71 70 72 63 73 69 74 64 75 65 76 66 77 67 78 68 79
REMARK SMILES IDX 47 80 48 81 56 82 49 83 55 84 50 85 51 86 52 87 53 88 54 89
REMARK H PARENT 15 6 4 13 11 21 11 22 19 26 75 45 45 56
REMARK Flexibility Score: inf
ROOT
ATOM      1  C   UNL A   1      38.137  19.966  25.004  1.00  0.00     0.042 C 
ENDROOT
BRANCH   1   2
ATOM      2  C   UNL A   1      37.003  20.973  25.050  1.00  0.00     0.118 C 
BRANCH   2   3
ATOM      3  N   UNL A   1      35.686  20.349  25.178  1.00  0.00    -0.351 N 
ATOM      4  C   UNL A   1      34.426  20.900  25.083  1.00  0.00     0.281 C 
ATOM      5  O   UNL A   1      33.455  20.149  25.179  1.00  0.00    -0.268 OA
ATOM      6  H   UNL A   1      35.702  19.383  25.363  1.00  0.00     0.163 HD
BRANCH   4   7
ATOM      7  C   UNL A   1      34.298  22.436  24.827  1.00  0.00     0.181 C 
ATOM      8  C   UNL A   1      32.598  23.895  23.698  1.00  0.00     0.191 C 
ATOM      9  C   UNL A   1      33.889  23.924  22.869  1.00  0.00     0.072 C 
ATOM     10  C   UNL A   1      32.778  22.695  24.628  1.00  0.00     0.144 C 
ATOM     11  C   UNL A   1      34.848  22.874  23.452  1.00  0.00     0.085 C 
BRANCH   8  12
ATOM     12  N   UNL A   1      32.177  25.115  24.423  1.00  0.00    -0.333 N 
ATOM     13  H   UNL A   1      31.467  25.532  23.821  1.00  0.00     0.348 HD
BRANCH  12  14
ATOM     14  C   UNL A   1      33.227  26.131  24.531  1.00  0.00     0.262 C 
BRANCH  14  15
ATOM     15  C   UNL A   1      33.596  26.492  25.981  1.00  0.00     0.058 C 
ATOM     16  C   UNL A   1      33.446  27.976  26.297  1.00  0.00     0.010 C 
ENDBRANCH  14  15
ENDBRANCH  12  14
BRANCH  12  17
ATOM     17  C   UNL A   1      31.476  24.858  25.683  1.00  0.00     0.258 C 
ATOM     18  C   UNL A   1      30.089  25.469  25.843  1.00  0.00     0.071 C 
ENDBRANCH  12  17
ENDBRANCH   8  12
BRANCH   7  19
ATOM     19  N   UNL A   1      34.890  23.110  26.016  1.00  0.00    -0.336 N 
ATOM     20  C   UNL A   1      34.298  22.918  27.321  1.00  0.00     0.331 C 
ATOM     21  H   UNL A   1      34.870  24.112  25.827  1.00  0.00     0.346 HD
ATOM     22  H   UNL A   1      35.806  22.670  26.105  1.00  0.00     0.346 HD
ENDBRANCH   7  19
ENDBRANCH   4   7
ENDBRANCH   2   3
ENDBRANCH   1   2
BRANCH   1  23
ATOM     23  C   UNL A   1      39.357  20.428  25.776  1.00  0.00     0.118 C 
BRANCH  23  24
ATOM     24  N   UNL A   1      40.319  19.348  25.985  1.00  0.00    -0.352 N 
ATOM     25  C   UNL A   1      41.684  19.389  26.125  1.00  0.00     0.251 C 
ATOM     26  H   UNL A   1      39.925  18.447  26.031  1.00  0.00     0.163 HD
ATOM     27  O   UNL A   1      42.334  18.354  26.044  1.00  0.00    -0.269 OA
BRANCH  25  28
ATOM     28  C   UNL A   1      42.358  20.682  26.362  1.00  0.00     0.039 A 
ATOM     29  C   UNL A   1      42.826  21.420  25.272  1.00  0.00     0.014 A 
ATOM     30  C   UNL A   1      42.528  21.161  27.662  1.00  0.00     0.014 A 
ATOM     31  C   UNL A   1      43.400  22.673  25.490  1.00  0.00     0.010 A 
ATOM     32  C   UNL A   1      42.987  22.454  27.865  1.00  0.00     0.010 A 
ATOM     33  C   UNL A   1      43.444  23.217  26.784  1.00  0.00    -0.014 A 
BRANCH  33  34
ATOM     34  C   UNL A   1      43.974  24.581  27.035  1.00  0.00     0.031 A 
ATOM     35  C   UNL A   1      43.048  25.677  27.490  1.00  0.00     0.074 A 
ATOM     36  C   UNL A   1      45.270  24.845  26.782  1.00  0.00     0.049 A 
ATOM     37  N   UNL A   1      43.314  26.936  27.720  1.00  0.00    -0.248 NA
ATOM     38  C   UNL A   1      41.632  25.320  27.681  1.00  0.00     0.031 C 
ATOM     39  C   UNL A   1      46.253  23.876  26.288  1.00  0.00     0.029 A 
ATOM     40  N   UNL A   1      45.986  26.007  26.906  1.00  0.00    -0.354 N 
ATOM     41  C   UNL A   1      42.100  27.523  28.057  1.00  0.00     0.074 A 
ATOM     42  C   UNL A   1      41.088  26.498  27.941  1.00  0.00     0.031 C 
ATOM     43  C   UNL A   1      47.452  24.472  26.199  1.00  0.00     0.029 A 
ATOM     44  C   UNL A   1      47.314  25.875  26.579  1.00  0.00     0.049 A 
ATOM     45  H   UNL A   1      45.587  26.857  27.201  1.00  0.00     0.167 HD
ATOM     46  C   UNL A   1      41.852  28.795  28.450  1.00  0.00     0.031 A 
ATOM     47  C   UNL A   1      48.312  26.780  26.585  1.00  0.00     0.031 A 
ATOM     48  C   UNL A   1      42.868  29.807  28.570  1.00  0.00     0.049 A 
ATOM     49  C   UNL A   1      48.012  28.189  27.013  1.00  0.00     0.074 A 
ATOM     50  C   UNL A   1      42.738  31.106  29.024  1.00  0.00     0.029 A 
ATOM     51  N   UNL A   1      44.201  29.633  28.224  1.00  0.00    -0.354 N 
ATOM     52  N   UNL A   1      46.873  28.706  27.407  1.00  0.00    -0.248 NA
ATOM     53  C   UNL A   1      49.136  29.134  27.008  1.00  0.00     0.031 C 
ATOM     54  C   UNL A   1      43.978  31.739  28.890  1.00  0.00     0.029 A 
ATOM     55  C   UNL A   1      44.897  30.814  28.422  1.00  0.00     0.049 A 
ATOM     56  H   UNL A   1      44.593  28.795  27.890  1.00  0.00     0.167 HD
ATOM     57  C   UNL A   1      47.148  30.032  27.724  1.00  0.00     0.074 A 
ATOM     58  C   UNL A   1      48.565  30.229  27.489  1.00  0.00     0.031 C 
ATOM     59  C   UNL A   1      46.306  30.997  28.170  1.00  0.00     0.031 A 
BRANCH  46  60
ATOM     60  C   UNL A   1      40.421  29.161  28.755  1.00  0.00    -0.014 A 
ATOM     61  C   UNL A   1      39.512  29.486  27.731  1.00  0.00     0.010 A 
ATOM     62  C   UNL A   1      39.973  29.169  30.089  1.00  0.00     0.010 A 
ATOM     63  C   UNL A   1      38.204  29.871  28.038  1.00  0.00     0.020 A 
ATOM     64  C   UNL A   1      38.656  29.519  30.399  1.00  0.00     0.020 A 
ATOM     65  C   UNL A   1      37.786  29.890  29.372  1.00  0.00     0.054 A 
BRANCH  65  66
ATOM     66  S   UNL A   1      36.085  30.395  29.741  1.00  0.00     0.124 S 
ATOM     67  O   UNL A   1      35.336  29.735  28.674  1.00  0.00    -0.237 OA
ATOM     68  O   UNL A   1      35.873  29.853  31.081  1.00  0.00    -0.237 OA
ATOM     69  O   UNL A   1      36.129  31.852  29.661  1.00  0.00    -0.744 OA
ENDBRANCH  65  66
ENDBRANCH  46  60
BRANCH  47  70
ATOM     70  C   UNL A   1      49.690  26.364  26.206  1.00  0.00    -0.014 A 
ATOM     71  C   UNL A   1      50.163  26.582  24.900  1.00  0.00     0.010 A 
ATOM     72  C   UNL A   1      50.550  25.783  27.156  1.00  0.00     0.010 A 
ATOM     73  C   UNL A   1      51.467  26.220  24.548  1.00  0.00     0.020 A 
ATOM     74  C   UNL A   1      51.864  25.447  26.816  1.00  0.00     0.020 A 
ATOM     75  C   UNL A   1      52.312  25.661  25.511  1.00  0.00     0.054 A 
BRANCH  75  76
ATOM     76  S   UNL A   1      54.021  25.266  25.048  1.00  0.00     0.124 S 
ATOM     77  O   UNL A   1      54.774  25.804  26.176  1.00  0.00    -0.237 OA
ATOM     78  O   UNL A   1      53.988  23.809  24.946  1.00  0.00    -0.237 OA
ATOM     79  O   UNL A   1      54.204  25.969  23.781  1.00  0.00    -0.744 OA
ENDBRANCH  75  76
ENDBRANCH  47  70
BRANCH  59  80
ATOM     80  C   UNL A   1      46.899  32.350  28.464  1.00  0.00    -0.014 A 
ATOM     81  C   UNL A   1      46.985  33.342  27.471  1.00  0.00     0.010 A 
ATOM     82  C   UNL A   1      47.332  32.648  29.770  1.00  0.00     0.010 A 
ATOM     83  C   UNL A   1      47.527  34.595  27.770  1.00  0.00     0.020 A 
ATOM     84  C   UNL A   1      47.842  33.910  30.081  1.00  0.00     0.020 A 
ATOM     85  C   UNL A   1      47.951  34.871  29.073  1.00  0.00     0.054 A 
BRANCH  85  86
ATOM     86  S   UNL A   1      48.614  36.519  29.444  1.00  0.00     0.124 S 
ATOM     87  O   UNL A   1      48.329  37.244  28.209  1.00  0.00    -0.237 OA
ATOM     88  O   UNL A   1      47.830  36.924  30.608  1.00  0.00    -0.237 OA
ATOM     89  O   UNL A   1      50.030  36.271  29.708  1.00  0.00    -0.744 OA
ENDBRANCH  85  86
ENDBRANCH  59  80
ENDBRANCH  33  34
ENDBRANCH  25  28
ENDBRANCH  23  24
ENDBRANCH   1  23
TORSDOF 18
ENDMDL
MODEL 3
REMARK VINA RESULT:      -9.4      2.745      3.462
REMARK SMILES CCC[N@H+](CC)[C@H]1CC[C@]([NH2+]C)(C(=O)NCCCNC(=O)c2ccc(-c3c4nc(c(-c5ccc(S(=O)(=O)[O-])cc5)c5ccc([nH]5)c(-c5ccc(S(=O)(=O)[O-])cc5)c5nc(c(-c6ccc(S(=O)(=O)[O-])cc6)c6ccc3[nH]6)C=C5)C=C4)cc2)C1
REMARK SMILES IDX 17 1 16 2 15 3 13 4 14 5 10 7 7 8 8 9 82 10 9 11 4 12 3 14
REMARK SMILES IDX 2 15 1 16 5 17 6 18 11 19 12 20 18 23 19 24 20 25 21 27
REMARK SMILES IDX 22 28 23 29 81 30 24 31 80 32 25 33 26 34 27 35 74 36 28 37
REMARK SMILES IDX 79 38 73 39 75 40 29 41 78 42 72 43 71 44 30 46 60 47 41 48
REMARK SMILES IDX 59 49 42 50 45 51 58 52 76 53 43 54 44 55 57 57 77 58 46 59
REMARK SMILES IDX 31 60 32 61 40 62 33 63 39 64 34 65 35 66 36 67 37 68 38 69
REMARK SMILES IDX 61 70 62 71 70 72 63 73 69 74 64 75 65 76 66 77 67 78 68 79
REMARK SMILES IDX 47 80 48 81 56 82 49 83 55 84 50 85 51 86 52 87 53 88 54 89
REMARK H PARENT 15 6 4 13 11 21 11 22 19 26 75 45 45 56
REMARK Flexibility Score: inf
ROOT
ATOM      1  C   UNL A   1      33.514  29.000  24.804  1.00  0.00     0.042 C 
ENDROOT
BRANCH   1   2
ATOM      2  C   UNL A   1      33.044  27.593  24.487  1.00  0.00     0.118 C 
BRANCH   2   3
ATOM      3  N   UNL A   1      32.145  27.046  25.504  1.00  0.00    -0.351 N 
ATOM      4  C   UNL A   1      32.052  25.770  26.017  1.00  0.00     0.281 C 
ATOM      5  O   UNL A   1      31.236  25.564  26.916  1.00  0.00    -0.268 OA
ATOM      6  H   UNL A   1      31.506  27.691  25.882  1.00  0.00     0.163 HD
BRANCH   4   7
ATOM      7  C   UNL A   1      33.003  24.665  25.454  1.00  0.00     0.181 C 
ATOM      8  C   UNL A   1      34.410  22.863  26.486  1.00  0.00     0.191 C 
ATOM      9  C   UNL A   1      35.344  23.905  25.856  1.00  0.00     0.072 C 
ATOM     10  C   UNL A   1      33.054  23.567  26.553  1.00  0.00     0.144 C 
ATOM     11  C   UNL A   1      34.484  25.100  25.410  1.00  0.00     0.085 C 
BRANCH   8  12
ATOM     12  N   UNL A   1      34.319  21.515  25.881  1.00  0.00    -0.333 N 
ATOM     13  H   UNL A   1      34.697  20.893  26.596  1.00  0.00     0.348 HD
BRANCH  12  14
ATOM     14  C   UNL A   1      35.187  21.328  24.716  1.00  0.00     0.262 C 
BRANCH  14  15
ATOM     15  C   UNL A   1      36.383  20.394  24.976  1.00  0.00     0.058 C 
ATOM     16  C   UNL A   1      37.719  21.124  25.061  1.00  0.00     0.010 C 
ENDBRANCH  14  15
ENDBRANCH  12  14
BRANCH  12  17
ATOM     17  C   UNL A   1      32.949  21.035  25.676  1.00  0.00     0.258 C 
ATOM     18  C   UNL A   1      32.640  20.367  24.342  1.00  0.00     0.071 C 
ENDBRANCH  12  17
ENDBRANCH   8  12
BRANCH   7  19
ATOM     19  N   UNL A   1      32.411  24.220  24.162  1.00  0.00    -0.336 N 
ATOM     20  C   UNL A   1      33.244  24.125  22.983  1.00  0.00     0.331 C 
ATOM     21  H   UNL A   1      31.660  24.873  23.941  1.00  0.00     0.346 HD
ATOM     22  H   UNL A   1      32.149  23.251  24.344  1.00  0.00     0.346 HD
ENDBRANCH   7  19
ENDBRANCH   4   7
ENDBRANCH   2   3
ENDBRANCH   1   2
BRANCH   1  23
ATOM     23  C   UNL A   1      33.881  29.176  26.265  1.00  0.00     0.118 C 
BRANCH  23  24
ATOM     24  N   UNL A   1      33.686  30.549  26.721  1.00  0.00    -0.352 N 
ATOM     25  C   UNL A   1      34.339  31.263  27.696  1.00  0.00     0.251 C 
ATOM     26  H   UNL A   1      32.972  31.042  26.256  1.00  0.00     0.163 HD
ATOM     27  O   UNL A   1      33.864  32.319  28.096  1.00  0.00    -0.269 OA
BRANCH  25  28
ATOM     28  C   UNL A   1      35.602  30.747  28.261  1.00  0.00     0.039 A 
ATOM     29  C   UNL A   1      36.800  31.403  27.970  1.00  0.00     0.014 A 
ATOM     30  C   UNL A   1      35.600  29.612  29.074  1.00  0.00     0.014 A 
ATOM     31  C   UNL A   1      37.984  30.959  28.559  1.00  0.00     0.010 A 
ATOM     32  C   UNL A   1      36.755  29.247  29.750  1.00  0.00     0.010 A 
ATOM     33  C   UNL A   1      37.963  29.904  29.487  1.00  0.00    -0.014 A 
BRANCH  33  34
ATOM     34  C   UNL A   1      39.193  29.464  30.190  1.00  0.00     0.031 A 
ATOM     35  C   UNL A   1      39.619  30.145  31.462  1.00  0.00     0.074 A 
ATOM     36  C   UNL A   1      39.961  28.502  29.642  1.00  0.00     0.049 A 
ATOM     37  N   UNL A   1      40.680  29.931  32.196  1.00  0.00    -0.248 NA
ATOM     38  C   UNL A   1      38.758  31.231  31.961  1.00  0.00     0.031 C 
ATOM     39  C   UNL A   1      39.678  27.804  28.385  1.00  0.00     0.029 A 
ATOM     40  N   UNL A   1      41.137  27.944  30.072  1.00  0.00    -0.354 N 
ATOM     41  C   UNL A   1      40.627  30.867  33.222  1.00  0.00     0.074 A 
ATOM     42  C   UNL A   1      39.463  31.690  32.982  1.00  0.00     0.031 C 
ATOM     43  C   UNL A   1      40.626  26.878  28.173  1.00  0.00     0.029 A 
ATOM     44  C   UNL A   1      41.610  26.951  29.248  1.00  0.00     0.049 A 
ATOM     45  H   UNL A   1      41.599  28.228  30.894  1.00  0.00     0.167 HD
ATOM     46  C   UNL A   1      41.457  31.015  34.282  1.00  0.00     0.031 A 
ATOM     47  C   UNL A   1      42.712  26.183  29.347  1.00  0.00     0.031 A 
ATOM     48  C   UNL A   1      42.609  30.186  34.515  1.00  0.00     0.049 A 
ATOM     49  C   UNL A   1      43.627  26.372  30.525  1.00  0.00     0.074 A 
ATOM     50  C   UNL A   1      43.478  30.204  35.590  1.00  0.00     0.029 A 
ATOM     51  N   UNL A   1      43.057  29.194  33.654  1.00  0.00    -0.354 N 
ATOM     52  N   UNL A   1      43.516  27.209  31.529  1.00  0.00    -0.248 NA
ATOM     53  C   UNL A   1      44.811  25.505  30.588  1.00  0.00     0.031 C 
ATOM     54  C   UNL A   1      44.490  29.269  35.348  1.00  0.00     0.029 A 
ATOM     55  C   UNL A   1      44.211  28.618  34.157  1.00  0.00     0.049 A 
ATOM     56  H   UNL A   1      42.618  28.937  32.811  1.00  0.00     0.167 HD
ATOM     57  C   UNL A   1      44.601  26.950  32.359  1.00  0.00     0.074 A 
ATOM     58  C   UNL A   1      45.346  25.868  31.744  1.00  0.00     0.031 C 
ATOM     59  C   UNL A   1      44.947  27.550  33.525  1.00  0.00     0.031 A 
BRANCH  46  60
ATOM     60  C   UNL A   1      41.155  32.131  35.250  1.00  0.00    -0.014 A 
ATOM     61  C   UNL A   1      40.392  31.909  36.412  1.00  0.00     0.010 A 
ATOM     62  C   UNL A   1      41.652  33.423  35.000  1.00  0.00     0.010 A 
ATOM     63  C   UNL A   1      40.082  32.967  37.270  1.00  0.00     0.020 A 
ATOM     64  C   UNL A   1      41.374  34.478  35.875  1.00  0.00     0.020 A 
ATOM     65  C   UNL A   1      40.570  34.246  36.993  1.00  0.00     0.054 A 
BRANCH  65  66
ATOM     66  S   UNL A   1      40.150  35.600  38.123  1.00  0.00     0.124 S 
ATOM     67  O   UNL A   1      38.948  35.086  38.775  1.00  0.00    -0.237 OA
ATOM     68  O   UNL A   1      41.335  35.688  38.973  1.00  0.00    -0.237 OA
ATOM     69  O   UNL A   1      39.937  36.741  37.236  1.00  0.00    -0.744 OA
ENDBRANCH  65  66
ENDBRANCH  46  60
BRANCH  47  70
ATOM     70  C   UNL A   1      42.984  25.144  28.316  1.00  0.00    -0.014 A 
ATOM     71  C   UNL A   1      43.766  25.451  27.188  1.00  0.00     0.010 A 
ATOM     72  C   UNL A   1      42.497  23.834  28.473  1.00  0.00     0.010 A 
ATOM     73  C   UNL A   1      44.048  24.471  26.233  1.00  0.00     0.020 A 
ATOM     74  C   UNL A   1      42.802  22.843  27.536  1.00  0.00     0.020 A 
ATOM     75  C   UNL A   1      43.571  23.170  26.416  1.00  0.00     0.054 A 
BRANCH  75  76
ATOM     76  S   UNL A   1      44.011  21.899  25.199  1.00  0.00     0.124 S 
ATOM     77  O   UNL A   1      43.869  22.622  23.940  1.00  0.00    -0.237 OA
ATOM     78  O   UNL A   1      45.379  21.559  25.583  1.00  0.00    -0.237 OA
ATOM     79  O   UNL A   1      43.026  20.846  25.432  1.00  0.00    -0.744 OA
ENDBRANCH  75  76
ENDBRANCH  47  70
BRANCH  59  80
ATOM     80  C   UNL A   1      46.174  27.032  34.231  1.00  0.00    -0.014 A 
ATOM     81  C   UNL A   1      46.096  25.971  35.150  1.00  0.00     0.010 A 
ATOM     82  C   UNL A   1      47.432  27.587  33.930  1.00  0.00     0.010 A 
ATOM     83  C   UNL A   1      47.249  25.499  35.783  1.00  0.00     0.020 A 
ATOM     84  C   UNL A   1      48.591  27.096  34.534  1.00  0.00     0.020 A 
ATOM     85  C   UNL A   1      48.489  26.064  35.469  1.00  0.00     0.054 A 
BRANCH  85  86
ATOM     86  S   UNL A   1      49.975  25.406  36.276  1.00  0.00     0.124 S 
ATOM     87  O   UNL A   1      49.860  23.976  36.003  1.00  0.00    -0.237 OA
ATOM     88  O   UNL A   1      51.052  26.096  35.572  1.00  0.00    -0.237 OA
ATOM     89  O   UNL A   1      49.807  25.789  37.676  1.00  0.00    -0.744 OA
ENDBRANCH  85  86
ENDBRANCH  59  80
ENDBRANCH  33  34
ENDBRANCH  25  28
ENDBRANCH  23  24
ENDBRANCH   1  23
TORSDOF 18
ENDMDL
