MODEL 1
REMARK VINA RESULT:     -10.7      0.000      0.000
REMARK SMILES CCC([NH3+])(CC)C(=O)N1C[C@@H](O)C[C@H]1C(=O)NCCCNC(=O)c1ccc(-c2c3nc(c(-c4ccc(S(=O)(=O)[O-])cc4)c4ccc([nH]4)c(-c4ccc(S(=O)(=O)[O-])cc4)c4nc(c(-c5ccc(S(=O)(=O)[O-])cc5)c5ccc2[nH]5)C=C4)C=C3)cc1
REMARK SMILES IDX 19 1 18 2 17 3 15 4 16 5 14 7 9 8 10 9 11 10 13 11 7 12 8 13
REMARK SMILES IDX 3 14 2 15 1 16 4 17 5 21 6 22 12 23 20 25 21 26 22 27 23 29
REMARK SMILES IDX 24 30 25 31 83 32 26 33 82 34 27 35 28 36 29 37 76 38 30 39
REMARK SMILES IDX 81 40 75 41 77 42 31 43 80 44 74 45 73 46 32 48 62 49 43 50
REMARK SMILES IDX 61 51 44 52 47 53 60 54 78 55 45 56 46 57 59 59 79 60 48 61
REMARK SMILES IDX 33 62 34 63 42 64 35 65 41 66 36 67 37 68 38 69 39 70 40 71
REMARK SMILES IDX 63 72 64 73 72 74 65 75 71 76 66 77 67 78 68 79 69 80 70 81
REMARK SMILES IDX 49 82 50 83 58 84 51 85 57 86 52 87 53 88 54 89 55 90 56 91
REMARK H PARENT 17 6 4 18 4 19 4 20 12 24 21 28 77 47 47 58
REMARK Flexibility Score: inf
ROOT
ATOM      1  C   UNL A   1      38.471  22.647  26.408  1.00  0.00     0.042 C 
ENDROOT
BRANCH   1   2
ATOM      2  C   UNL A   1      39.582  21.652  26.134  1.00  0.00     0.117 C 
BRANCH   2   3
ATOM      3  N   UNL A   1      40.556  21.588  27.200  1.00  0.00    -0.354 N 
ATOM      4  C   UNL A   1      41.874  21.244  27.166  1.00  0.00     0.242 C 
ATOM      5  O   UNL A   1      42.552  21.521  28.162  1.00  0.00    -0.273 OA
ATOM      6  H   UNL A   1      40.214  21.832  28.091  1.00  0.00     0.163 HD
BRANCH   4   7
ATOM      7  C   UNL A   1      42.557  20.739  25.876  1.00  0.00     0.177 C 
ATOM      8  N   UNL A   1      43.903  21.230  25.550  1.00  0.00    -0.323 N 
ATOM      9  C   UNL A   1      44.830  20.139  25.319  1.00  0.00     0.152 C 
ATOM     10  C   UNL A   1      43.987  18.867  25.260  1.00  0.00     0.136 C 
ATOM     11  C   UNL A   1      42.655  19.211  25.912  1.00  0.00     0.069 C 
BRANCH   8  12
ATOM     12  C   UNL A   1      44.056  22.588  25.315  1.00  0.00     0.284 C 
ATOM     13  O   UNL A   1      43.546  23.065  24.295  1.00  0.00    -0.268 OA
BRANCH  12  14
ATOM     14  C   UNL A   1      44.961  23.489  26.246  1.00  0.00     0.173 C 
BRANCH  14  15
ATOM     15  C   UNL A   1      46.359  23.734  25.586  1.00  0.00     0.075 C 
ATOM     16  C   UNL A   1      46.603  25.100  24.938  1.00  0.00     0.011 C 
ENDBRANCH  14  15
BRANCH  14  17
ATOM     17  N   UNL A   1      45.205  22.751  27.519  1.00  0.00    -0.345 N 
ATOM     18  H   UNL A   1      46.011  23.154  27.996  1.00  0.00     0.345 HD
ATOM     19  H   UNL A   1      45.387  21.769  27.312  1.00  0.00     0.345 HD
ATOM     20  H   UNL A   1      44.381  22.826  28.117  1.00  0.00     0.345 HD
ENDBRANCH  14  17
BRANCH  14  21
ATOM     21  C   UNL A   1      44.338  24.865  26.593  1.00  0.00     0.075 C 
ATOM     22  C   UNL A   1      44.287  25.192  28.079  1.00  0.00     0.011 C 
ENDBRANCH  14  21
ENDBRANCH  12  14
ENDBRANCH   8  12
BRANCH  10  23
ATOM     23  O   UNL A   1      44.608  17.775  25.924  1.00  0.00    -0.391 OA
ATOM     24  H   UNL A   1      45.364  17.466  25.400  1.00  0.00     0.211 HD
ENDBRANCH  10  23
ENDBRANCH   4   7
ENDBRANCH   2   3
ENDBRANCH   1   2
BRANCH   1  25
ATOM     25  C   UNL A   1      38.973  24.035  26.782  1.00  0.00     0.118 C 
BRANCH  25  26
ATOM     26  N   UNL A   1      40.043  24.497  25.904  1.00  0.00    -0.352 N 
ATOM     27  C   UNL A   1      40.820  25.625  25.969  1.00  0.00     0.251 C 
ATOM     28  H   UNL A   1      40.240  23.903  25.143  1.00  0.00     0.163 HD
ATOM     29  O   UNL A   1      41.520  25.932  25.005  1.00  0.00    -0.269 OA
BRANCH  27  30
ATOM     30  C   UNL A   1      40.806  26.474  27.178  1.00  0.00     0.039 A 
ATOM     31  C   UNL A   1      41.623  27.608  27.224  1.00  0.00     0.014 A 
ATOM     32  C   UNL A   1      40.003  26.148  28.272  1.00  0.00     0.014 A 
ATOM     33  C   UNL A   1      41.574  28.450  28.336  1.00  0.00     0.010 A 
ATOM     34  C   UNL A   1      39.885  27.036  29.335  1.00  0.00     0.010 A 
ATOM     35  C   UNL A   1      40.674  28.194  29.382  1.00  0.00    -0.014 A 
BRANCH  35  36
ATOM     36  C   UNL A   1      40.538  29.120  30.535  1.00  0.00     0.031 A 
ATOM     37  C   UNL A   1      41.394  28.932  31.760  1.00  0.00     0.074 A 
ATOM     38  C   UNL A   1      39.596  30.083  30.506  1.00  0.00     0.049 A 
ATOM     39  N   UNL A   1      41.368  29.588  32.891  1.00  0.00    -0.248 NA
ATOM     40  C   UNL A   1      42.389  27.847  31.720  1.00  0.00     0.031 C 
ATOM     41  C   UNL A   1      38.676  30.339  29.395  1.00  0.00     0.029 A 
ATOM     42  N   UNL A   1      39.245  31.022  31.445  1.00  0.00    -0.354 N 
ATOM     43  C   UNL A   1      42.324  28.986  33.701  1.00  0.00     0.074 A 
ATOM     44  C   UNL A   1      42.878  27.882  32.951  1.00  0.00     0.031 C 
ATOM     45  C   UNL A   1      37.886  31.379  29.706  1.00  0.00     0.029 A 
ATOM     46  C   UNL A   1      38.207  31.835  31.053  1.00  0.00     0.049 A 
ATOM     47  H   UNL A   1      39.696  31.106  32.317  1.00  0.00     0.167 HD
ATOM     48  C   UNL A   1      42.719  29.334  34.948  1.00  0.00     0.031 A 
ATOM     49  C   UNL A   1      37.573  32.826  31.710  1.00  0.00     0.031 A 
ATOM     50  C   UNL A   1      42.171  30.443  35.683  1.00  0.00     0.049 A 
ATOM     51  C   UNL A   1      38.022  33.184  33.101  1.00  0.00     0.074 A 
ATOM     52  C   UNL A   1      42.547  30.915  36.929  1.00  0.00     0.029 A 
ATOM     53  N   UNL A   1      41.131  31.249  35.246  1.00  0.00    -0.354 N 
ATOM     54  N   UNL A   1      38.980  32.650  33.820  1.00  0.00    -0.248 NA
ATOM     55  C   UNL A   1      37.312  34.286  33.765  1.00  0.00     0.031 C 
ATOM     56  C   UNL A   1      41.693  31.967  37.271  1.00  0.00     0.029 A 
ATOM     57  C   UNL A   1      40.833  32.197  36.209  1.00  0.00     0.049 A 
ATOM     58  H   UNL A   1      40.674  31.161  34.378  1.00  0.00     0.167 HD
ATOM     59  C   UNL A   1      39.007  33.371  35.009  1.00  0.00     0.074 A 
ATOM     60  C   UNL A   1      37.982  34.388  34.904  1.00  0.00     0.031 C 
ATOM     61  C   UNL A   1      39.810  33.207  36.089  1.00  0.00     0.031 A 
BRANCH  48  62
ATOM     62  C   UNL A   1      43.792  28.503  35.603  1.00  0.00    -0.014 A 
ATOM     63  C   UNL A   1      43.483  27.298  36.260  1.00  0.00     0.010 A 
ATOM     64  C   UNL A   1      45.138  28.905  35.510  1.00  0.00     0.010 A 
ATOM     65  C   UNL A   1      44.495  26.528  36.838  1.00  0.00     0.020 A 
ATOM     66  C   UNL A   1      46.156  28.121  36.061  1.00  0.00     0.020 A 
ATOM     67  C   UNL A   1      45.826  26.943  36.733  1.00  0.00     0.054 A 
BRANCH  67  68
ATOM     68  S   UNL A   1      47.120  25.900  37.459  1.00  0.00     0.124 S 
ATOM     69  O   UNL A   1      47.006  24.680  36.662  1.00  0.00    -0.237 OA
ATOM     70  O   UNL A   1      48.329  26.688  37.231  1.00  0.00    -0.237 OA
ATOM     71  O   UNL A   1      46.718  25.768  38.857  1.00  0.00    -0.744 OA
ENDBRANCH  67  68
ENDBRANCH  48  62
BRANCH  49  72
ATOM     72  C   UNL A   1      36.446  33.551  31.059  1.00  0.00    -0.014 A 
ATOM     73  C   UNL A   1      35.235  33.757  31.743  1.00  0.00     0.010 A 
ATOM     74  C   UNL A   1      36.580  34.040  29.747  1.00  0.00     0.010 A 
ATOM     75  C   UNL A   1      34.172  34.416  31.119  1.00  0.00     0.020 A 
ATOM     76  C   UNL A   1      35.530  34.728  29.131  1.00  0.00     0.020 A 
ATOM     77  C   UNL A   1      34.326  34.899  29.817  1.00  0.00     0.054 A 
BRANCH  77  78
ATOM     78  S   UNL A   1      32.947  35.784  29.041  1.00  0.00     0.124 S 
ATOM     79  O   UNL A   1      33.631  36.878  28.359  1.00  0.00    -0.237 OA
ATOM     80  O   UNL A   1      32.364  34.761  28.176  1.00  0.00    -0.237 OA
ATOM     81  O   UNL A   1      32.112  36.177  30.175  1.00  0.00    -0.744 OA
ENDBRANCH  77  78
ENDBRANCH  49  72
BRANCH  61  82
ATOM     82  C   UNL A   1      39.646  34.173  37.233  1.00  0.00    -0.014 A 
ATOM     83  C   UNL A   1      38.824  33.873  38.333  1.00  0.00     0.010 A 
ATOM     84  C   UNL A   1      40.380  35.375  37.232  1.00  0.00     0.010 A 
ATOM     85  C   UNL A   1      38.715  34.771  39.398  1.00  0.00     0.020 A 
ATOM     86  C   UNL A   1      40.299  36.259  38.309  1.00  0.00     0.020 A 
ATOM     87  C   UNL A   1      39.456  35.957  39.381  1.00  0.00     0.054 A 
BRANCH  87  88
ATOM     88  S   UNL A   1      39.336  37.081  40.799  1.00  0.00     0.124 S 
ATOM     89  O   UNL A   1      38.448  38.122  40.287  1.00  0.00    -0.237 OA
ATOM     90  O   UNL A   1      38.769  36.226  41.838  1.00  0.00    -0.237 OA
ATOM     91  O   UNL A   1      40.717  37.500  41.029  1.00  0.00    -0.744 OA
ENDBRANCH  87  88
ENDBRANCH  61  82
ENDBRANCH  35  36
ENDBRANCH  27  30
ENDBRANCH  25  26
ENDBRANCH   1  25
TORSDOF 19
ENDMDL
MODEL 2
REMARK VINA RESULT:     -10.3      4.866      7.524
REMARK SMILES CCC([NH3+])(CC)C(=O)N1C[C@@H](O)C[C@H]1C(=O)NCCCNC(=O)c1ccc(-c2c3nc(c(-c4ccc(S(=O)(=O)[O-])cc4)c4ccc([nH]4)c(-c4ccc(S(=O)(=O)[O-])cc4)c4nc(c(-c5ccc(S(=O)(=O)[O-])cc5)c5ccc2[nH]5)C=C4)C=C3)cc1
REMARK SMILES IDX 19 1 18 2 17 3 15 4 16 5 14 7 9 8 10 9 11 10 13 11 7 12 8 13
REMARK SMILES IDX 3 14 2 15 1 16 4 17 5 21 6 22 12 23 20 25 21 26 22 27 23 29
REMARK SMILES IDX 24 30 25 31 83 32 26 33 82 34 27 35 28 36 29 37 76 38 30 39
REMARK SMILES IDX 81 40 75 41 77 42 31 43 80 44 74 45 73 46 32 48 62 49 43 50
REMARK SMILES IDX 61 51 44 52 47 53 60 54 78 55 45 56 46 57 59 59 79 60 48 61
REMARK SMILES IDX 33 62 34 63 42 64 35 65 41 66 36 67 37 68 38 69 39 70 40 71
REMARK SMILES IDX 63 72 64 73 72 74 65 75 71 76 66 77 67 78 68 79 69 80 70 81
REMARK SMILES IDX 49 82 50 83 58 84 51 85 57 86 52 87 53 88 54 89 55 90 56 91
REMARK H PARENT 17 6 4 18 4 19 4 20 12 24 21 28 77 47 47 58
REMARK Flexibility Score: inf
ROOT
ATOM      1  C   UNL A   1      34.942  23.855  26.067  1.00  0.00     0.042 C 
ENDROOT
BRANCH   1   2
ATOM      2  C   UNL A   1      33.815  24.512  25.296  1.00  0.00     0.117 C 
BRANCH   2   3
ATOM      3  N   UNL A   1      32.780  25.043  26.153  1.00  0.00    -0.354 N 
ATOM      4  C   UNL A   1      32.478  26.334  26.469  1.00  0.00     0.242 C 
ATOM      5  O   UNL A   1      31.387  26.537  27.014  1.00  0.00    -0.273 OA
ATOM      6  H   UNL A   1      32.202  24.367  26.576  1.00  0.00     0.163 HD
BRANCH   4   7
ATOM      7  C   UNL A   1      33.336  27.521  25.980  1.00  0.00     0.177 C 
ATOM      8  N   UNL A   1      32.828  28.354  24.881  1.00  0.00    -0.323 N 
ATOM      9  C   UNL A   1      32.814  29.760  25.236  1.00  0.00     0.152 C 
ATOM     10  C   UNL A   1      33.574  29.875  26.556  1.00  0.00     0.136 C 
ATOM     11  C   UNL A   1      33.609  28.473  27.148  1.00  0.00     0.069 C 
BRANCH   8  12
ATOM     12  C   UNL A   1      32.637  27.750  23.647  1.00  0.00     0.284 C 
ATOM     13  O   UNL A   1      33.621  27.274  23.071  1.00  0.00    -0.268 OA
BRANCH  12  14
ATOM     14  C   UNL A   1      31.231  27.775  22.927  1.00  0.00     0.173 C 
BRANCH  14  15
ATOM     15  C   UNL A   1      30.161  27.009  23.776  1.00  0.00     0.075 C 
ATOM     16  C   UNL A   1      30.193  25.479  23.735  1.00  0.00     0.011 C 
ENDBRANCH  14  15
BRANCH  14  17
ATOM     17  N   UNL A   1      31.356  27.050  21.630  1.00  0.00    -0.345 N 
ATOM     18  H   UNL A   1      31.064  26.081  21.753  1.00  0.00     0.345 HD
ATOM     19  H   UNL A   1      32.327  27.077  21.318  1.00  0.00     0.345 HD
ATOM     20  H   UNL A   1      30.762  27.499  20.932  1.00  0.00     0.345 HD
ENDBRANCH  14  17
BRANCH  14  21
ATOM     21  C   UNL A   1      30.694  29.199  22.638  1.00  0.00     0.075 C 
ATOM     22  C   UNL A   1      29.218  29.268  22.269  1.00  0.00     0.011 C 
ENDBRANCH  14  21
ENDBRANCH  12  14
ENDBRANCH   8  12
BRANCH  10  23
ATOM     23  O   UNL A   1      32.961  30.789  27.456  1.00  0.00    -0.391 OA
ATOM     24  H   UNL A   1      32.455  31.446  26.953  1.00  0.00     0.211 HD
ENDBRANCH  10  23
ENDBRANCH   4   7
ENDBRANCH   2   3
ENDBRANCH   1   2
BRANCH   1  25
ATOM     25  C   UNL A   1      36.328  24.233  25.564  1.00  0.00     0.118 C 
BRANCH  25  26
ATOM     26  N   UNL A   1      37.264  23.114  25.612  1.00  0.00    -0.352 N 
ATOM     27  C   UNL A   1      38.569  23.066  26.029  1.00  0.00     0.251 C 
ATOM     28  H   UNL A   1      36.899  22.256  25.294  1.00  0.00     0.163 HD
ATOM     29  O   UNL A   1      39.245  22.068  25.784  1.00  0.00    -0.269 OA
BRANCH  27  30
ATOM     30  C   UNL A   1      39.165  24.208  26.754  1.00  0.00     0.039 A 
ATOM     31  C   UNL A   1      39.960  25.119  26.052  1.00  0.00     0.014 A 
ATOM     32  C   UNL A   1      38.955  24.376  28.123  1.00  0.00     0.014 A 
ATOM     33  C   UNL A   1      40.479  26.235  26.711  1.00  0.00     0.010 A 
ATOM     34  C   UNL A   1      39.392  25.533  28.756  1.00  0.00     0.010 A 
ATOM     35  C   UNL A   1      40.165  26.473  28.059  1.00  0.00    -0.014 A 
BRANCH  35  36
ATOM     36  C   UNL A   1      40.630  27.696  28.761  1.00  0.00     0.031 A 
ATOM     37  C   UNL A   1      41.995  27.729  29.396  1.00  0.00     0.074 A 
ATOM     38  C   UNL A   1      39.797  28.748  28.888  1.00  0.00     0.049 A 
ATOM     39  N   UNL A   1      42.547  28.673  30.114  1.00  0.00    -0.248 NA
ATOM     40  C   UNL A   1      42.840  26.535  29.227  1.00  0.00     0.031 C 
ATOM     41  C   UNL A   1      38.434  28.821  28.354  1.00  0.00     0.029 A 
ATOM     42  N   UNL A   1      39.968  29.956  29.517  1.00  0.00    -0.354 N 
ATOM     43  C   UNL A   1      43.789  28.182  30.497  1.00  0.00     0.074 A 
ATOM     44  C   UNL A   1      43.891  26.838  29.975  1.00  0.00     0.031 C 
ATOM     45  C   UNL A   1      37.905  30.017  28.656  1.00  0.00     0.029 A 
ATOM     46  C   UNL A   1      38.867  30.778  29.445  1.00  0.00     0.049 A 
ATOM     47  H   UNL A   1      40.801  30.210  29.976  1.00  0.00     0.167 HD
ATOM     48  C   UNL A   1      44.764  28.801  31.203  1.00  0.00     0.031 A 
ATOM     49  C   UNL A   1      38.650  32.001  29.967  1.00  0.00     0.031 A 
ATOM     50  C   UNL A   1      44.660  30.144  31.709  1.00  0.00     0.049 A 
ATOM     51  C   UNL A   1      39.745  32.662  30.760  1.00  0.00     0.074 A 
ATOM     52  C   UNL A   1      45.617  30.883  32.383  1.00  0.00     0.029 A 
ATOM     53  N   UNL A   1      43.535  30.947  31.603  1.00  0.00    -0.354 N 
ATOM     54  N   UNL A   1      40.942  32.208  31.046  1.00  0.00    -0.248 NA
ATOM     55  C   UNL A   1      39.465  34.003  31.290  1.00  0.00     0.031 C 
ATOM     56  C   UNL A   1      45.049  32.110  32.738  1.00  0.00     0.029 A 
ATOM     57  C   UNL A   1      43.763  32.162  32.224  1.00  0.00     0.049 A 
ATOM     58  H   UNL A   1      42.698  30.690  31.151  1.00  0.00     0.167 HD
ATOM     59  C   UNL A   1      41.568  33.222  31.764  1.00  0.00     0.074 A 
ATOM     60  C   UNL A   1      40.623  34.316  31.853  1.00  0.00     0.031 C 
ATOM     61  C   UNL A   1      42.813  33.245  32.300  1.00  0.00     0.031 A 
BRANCH  48  62
ATOM     62  C   UNL A   1      46.030  28.031  31.478  1.00  0.00    -0.014 A 
ATOM     63  C   UNL A   1      47.150  28.143  30.634  1.00  0.00     0.010 A 
ATOM     64  C   UNL A   1      46.122  27.228  32.631  1.00  0.00     0.010 A 
ATOM     65  C   UNL A   1      48.325  27.442  30.919  1.00  0.00     0.020 A 
ATOM     66  C   UNL A   1      47.305  26.550  32.936  1.00  0.00     0.020 A 
ATOM     67  C   UNL A   1      48.396  26.652  32.070  1.00  0.00     0.054 A 
BRANCH  67  68
ATOM     68  S   UNL A   1      49.948  25.787  32.435  1.00  0.00     0.124 S 
ATOM     69  O   UNL A   1      50.891  26.898  32.552  1.00  0.00    -0.237 OA
ATOM     70  O   UNL A   1      49.640  25.092  33.682  1.00  0.00    -0.237 OA
ATOM     71  O   UNL A   1      50.147  24.923  31.274  1.00  0.00    -0.744 OA
ENDBRANCH  67  68
ENDBRANCH  48  62
BRANCH  49  72
ATOM     72  C   UNL A   1      37.341  32.680  29.757  1.00  0.00    -0.014 A 
ATOM     73  C   UNL A   1      36.223  32.345  30.541  1.00  0.00     0.010 A 
ATOM     74  C   UNL A   1      37.206  33.671  28.766  1.00  0.00     0.010 A 
ATOM     75  C   UNL A   1      34.991  32.967  30.323  1.00  0.00     0.020 A 
ATOM     76  C   UNL A   1      35.983  34.319  28.567  1.00  0.00     0.020 A 
ATOM     77  C   UNL A   1      34.879  33.952  29.338  1.00  0.00     0.054 A 
BRANCH  77  78
ATOM     78  S   UNL A   1      33.280  34.774  29.099  1.00  0.00     0.124 S 
ATOM     79  O   UNL A   1      32.616  33.880  28.156  1.00  0.00    -0.237 OA
ATOM     80  O   UNL A   1      32.730  34.791  30.452  1.00  0.00    -0.237 OA
ATOM     81  O   UNL A   1      33.645  36.086  28.567  1.00  0.00    -0.744 OA
ENDBRANCH  77  78
ENDBRANCH  49  72
BRANCH  61  82
ATOM     82  C   UNL A   1      43.249  34.508  32.996  1.00  0.00    -0.014 A 
ATOM     83  C   UNL A   1      43.817  35.579  32.284  1.00  0.00     0.010 A 
ATOM     84  C   UNL A   1      43.025  34.646  34.379  1.00  0.00     0.010 A 
ATOM     85  C   UNL A   1      44.181  36.753  32.947  1.00  0.00     0.020 A 
ATOM     86  C   UNL A   1      43.358  35.830  35.040  1.00  0.00     0.020 A 
ATOM     87  C   UNL A   1      43.946  36.872  34.321  1.00  0.00     0.054 A 
BRANCH  87  88
ATOM     88  S   UNL A   1      44.381  38.426  35.149  1.00  0.00     0.124 S 
ATOM     89  O   UNL A   1      43.558  39.394  34.429  1.00  0.00    -0.237 OA
ATOM     90  O   UNL A   1      43.987  38.172  36.532  1.00  0.00    -0.237 OA
ATOM     91  O   UNL A   1      45.820  38.547  34.929  1.00  0.00    -0.744 OA
ENDBRANCH  87  88
ENDBRANCH  61  82
ENDBRANCH  35  36
ENDBRANCH  27  30
ENDBRANCH  25  26
ENDBRANCH   1  25
TORSDOF 19
ENDMDL
MODEL 3
REMARK VINA RESULT:     -10.2      0.526      8.335
REMARK SMILES CCC([NH3+])(CC)C(=O)N1C[C@@H](O)C[C@H]1C(=O)NCCCNC(=O)c1ccc(-c2c3nc(c(-c4ccc(S(=O)(=O)[O-])cc4)c4ccc([nH]4)c(-c4ccc(S(=O)(=O)[O-])cc4)c4nc(c(-c5ccc(S(=O)(=O)[O-])cc5)c5ccc2[nH]5)C=C4)C=C3)cc1
REMARK SMILES IDX 19 1 18 2 17 3 15 4 16 5 14 7 9 8 10 9 11 10 13 11 7 12 8 13
REMARK SMILES IDX 3 14 2 15 1 16 4 17 5 21 6 22 12 23 20 25 21 26 22 27 23 29
REMARK SMILES IDX 24 30 25 31 83 32 26 33 82 34 27 35 28 36 29 37 76 38 30 39
REMARK SMILES IDX 81 40 75 41 77 42 31 43 80 44 74 45 73 46 32 48 62 49 43 50
REMARK SMILES IDX 61 51 44 52 47 53 60 54 78 55 45 56 46 57 59 59 79 60 48 61
REMARK SMILES IDX 33 62 34 63 42 64 35 65 41 66 36 67 37 68 38 69 39 70 40 71
REMARK SMILES IDX 63 72 64 73 72 74 65 75 71 76 66 77 67 78 68 79 69 80 70 81
REMARK SMILES IDX 49 82 50 83 58 84 51 85 57 86 52 87 53 88 54 89 55 90 56 91
REMARK H PARENT 17 6 4 18 4 19 4 20 12 24 21 28 77 47 47 58
REMARK Flexibility Score: inf
ROOT
ATOM      1  C   UNL A   1      38.423  22.694  26.445  1.00  0.00     0.042 C 
ENDROOT
BRANCH   1   2
ATOM      2  C   UNL A   1      39.612  21.836  26.060  1.00  0.00     0.117 C 
BRANCH   2   3
ATOM      3  N   UNL A   1      40.551  21.656  27.143  1.00  0.00    -0.354 N 
ATOM      4  C   UNL A   1      41.829  21.181  27.128  1.00  0.00     0.242 C 
ATOM      5  O   UNL A   1      42.510  21.371  28.142  1.00  0.00    -0.273 OA
ATOM      6  H   UNL A   1      40.218  21.917  28.032  1.00  0.00     0.163 HD
BRANCH   4   7
ATOM      7  C   UNL A   1      42.485  20.631  25.843  1.00  0.00     0.177 C 
ATOM      8  N   UNL A   1      43.801  21.148  25.445  1.00  0.00    -0.323 N 
ATOM      9  C   UNL A   1      44.757  20.077  25.237  1.00  0.00     0.152 C 
ATOM     10  C   UNL A   1      43.956  18.777  25.272  1.00  0.00     0.136 C 
ATOM     11  C   UNL A   1      42.636  19.111  25.953  1.00  0.00     0.069 C 
BRANCH   8  12
ATOM     12  C   UNL A   1      43.900  22.496  25.135  1.00  0.00     0.284 C 
ATOM     13  O   UNL A   1      43.419  22.886  24.065  1.00  0.00    -0.268 OA
BRANCH  12  14
ATOM     14  C   UNL A   1      44.713  23.494  26.050  1.00  0.00     0.173 C 
BRANCH  14  15
ATOM     15  C   UNL A   1      46.021  23.965  25.330  1.00  0.00     0.075 C 
ATOM     16  C   UNL A   1      46.628  23.023  24.285  1.00  0.00     0.011 C 
ENDBRANCH  14  15
BRANCH  14  17
ATOM     17  N   UNL A   1      45.134  22.765  27.281  1.00  0.00    -0.345 N 
ATOM     18  H   UNL A   1      44.973  21.766  27.156  1.00  0.00     0.345 HD
ATOM     19  H   UNL A   1      44.590  23.100  28.077  1.00  0.00     0.345 HD
ATOM     20  H   UNL A   1      46.126  22.933  27.452  1.00  0.00     0.345 HD
ENDBRANCH  14  17
BRANCH  14  21
ATOM     21  C   UNL A   1      43.915  24.752  26.479  1.00  0.00     0.075 C 
ATOM     22  C   UNL A   1      44.190  25.237  27.896  1.00  0.00     0.011 C 
ENDBRANCH  14  21
ENDBRANCH  12  14
ENDBRANCH   8  12
BRANCH  10  23
ATOM     23  O   UNL A   1      44.636  17.741  25.969  1.00  0.00    -0.391 OA
ATOM     24  H   UNL A   1      45.384  17.430  25.436  1.00  0.00     0.211 HD
ENDBRANCH  10  23
ENDBRANCH   4   7
ENDBRANCH   2   3
ENDBRANCH   1   2
BRANCH   1  25
ATOM     25  C   UNL A   1      38.795  24.126  26.802  1.00  0.00     0.118 C 
BRANCH  25  26
ATOM     26  N   UNL A   1      39.832  24.667  25.930  1.00  0.00    -0.352 N 
ATOM     27  C   UNL A   1      40.592  25.802  26.053  1.00  0.00     0.251 C 
ATOM     28  H   UNL A   1      40.017  24.131  25.124  1.00  0.00     0.163 HD
ATOM     29  O   UNL A   1      41.260  26.187  25.095  1.00  0.00    -0.269 OA
BRANCH  27  30
ATOM     30  C   UNL A   1      40.598  26.564  27.319  1.00  0.00     0.039 A 
ATOM     31  C   UNL A   1      41.427  27.685  27.435  1.00  0.00     0.014 A 
ATOM     32  C   UNL A   1      39.802  26.171  28.396  1.00  0.00     0.014 A 
ATOM     33  C   UNL A   1      41.397  28.448  28.603  1.00  0.00     0.010 A 
ATOM     34  C   UNL A   1      39.703  26.983  29.519  1.00  0.00     0.010 A 
ATOM     35  C   UNL A   1      40.504  28.127  29.639  1.00  0.00    -0.014 A 
BRANCH  35  36
ATOM     36  C   UNL A   1      40.389  28.972  30.854  1.00  0.00     0.031 A 
ATOM     37  C   UNL A   1      39.344  30.054  30.925  1.00  0.00     0.074 A 
ATOM     38  C   UNL A   1      41.271  28.813  31.861  1.00  0.00     0.049 A 
ATOM     39  N   UNL A   1      39.138  30.940  31.866  1.00  0.00    -0.248 NA
ATOM     40  C   UNL A   1      38.427  30.175  29.779  1.00  0.00     0.031 C 
ATOM     41  C   UNL A   1      42.357  27.830  31.891  1.00  0.00     0.029 A 
ATOM     42  N   UNL A   1      41.404  29.486  33.051  1.00  0.00    -0.354 N 
ATOM     43  C   UNL A   1      38.088  31.732  31.418  1.00  0.00     0.074 A 
ATOM     44  C   UNL A   1      37.730  31.255  30.101  1.00  0.00     0.031 C 
ATOM     45  C   UNL A   1      43.025  27.946  33.049  1.00  0.00     0.029 A 
ATOM     46  C   UNL A   1      42.452  29.040  33.823  1.00  0.00     0.049 A 
ATOM     47  H   UNL A   1      40.805  30.217  33.325  1.00  0.00     0.167 HD
ATOM     48  C   UNL A   1      37.465  32.752  32.054  1.00  0.00     0.031 A 
ATOM     49  C   UNL A   1      42.910  29.474  35.014  1.00  0.00     0.031 A 
ATOM     50  C   UNL A   1      37.818  33.213  33.370  1.00  0.00     0.049 A 
ATOM     51  C   UNL A   1      42.208  30.618  35.693  1.00  0.00     0.074 A 
ATOM     52  C   UNL A   1      37.207  34.198  34.126  1.00  0.00     0.029 A 
ATOM     53  N   UNL A   1      38.875  32.727  34.124  1.00  0.00    -0.354 N 
ATOM     54  N   UNL A   1      41.167  31.305  35.285  1.00  0.00    -0.248 NA
ATOM     55  C   UNL A   1      42.734  31.039  36.999  1.00  0.00     0.031 C 
ATOM     56  C   UNL A   1      37.934  34.351  35.311  1.00  0.00     0.029 A 
ATOM     57  C   UNL A   1      38.953  33.412  35.324  1.00  0.00     0.049 A 
ATOM     58  H   UNL A   1      39.481  32.001  33.847  1.00  0.00     0.167 HD
ATOM     59  C   UNL A   1      40.897  32.219  36.298  1.00  0.00     0.074 A 
ATOM     60  C   UNL A   1      41.871  31.985  37.344  1.00  0.00     0.031 C 
ATOM     61  C   UNL A   1      39.927  33.165  36.358  1.00  0.00     0.031 A 
BRANCH  48  62
ATOM     62  C   UNL A   1      36.338  33.446  31.333  1.00  0.00    -0.014 A 
ATOM     63  C   UNL A   1      35.260  34.012  32.038  1.00  0.00     0.010 A 
ATOM     64  C   UNL A   1      36.387  33.585  29.933  1.00  0.00     0.010 A 
ATOM     65  C   UNL A   1      34.238  34.675  31.354  1.00  0.00     0.020 A 
ATOM     66  C   UNL A   1      35.382  34.275  29.249  1.00  0.00     0.020 A 
ATOM     67  C   UNL A   1      34.306  34.804  29.964  1.00  0.00     0.054 A 
BRANCH  67  68
ATOM     68  S   UNL A   1      32.984  35.707  29.110  1.00  0.00     0.124 S 
ATOM     69  O   UNL A   1      32.121  36.100  30.222  1.00  0.00    -0.237 OA
ATOM     70  O   UNL A   1      33.710  36.797  28.463  1.00  0.00    -0.237 OA
ATOM     71  O   UNL A   1      32.415  34.714  28.202  1.00  0.00    -0.744 OA
ENDBRANCH  67  68
ENDBRANCH  48  62
BRANCH  49  72
ATOM     72  C   UNL A   1      44.094  28.823  35.640  1.00  0.00    -0.014 A 
ATOM     73  C   UNL A   1      43.936  27.734  36.515  1.00  0.00     0.010 A 
ATOM     74  C   UNL A   1      45.392  29.291  35.362  1.00  0.00     0.010 A 
ATOM     75  C   UNL A   1      45.049  27.142  37.119  1.00  0.00     0.020 A 
ATOM     76  C   UNL A   1      46.510  28.682  35.939  1.00  0.00     0.020 A 
ATOM     77  C   UNL A   1      46.330  27.619  36.826  1.00  0.00     0.054 A 
BRANCH  77  78
ATOM     78  S   UNL A   1      47.762  26.811  37.592  1.00  0.00     0.124 S 
ATOM     79  O   UNL A   1      47.881  25.590  36.802  1.00  0.00    -0.237 OA
ATOM     80  O   UNL A   1      48.821  27.799  37.397  1.00  0.00    -0.237 OA
ATOM     81  O   UNL A   1      47.346  26.622  38.980  1.00  0.00    -0.744 OA
ENDBRANCH  77  78
ENDBRANCH  49  72
BRANCH  61  82
ATOM     82  C   UNL A   1      39.840  33.995  37.612  1.00  0.00    -0.014 A 
ATOM     83  C   UNL A   1      39.025  33.610  38.691  1.00  0.00     0.010 A 
ATOM     84  C   UNL A   1      40.640  35.147  37.734  1.00  0.00     0.010 A 
ATOM     85  C   UNL A   1      38.988  34.378  39.857  1.00  0.00     0.020 A 
ATOM     86  C   UNL A   1      40.630  35.900  38.909  1.00  0.00     0.020 A 
ATOM     87  C   UNL A   1      39.793  35.517  39.960  1.00  0.00     0.054 A 
BRANCH  87  88
ATOM     88  S   UNL A   1      39.765  36.469  41.503  1.00  0.00     0.124 S 
ATOM     89  O   UNL A   1      39.076  35.556  42.411  1.00  0.00    -0.237 OA
ATOM     90  O   UNL A   1      41.185  36.675  41.778  1.00  0.00    -0.237 OA
ATOM     91  O   UNL A   1      39.022  37.677  41.153  1.00  0.00    -0.744 OA
ENDBRANCH  87  88
ENDBRANCH  61  82
ENDBRANCH  35  36
ENDBRANCH  27  30
ENDBRANCH  25  26
ENDBRANCH   1  25
TORSDOF 19
ENDMDL
