MODEL 1
REMARK VINA RESULT:     -11.8      0.000      0.000
REMARK SMILES Cc1ccc(Cl)c(Nc2ccccc2C(=O)NCCCNC(=O)c2ccc(-c3c4nc(c(-c5ccc(S(=O)(=O)[O-])cc5)c5ccc([nH]5)c(-c5ccc(S(=O)(=O)[O-])cc5)c5nc(c(-c6ccc(S(=O)(=O)[O-])cc6)c6ccc3[nH]6)C=C5)C=C4)cc2)c1Cl
REMARK SMILES IDX 19 1 18 2 17 3 15 4 16 5 14 7 9 8 10 9 11 10 13 11 12 12
REMARK SMILES IDX 8 13 7 15 1 16 2 17 3 18 84 19 4 20 85 21 5 22 6 23 20 24
REMARK SMILES IDX 21 25 22 26 23 28 24 29 25 30 83 31 26 32 82 33 27 34 28 35
REMARK SMILES IDX 29 36 76 37 30 38 81 39 75 40 77 41 31 42 80 43 74 44 73 45
REMARK SMILES IDX 32 47 62 48 43 49 61 50 44 51 47 52 60 53 78 54 45 55 46 56
REMARK SMILES IDX 59 58 79 59 48 60 33 61 34 62 42 63 35 64 41 65 36 66 37 67
REMARK SMILES IDX 38 68 39 69 40 70 63 71 64 72 72 73 65 74 71 75 66 76 67 77
REMARK SMILES IDX 68 78 69 79 70 80 49 81 50 82 58 83 51 84 57 85 52 86 53 87
REMARK SMILES IDX 54 88 55 89 56 90
REMARK H PARENT 17 6 8 14 21 27 77 46 47 57
REMARK Flexibility Score: inf
ROOT
ATOM      1  C   UNL A   1      32.381  27.746  27.152  1.00  0.00     0.042 C 
ENDROOT
BRANCH   1   2
ATOM      2  C   UNL A   1      32.137  26.459  26.397  1.00  0.00     0.118 C 
BRANCH   2   3
ATOM      3  N   UNL A   1      30.979  25.691  26.774  1.00  0.00    -0.352 N 
ATOM      4  C   UNL A   1      30.709  24.368  26.509  1.00  0.00     0.253 C 
ATOM      5  O   UNL A   1      29.773  23.852  27.125  1.00  0.00    -0.269 OA
ATOM      6  H   UNL A   1      30.293  26.175  27.288  1.00  0.00     0.163 HD
BRANCH   4   7
ATOM      7  C   UNL A   1      31.373  23.589  25.414  1.00  0.00     0.063 A 
ATOM      8  C   UNL A   1      31.254  23.737  24.014  1.00  0.00     0.051 A 
ATOM      9  C   UNL A   1      31.893  22.775  23.194  1.00  0.00     0.027 A 
ATOM     10  C   UNL A   1      32.685  21.753  23.717  1.00  0.00     0.002 A 
ATOM     11  C   UNL A   1      32.207  22.562  25.921  1.00  0.00     0.016 A 
ATOM     12  C   UNL A   1      32.865  21.662  25.085  1.00  0.00     0.001 A 
BRANCH   8  13
ATOM     13  N   UNL A   1      30.646  24.790  23.294  1.00  0.00    -0.352 N 
ATOM     14  H   UNL A   1      29.864  24.490  22.777  1.00  0.00     0.167 HD
BRANCH  13  15
ATOM     15  C   UNL A   1      30.899  26.175  23.142  1.00  0.00     0.077 A 
ATOM     16  C   UNL A   1      33.745  28.698  22.625  1.00  0.00     0.046 C 
ATOM     17  C   UNL A   1      32.391  28.109  22.915  1.00  0.00    -0.030 A 
ATOM     18  C   UNL A   1      31.366  28.956  23.363  1.00  0.00     0.006 A 
ATOM     19  C   UNL A   1      32.140  26.727  22.769  1.00  0.00     0.069 A 
ATOM     20  C   UNL A   1      30.100  28.447  23.633  1.00  0.00     0.023 A 
ATOM     21  Cl  UNL A   1      33.348  25.747  21.988  1.00  0.00    -0.082 Cl
ATOM     22  C   UNL A   1      29.870  27.078  23.516  1.00  0.00     0.066 A 
ATOM     23  Cl  UNL A   1      28.298  26.489  23.962  1.00  0.00    -0.082 Cl
ENDBRANCH  13  15
ENDBRANCH   8  13
ENDBRANCH   4   7
ENDBRANCH   2   3
ENDBRANCH   1   2
BRANCH   1  24
ATOM     24  C   UNL A   1      33.337  28.722  26.475  1.00  0.00     0.118 C 
BRANCH  24  25
ATOM     25  N   UNL A   1      33.371  30.065  27.059  1.00  0.00    -0.352 N 
ATOM     26  C   UNL A   1      34.323  30.738  27.800  1.00  0.00     0.251 C 
ATOM     27  H   UNL A   1      32.557  30.593  26.889  1.00  0.00     0.163 HD
ATOM     28  O   UNL A   1      34.062  31.845  28.250  1.00  0.00    -0.269 OA
BRANCH  26  29
ATOM     29  C   UNL A   1      35.638  30.118  28.084  1.00  0.00     0.039 A 
ATOM     30  C   UNL A   1      36.621  30.090  27.087  1.00  0.00     0.014 A 
ATOM     31  C   UNL A   1      35.914  29.569  29.331  1.00  0.00     0.014 A 
ATOM     32  C   UNL A   1      37.905  29.620  27.389  1.00  0.00     0.010 A 
ATOM     33  C   UNL A   1      37.218  29.243  29.670  1.00  0.00     0.010 A 
ATOM     34  C   UNL A   1      38.231  29.250  28.702  1.00  0.00    -0.014 A 
BRANCH  34  35
ATOM     35  C   UNL A   1      39.601  28.840  29.108  1.00  0.00     0.031 A 
ATOM     36  C   UNL A   1      40.511  29.844  29.770  1.00  0.00     0.074 A 
ATOM     37  C   UNL A   1      40.072  27.624  28.767  1.00  0.00     0.049 A 
ATOM     38  N   UNL A   1      41.790  29.757  30.034  1.00  0.00    -0.248 NA
ATOM     39  C   UNL A   1      39.915  31.142  30.127  1.00  0.00     0.031 C 
ATOM     40  C   UNL A   1      39.317  26.585  28.062  1.00  0.00     0.029 A 
ATOM     41  N   UNL A   1      41.311  27.063  28.949  1.00  0.00    -0.354 N 
ATOM     42  C   UNL A   1      42.155  30.999  30.540  1.00  0.00     0.074 A 
ATOM     43  C   UNL A   1      40.981  31.842  30.478  1.00  0.00     0.031 C 
ATOM     44  C   UNL A   1      40.100  25.508  27.893  1.00  0.00     0.029 A 
ATOM     45  C   UNL A   1      41.424  25.794  28.433  1.00  0.00     0.049 A 
ATOM     46  H   UNL A   1      42.050  27.527  29.406  1.00  0.00     0.167 HD
ATOM     47  C   UNL A   1      43.348  31.400  31.041  1.00  0.00     0.031 A 
ATOM     48  C   UNL A   1      42.479  24.956  28.388  1.00  0.00     0.031 A 
ATOM     49  C   UNL A   1      44.499  30.544  31.132  1.00  0.00     0.049 A 
ATOM     50  C   UNL A   1      43.783  25.394  28.994  1.00  0.00     0.074 A 
ATOM     51  C   UNL A   1      45.736  30.817  31.688  1.00  0.00     0.029 A 
ATOM     52  N   UNL A   1      44.549  29.239  30.662  1.00  0.00    -0.354 N 
ATOM     53  N   UNL A   1      44.092  26.552  29.527  1.00  0.00    -0.248 NA
ATOM     54  C   UNL A   1      44.872  24.410  29.007  1.00  0.00     0.031 C 
ATOM     55  C   UNL A   1      46.547  29.689  31.517  1.00  0.00     0.029 A 
ATOM     56  C   UNL A   1      45.798  28.696  30.904  1.00  0.00     0.049 A 
ATOM     57  H   UNL A   1      43.805  28.770  30.220  1.00  0.00     0.167 HD
ATOM     58  C   UNL A   1      45.408  26.430  29.960  1.00  0.00     0.074 A 
ATOM     59  C   UNL A   1      45.827  25.080  29.639  1.00  0.00     0.031 C 
ATOM     60  C   UNL A   1      46.196  27.350  30.569  1.00  0.00     0.031 A 
BRANCH  47  61
ATOM     61  C   UNL A   1      43.449  32.827  31.519  1.00  0.00    -0.014 A 
ATOM     62  C   UNL A   1      43.840  33.861  30.647  1.00  0.00     0.010 A 
ATOM     63  C   UNL A   1      43.178  33.138  32.862  1.00  0.00     0.010 A 
ATOM     64  C   UNL A   1      44.036  35.159  31.126  1.00  0.00     0.020 A 
ATOM     65  C   UNL A   1      43.336  34.444  33.339  1.00  0.00     0.020 A 
ATOM     66  C   UNL A   1      43.794  35.439  32.473  1.00  0.00     0.054 A 
BRANCH  66  67
ATOM     67  S   UNL A   1      44.083  37.125  33.076  1.00  0.00     0.124 S 
ATOM     68  O   UNL A   1      45.402  37.001  33.692  1.00  0.00    -0.237 OA
ATOM     69  O   UNL A   1      44.036  37.918  31.850  1.00  0.00    -0.237 OA
ATOM     70  O   UNL A   1      42.980  37.354  34.005  1.00  0.00    -0.744 OA
ENDBRANCH  66  67
ENDBRANCH  47  61
BRANCH  48  71
ATOM     71  C   UNL A   1      42.318  23.609  27.774  1.00  0.00    -0.014 A 
ATOM     72  C   UNL A   1      42.774  23.362  26.468  1.00  0.00     0.010 A 
ATOM     73  C   UNL A   1      41.774  22.546  28.520  1.00  0.00     0.010 A 
ATOM     74  C   UNL A   1      42.694  22.080  25.918  1.00  0.00     0.020 A 
ATOM     75  C   UNL A   1      41.715  21.256  27.982  1.00  0.00     0.020 A 
ATOM     76  C   UNL A   1      42.174  21.031  26.683  1.00  0.00     0.054 A 
BRANCH  76  77
ATOM     77  S   UNL A   1      42.174  19.355  25.984  1.00  0.00     0.124 S 
ATOM     78  O   UNL A   1      40.755  19.130  25.731  1.00  0.00    -0.237 OA
ATOM     79  O   UNL A   1      43.012  19.509  24.798  1.00  0.00    -0.237 OA
ATOM     80  O   UNL A   1      42.759  18.541  27.049  1.00  0.00    -0.744 OA
ENDBRANCH  76  77
ENDBRANCH  48  71
BRANCH  60  81
ATOM     81  C   UNL A   1      47.586  26.922  30.954  1.00  0.00    -0.014 A 
ATOM     82  C   UNL A   1      47.836  26.261  32.169  1.00  0.00     0.010 A 
ATOM     83  C   UNL A   1      48.647  27.131  30.053  1.00  0.00     0.010 A 
ATOM     84  C   UNL A   1      49.130  25.844  32.490  1.00  0.00     0.020 A 
ATOM     85  C   UNL A   1      49.937  26.691  30.360  1.00  0.00     0.020 A 
ATOM     86  C   UNL A   1      50.172  26.061  31.584  1.00  0.00     0.054 A 
BRANCH  86  87
ATOM     87  S   UNL A   1      51.833  25.468  32.004  1.00  0.00     0.124 S 
ATOM     88  O   UNL A   1      52.597  25.840  30.816  1.00  0.00    -0.237 OA
ATOM     89  O   UNL A   1      52.146  26.223  33.214  1.00  0.00    -0.237 OA
ATOM     90  O   UNL A   1      51.649  24.033  32.202  1.00  0.00    -0.744 OA
ENDBRANCH  86  87
ENDBRANCH  60  81
ENDBRANCH  34  35
ENDBRANCH  26  29
ENDBRANCH  24  25
ENDBRANCH   1  24
TORSDOF 15
ENDMDL
MODEL 2
REMARK VINA RESULT:     -11.3      2.007      2.558
REMARK SMILES Cc1ccc(Cl)c(Nc2ccccc2C(=O)NCCCNC(=O)c2ccc(-c3c4nc(c(-c5ccc(S(=O)(=O)[O-])cc5)c5ccc([nH]5)c(-c5ccc(S(=O)(=O)[O-])cc5)c5nc(c(-c6ccc(S(=O)(=O)[O-])cc6)c6ccc3[nH]6)C=C5)C=C4)cc2)c1Cl
REMARK SMILES IDX 19 1 18 2 17 3 15 4 16 5 14 7 9 8 10 9 11 10 13 11 12 12
REMARK SMILES IDX 8 13 7 15 1 16 2 17 3 18 84 19 4 20 85 21 5 22 6 23 20 24
REMARK SMILES IDX 21 25 22 26 23 28 24 29 25 30 83 31 26 32 82 33 27 34 28 35
REMARK SMILES IDX 29 36 76 37 30 38 81 39 75 40 77 41 31 42 80 43 74 44 73 45
REMARK SMILES IDX 32 47 62 48 43 49 61 50 44 51 47 52 60 53 78 54 45 55 46 56
REMARK SMILES IDX 59 58 79 59 48 60 33 61 34 62 42 63 35 64 41 65 36 66 37 67
REMARK SMILES IDX 38 68 39 69 40 70 63 71 64 72 72 73 65 74 71 75 66 76 67 77
REMARK SMILES IDX 68 78 69 79 70 80 49 81 50 82 58 83 51 84 57 85 52 86 53 87
REMARK SMILES IDX 54 88 55 89 56 90
REMARK H PARENT 17 6 8 14 21 27 77 46 47 57
REMARK Flexibility Score: inf
ROOT
ATOM      1  C   UNL A   1      32.394  27.873  26.888  1.00  0.00     0.042 C 
ENDROOT
BRANCH   1   2
ATOM      2  C   UNL A   1      32.256  26.452  26.391  1.00  0.00     0.118 C 
BRANCH   2   3
ATOM      3  N   UNL A   1      31.064  25.741  26.774  1.00  0.00    -0.352 N 
ATOM      4  C   UNL A   1      30.733  24.429  26.518  1.00  0.00     0.253 C 
ATOM      5  O   UNL A   1      29.775  23.961  27.138  1.00  0.00    -0.269 OA
ATOM      6  H   UNL A   1      30.402  26.259  27.287  1.00  0.00     0.163 HD
BRANCH   4   7
ATOM      7  C   UNL A   1      31.358  23.615  25.426  1.00  0.00     0.063 A 
ATOM      8  C   UNL A   1      31.225  23.746  24.026  1.00  0.00     0.051 A 
ATOM      9  C   UNL A   1      31.824  22.752  23.212  1.00  0.00     0.027 A 
ATOM     10  C   UNL A   1      32.591  21.715  23.740  1.00  0.00     0.002 A 
ATOM     11  C   UNL A   1      32.167  22.571  25.938  1.00  0.00     0.016 A 
ATOM     12  C   UNL A   1      32.787  21.638  25.108  1.00  0.00     0.001 A 
BRANCH   8  13
ATOM     13  N   UNL A   1      30.640  24.806  23.297  1.00  0.00    -0.352 N 
ATOM     14  H   UNL A   1      29.841  24.523  22.796  1.00  0.00     0.167 HD
BRANCH  13  15
ATOM     15  C   UNL A   1      30.934  26.179  23.120  1.00  0.00     0.077 A 
ATOM     16  C   UNL A   1      33.854  28.608  22.568  1.00  0.00     0.046 C 
ATOM     17  C   UNL A   1      32.482  28.065  22.863  1.00  0.00    -0.030 A 
ATOM     18  C   UNL A   1      31.481  28.949  23.290  1.00  0.00     0.006 A 
ATOM     19  C   UNL A   1      32.192  26.688  22.742  1.00  0.00     0.069 A 
ATOM     20  C   UNL A   1      30.199  28.483  23.563  1.00  0.00     0.023 A 
ATOM     21  Cl  UNL A   1      33.374  25.658  21.987  1.00  0.00    -0.082 Cl
ATOM     22  C   UNL A   1      29.930  27.119  23.471  1.00  0.00     0.066 A 
ATOM     23  Cl  UNL A   1      28.340  26.585  23.921  1.00  0.00    -0.082 Cl
ENDBRANCH  13  15
ENDBRANCH   8  13
ENDBRANCH   4   7
ENDBRANCH   2   3
ENDBRANCH   1   2
BRANCH   1  24
ATOM     24  C   UNL A   1      33.626  28.618  26.384  1.00  0.00     0.118 C 
BRANCH  24  25
ATOM     25  N   UNL A   1      33.674  30.042  26.722  1.00  0.00    -0.352 N 
ATOM     26  C   UNL A   1      34.576  30.802  27.442  1.00  0.00     0.251 C 
ATOM     27  H   UNL A   1      32.916  30.561  26.366  1.00  0.00     0.163 HD
ATOM     28  O   UNL A   1      34.332  31.981  27.656  1.00  0.00    -0.269 OA
BRANCH  26  29
ATOM     29  C   UNL A   1      35.813  30.194  27.985  1.00  0.00     0.039 A 
ATOM     30  C   UNL A   1      36.981  30.191  27.214  1.00  0.00     0.014 A 
ATOM     31  C   UNL A   1      35.832  29.632  29.257  1.00  0.00     0.014 A 
ATOM     32  C   UNL A   1      38.181  29.733  27.770  1.00  0.00     0.010 A 
ATOM     33  C   UNL A   1      37.042  29.317  29.855  1.00  0.00     0.010 A 
ATOM     34  C   UNL A   1      38.233  29.349  29.119  1.00  0.00    -0.014 A 
BRANCH  34  35
ATOM     35  C   UNL A   1      39.495  28.950  29.795  1.00  0.00     0.031 A 
ATOM     36  C   UNL A   1      39.996  29.755  30.969  1.00  0.00     0.074 A 
ATOM     37  C   UNL A   1      40.255  27.962  29.282  1.00  0.00     0.049 A 
ATOM     38  N   UNL A   1      41.151  29.698  31.581  1.00  0.00    -0.248 NA
ATOM     39  C   UNL A   1      39.098  30.804  31.481  1.00  0.00     0.031 C 
ATOM     40  C   UNL A   1      39.920  27.152  28.107  1.00  0.00     0.029 A 
ATOM     41  N   UNL A   1      41.481  27.484  29.672  1.00  0.00    -0.354 N 
ATOM     42  C   UNL A   1      41.132  30.731  32.513  1.00  0.00     0.074 A 
ATOM     43  C   UNL A   1      39.885  31.439  32.334  1.00  0.00     0.031 C 
ATOM     44  C   UNL A   1      40.903  26.266  27.888  1.00  0.00     0.029 A 
ATOM     45  C   UNL A   1      41.959  26.472  28.873  1.00  0.00     0.049 A 
ATOM     46  H   UNL A   1      41.973  27.833  30.450  1.00  0.00     0.167 HD
ATOM     47  C   UNL A   1      42.053  31.047  33.454  1.00  0.00     0.031 A 
ATOM     48  C   UNL A   1      43.122  25.792  28.919  1.00  0.00     0.031 A 
ATOM     49  C   UNL A   1      43.274  30.314  33.649  1.00  0.00     0.049 A 
ATOM     50  C   UNL A   1      44.112  26.118  30.001  1.00  0.00     0.074 A 
ATOM     51  C   UNL A   1      44.245  30.496  34.617  1.00  0.00     0.029 A 
ATOM     52  N   UNL A   1      43.686  29.247  32.862  1.00  0.00    -0.354 N 
ATOM     53  N   UNL A   1      44.050  27.057  30.916  1.00  0.00    -0.248 NA
ATOM     54  C   UNL A   1      45.319  25.285  30.069  1.00  0.00     0.031 C 
ATOM     55  C   UNL A   1      45.264  29.564  34.389  1.00  0.00     0.029 A 
ATOM     56  C   UNL A   1      44.902  28.767  33.314  1.00  0.00     0.049 A 
ATOM     57  H   UNL A   1      43.187  28.887  32.094  1.00  0.00     0.167 HD
ATOM     58  C   UNL A   1      45.201  26.916  31.682  1.00  0.00     0.074 A 
ATOM     59  C   UNL A   1      45.931  25.790  31.133  1.00  0.00     0.031 C 
ATOM     60  C   UNL A   1      45.615  27.649  32.746  1.00  0.00     0.031 A 
BRANCH  47  61
ATOM     61  C   UNL A   1      41.760  32.238  34.331  1.00  0.00    -0.014 A 
ATOM     62  C   UNL A   1      40.928  32.122  35.462  1.00  0.00     0.010 A 
ATOM     63  C   UNL A   1      42.297  33.497  34.011  1.00  0.00     0.010 A 
ATOM     64  C   UNL A   1      40.575  33.252  36.204  1.00  0.00     0.020 A 
ATOM     65  C   UNL A   1      41.978  34.626  34.773  1.00  0.00     0.020 A 
ATOM     66  C   UNL A   1      41.093  34.500  35.846  1.00  0.00     0.054 A 
BRANCH  66  67
ATOM     67  S   UNL A   1      40.598  35.955  36.808  1.00  0.00     0.124 S 
ATOM     68  O   UNL A   1      39.995  35.341  37.990  1.00  0.00    -0.237 OA
ATOM     69  O   UNL A   1      41.869  36.638  37.037  1.00  0.00    -0.237 OA
ATOM     70  O   UNL A   1      39.667  36.654  35.926  1.00  0.00    -0.744 OA
ENDBRANCH  66  67
ENDBRANCH  47  61
BRANCH  48  71
ATOM     71  C   UNL A   1      43.380  24.715  27.924  1.00  0.00    -0.014 A 
ATOM     72  C   UNL A   1      44.123  24.983  26.761  1.00  0.00     0.010 A 
ATOM     73  C   UNL A   1      42.947  23.398  28.170  1.00  0.00     0.010 A 
ATOM     74  C   UNL A   1      44.432  23.957  25.864  1.00  0.00     0.020 A 
ATOM     75  C   UNL A   1      43.277  22.364  27.287  1.00  0.00     0.020 A 
ATOM     76  C   UNL A   1      44.016  22.650  26.139  1.00  0.00     0.054 A 
BRANCH  76  77
ATOM     77  S   UNL A   1      44.517  21.319  25.010  1.00  0.00     0.124 S 
ATOM     78  O   UNL A   1      45.859  21.004  25.486  1.00  0.00    -0.237 OA
ATOM     79  O   UNL A   1      43.502  20.298  25.258  1.00  0.00    -0.237 OA
ATOM     80  O   UNL A   1      44.448  21.945  23.691  1.00  0.00    -0.744 OA
ENDBRANCH  76  77
ENDBRANCH  48  71
BRANCH  60  81
ATOM     81  C   UNL A   1      46.905  27.242  33.405  1.00  0.00    -0.014 A 
ATOM     82  C   UNL A   1      48.130  27.817  33.025  1.00  0.00     0.010 A 
ATOM     83  C   UNL A   1      46.878  26.314  34.462  1.00  0.00     0.010 A 
ATOM     84  C   UNL A   1      49.312  27.447  33.673  1.00  0.00     0.020 A 
ATOM     85  C   UNL A   1      48.054  25.962  35.129  1.00  0.00     0.020 A 
ATOM     86  C   UNL A   1      49.266  26.522  34.721  1.00  0.00     0.054 A 
BRANCH  86  87
ATOM     87  S   UNL A   1      50.806  26.094  35.576  1.00  0.00     0.124 S 
ATOM     88  O   UNL A   1      51.817  26.565  34.633  1.00  0.00    -0.237 OA
ATOM     89  O   UNL A   1      50.705  26.853  36.819  1.00  0.00    -0.237 OA
ATOM     90  O   UNL A   1      50.726  24.644  35.729  1.00  0.00    -0.744 OA
ENDBRANCH  86  87
ENDBRANCH  60  81
ENDBRANCH  34  35
ENDBRANCH  26  29
ENDBRANCH  24  25
ENDBRANCH   1  24
TORSDOF 15
ENDMDL
MODEL 3
REMARK VINA RESULT:     -11.2      2.778      9.224
REMARK SMILES Cc1ccc(Cl)c(Nc2ccccc2C(=O)NCCCNC(=O)c2ccc(-c3c4nc(c(-c5ccc(S(=O)(=O)[O-])cc5)c5ccc([nH]5)c(-c5ccc(S(=O)(=O)[O-])cc5)c5nc(c(-c6ccc(S(=O)(=O)[O-])cc6)c6ccc3[nH]6)C=C5)C=C4)cc2)c1Cl
REMARK SMILES IDX 19 1 18 2 17 3 15 4 16 5 14 7 9 8 10 9 11 10 13 11 12 12
REMARK SMILES IDX 8 13 7 15 1 16 2 17 3 18 84 19 4 20 85 21 5 22 6 23 20 24
REMARK SMILES IDX 21 25 22 26 23 28 24 29 25 30 83 31 26 32 82 33 27 34 28 35
REMARK SMILES IDX 29 36 76 37 30 38 81 39 75 40 77 41 31 42 80 43 74 44 73 45
REMARK SMILES IDX 32 47 62 48 43 49 61 50 44 51 47 52 60 53 78 54 45 55 46 56
REMARK SMILES IDX 59 58 79 59 48 60 33 61 34 62 42 63 35 64 41 65 36 66 37 67
REMARK SMILES IDX 38 68 39 69 40 70 63 71 64 72 72 73 65 74 71 75 66 76 67 77
REMARK SMILES IDX 68 78 69 79 70 80 49 81 50 82 58 83 51 84 57 85 52 86 53 87
REMARK SMILES IDX 54 88 55 89 56 90
REMARK H PARENT 17 6 8 14 21 27 77 46 47 57
REMARK Flexibility Score: inf
ROOT
ATOM      1  C   UNL A   1      35.319  24.225  25.433  1.00  0.00     0.042 C 
ENDROOT
BRANCH   1   2
ATOM      2  C   UNL A   1      34.412  25.098  24.595  1.00  0.00     0.118 C 
BRANCH   2   3
ATOM      3  N   UNL A   1      34.173  24.676  23.239  1.00  0.00    -0.352 N 
ATOM      4  C   UNL A   1      33.130  25.020  22.409  1.00  0.00     0.253 C 
ATOM      5  O   UNL A   1      33.245  24.733  21.215  1.00  0.00    -0.269 OA
ATOM      6  H   UNL A   1      34.842  24.063  22.857  1.00  0.00     0.163 HD
BRANCH   4   7
ATOM      7  C   UNL A   1      31.823  25.562  22.902  1.00  0.00     0.063 A 
ATOM      8  C   UNL A   1      30.718  24.871  23.447  1.00  0.00     0.051 A 
ATOM      9  C   UNL A   1      29.542  25.616  23.713  1.00  0.00     0.027 A 
ATOM     10  C   UNL A   1      29.473  26.997  23.529  1.00  0.00     0.002 A 
ATOM     11  C   UNL A   1      31.740  26.969  22.753  1.00  0.00     0.016 A 
ATOM     12  C   UNL A   1      30.586  27.681  23.073  1.00  0.00     0.001 A 
BRANCH   8  13
ATOM     13  N   UNL A   1      30.646  23.522  23.860  1.00  0.00    -0.352 N 
ATOM     14  H   UNL A   1      29.795  23.096  23.608  1.00  0.00     0.167 HD
BRANCH  13  15
ATOM     15  C   UNL A   1      31.512  22.641  24.551  1.00  0.00     0.077 A 
ATOM     16  C   UNL A   1      33.247  22.130  27.937  1.00  0.00     0.046 C 
ATOM     17  C   UNL A   1      32.869  21.985  26.488  1.00  0.00    -0.030 A 
ATOM     18  C   UNL A   1      33.624  21.130  25.672  1.00  0.00     0.006 A 
ATOM     19  C   UNL A   1      31.790  22.707  25.930  1.00  0.00     0.069 A 
ATOM     20  C   UNL A   1      33.297  20.966  24.330  1.00  0.00     0.023 A 
ATOM     21  Cl  UNL A   1      30.729  23.569  27.008  1.00  0.00    -0.082 Cl
ATOM     22  C   UNL A   1      32.251  21.706  23.782  1.00  0.00     0.066 A 
ATOM     23  Cl  UNL A   1      31.955  21.533  22.079  1.00  0.00    -0.082 Cl
ENDBRANCH  13  15
ENDBRANCH   8  13
ENDBRANCH   4   7
ENDBRANCH   2   3
ENDBRANCH   1   2
BRANCH   1  24
ATOM     24  C   UNL A   1      36.781  24.208  24.999  1.00  0.00     0.118 C 
BRANCH  24  25
ATOM     25  N   UNL A   1      37.546  23.038  25.436  1.00  0.00    -0.352 N 
ATOM     26  C   UNL A   1      38.682  22.899  26.209  1.00  0.00     0.251 C 
ATOM     27  H   UNL A   1      37.179  22.182  25.115  1.00  0.00     0.163 HD
ATOM     28  O   UNL A   1      39.180  21.791  26.353  1.00  0.00    -0.269 OA
BRANCH  26  29
ATOM     29  C   UNL A   1      39.322  24.081  26.833  1.00  0.00     0.039 A 
ATOM     30  C   UNL A   1      40.108  24.937  26.053  1.00  0.00     0.014 A 
ATOM     31  C   UNL A   1      39.145  24.357  28.185  1.00  0.00     0.014 A 
ATOM     32  C   UNL A   1      40.609  26.121  26.607  1.00  0.00     0.010 A 
ATOM     33  C   UNL A   1      39.515  25.593  28.692  1.00  0.00     0.010 A 
ATOM     34  C   UNL A   1      40.264  26.489  27.917  1.00  0.00    -0.014 A 
BRANCH  34  35
ATOM     35  C   UNL A   1      40.679  27.778  28.528  1.00  0.00     0.031 A 
ATOM     36  C   UNL A   1      42.049  27.901  29.147  1.00  0.00     0.074 A 
ATOM     37  C   UNL A   1      39.792  28.786  28.649  1.00  0.00     0.049 A 
ATOM     38  N   UNL A   1      42.542  28.859  29.889  1.00  0.00    -0.248 NA
ATOM     39  C   UNL A   1      42.964  26.763  28.954  1.00  0.00     0.031 C 
ATOM     40  C   UNL A   1      38.412  28.770  28.157  1.00  0.00     0.029 A 
ATOM     41  N   UNL A   1      39.914  30.017  29.245  1.00  0.00    -0.354 N 
ATOM     42  C   UNL A   1      43.799  28.417  30.286  1.00  0.00     0.074 A 
ATOM     43  C   UNL A   1      43.961  27.079  29.764  1.00  0.00     0.031 C 
ATOM     44  C   UNL A   1      37.825  29.941  28.451  1.00  0.00     0.029 A 
ATOM     45  C   UNL A   1      38.767  30.773  29.191  1.00  0.00     0.049 A 
ATOM     46  H   UNL A   1      40.745  30.328  29.673  1.00  0.00     0.167 HD
ATOM     47  C   UNL A   1      44.749  29.073  30.996  1.00  0.00     0.031 A 
ATOM     48  C   UNL A   1      38.497  31.995  29.692  1.00  0.00     0.031 A 
ATOM     49  C   UNL A   1      44.593  30.417  31.479  1.00  0.00     0.049 A 
ATOM     50  C   UNL A   1      39.578  32.732  30.432  1.00  0.00     0.074 A 
ATOM     51  C   UNL A   1      45.513  31.208  32.143  1.00  0.00     0.029 A 
ATOM     52  N   UNL A   1      43.439  31.175  31.339  1.00  0.00    -0.354 N 
ATOM     53  N   UNL A   1      40.785  32.324  30.744  1.00  0.00    -0.248 NA
ATOM     54  C   UNL A   1      39.267  34.098  30.872  1.00  0.00     0.031 C 
ATOM     55  C   UNL A   1      44.900  32.431  32.440  1.00  0.00     0.029 A 
ATOM     56  C   UNL A   1      43.618  32.421  31.914  1.00  0.00     0.049 A 
ATOM     57  H   UNL A   1      42.614  30.870  30.897  1.00  0.00     0.167 HD
ATOM     58  C   UNL A   1      41.387  33.391  31.401  1.00  0.00     0.074 A 
ATOM     59  C   UNL A   1      40.415  34.467  31.425  1.00  0.00     0.031 C 
ATOM     60  C   UNL A   1      42.633  33.475  31.933  1.00  0.00     0.031 A 
BRANCH  47  61
ATOM     61  C   UNL A   1      46.030  28.329  31.283  1.00  0.00    -0.014 A 
ATOM     62  C   UNL A   1      47.107  28.359  30.376  1.00  0.00     0.010 A 
ATOM     63  C   UNL A   1      46.152  27.567  32.457  1.00  0.00     0.010 A 
ATOM     64  C   UNL A   1      48.245  27.581  30.600  1.00  0.00     0.020 A 
ATOM     65  C   UNL A   1      47.305  26.815  32.704  1.00  0.00     0.020 A 
ATOM     66  C   UNL A   1      48.331  26.803  31.757  1.00  0.00     0.054 A 
BRANCH  66  67
ATOM     67  S   UNL A   1      49.807  25.779  32.009  1.00  0.00     0.124 S 
ATOM     68  O   UNL A   1      49.375  24.892  33.087  1.00  0.00    -0.237 OA
ATOM     69  O   UNL A   1      49.983  25.141  30.707  1.00  0.00    -0.237 OA
ATOM     70  O   UNL A   1      50.841  26.745  32.372  1.00  0.00    -0.744 OA
ENDBRANCH  66  67
ENDBRANCH  47  61
BRANCH  48  71
ATOM     71  C   UNL A   1      37.154  32.596  29.469  1.00  0.00    -0.014 A 
ATOM     72  C   UNL A   1      36.173  32.541  30.475  1.00  0.00     0.010 A 
ATOM     73  C   UNL A   1      36.873  33.293  28.279  1.00  0.00     0.010 A 
ATOM     74  C   UNL A   1      34.938  33.172  30.298  1.00  0.00     0.020 A 
ATOM     75  C   UNL A   1      35.648  33.947  28.109  1.00  0.00     0.020 A 
ATOM     76  C   UNL A   1      34.687  33.881  29.119  1.00  0.00     0.054 A 
BRANCH  76  77
ATOM     77  S   UNL A   1      33.116  34.776  28.955  1.00  0.00     0.124 S 
ATOM     78  O   UNL A   1      33.557  36.081  28.476  1.00  0.00    -0.237 OA
ATOM     79  O   UNL A   1      32.387  33.959  27.988  1.00  0.00    -0.237 OA
ATOM     80  O   UNL A   1      32.569  34.756  30.311  1.00  0.00    -0.744 OA
ENDBRANCH  76  77
ENDBRANCH  48  71
BRANCH  60  81
ATOM     81  C   UNL A   1      43.026  34.781  32.565  1.00  0.00    -0.014 A 
ATOM     82  C   UNL A   1      43.629  35.804  31.811  1.00  0.00     0.010 A 
ATOM     83  C   UNL A   1      42.730  35.010  33.921  1.00  0.00     0.010 A 
ATOM     84  C   UNL A   1      43.957  37.022  32.412  1.00  0.00     0.020 A 
ATOM     85  C   UNL A   1      43.032  36.236  34.518  1.00  0.00     0.020 A 
ATOM     86  C   UNL A   1      43.656  37.230  33.762  1.00  0.00     0.054 A 
BRANCH  86  87
ATOM     87  S   UNL A   1      44.049  38.836  34.507  1.00  0.00     0.124 S 
ATOM     88  O   UNL A   1      43.957  38.539  35.934  1.00  0.00    -0.237 OA
ATOM     89  O   UNL A   1      45.395  39.101  34.006  1.00  0.00    -0.237 OA
ATOM     90  O   UNL A   1      43.011  39.722  33.987  1.00  0.00    -0.744 OA
ENDBRANCH  86  87
ENDBRANCH  60  81
ENDBRANCH  34  35
ENDBRANCH  26  29
ENDBRANCH  24  25
ENDBRANCH   1  24
TORSDOF 15
ENDMDL
