MODEL 1
REMARK VINA RESULT:     -10.8      0.000      0.000
REMARK SMILES CC(C)(Cn1ccc(=O)nc1SCC(=O)NCCCNC(=O)c1ccc(-c2c3nc(c(-c4ccc(S(=O)(=O)[O-])cc4)c4ccc([nH]4)c(-c4ccc(S(=O)(=O)[O-])cc4)c4nc(c(-c5ccc(S(=O)(=O)[O-])cc5)c5ccc2[nH]5)C=C4)C=C3)cc1)S(C)(=O)=O
REMARK SMILES IDX 17 1 16 2 14 3 15 4 13 6 12 7 11 8 5 9 6 10 7 11 10 12 8 13
REMARK SMILES IDX 9 14 4 15 2 16 1 17 3 18 83 19 84 20 85 21 86 22 18 23 19 24
REMARK SMILES IDX 20 25 21 26 22 28 23 29 24 30 82 31 25 32 81 33 26 34 27 35
REMARK SMILES IDX 28 36 75 37 29 38 80 39 74 40 76 41 30 42 79 43 73 44 72 45
REMARK SMILES IDX 31 47 61 48 42 49 60 50 43 51 46 52 59 53 77 54 44 55 45 56
REMARK SMILES IDX 58 58 78 59 47 60 32 61 33 62 41 63 34 64 40 65 35 66 36 67
REMARK SMILES IDX 37 68 38 69 39 70 62 71 63 72 71 73 64 74 70 75 65 76 66 77
REMARK SMILES IDX 67 78 68 79 69 80 48 81 49 82 57 83 50 84 56 85 51 86 52 87
REMARK SMILES IDX 53 88 54 89 55 90
REMARK H PARENT 16 5 20 27 76 46 46 57
REMARK Flexibility Score: inf
ROOT
ATOM      1  C   UNL A   1      39.683  21.828  25.709  1.00  0.00     0.117 C 
ENDROOT
BRANCH   1   2
ATOM      2  N   UNL A   1      38.630  20.849  25.540  1.00  0.00    -0.355 N 
ATOM      3  C   UNL A   1      37.335  21.017  25.192  1.00  0.00     0.230 C 
ATOM      4  O   UNL A   1      36.669  19.990  25.024  1.00  0.00    -0.274 OA
ATOM      5  H   UNL A   1      38.900  19.917  25.703  1.00  0.00     0.163 HD
BRANCH   3   6
ATOM      6  C   UNL A   1      36.753  22.380  24.900  1.00  0.00     0.178 C 
BRANCH   6   7
ATOM      7  S   UNL A   1      35.430  22.532  23.716  1.00  0.00    -0.078 SA
BRANCH   7   8
ATOM      8  C   UNL A   1      34.559  24.056  23.759  1.00  0.00     0.172 A 
ATOM      9  N   UNL A   1      33.968  24.681  24.863  1.00  0.00    -0.326 N 
ATOM     10  C   UNL A   1      33.583  26.004  24.671  1.00  0.00     0.094 A 
ATOM     11  C   UNL A   1      33.493  26.560  23.462  1.00  0.00     0.091 A 
ATOM     12  N   UNL A   1      34.475  24.535  22.555  1.00  0.00    -0.185 NA
ATOM     13  C   UNL A   1      33.744  25.671  22.311  1.00  0.00     0.273 A 
ATOM     14  O   UNL A   1      33.302  25.983  21.217  1.00  0.00    -0.267 OA
BRANCH   9  15
ATOM     15  C   UNL A   1      33.808  24.103  26.201  1.00  0.00     0.146 C 
BRANCH  15  16
ATOM     16  C   UNL A   1      32.594  23.195  26.464  1.00  0.00     0.084 C 
ATOM     17  C   UNL A   1      32.468  22.031  25.478  1.00  0.00     0.030 C 
ATOM     18  C   UNL A   1      32.837  22.590  27.877  1.00  0.00     0.030 C 
BRANCH  16  19
ATOM     19  S   UNL A   1      31.046  24.148  26.561  1.00  0.00     0.154 S 
ATOM     20  C   UNL A   1      30.407  24.331  24.911  1.00  0.00     0.158 C 
ATOM     21  O   UNL A   1      30.076  23.334  27.274  1.00  0.00    -0.229 OA
ATOM     22  O   UNL A   1      31.358  25.477  27.054  1.00  0.00    -0.229 OA
ENDBRANCH  16  19
ENDBRANCH  15  16
ENDBRANCH   9  15
ENDBRANCH   7   8
ENDBRANCH   6   7
ENDBRANCH   3   6
ENDBRANCH   1   2
BRANCH   1  23
ATOM     23  C   UNL A   1      40.186  21.859  27.142  1.00  0.00     0.042 C 
BRANCH  23  24
ATOM     24  C   UNL A   1      41.006  23.102  27.478  1.00  0.00     0.118 C 
BRANCH  24  25
ATOM     25  N   UNL A   1      41.065  24.072  26.387  1.00  0.00    -0.352 N 
ATOM     26  C   UNL A   1      41.011  25.446  26.432  1.00  0.00     0.251 C 
ATOM     27  H   UNL A   1      41.159  23.684  25.487  1.00  0.00     0.163 HD
ATOM     28  O   UNL A   1      40.925  26.097  25.396  1.00  0.00    -0.269 OA
BRANCH  26  29
ATOM     29  C   UNL A   1      41.009  26.117  27.746  1.00  0.00     0.039 A 
ATOM     30  C   UNL A   1      39.859  26.096  28.534  1.00  0.00     0.014 A 
ATOM     31  C   UNL A   1      42.126  26.858  28.136  1.00  0.00     0.014 A 
ATOM     32  C   UNL A   1      39.740  26.997  29.584  1.00  0.00     0.010 A 
ATOM     33  C   UNL A   1      42.038  27.683  29.258  1.00  0.00     0.010 A 
ATOM     34  C   UNL A   1      40.820  27.815  29.947  1.00  0.00    -0.014 A 
BRANCH  34  35
ATOM     35  C   UNL A   1      40.656  28.832  31.018  1.00  0.00     0.031 A 
ATOM     36  C   UNL A   1      41.538  28.798  32.240  1.00  0.00     0.074 A 
ATOM     37  C   UNL A   1      39.734  29.805  30.875  1.00  0.00     0.049 A 
ATOM     38  N   UNL A   1      41.478  29.543  33.313  1.00  0.00    -0.248 NA
ATOM     39  C   UNL A   1      42.626  27.804  32.267  1.00  0.00     0.031 C 
ATOM     40  C   UNL A   1      38.856  29.967  29.714  1.00  0.00     0.029 A 
ATOM     41  N   UNL A   1      39.385  30.844  31.702  1.00  0.00    -0.354 N 
ATOM     42  C   UNL A   1      42.496  29.093  34.148  1.00  0.00     0.074 A 
ATOM     43  C   UNL A   1      43.146  27.995  33.473  1.00  0.00     0.031 C 
ATOM     44  C   UNL A   1      38.089  31.052  29.890  1.00  0.00     0.029 A 
ATOM     45  C   UNL A   1      38.353  31.612  31.213  1.00  0.00     0.049 A 
ATOM     46  H   UNL A   1      39.829  31.023  32.562  1.00  0.00     0.167 HD
ATOM     47  C   UNL A   1      42.856  29.568  35.362  1.00  0.00     0.031 A 
ATOM     48  C   UNL A   1      37.660  32.624  31.773  1.00  0.00     0.031 A 
ATOM     49  C   UNL A   1      42.225  30.694  36.002  1.00  0.00     0.049 A 
ATOM     50  C   UNL A   1      38.040  33.093  33.148  1.00  0.00     0.074 A 
ATOM     51  C   UNL A   1      42.546  31.267  37.220  1.00  0.00     0.029 A 
ATOM     52  N   UNL A   1      41.165  31.420  35.483  1.00  0.00    -0.354 N 
ATOM     53  N   UNL A   1      39.010  32.661  33.919  1.00  0.00    -0.248 NA
ATOM     54  C   UNL A   1      37.246  34.181  33.734  1.00  0.00     0.031 C 
ATOM     55  C   UNL A   1      41.628  32.283  37.477  1.00  0.00     0.029 A 
ATOM     56  C   UNL A   1      40.794  32.409  36.377  1.00  0.00     0.049 A 
ATOM     57  H   UNL A   1      40.740  31.256  34.610  1.00  0.00     0.167 HD
ATOM     58  C   UNL A   1      38.953  33.434  35.072  1.00  0.00     0.074 A 
ATOM     59  C   UNL A   1      37.868  34.375  34.892  1.00  0.00     0.031 C 
ATOM     60  C   UNL A   1      39.727  33.360  36.180  1.00  0.00     0.031 A 
BRANCH  47  61
ATOM     61  C   UNL A   1      43.989  28.909  36.110  1.00  0.00    -0.014 A 
ATOM     62  C   UNL A   1      45.318  29.243  35.779  1.00  0.00     0.010 A 
ATOM     63  C   UNL A   1      43.752  27.824  36.973  1.00  0.00     0.010 A 
ATOM     64  C   UNL A   1      46.382  28.462  36.237  1.00  0.00     0.020 A 
ATOM     65  C   UNL A   1      44.819  27.059  37.457  1.00  0.00     0.020 A 
ATOM     66  C   UNL A   1      46.122  27.361  37.056  1.00  0.00     0.054 A 
BRANCH  66  67
ATOM     67  S   UNL A   1      47.508  26.297  37.547  1.00  0.00     0.124 S 
ATOM     68  O   UNL A   1      46.911  25.474  38.594  1.00  0.00    -0.237 OA
ATOM     69  O   UNL A   1      47.831  25.602  36.303  1.00  0.00    -0.237 OA
ATOM     70  O   UNL A   1      48.524  27.245  38.002  1.00  0.00    -0.744 OA
ENDBRANCH  66  67
ENDBRANCH  47  61
BRANCH  48  71
ATOM     71  C   UNL A   1      36.519  33.221  31.022  1.00  0.00    -0.014 A 
ATOM     72  C   UNL A   1      36.755  33.918  29.819  1.00  0.00     0.010 A 
ATOM     73  C   UNL A   1      35.213  33.181  31.537  1.00  0.00     0.010 A 
ATOM     74  C   UNL A   1      35.728  34.618  29.185  1.00  0.00     0.020 A 
ATOM     75  C   UNL A   1      34.170  33.847  30.881  1.00  0.00     0.020 A 
ATOM     76  C   UNL A   1      34.443  34.588  29.729  1.00  0.00     0.054 A 
BRANCH  76  77
ATOM     77  S   UNL A   1      33.136  35.547  28.916  1.00  0.00     0.124 S 
ATOM     78  O   UNL A   1      32.471  34.525  28.111  1.00  0.00    -0.237 OA
ATOM     79  O   UNL A   1      32.365  36.056  30.046  1.00  0.00    -0.237 OA
ATOM     80  O   UNL A   1      33.870  36.558  28.160  1.00  0.00    -0.744 OA
ENDBRANCH  76  77
ENDBRANCH  48  71
BRANCH  60  81
ATOM     81  C   UNL A   1      39.466  34.315  37.316  1.00  0.00    -0.014 A 
ATOM     82  C   UNL A   1      40.131  35.557  37.344  1.00  0.00     0.010 A 
ATOM     83  C   UNL A   1      38.743  33.899  38.446  1.00  0.00     0.010 A 
ATOM     84  C   UNL A   1      40.142  36.328  38.507  1.00  0.00     0.020 A 
ATOM     85  C   UNL A   1      38.722  34.686  39.601  1.00  0.00     0.020 A 
ATOM     86  C   UNL A   1      39.454  35.876  39.636  1.00  0.00     0.054 A 
BRANCH  86  87
ATOM     87  S   UNL A   1      39.573  36.837  41.170  1.00  0.00     0.124 S 
ATOM     88  O   UNL A   1      38.813  36.015  42.107  1.00  0.00    -0.237 OA
ATOM     89  O   UNL A   1      41.014  36.889  41.402  1.00  0.00    -0.237 OA
ATOM     90  O   UNL A   1      38.959  38.117  40.822  1.00  0.00    -0.744 OA
ENDBRANCH  86  87
ENDBRANCH  60  81
ENDBRANCH  34  35
ENDBRANCH  26  29
ENDBRANCH  24  25
ENDBRANCH  23  24
ENDBRANCH   1  23
TORSDOF 18
ENDMDL
MODEL 2
REMARK VINA RESULT:     -10.8      6.284     11.168
REMARK SMILES CC(C)(Cn1ccc(=O)nc1SCC(=O)NCCCNC(=O)c1ccc(-c2c3nc(c(-c4ccc(S(=O)(=O)[O-])cc4)c4ccc([nH]4)c(-c4ccc(S(=O)(=O)[O-])cc4)c4nc(c(-c5ccc(S(=O)(=O)[O-])cc5)c5ccc2[nH]5)C=C4)C=C3)cc1)S(C)(=O)=O
REMARK SMILES IDX 17 1 16 2 14 3 15 4 13 6 12 7 11 8 5 9 6 10 7 11 10 12 8 13
REMARK SMILES IDX 9 14 4 15 2 16 1 17 3 18 83 19 84 20 85 21 86 22 18 23 19 24
REMARK SMILES IDX 20 25 21 26 22 28 23 29 24 30 82 31 25 32 81 33 26 34 27 35
REMARK SMILES IDX 28 36 75 37 29 38 80 39 74 40 76 41 30 42 79 43 73 44 72 45
REMARK SMILES IDX 31 47 61 48 42 49 60 50 43 51 46 52 59 53 77 54 44 55 45 56
REMARK SMILES IDX 58 58 78 59 47 60 32 61 33 62 41 63 34 64 40 65 35 66 36 67
REMARK SMILES IDX 37 68 38 69 39 70 62 71 63 72 71 73 64 74 70 75 65 76 66 77
REMARK SMILES IDX 67 78 68 79 69 80 48 81 49 82 57 83 50 84 56 85 51 86 52 87
REMARK SMILES IDX 53 88 54 89 55 90
REMARK H PARENT 16 5 20 27 76 46 46 57
REMARK Flexibility Score: inf
ROOT
ATOM      1  C   UNL A   1      36.785  22.060  25.767  1.00  0.00     0.117 C 
ENDROOT
BRANCH   1   2
ATOM      2  N   UNL A   1      35.632  21.201  25.932  1.00  0.00    -0.355 N 
ATOM      3  C   UNL A   1      34.483  21.144  25.224  1.00  0.00     0.230 C 
ATOM      4  O   UNL A   1      33.694  20.241  25.521  1.00  0.00    -0.274 OA
ATOM      5  H   UNL A   1      35.695  20.559  26.676  1.00  0.00     0.163 HD
BRANCH   3   6
ATOM      6  C   UNL A   1      34.220  22.053  24.047  1.00  0.00     0.178 C 
BRANCH   6   7
ATOM      7  S   UNL A   1      34.052  23.807  24.313  1.00  0.00    -0.078 SA
BRANCH   7   8
ATOM      8  C   UNL A   1      32.519  24.317  24.999  1.00  0.00     0.172 A 
ATOM      9  N   UNL A   1      31.831  25.515  24.779  1.00  0.00    -0.326 N 
ATOM     10  C   UNL A   1      30.516  25.546  25.231  1.00  0.00     0.094 A 
ATOM     11  C   UNL A   1      30.022  24.638  26.074  1.00  0.00     0.091 A 
ATOM     12  N   UNL A   1      32.102  23.412  25.833  1.00  0.00    -0.185 NA
ATOM     13  C   UNL A   1      30.972  23.629  26.581  1.00  0.00     0.273 A 
ATOM     14  O   UNL A   1      30.712  23.043  27.620  1.00  0.00    -0.267 OA
BRANCH   9  15
ATOM     15  C   UNL A   1      32.337  26.682  24.049  1.00  0.00     0.146 C 
BRANCH  15  16
ATOM     16  C   UNL A   1      33.104  27.760  24.835  1.00  0.00     0.084 C 
ATOM     17  C   UNL A   1      33.963  27.200  25.972  1.00  0.00     0.030 C 
ATOM     18  C   UNL A   1      34.064  28.413  23.799  1.00  0.00     0.030 C 
BRANCH  16  19
ATOM     19  S   UNL A   1      31.999  29.078  25.429  1.00  0.00     0.154 S 
ATOM     20  C   UNL A   1      30.772  29.375  24.176  1.00  0.00     0.158 C 
ATOM     21  O   UNL A   1      31.275  28.557  26.577  1.00  0.00    -0.229 OA
ATOM     22  O   UNL A   1      32.775  30.296  25.572  1.00  0.00    -0.229 OA
ENDBRANCH  16  19
ENDBRANCH  15  16
ENDBRANCH   9  15
ENDBRANCH   7   8
ENDBRANCH   6   7
ENDBRANCH   3   6
ENDBRANCH   1   2
BRANCH   1  23
ATOM     23  C   UNL A   1      37.949  21.312  25.141  1.00  0.00     0.042 C 
BRANCH  23  24
ATOM     24  C   UNL A   1      39.234  21.376  25.963  1.00  0.00     0.118 C 
BRANCH  24  25
ATOM     25  N   UNL A   1      39.965  20.111  25.998  1.00  0.00    -0.352 N 
ATOM     26  C   UNL A   1      41.316  19.883  26.129  1.00  0.00     0.251 C 
ATOM     27  H   UNL A   1      39.408  19.303  25.917  1.00  0.00     0.163 HD
ATOM     28  O   UNL A   1      41.770  18.752  25.988  1.00  0.00    -0.269 OA
BRANCH  26  29
ATOM     29  C   UNL A   1      42.210  21.026  26.393  1.00  0.00     0.039 A 
ATOM     30  C   UNL A   1      42.519  21.377  27.707  1.00  0.00     0.014 A 
ATOM     31  C   UNL A   1      42.648  21.811  25.325  1.00  0.00     0.014 A 
ATOM     32  C   UNL A   1      43.060  22.629  27.965  1.00  0.00     0.010 A 
ATOM     33  C   UNL A   1      43.290  23.022  25.588  1.00  0.00     0.010 A 
ATOM     34  C   UNL A   1      43.434  23.475  26.910  1.00  0.00    -0.014 A 
BRANCH  34  35
ATOM     35  C   UNL A   1      43.935  24.844  27.197  1.00  0.00     0.031 A 
ATOM     36  C   UNL A   1      42.979  25.928  27.628  1.00  0.00     0.074 A 
ATOM     37  C   UNL A   1      45.255  25.104  27.102  1.00  0.00     0.049 A 
ATOM     38  N   UNL A   1      43.220  27.197  27.831  1.00  0.00    -0.248 NA
ATOM     39  C   UNL A   1      41.575  25.544  27.860  1.00  0.00     0.031 C 
ATOM     40  C   UNL A   1      46.280  24.122  26.740  1.00  0.00     0.029 A 
ATOM     41  N   UNL A   1      45.962  26.262  27.306  1.00  0.00    -0.354 N 
ATOM     42  C   UNL A   1      42.000  27.765  28.187  1.00  0.00     0.074 A 
ATOM     43  C   UNL A   1      41.013  26.711  28.151  1.00  0.00     0.031 C 
ATOM     44  C   UNL A   1      47.483  24.712  26.773  1.00  0.00     0.029 A 
ATOM     45  C   UNL A   1      47.311  26.132  27.067  1.00  0.00     0.049 A 
ATOM     46  H   UNL A   1      45.545  27.106  27.596  1.00  0.00     0.167 HD
ATOM     47  C   UNL A   1      41.739  29.049  28.524  1.00  0.00     0.031 A 
ATOM     48  C   UNL A   1      48.298  27.050  27.039  1.00  0.00     0.031 A 
ATOM     49  C   UNL A   1      42.744  30.078  28.598  1.00  0.00     0.049 A 
ATOM     50  C   UNL A   1      47.971  28.480  27.357  1.00  0.00     0.074 A 
ATOM     51  C   UNL A   1      42.576  31.402  28.963  1.00  0.00     0.029 A 
ATOM     52  N   UNL A   1      44.090  29.906  28.317  1.00  0.00    -0.354 N 
ATOM     53  N   UNL A   1      46.815  28.997  27.700  1.00  0.00    -0.248 NA
ATOM     54  C   UNL A   1      49.069  29.455  27.293  1.00  0.00     0.031 C 
ATOM     55  C   UNL A   1      43.801  32.049  28.821  1.00  0.00     0.029 A 
ATOM     56  C   UNL A   1      44.755  31.111  28.462  1.00  0.00     0.049 A 
ATOM     57  H   UNL A   1      44.509  29.054  28.054  1.00  0.00     0.167 HD
ATOM     58  C   UNL A   1      47.048  30.350  27.906  1.00  0.00     0.074 A 
ATOM     59  C   UNL A   1      48.459  30.573  27.672  1.00  0.00     0.031 C 
ATOM     60  C   UNL A   1      46.167  31.318  28.250  1.00  0.00     0.031 A 
BRANCH  47  61
ATOM     61  C   UNL A   1      40.324  29.455  28.858  1.00  0.00    -0.014 A 
ATOM     62  C   UNL A   1      39.341  29.410  27.850  1.00  0.00     0.010 A 
ATOM     63  C   UNL A   1      40.019  30.071  30.084  1.00  0.00     0.010 A 
ATOM     64  C   UNL A   1      38.105  30.036  28.034  1.00  0.00     0.020 A 
ATOM     65  C   UNL A   1      38.771  30.673  30.282  1.00  0.00     0.020 A 
ATOM     66  C   UNL A   1      37.838  30.684  29.242  1.00  0.00     0.054 A 
BRANCH  66  67
ATOM     67  S   UNL A   1      36.273  31.585  29.418  1.00  0.00     0.124 S 
ATOM     68  O   UNL A   1      35.309  30.643  28.860  1.00  0.00    -0.237 OA
ATOM     69  O   UNL A   1      36.188  31.796  30.861  1.00  0.00    -0.237 OA
ATOM     70  O   UNL A   1      36.486  32.800  28.633  1.00  0.00    -0.744 OA
ENDBRANCH  66  67
ENDBRANCH  47  61
BRANCH  48  71
ATOM     71  C   UNL A   1      49.675  26.619  26.661  1.00  0.00    -0.014 A 
ATOM     72  C   UNL A   1      50.108  26.737  25.324  1.00  0.00     0.010 A 
ATOM     73  C   UNL A   1      50.525  26.010  27.599  1.00  0.00     0.010 A 
ATOM     74  C   UNL A   1      51.329  26.196  24.920  1.00  0.00     0.020 A 
ATOM     75  C   UNL A   1      51.770  25.504  27.205  1.00  0.00     0.020 A 
ATOM     76  C   UNL A   1      52.147  25.571  25.861  1.00  0.00     0.054 A 
BRANCH  76  77
ATOM     77  S   UNL A   1      53.704  24.830  25.300  1.00  0.00     0.124 S 
ATOM     78  O   UNL A   1      54.582  25.079  26.442  1.00  0.00    -0.237 OA
ATOM     79  O   UNL A   1      53.333  23.434  25.084  1.00  0.00    -0.237 OA
ATOM     80  O   UNL A   1      54.025  25.581  24.089  1.00  0.00    -0.744 OA
ENDBRANCH  76  77
ENDBRANCH  48  71
BRANCH  60  81
ATOM     81  C   UNL A   1      46.665  32.732  28.414  1.00  0.00    -0.014 A 
ATOM     82  C   UNL A   1      46.561  33.633  27.337  1.00  0.00     0.010 A 
ATOM     83  C   UNL A   1      47.420  33.095  29.542  1.00  0.00     0.010 A 
ATOM     84  C   UNL A   1      47.265  34.838  27.351  1.00  0.00     0.020 A 
ATOM     85  C   UNL A   1      48.098  34.317  29.574  1.00  0.00     0.020 A 
ATOM     86  C   UNL A   1      48.047  35.162  28.462  1.00  0.00     0.054 A 
BRANCH  86  87
ATOM     87  S   UNL A   1      49.041  36.679  28.414  1.00  0.00     0.124 S 
ATOM     88  O   UNL A   1      49.504  36.787  29.794  1.00  0.00    -0.237 OA
ATOM     89  O   UNL A   1      50.068  36.355  27.428  1.00  0.00    -0.237 OA
ATOM     90  O   UNL A   1      48.086  37.703  27.994  1.00  0.00    -0.744 OA
ENDBRANCH  86  87
ENDBRANCH  60  81
ENDBRANCH  34  35
ENDBRANCH  26  29
ENDBRANCH  24  25
ENDBRANCH  23  24
ENDBRANCH   1  23
TORSDOF 18
ENDMDL
MODEL 3
REMARK VINA RESULT:     -10.7      6.593     11.003
REMARK SMILES CC(C)(Cn1ccc(=O)nc1SCC(=O)NCCCNC(=O)c1ccc(-c2c3nc(c(-c4ccc(S(=O)(=O)[O-])cc4)c4ccc([nH]4)c(-c4ccc(S(=O)(=O)[O-])cc4)c4nc(c(-c5ccc(S(=O)(=O)[O-])cc5)c5ccc2[nH]5)C=C4)C=C3)cc1)S(C)(=O)=O
REMARK SMILES IDX 17 1 16 2 14 3 15 4 13 6 12 7 11 8 5 9 6 10 7 11 10 12 8 13
REMARK SMILES IDX 9 14 4 15 2 16 1 17 3 18 83 19 84 20 85 21 86 22 18 23 19 24
REMARK SMILES IDX 20 25 21 26 22 28 23 29 24 30 82 31 25 32 81 33 26 34 27 35
REMARK SMILES IDX 28 36 75 37 29 38 80 39 74 40 76 41 30 42 79 43 73 44 72 45
REMARK SMILES IDX 31 47 61 48 42 49 60 50 43 51 46 52 59 53 77 54 44 55 45 56
REMARK SMILES IDX 58 58 78 59 47 60 32 61 33 62 41 63 34 64 40 65 35 66 36 67
REMARK SMILES IDX 37 68 38 69 39 70 62 71 63 72 71 73 64 74 70 75 65 76 66 77
REMARK SMILES IDX 67 78 68 79 69 80 48 81 49 82 57 83 50 84 56 85 51 86 52 87
REMARK SMILES IDX 53 88 54 89 55 90
REMARK H PARENT 16 5 20 27 76 46 46 57
REMARK Flexibility Score: inf
ROOT
ATOM      1  C   UNL A   1      39.959  21.218  26.179  1.00  0.00     0.117 C 
ENDROOT
BRANCH   1   2
ATOM      2  N   UNL A   1      39.279  22.495  26.213  1.00  0.00    -0.355 N 
ATOM      3  C   UNL A   1      38.034  22.828  25.807  1.00  0.00     0.230 C 
ATOM      4  O   UNL A   1      37.666  23.983  26.042  1.00  0.00    -0.274 OA
ATOM      5  H   UNL A   1      39.806  23.236  26.591  1.00  0.00     0.163 HD
BRANCH   3   6
ATOM      6  C   UNL A   1      37.088  21.815  25.208  1.00  0.00     0.178 C 
BRANCH   6   7
ATOM      7  S   UNL A   1      35.551  21.454  26.035  1.00  0.00    -0.078 SA
BRANCH   7   8
ATOM      8  C   UNL A   1      34.193  21.116  24.976  1.00  0.00     0.172 A 
ATOM      9  N   UNL A   1      33.525  21.999  24.121  1.00  0.00    -0.326 N 
ATOM     10  C   UNL A   1      32.667  21.409  23.198  1.00  0.00     0.094 A 
ATOM     11  C   UNL A   1      32.264  20.143  23.295  1.00  0.00     0.091 A 
ATOM     12  N   UNL A   1      33.824  19.881  25.135  1.00  0.00    -0.185 NA
ATOM     13  C   UNL A   1      32.709  19.403  24.493  1.00  0.00     0.273 A 
ATOM     14  O   UNL A   1      32.080  18.419  24.846  1.00  0.00    -0.267 OA
BRANCH   9  15
ATOM     15  C   UNL A   1      33.716  23.451  24.055  1.00  0.00     0.146 C 
BRANCH  15  16
ATOM     16  C   UNL A   1      32.899  24.340  25.009  1.00  0.00     0.084 C 
ATOM     17  C   UNL A   1      32.189  23.563  26.120  1.00  0.00     0.030 C 
ATOM     18  C   UNL A   1      33.941  25.279  25.683  1.00  0.00     0.030 C 
BRANCH  16  19
ATOM     19  S   UNL A   1      31.736  25.410  24.105  1.00  0.00     0.154 S 
ATOM     20  C   UNL A   1      30.515  24.370  23.335  1.00  0.00     0.158 C 
ATOM     21  O   UNL A   1      31.017  26.203  25.088  1.00  0.00    -0.229 OA
ATOM     22  O   UNL A   1      32.463  26.082  23.044  1.00  0.00    -0.229 OA
ENDBRANCH  16  19
ENDBRANCH  15  16
ENDBRANCH   9  15
ENDBRANCH   7   8
ENDBRANCH   6   7
ENDBRANCH   3   6
ENDBRANCH   1   2
BRANCH   1  23
ATOM     23  C   UNL A   1      41.462  21.393  26.042  1.00  0.00     0.042 C 
BRANCH  23  24
ATOM     24  C   UNL A   1      42.266  20.177  26.492  1.00  0.00     0.118 C 
BRANCH  24  25
ATOM     25  N   UNL A   1      42.963  19.504  25.399  1.00  0.00    -0.352 N 
ATOM     26  C   UNL A   1      43.976  19.965  24.590  1.00  0.00     0.251 C 
ATOM     27  H   UNL A   1      42.665  18.583  25.215  1.00  0.00     0.163 HD
ATOM     28  O   UNL A   1      44.342  19.310  23.619  1.00  0.00    -0.269 OA
BRANCH  26  29
ATOM     29  C   UNL A   1      44.579  21.280  24.881  1.00  0.00     0.039 A 
ATOM     30  C   UNL A   1      45.310  21.464  26.054  1.00  0.00     0.014 A 
ATOM     31  C   UNL A   1      44.316  22.355  24.030  1.00  0.00     0.014 A 
ATOM     32  C   UNL A   1      45.575  22.754  26.493  1.00  0.00     0.010 A 
ATOM     33  C   UNL A   1      44.681  23.642  24.427  1.00  0.00     0.010 A 
ATOM     34  C   UNL A   1      45.247  23.860  25.695  1.00  0.00    -0.014 A 
BRANCH  34  35
ATOM     35  C   UNL A   1      45.459  25.237  26.209  1.00  0.00     0.031 A 
ATOM     36  C   UNL A   1      44.305  26.022  26.780  1.00  0.00     0.074 A 
ATOM     37  C   UNL A   1      46.698  25.770  26.193  1.00  0.00     0.049 A 
ATOM     38  N   UNL A   1      44.282  27.263  27.189  1.00  0.00    -0.248 NA
ATOM     39  C   UNL A   1      43.009  25.329  26.910  1.00  0.00     0.031 C 
ATOM     40  C   UNL A   1      47.899  25.088  25.709  1.00  0.00     0.029 A 
ATOM     41  N   UNL A   1      47.154  27.000  26.598  1.00  0.00    -0.354 N 
ATOM     42  C   UNL A   1      42.974  27.507  27.596  1.00  0.00     0.074 A 
ATOM     43  C   UNL A   1      42.223  26.296  27.366  1.00  0.00     0.031 C 
ATOM     44  C   UNL A   1      48.957  25.896  25.868  1.00  0.00     0.029 A 
ATOM     45  C   UNL A   1      48.500  27.185  26.379  1.00  0.00     0.049 A 
ATOM     46  H   UNL A   1      46.576  27.684  27.006  1.00  0.00     0.167 HD
ATOM     47  C   UNL A   1      42.458  28.641  28.126  1.00  0.00     0.031 A 
ATOM     48  C   UNL A   1      49.280  28.276  26.524  1.00  0.00     0.031 A 
ATOM     49  C   UNL A   1      43.232  29.827  28.390  1.00  0.00     0.049 A 
ATOM     50  C   UNL A   1      48.669  29.540  27.057  1.00  0.00     0.074 A 
ATOM     51  C   UNL A   1      42.800  31.013  28.956  1.00  0.00     0.029 A 
ATOM     52  N   UNL A   1      44.584  29.978  28.122  1.00  0.00    -0.354 N 
ATOM     53  N   UNL A   1      47.433  29.750  27.444  1.00  0.00    -0.248 NA
ATOM     54  C   UNL A   1      49.544  30.714  27.178  1.00  0.00     0.031 C 
ATOM     55  C   UNL A   1      43.866  31.909  28.953  1.00  0.00     0.029 A 
ATOM     56  C   UNL A   1      44.990  31.253  28.475  1.00  0.00     0.049 A 
ATOM     57  H   UNL A   1      45.166  29.282  27.739  1.00  0.00     0.167 HD
ATOM     58  C   UNL A   1      47.387  31.072  27.870  1.00  0.00     0.074 A 
ATOM     59  C   UNL A   1      48.721  31.610  27.713  1.00  0.00     0.031 C 
ATOM     60  C   UNL A   1      46.329  31.773  28.338  1.00  0.00     0.031 A 
BRANCH  47  61
ATOM     61  C   UNL A   1      40.993  28.693  28.481  1.00  0.00    -0.014 A 
ATOM     62  C   UNL A   1      40.066  29.127  27.512  1.00  0.00     0.010 A 
ATOM     63  C   UNL A   1      40.563  28.522  29.808  1.00  0.00     0.010 A 
ATOM     64  C   UNL A   1      38.759  29.459  27.876  1.00  0.00     0.020 A 
ATOM     65  C   UNL A   1      39.246  28.825  30.171  1.00  0.00     0.020 A 
ATOM     66  C   UNL A   1      38.364  29.326  29.210  1.00  0.00     0.054 A 
BRANCH  66  67
ATOM     67  S   UNL A   1      36.697  29.868  29.681  1.00  0.00     0.124 S 
ATOM     68  O   UNL A   1      35.889  29.385  28.566  1.00  0.00    -0.237 OA
ATOM     69  O   UNL A   1      36.490  29.184  30.955  1.00  0.00    -0.237 OA
ATOM     70  O   UNL A   1      36.823  31.321  29.778  1.00  0.00    -0.744 OA
ENDBRANCH  66  67
ENDBRANCH  47  61
BRANCH  48  71
ATOM     71  C   UNL A   1      50.713  28.199  26.121  1.00  0.00    -0.014 A 
ATOM     72  C   UNL A   1      51.072  28.348  24.766  1.00  0.00     0.010 A 
ATOM     73  C   UNL A   1      51.712  27.890  27.058  1.00  0.00     0.010 A 
ATOM     74  C   UNL A   1      52.384  28.123  24.347  1.00  0.00     0.020 A 
ATOM     75  C   UNL A   1      53.038  27.705  26.648  1.00  0.00     0.020 A 
ATOM     76  C   UNL A   1      53.357  27.789  25.289  1.00  0.00     0.054 A 
BRANCH  76  77
ATOM     77  S   UNL A   1      55.043  27.451  24.713  1.00  0.00     0.124 S 
ATOM     78  O   UNL A   1      55.330  26.175  25.364  1.00  0.00    -0.237 OA
ATOM     79  O   UNL A   1      54.878  27.394  23.263  1.00  0.00    -0.237 OA
ATOM     80  O   UNL A   1      55.810  28.591  25.206  1.00  0.00    -0.744 OA
ENDBRANCH  76  77
ENDBRANCH  48  71
BRANCH  60  81
ATOM     81  C   UNL A   1      46.528  33.213  28.738  1.00  0.00    -0.014 A 
ATOM     82  C   UNL A   1      46.752  33.532  30.092  1.00  0.00     0.010 A 
ATOM     83  C   UNL A   1      46.282  34.248  27.821  1.00  0.00     0.010 A 
ATOM     84  C   UNL A   1      46.648  34.851  30.535  1.00  0.00     0.020 A 
ATOM     85  C   UNL A   1      46.212  35.575  28.255  1.00  0.00     0.020 A 
ATOM     86  C   UNL A   1      46.356  35.863  29.615  1.00  0.00     0.054 A 
BRANCH  86  87
ATOM     87  S   UNL A   1      46.116  37.553  30.228  1.00  0.00     0.124 S 
ATOM     88  O   UNL A   1      46.516  37.433  31.627  1.00  0.00    -0.237 OA
ATOM     89  O   UNL A   1      47.015  38.330  29.379  1.00  0.00    -0.237 OA
ATOM     90  O   UNL A   1      44.692  37.800  30.005  1.00  0.00    -0.744 OA
ENDBRANCH  86  87
ENDBRANCH  60  81
ENDBRANCH  34  35
ENDBRANCH  26  29
ENDBRANCH  24  25
ENDBRANCH  23  24
ENDBRANCH   1  23
TORSDOF 18
ENDMDL
