MODEL 1
REMARK VINA RESULT:     -12.8      0.000      0.000
REMARK SMILES O=C(NCCCNC(=O)c1nn(Cc2ccc(F)cc2)c2c1CN(C(=O)[C@H]1CC1(F)F)CC2)c1ccc(-c2c3nc(c(-c4ccc(S(=O)(=O)[O-])cc4)c4ccc([nH]4)c(-c4ccc(S(=O)(=O)[O-])cc4)c4nc(c(-c5ccc(S(=O)(=O)[O-])cc5)c5ccc2[nH]5)C=C4)C=C3)cc1
REMARK SMILES IDX 4 1 3 2 1 3 2 4 34 6 35 7 93 8 36 9 92 10 37 11 38 12 39 13
REMARK SMILES IDX 86 14 40 15 91 16 85 17 87 18 41 19 90 20 84 21 83 22 42 24
REMARK SMILES IDX 72 25 53 26 71 27 54 28 57 29 70 30 88 31 55 32 56 33 69 35
REMARK SMILES IDX 89 36 58 37 43 38 44 39 52 40 45 41 51 42 46 43 47 44 48 45
REMARK SMILES IDX 49 46 50 47 73 48 74 49 82 50 75 51 81 52 76 53 77 54 78 55
REMARK SMILES IDX 79 56 80 57 59 58 60 59 68 60 61 61 67 62 62 63 63 64 64 65
REMARK SMILES IDX 65 66 66 67 5 68 6 69 7 70 8 71 9 73 10 74 11 75 22 76 12 77
REMARK SMILES IDX 21 78 23 79 33 80 24 81 32 82 13 83 14 84 15 85 20 86 16 87
REMARK SMILES IDX 19 88 17 89 18 90 25 91 26 92 27 93 28 94 29 95 30 96 31 97
REMARK H PARENT 3 5 87 23 57 34 7 72
REMARK Flexibility Score: inf
ROOT
ATOM      1  C   UNL A   1      39.320  19.761  26.294  1.00  0.00     0.118 C 
ENDROOT
BRANCH   1   2
ATOM      2  N   UNL A   1      40.753  19.611  26.127  1.00  0.00    -0.352 N 
ATOM      3  O   UNL A   1      42.940  19.788  26.285  1.00  0.00    -0.269 OA
ATOM      4  C   UNL A   1      41.858  20.373  26.400  1.00  0.00     0.251 C 
ATOM      5  H   UNL A   1      40.990  18.749  25.714  1.00  0.00     0.163 HD
BRANCH   4   6
ATOM      6  C   UNL A   1      41.869  21.819  26.769  1.00  0.00     0.039 A 
ATOM      7  C   UNL A   1      41.316  22.866  26.031  1.00  0.00     0.014 A 
ATOM      8  C   UNL A   1      42.504  22.134  27.990  1.00  0.00     0.014 A 
ATOM      9  C   UNL A   1      41.425  24.187  26.487  1.00  0.00     0.010 A 
ATOM     10  C   UNL A   1      42.616  23.449  28.445  1.00  0.00     0.010 A 
ATOM     11  C   UNL A   1      42.086  24.486  27.687  1.00  0.00    -0.014 A 
BRANCH  11  12
ATOM     12  C   UNL A   1      42.055  25.864  28.187  1.00  0.00     0.031 A 
ATOM     13  C   UNL A   1      43.182  26.733  27.740  1.00  0.00     0.074 A 
ATOM     14  C   UNL A   1      41.038  26.446  28.859  1.00  0.00     0.049 A 
ATOM     15  N   UNL A   1      44.123  27.257  28.458  1.00  0.00    -0.248 NA
ATOM     16  C   UNL A   1      43.312  26.994  26.300  1.00  0.00     0.031 C 
ATOM     17  C   UNL A   1      39.699  25.911  29.107  1.00  0.00     0.029 A 
ATOM     18  N   UNL A   1      40.971  27.708  29.387  1.00  0.00    -0.354 N 
ATOM     19  C   UNL A   1      44.859  28.071  27.597  1.00  0.00     0.074 A 
ATOM     20  C   UNL A   1      44.399  27.765  26.265  1.00  0.00     0.031 C 
ATOM     21  C   UNL A   1      38.896  26.908  29.550  1.00  0.00     0.029 A 
ATOM     22  C   UNL A   1      39.691  28.110  29.749  1.00  0.00     0.049 A 
ATOM     23  H   UNL A   1      41.764  28.281  29.501  1.00  0.00     0.167 HD
ATOM     24  C   UNL A   1      45.657  29.079  28.051  1.00  0.00     0.031 A 
ATOM     25  C   UNL A   1      39.302  29.350  30.142  1.00  0.00     0.031 A 
ATOM     26  C   UNL A   1      45.901  28.982  29.467  1.00  0.00     0.049 A 
ATOM     27  C   UNL A   1      40.503  30.083  30.603  1.00  0.00     0.074 A 
ATOM     28  C   UNL A   1      46.450  28.035  30.307  1.00  0.00     0.029 A 
ATOM     29  N   UNL A   1      45.242  29.871  30.281  1.00  0.00    -0.354 N 
ATOM     30  N   UNL A   1      41.159  29.798  31.691  1.00  0.00    -0.248 NA
ATOM     31  C   UNL A   1      41.198  30.948  29.663  1.00  0.00     0.031 C 
ATOM     32  C   UNL A   1      45.705  28.136  31.517  1.00  0.00     0.029 A 
ATOM     33  C   UNL A   1      44.777  29.167  31.359  1.00  0.00     0.049 A 
ATOM     34  H   UNL A   1      45.125  30.835  30.119  1.00  0.00     0.167 HD
ATOM     35  C   UNL A   1      42.481  30.091  31.396  1.00  0.00     0.074 A 
ATOM     36  C   UNL A   1      42.425  30.905  30.186  1.00  0.00     0.031 C 
ATOM     37  C   UNL A   1      43.504  29.422  32.003  1.00  0.00     0.031 A 
BRANCH  24  38
ATOM     38  C   UNL A   1      45.916  30.367  27.297  1.00  0.00    -0.014 A 
ATOM     39  C   UNL A   1      47.244  30.840  27.194  1.00  0.00     0.010 A 
ATOM     40  C   UNL A   1      44.892  31.269  26.947  1.00  0.00     0.010 A 
ATOM     41  C   UNL A   1      47.521  32.171  26.857  1.00  0.00     0.020 A 
ATOM     42  C   UNL A   1      45.161  32.585  26.561  1.00  0.00     0.020 A 
ATOM     43  C   UNL A   1      46.472  33.041  26.563  1.00  0.00     0.054 A 
BRANCH  43  44
ATOM     44  S   UNL A   1      46.829  34.790  26.265  1.00  0.00     0.124 S 
ATOM     45  O   UNL A   1      47.724  34.719  25.115  1.00  0.00    -0.237 OA
ATOM     46  O   UNL A   1      45.501  35.338  26.003  1.00  0.00    -0.237 OA
ATOM     47  O   UNL A   1      47.444  35.230  27.515  1.00  0.00    -0.744 OA
ENDBRANCH  43  44
ENDBRANCH  24  38
BRANCH  25  48
ATOM     48  C   UNL A   1      38.000  30.037  29.942  1.00  0.00    -0.014 A 
ATOM     49  C   UNL A   1      37.330  30.647  31.022  1.00  0.00     0.010 A 
ATOM     50  C   UNL A   1      37.559  30.348  28.641  1.00  0.00     0.010 A 
ATOM     51  C   UNL A   1      36.310  31.589  30.804  1.00  0.00     0.020 A 
ATOM     52  C   UNL A   1      36.536  31.278  28.417  1.00  0.00     0.020 A 
ATOM     53  C   UNL A   1      35.935  31.916  29.499  1.00  0.00     0.054 A 
BRANCH  53  54
ATOM     54  S   UNL A   1      34.761  33.276  29.219  1.00  0.00     0.124 S 
ATOM     55  O   UNL A   1      34.111  33.399  30.521  1.00  0.00    -0.237 OA
ATOM     56  O   UNL A   1      35.636  34.382  28.842  1.00  0.00    -0.237 OA
ATOM     57  O   UNL A   1      33.905  32.774  28.145  1.00  0.00    -0.744 OA
ENDBRANCH  53  54
ENDBRANCH  25  48
BRANCH  37  58
ATOM     58  C   UNL A   1      43.233  28.668  33.282  1.00  0.00    -0.014 A 
ATOM     59  C   UNL A   1      43.234  29.256  34.562  1.00  0.00     0.010 A 
ATOM     60  C   UNL A   1      42.828  27.325  33.164  1.00  0.00     0.010 A 
ATOM     61  C   UNL A   1      42.867  28.510  35.693  1.00  0.00     0.020 A 
ATOM     62  C   UNL A   1      42.441  26.585  34.282  1.00  0.00     0.020 A 
ATOM     63  C   UNL A   1      42.471  27.177  35.543  1.00  0.00     0.054 A 
BRANCH  63  64
ATOM     64  S   UNL A   1      41.945  26.234  37.002  1.00  0.00     0.124 S 
ATOM     65  O   UNL A   1      41.839  24.874  36.481  1.00  0.00    -0.237 OA
ATOM     66  O   UNL A   1      43.032  26.463  37.951  1.00  0.00    -0.237 OA
ATOM     67  O   UNL A   1      40.673  26.852  37.377  1.00  0.00    -0.744 OA
ENDBRANCH  63  64
ENDBRANCH  37  58
ENDBRANCH  11  12
ENDBRANCH   4   6
ENDBRANCH   1   2
BRANCH   1  68
ATOM     68  C   UNL A   1      38.492  19.579  25.022  1.00  0.00     0.042 C 
BRANCH  68  69
ATOM     69  C   UNL A   1      37.744  20.828  24.540  1.00  0.00     0.118 C 
BRANCH  69  70
ATOM     70  N   UNL A   1      37.767  21.923  25.507  1.00  0.00    -0.351 N 
ATOM     71  C   UNL A   1      36.901  22.982  25.698  1.00  0.00     0.272 C 
ATOM     72  H   UNL A   1      38.531  21.902  26.128  1.00  0.00     0.163 HD
ATOM     73  O   UNL A   1      37.243  23.857  26.497  1.00  0.00    -0.267 OA
BRANCH  71  74
ATOM     74  C   UNL A   1      35.639  23.090  24.943  1.00  0.00     0.155 A 
ATOM     75  N   UNL A   1      35.366  24.101  24.092  1.00  0.00    -0.167 NA
ATOM     76  C   UNL A   1      34.572  22.143  24.935  1.00  0.00     0.026 A 
ATOM     77  N   UNL A   1      34.092  23.895  23.691  1.00  0.00    -0.264 N 
ATOM     78  C   UNL A   1      33.567  22.753  24.210  1.00  0.00     0.046 A 
ATOM     79  C   UNL A   1      34.421  20.814  25.613  1.00  0.00     0.159 C 
ATOM     80  C   UNL A   1      32.186  22.228  24.069  1.00  0.00     0.078 C 
ATOM     81  N   UNL A   1      33.089  20.250  25.271  1.00  0.00    -0.337 N 
ATOM     82  C   UNL A   1      31.967  21.211  25.208  1.00  0.00     0.126 C 
BRANCH  77  83
ATOM     83  C   UNL A   1      33.480  24.792  22.717  1.00  0.00     0.180 C 
BRANCH  83  84
ATOM     84  C   UNL A   1      32.858  26.001  23.366  1.00  0.00    -0.026 A 
ATOM     85  C   UNL A   1      33.566  27.214  23.405  1.00  0.00     0.008 A 
ATOM     86  C   UNL A   1      31.578  25.938  23.941  1.00  0.00     0.008 A 
ATOM     87  C   UNL A   1      33.005  28.343  23.999  1.00  0.00     0.039 A 
ATOM     88  C   UNL A   1      31.017  27.073  24.533  1.00  0.00     0.039 A 
ATOM     89  C   UNL A   1      31.735  28.263  24.553  1.00  0.00     0.123 A 
ATOM     90  F   UNL A   1      31.197  29.353  25.110  1.00  0.00    -0.207 F 
ENDBRANCH  83  84
ENDBRANCH  77  83
BRANCH  81  91
ATOM     91  C   UNL A   1      32.968  18.895  25.016  1.00  0.00     0.232 C 
ATOM     92  O   UNL A   1      32.082  18.184  25.492  1.00  0.00    -0.274 OA
BRANCH  91  93
ATOM     93  C   UNL A   1      33.954  18.298  24.090  1.00  0.00     0.154 C 
ATOM     94  C   UNL A   1      35.026  17.366  24.640  1.00  0.00     0.097 C 
ATOM     95  C   UNL A   1      33.948  16.854  23.761  1.00  0.00     0.260 C 
ATOM     96  F   UNL A   1      33.046  15.955  24.273  1.00  0.00    -0.206 F 
ATOM     97  F   UNL A   1      34.283  16.420  22.497  1.00  0.00    -0.206 F 
ENDBRANCH  91  93
ENDBRANCH  81  91
ENDBRANCH  71  74
ENDBRANCH  69  70
ENDBRANCH  68  69
ENDBRANCH   1  68
TORSDOF 17
ENDMDL
MODEL 2
REMARK VINA RESULT:     -12.6      3.216      9.086
REMARK SMILES O=C(NCCCNC(=O)c1nn(Cc2ccc(F)cc2)c2c1CN(C(=O)[C@H]1CC1(F)F)CC2)c1ccc(-c2c3nc(c(-c4ccc(S(=O)(=O)[O-])cc4)c4ccc([nH]4)c(-c4ccc(S(=O)(=O)[O-])cc4)c4nc(c(-c5ccc(S(=O)(=O)[O-])cc5)c5ccc2[nH]5)C=C4)C=C3)cc1
REMARK SMILES IDX 4 1 3 2 1 3 2 4 34 6 35 7 93 8 36 9 92 10 37 11 38 12 39 13
REMARK SMILES IDX 86 14 40 15 91 16 85 17 87 18 41 19 90 20 84 21 83 22 42 24
REMARK SMILES IDX 72 25 53 26 71 27 54 28 57 29 70 30 88 31 55 32 56 33 69 35
REMARK SMILES IDX 89 36 58 37 43 38 44 39 52 40 45 41 51 42 46 43 47 44 48 45
REMARK SMILES IDX 49 46 50 47 73 48 74 49 82 50 75 51 81 52 76 53 77 54 78 55
REMARK SMILES IDX 79 56 80 57 59 58 60 59 68 60 61 61 67 62 62 63 63 64 64 65
REMARK SMILES IDX 65 66 66 67 5 68 6 69 7 70 8 71 9 73 10 74 11 75 22 76 12 77
REMARK SMILES IDX 21 78 23 79 33 80 24 81 32 82 13 83 14 84 15 85 20 86 16 87
REMARK SMILES IDX 19 88 17 89 18 90 25 91 26 92 27 93 28 94 29 95 30 96 31 97
REMARK H PARENT 3 5 87 23 57 34 7 72
REMARK Flexibility Score: inf
ROOT
ATOM      1  C   UNL A   1      33.789  31.455  27.266  1.00  0.00     0.118 C 
ENDROOT
BRANCH   1   2
ATOM      2  N   UNL A   1      33.804  31.885  28.651  1.00  0.00    -0.352 N 
ATOM      3  O   UNL A   1      34.389  32.615  30.642  1.00  0.00    -0.269 OA
ATOM      4  C   UNL A   1      34.754  32.008  29.630  1.00  0.00     0.251 C 
ATOM      5  H   UNL A   1      32.911  32.154  28.965  1.00  0.00     0.163 HD
BRANCH   4   6
ATOM      6  C   UNL A   1      36.137  31.448  29.599  1.00  0.00     0.039 A 
ATOM      7  C   UNL A   1      37.326  32.177  29.621  1.00  0.00     0.014 A 
ATOM      8  C   UNL A   1      36.226  30.040  29.545  1.00  0.00     0.014 A 
ATOM      9  C   UNL A   1      38.562  31.518  29.559  1.00  0.00     0.010 A 
ATOM     10  C   UNL A   1      37.454  29.380  29.480  1.00  0.00     0.010 A 
ATOM     11  C   UNL A   1      38.631  30.119  29.474  1.00  0.00    -0.014 A 
BRANCH  11  12
ATOM     12  C   UNL A   1      39.945  29.471  29.548  1.00  0.00     0.031 A 
ATOM     13  C   UNL A   1      40.467  29.239  30.927  1.00  0.00     0.074 A 
ATOM     14  C   UNL A   1      40.627  28.930  28.516  1.00  0.00     0.049 A 
ATOM     15  N   UNL A   1      41.500  29.774  31.493  1.00  0.00    -0.248 NA
ATOM     16  C   UNL A   1      39.698  28.345  31.805  1.00  0.00     0.031 C 
ATOM     17  C   UNL A   1      40.168  28.724  27.142  1.00  0.00     0.029 A 
ATOM     18  N   UNL A   1      41.870  28.355  28.518  1.00  0.00    -0.354 N 
ATOM     19  C   UNL A   1      41.630  29.149  32.733  1.00  0.00     0.074 A 
ATOM     20  C   UNL A   1      40.424  28.382  32.923  1.00  0.00     0.031 C 
ATOM     21  C   UNL A   1      41.029  27.896  26.504  1.00  0.00     0.029 A 
ATOM     22  C   UNL A   1      42.165  27.626  27.373  1.00  0.00     0.049 A 
ATOM     23  H   UNL A   1      42.501  28.451  29.268  1.00  0.00     0.167 HD
ATOM     24  C   UNL A   1      42.802  29.147  33.429  1.00  0.00     0.031 A 
ATOM     25  C   UNL A   1      43.241  26.825  27.165  1.00  0.00     0.031 A 
ATOM     26  C   UNL A   1      43.739  30.112  32.917  1.00  0.00     0.049 A 
ATOM     27  C   UNL A   1      44.297  27.217  28.127  1.00  0.00     0.074 A 
ATOM     28  C   UNL A   1      43.738  31.480  32.728  1.00  0.00     0.029 A 
ATOM     29  N   UNL A   1      44.802  29.633  32.190  1.00  0.00    -0.354 N 
ATOM     30  N   UNL A   1      44.954  28.340  28.071  1.00  0.00    -0.248 NA
ATOM     31  C   UNL A   1      44.402  26.494  29.384  1.00  0.00     0.031 C 
ATOM     32  C   UNL A   1      44.494  31.690  31.538  1.00  0.00     0.029 A 
ATOM     33  C   UNL A   1      44.947  30.445  31.098  1.00  0.00     0.049 A 
ATOM     34  H   UNL A   1      45.356  28.849  32.413  1.00  0.00     0.167 HD
ATOM     35  C   UNL A   1      45.206  28.670  29.393  1.00  0.00     0.074 A 
ATOM     36  C   UNL A   1      44.952  27.443  30.143  1.00  0.00     0.031 C 
ATOM     37  C   UNL A   1      45.331  29.972  29.784  1.00  0.00     0.031 A 
BRANCH  24  38
ATOM     38  C   UNL A   1      43.253  28.022  34.337  1.00  0.00    -0.014 A 
ATOM     39  C   UNL A   1      43.667  28.333  35.652  1.00  0.00     0.010 A 
ATOM     40  C   UNL A   1      43.562  26.732  33.862  1.00  0.00     0.010 A 
ATOM     41  C   UNL A   1      44.435  27.437  36.408  1.00  0.00     0.020 A 
ATOM     42  C   UNL A   1      44.285  25.812  34.628  1.00  0.00     0.020 A 
ATOM     43  C   UNL A   1      44.757  26.188  35.878  1.00  0.00     0.054 A 
BRANCH  43  44
ATOM     44  S   UNL A   1      45.862  25.092  36.802  1.00  0.00     0.124 S 
ATOM     45  O   UNL A   1      45.473  23.781  36.295  1.00  0.00    -0.237 OA
ATOM     46  O   UNL A   1      47.182  25.565  36.393  1.00  0.00    -0.237 OA
ATOM     47  O   UNL A   1      45.515  25.356  38.196  1.00  0.00    -0.744 OA
ENDBRANCH  43  44
ENDBRANCH  24  38
BRANCH  25  48
ATOM     48  C   UNL A   1      43.354  25.590  26.347  1.00  0.00    -0.014 A 
ATOM     49  C   UNL A   1      44.359  25.459  25.368  1.00  0.00     0.010 A 
ATOM     50  C   UNL A   1      42.659  24.425  26.729  1.00  0.00     0.010 A 
ATOM     51  C   UNL A   1      44.707  24.200  24.848  1.00  0.00     0.020 A 
ATOM     52  C   UNL A   1      42.992  23.169  26.207  1.00  0.00     0.020 A 
ATOM     53  C   UNL A   1      44.035  23.058  25.290  1.00  0.00     0.054 A 
BRANCH  53  54
ATOM     54  S   UNL A   1      44.620  21.418  24.769  1.00  0.00     0.124 S 
ATOM     55  O   UNL A   1      43.584  20.535  25.298  1.00  0.00    -0.237 OA
ATOM     56  O   UNL A   1      44.664  21.540  23.315  1.00  0.00    -0.237 OA
ATOM     57  O   UNL A   1      45.926  21.298  25.416  1.00  0.00    -0.744 OA
ENDBRANCH  53  54
ENDBRANCH  25  48
BRANCH  37  58
ATOM     58  C   UNL A   1      45.614  31.028  28.743  1.00  0.00    -0.014 A 
ATOM     59  C   UNL A   1      44.620  31.696  28.003  1.00  0.00     0.010 A 
ATOM     60  C   UNL A   1      46.948  31.454  28.607  1.00  0.00     0.010 A 
ATOM     61  C   UNL A   1      44.958  32.742  27.131  1.00  0.00     0.020 A 
ATOM     62  C   UNL A   1      47.289  32.508  27.758  1.00  0.00     0.020 A 
ATOM     63  C   UNL A   1      46.293  33.142  27.015  1.00  0.00     0.054 A 
BRANCH  63  64
ATOM     64  S   UNL A   1      46.719  34.530  25.927  1.00  0.00     0.124 S 
ATOM     65  O   UNL A   1      48.073  34.196  25.497  1.00  0.00    -0.237 OA
ATOM     66  O   UNL A   1      45.692  34.461  24.889  1.00  0.00    -0.237 OA
ATOM     67  O   UNL A   1      46.619  35.701  26.800  1.00  0.00    -0.744 OA
ENDBRANCH  63  64
ENDBRANCH  37  58
ENDBRANCH  11  12
ENDBRANCH   4   6
ENDBRANCH   1   2
BRANCH   1  68
ATOM     68  C   UNL A   1      32.876  30.267  26.963  1.00  0.00     0.042 C 
BRANCH  68  69
ATOM     69  C   UNL A   1      33.566  29.053  26.325  1.00  0.00     0.118 C 
BRANCH  69  70
ATOM     70  N   UNL A   1      33.930  29.267  24.927  1.00  0.00    -0.351 N 
ATOM     71  C   UNL A   1      33.294  28.894  23.758  1.00  0.00     0.272 C 
ATOM     72  H   UNL A   1      34.772  29.760  24.795  1.00  0.00     0.163 HD
ATOM     73  O   UNL A   1      33.903  29.070  22.700  1.00  0.00    -0.267 OA
BRANCH  71  74
ATOM     74  C   UNL A   1      31.960  28.266  23.774  1.00  0.00     0.155 A 
ATOM     75  N   UNL A   1      30.861  28.844  23.246  1.00  0.00    -0.167 NA
ATOM     76  C   UNL A   1      31.639  26.966  24.266  1.00  0.00     0.026 A 
ATOM     77  N   UNL A   1      29.839  28.013  23.552  1.00  0.00    -0.264 N 
ATOM     78  C   UNL A   1      30.261  26.897  24.202  1.00  0.00     0.046 A 
ATOM     79  C   UNL A   1      32.502  25.887  24.847  1.00  0.00     0.159 C 
ATOM     80  C   UNL A   1      29.442  25.796  24.767  1.00  0.00     0.078 C 
ATOM     81  N   UNL A   1      31.642  24.731  25.213  1.00  0.00    -0.337 N 
ATOM     82  C   UNL A   1      30.321  25.055  25.796  1.00  0.00     0.126 C 
BRANCH  77  83
ATOM     83  C   UNL A   1      28.490  28.316  23.088  1.00  0.00     0.180 C 
BRANCH  83  84
ATOM     84  C   UNL A   1      28.345  29.750  22.648  1.00  0.00    -0.026 A 
ATOM     85  C   UNL A   1      28.339  30.777  23.607  1.00  0.00     0.008 A 
ATOM     86  C   UNL A   1      28.212  30.082  21.290  1.00  0.00     0.008 A 
ATOM     87  C   UNL A   1      28.209  32.108  23.218  1.00  0.00     0.039 A 
ATOM     88  C   UNL A   1      28.086  31.419  20.903  1.00  0.00     0.039 A 
ATOM     89  C   UNL A   1      28.089  32.417  21.870  1.00  0.00     0.123 A 
ATOM     90  F   UNL A   1      27.977  33.698  21.502  1.00  0.00    -0.207 F 
ENDBRANCH  83  84
ENDBRANCH  77  83
BRANCH  81  91
ATOM     91  C   UNL A   1      32.095  23.443  24.981  1.00  0.00     0.232 C 
ATOM     92  O   UNL A   1      32.678  22.760  25.824  1.00  0.00    -0.274 OA
BRANCH  91  93
ATOM     93  C   UNL A   1      31.823  22.869  23.647  1.00  0.00     0.154 C 
ATOM     94  C   UNL A   1      32.887  22.963  22.562  1.00  0.00     0.097 C 
ATOM     95  C   UNL A   1      32.519  21.657  23.157  1.00  0.00     0.260 C 
ATOM     96  F   UNL A   1      33.461  20.969  23.881  1.00  0.00    -0.206 F 
ATOM     97  F   UNL A   1      31.860  20.739  22.369  1.00  0.00    -0.206 F 
ENDBRANCH  91  93
ENDBRANCH  81  91
ENDBRANCH  71  74
ENDBRANCH  69  70
ENDBRANCH  68  69
ENDBRANCH   1  68
TORSDOF 17
ENDMDL
MODEL 3
REMARK VINA RESULT:     -12.6      3.124      9.063
REMARK SMILES O=C(NCCCNC(=O)c1nn(Cc2ccc(F)cc2)c2c1CN(C(=O)[C@H]1CC1(F)F)CC2)c1ccc(-c2c3nc(c(-c4ccc(S(=O)(=O)[O-])cc4)c4ccc([nH]4)c(-c4ccc(S(=O)(=O)[O-])cc4)c4nc(c(-c5ccc(S(=O)(=O)[O-])cc5)c5ccc2[nH]5)C=C4)C=C3)cc1
REMARK SMILES IDX 4 1 3 2 1 3 2 4 34 6 35 7 93 8 36 9 92 10 37 11 38 12 39 13
REMARK SMILES IDX 86 14 40 15 91 16 85 17 87 18 41 19 90 20 84 21 83 22 42 24
REMARK SMILES IDX 72 25 53 26 71 27 54 28 57 29 70 30 88 31 55 32 56 33 69 35
REMARK SMILES IDX 89 36 58 37 43 38 44 39 52 40 45 41 51 42 46 43 47 44 48 45
REMARK SMILES IDX 49 46 50 47 73 48 74 49 82 50 75 51 81 52 76 53 77 54 78 55
REMARK SMILES IDX 79 56 80 57 59 58 60 59 68 60 61 61 67 62 62 63 63 64 64 65
REMARK SMILES IDX 65 66 66 67 5 68 6 69 7 70 8 71 9 73 10 74 11 75 22 76 12 77
REMARK SMILES IDX 21 78 23 79 33 80 24 81 32 82 13 83 14 84 15 85 20 86 16 87
REMARK SMILES IDX 19 88 17 89 18 90 25 91 26 92 27 93 28 94 29 95 30 96 31 97
REMARK H PARENT 3 5 87 23 57 34 7 72
REMARK Flexibility Score: inf
ROOT
ATOM      1  C   UNL A   1      32.948  30.244  26.564  1.00  0.00     0.118 C 
ENDROOT
BRANCH   1   2
ATOM      2  N   UNL A   1      33.232  31.430  27.348  1.00  0.00    -0.352 N 
ATOM      3  O   UNL A   1      34.207  33.110  28.382  1.00  0.00    -0.269 OA
ATOM      4  C   UNL A   1      34.330  31.947  27.982  1.00  0.00     0.251 C 
ATOM      5  H   UNL A   1      32.440  32.005  27.452  1.00  0.00     0.163 HD
BRANCH   4   6
ATOM      6  C   UNL A   1      35.611  31.233  28.263  1.00  0.00     0.039 A 
ATOM      7  C   UNL A   1      35.825  29.857  28.184  1.00  0.00     0.014 A 
ATOM      8  C   UNL A   1      36.698  32.051  28.641  1.00  0.00     0.014 A 
ATOM      9  C   UNL A   1      37.078  29.317  28.505  1.00  0.00     0.010 A 
ATOM     10  C   UNL A   1      37.946  31.516  28.964  1.00  0.00     0.010 A 
ATOM     11  C   UNL A   1      38.139  30.141  28.908  1.00  0.00    -0.014 A 
BRANCH  11  12
ATOM     12  C   UNL A   1      39.465  29.544  29.101  1.00  0.00     0.031 A 
ATOM     13  C   UNL A   1      39.901  29.399  30.521  1.00  0.00     0.074 A 
ATOM     14  C   UNL A   1      40.231  28.977  28.145  1.00  0.00     0.049 A 
ATOM     15  N   UNL A   1      40.876  29.998  31.124  1.00  0.00    -0.248 NA
ATOM     16  C   UNL A   1      39.104  28.523  31.392  1.00  0.00     0.031 C 
ATOM     17  C   UNL A   1      39.871  28.686  26.756  1.00  0.00     0.029 A 
ATOM     18  N   UNL A   1      41.488  28.447  28.257  1.00  0.00    -0.354 N 
ATOM     19  C   UNL A   1      40.944  29.440  32.400  1.00  0.00     0.074 A 
ATOM     20  C   UNL A   1      39.753  28.641  32.552  1.00  0.00     0.031 C 
ATOM     21  C   UNL A   1      40.799  27.859  26.219  1.00  0.00     0.029 A 
ATOM     22  C   UNL A   1      41.883  27.672  27.172  1.00  0.00     0.049 A 
ATOM     23  H   UNL A   1      42.065  28.602  29.040  1.00  0.00     0.167 HD
ATOM     24  C   UNL A   1      42.066  29.514  33.170  1.00  0.00     0.031 A 
ATOM     25  C   UNL A   1      42.995  26.900  27.077  1.00  0.00     0.031 A 
ATOM     26  C   UNL A   1      43.004  30.485  32.671  1.00  0.00     0.049 A 
ATOM     27  C   UNL A   1      43.971  27.377  28.084  1.00  0.00     0.074 A 
ATOM     28  C   UNL A   1      42.972  31.841  32.411  1.00  0.00     0.029 A 
ATOM     29  N   UNL A   1      44.127  30.008  32.040  1.00  0.00    -0.354 N 
ATOM     30  N   UNL A   1      44.595  28.518  28.012  1.00  0.00    -0.248 NA
ATOM     31  C   UNL A   1      44.015  26.721  29.380  1.00  0.00     0.031 C 
ATOM     32  C   UNL A   1      43.798  32.018  31.263  1.00  0.00     0.029 A 
ATOM     33  C   UNL A   1      44.319  30.770  30.919  1.00  0.00     0.049 A 
ATOM     34  H   UNL A   1      44.690  29.257  32.339  1.00  0.00     0.167 HD
ATOM     35  C   UNL A   1      44.747  28.922  29.329  1.00  0.00     0.074 A 
ATOM     36  C   UNL A   1      44.484  27.726  30.123  1.00  0.00     0.031 C 
ATOM     37  C   UNL A   1      44.804  30.245  29.659  1.00  0.00     0.031 A 
BRANCH  24  38
ATOM     38  C   UNL A   1      42.491  28.452  34.163  1.00  0.00    -0.014 A 
ATOM     39  C   UNL A   1      42.777  28.838  35.492  1.00  0.00     0.010 A 
ATOM     40  C   UNL A   1      42.901  27.161  33.775  1.00  0.00     0.010 A 
ATOM     41  C   UNL A   1      43.520  28.014  36.349  1.00  0.00     0.020 A 
ATOM     42  C   UNL A   1      43.599  26.312  34.638  1.00  0.00     0.020 A 
ATOM     43  C   UNL A   1      43.944  26.763  35.905  1.00  0.00     0.054 A 
BRANCH  43  44
ATOM     44  S   UNL A   1      45.018  25.764  36.965  1.00  0.00     0.124 S 
ATOM     45  O   UNL A   1      44.080  24.784  37.501  1.00  0.00    -0.237 OA
ATOM     46  O   UNL A   1      46.001  25.249  36.017  1.00  0.00    -0.237 OA
ATOM     47  O   UNL A   1      45.538  26.731  37.930  1.00  0.00    -0.744 OA
ENDBRANCH  43  44
ENDBRANCH  24  38
BRANCH  25  48
ATOM     48  C   UNL A   1      43.201  25.631  26.333  1.00  0.00    -0.014 A 
ATOM     49  C   UNL A   1      44.250  25.500  25.401  1.00  0.00     0.010 A 
ATOM     50  C   UNL A   1      42.550  24.454  26.752  1.00  0.00     0.010 A 
ATOM     51  C   UNL A   1      44.681  24.234  24.965  1.00  0.00     0.020 A 
ATOM     52  C   UNL A   1      42.965  23.191  26.314  1.00  0.00     0.020 A 
ATOM     53  C   UNL A   1      44.048  23.085  25.444  1.00  0.00     0.054 A 
BRANCH  53  54
ATOM     54  S   UNL A   1      44.733  21.451  25.036  1.00  0.00     0.124 S 
ATOM     55  O   UNL A   1      43.790  20.546  25.687  1.00  0.00    -0.237 OA
ATOM     56  O   UNL A   1      44.708  21.448  23.577  1.00  0.00    -0.237 OA
ATOM     57  O   UNL A   1      46.070  21.483  25.628  1.00  0.00    -0.744 OA
ENDBRANCH  53  54
ENDBRANCH  25  48
BRANCH  37  58
ATOM     58  C   UNL A   1      45.122  31.258  28.585  1.00  0.00    -0.014 A 
ATOM     59  C   UNL A   1      44.209  31.679  27.600  1.00  0.00     0.010 A 
ATOM     60  C   UNL A   1      46.368  31.908  28.664  1.00  0.00     0.010 A 
ATOM     61  C   UNL A   1      44.546  32.703  26.702  1.00  0.00     0.020 A 
ATOM     62  C   UNL A   1      46.701  32.942  27.788  1.00  0.00     0.020 A 
ATOM     63  C   UNL A   1      45.792  33.330  26.804  1.00  0.00     0.054 A 
BRANCH  63  64
ATOM     64  S   UNL A   1      46.203  34.691  25.676  1.00  0.00     0.124 S 
ATOM     65  O   UNL A   1      47.619  34.463  25.403  1.00  0.00    -0.237 OA
ATOM     66  O   UNL A   1      45.299  34.468  24.549  1.00  0.00    -0.237 OA
ATOM     67  O   UNL A   1      45.911  35.893  26.458  1.00  0.00    -0.744 OA
ENDBRANCH  63  64
ENDBRANCH  37  58
ENDBRANCH  11  12
ENDBRANCH   4   6
ENDBRANCH   1   2
BRANCH   1  68
ATOM     68  C   UNL A   1      31.908  29.298  27.166  1.00  0.00     0.042 C 
BRANCH  68  69
ATOM     69  C   UNL A   1      32.416  27.890  27.502  1.00  0.00     0.118 C 
BRANCH  69  70
ATOM     70  N   UNL A   1      31.365  26.876  27.468  1.00  0.00    -0.351 N 
ATOM     71  C   UNL A   1      30.700  26.295  26.405  1.00  0.00     0.272 C 
ATOM     72  H   UNL A   1      31.082  26.552  28.354  1.00  0.00     0.163 HD
ATOM     73  O   UNL A   1      29.739  25.568  26.667  1.00  0.00    -0.267 OA
BRANCH  71  74
ATOM     74  C   UNL A   1      31.093  26.567  25.010  1.00  0.00     0.155 A 
ATOM     75  N   UNL A   1      30.659  27.637  24.313  1.00  0.00    -0.167 NA
ATOM     76  C   UNL A   1      32.016  25.814  24.225  1.00  0.00     0.026 A 
ATOM     77  N   UNL A   1      31.151  27.472  23.064  1.00  0.00    -0.264 N 
ATOM     78  C   UNL A   1      31.935  26.366  22.962  1.00  0.00     0.046 A 
ATOM     79  C   UNL A   1      32.848  24.612  24.558  1.00  0.00     0.159 C 
ATOM     80  C   UNL A   1      32.586  25.808  21.751  1.00  0.00     0.078 C 
ATOM     81  N   UNL A   1      33.627  24.221  23.354  1.00  0.00    -0.337 N 
ATOM     82  C   UNL A   1      32.928  24.335  22.055  1.00  0.00     0.126 C 
BRANCH  77  83
ATOM     83  C   UNL A   1      30.907  28.486  22.044  1.00  0.00     0.180 C 
BRANCH  83  84
ATOM     84  C   UNL A   1      29.879  29.498  22.480  1.00  0.00    -0.026 A 
ATOM     85  C   UNL A   1      28.666  29.607  21.778  1.00  0.00     0.008 A 
ATOM     86  C   UNL A   1      30.112  30.343  23.578  1.00  0.00     0.008 A 
ATOM     87  C   UNL A   1      27.704  30.535  22.168  1.00  0.00     0.039 A 
ATOM     88  C   UNL A   1      29.142  31.270  23.969  1.00  0.00     0.039 A 
ATOM     89  C   UNL A   1      27.948  31.354  23.262  1.00  0.00     0.123 A 
ATOM     90  F   UNL A   1      27.015  32.234  23.639  1.00  0.00    -0.207 F 
ENDBRANCH  83  84
ENDBRANCH  77  83
BRANCH  81  91
ATOM     91  C   UNL A   1      34.938  23.800  23.497  1.00  0.00     0.232 C 
ATOM     92  O   UNL A   1      35.552  23.165  22.638  1.00  0.00    -0.274 OA
BRANCH  91  93
ATOM     93  C   UNL A   1      35.627  24.173  24.750  1.00  0.00     0.154 C 
ATOM     94  C   UNL A   1      35.663  23.184  25.907  1.00  0.00     0.097 C 
ATOM     95  C   UNL A   1      36.898  23.537  25.167  1.00  0.00     0.260 C 
ATOM     96  F   UNL A   1      37.540  22.562  24.445  1.00  0.00    -0.206 F 
ATOM     97  F   UNL A   1      37.868  24.265  25.820  1.00  0.00    -0.206 F 
ENDBRANCH  91  93
ENDBRANCH  81  91
ENDBRANCH  71  74
ENDBRANCH  69  70
ENDBRANCH  68  69
ENDBRANCH   1  68
TORSDOF 17
ENDMDL
