MODEL 1
REMARK VINA RESULT:     -11.8      0.000      0.000
REMARK SMILES O=C(NCCCNC(=O)c1oc2cccc3c2c1CCC3)c1ccc(-c2c3nc(c(-c4ccc(S(=O)(=O)[O-])cc4)c4ccc([nH]4)c(-c4ccc(S(=O)(=O)[O-])cc4)c4nc(c(-c5ccc(S(=O)(=O)[O-])cc5)c5ccc2[nH]5)C=C4)C=C3)cc1
REMARK SMILES IDX 1 1 2 2 3 3 22 5 23 6 81 7 24 8 80 9 25 10 26 11 27 12 74 13
REMARK SMILES IDX 28 14 79 15 73 16 75 17 29 18 78 19 72 20 71 21 30 23 60 24
REMARK SMILES IDX 41 25 59 26 42 27 45 28 58 29 76 30 43 31 44 32 57 34 77 35
REMARK SMILES IDX 46 36 31 37 32 38 40 39 33 40 39 41 34 42 35 43 36 44 37 45
REMARK SMILES IDX 38 46 61 47 62 48 70 49 63 50 69 51 64 52 65 53 66 54 67 55
REMARK SMILES IDX 68 56 47 57 48 58 56 59 49 60 55 61 50 62 51 63 52 64 53 65
REMARK SMILES IDX 54 66 4 67 5 68 6 69 7 70 8 71 9 73 10 74 11 75 18 76 12 77
REMARK SMILES IDX 17 78 19 79 13 80 16 81 20 82 14 83 15 84 21 85
REMARK H PARENT 3 4 75 22 45 33 7 72
REMARK Flexibility Score: inf
ROOT
ATOM      1  O   UNL A   1      41.395  34.894  29.765  1.00  0.00    -0.269 OA
ATOM      2  C   UNL A   1      40.992  33.974  30.479  1.00  0.00     0.251 C 
ATOM      3  N   UNL A   1      40.362  34.313  31.648  1.00  0.00    -0.352 N 
ATOM      4  H   UNL A   1      40.422  35.273  31.859  1.00  0.00     0.163 HD
ENDROOT
BRANCH   2   5
ATOM      5  C   UNL A   1      41.312  32.576  30.105  1.00  0.00     0.039 A 
ATOM      6  C   UNL A   1      40.446  31.494  30.266  1.00  0.00     0.014 A 
ATOM      7  C   UNL A   1      42.603  32.356  29.598  1.00  0.00     0.014 A 
ATOM      8  C   UNL A   1      40.914  30.199  30.089  1.00  0.00     0.010 A 
ATOM      9  C   UNL A   1      43.063  31.065  29.381  1.00  0.00     0.010 A 
ATOM     10  C   UNL A   1      42.232  29.989  29.684  1.00  0.00    -0.014 A 
BRANCH  10  11
ATOM     11  C   UNL A   1      42.670  28.614  29.471  1.00  0.00     0.031 A 
ATOM     12  C   UNL A   1      43.485  28.029  30.577  1.00  0.00     0.074 A 
ATOM     13  C   UNL A   1      42.244  27.873  28.431  1.00  0.00     0.049 A 
ATOM     14  N   UNL A   1      44.669  27.510  30.525  1.00  0.00    -0.248 NA
ATOM     15  C   UNL A   1      42.927  28.115  31.939  1.00  0.00     0.031 C 
ATOM     16  C   UNL A   1      41.210  28.205  27.446  1.00  0.00     0.029 A 
ATOM     17  N   UNL A   1      42.564  26.588  28.119  1.00  0.00    -0.354 N 
ATOM     18  C   UNL A   1      44.956  27.072  31.818  1.00  0.00     0.074 A 
ATOM     19  C   UNL A   1      43.897  27.563  32.665  1.00  0.00     0.031 C 
ATOM     20  C   UNL A   1      40.820  27.072  26.819  1.00  0.00     0.029 A 
ATOM     21  C   UNL A   1      41.660  25.972  27.262  1.00  0.00     0.049 A 
ATOM     22  H   UNL A   1      43.364  26.135  28.468  1.00  0.00     0.167 HD
ATOM     23  C   UNL A   1      45.955  26.197  32.116  1.00  0.00     0.031 A 
ATOM     24  C   UNL A   1      41.559  24.639  27.028  1.00  0.00     0.031 A 
ATOM     25  C   UNL A   1      46.898  26.039  31.049  1.00  0.00     0.049 A 
ATOM     26  C   UNL A   1      42.846  24.026  27.445  1.00  0.00     0.074 A 
ATOM     27  C   UNL A   1      47.812  26.868  30.435  1.00  0.00     0.029 A 
ATOM     28  N   UNL A   1      46.725  24.972  30.200  1.00  0.00    -0.354 N 
ATOM     29  N   UNL A   1      43.987  24.266  26.862  1.00  0.00    -0.248 NA
ATOM     30  C   UNL A   1      42.938  23.472  28.787  1.00  0.00     0.031 C 
ATOM     31  C   UNL A   1      47.763  26.511  29.056  1.00  0.00     0.029 A 
ATOM     32  C   UNL A   1      46.856  25.456  28.923  1.00  0.00     0.049 A 
ATOM     33  H   UNL A   1      46.543  24.039  30.459  1.00  0.00     0.167 HD
ATOM     34  C   UNL A   1      44.920  24.281  27.888  1.00  0.00     0.074 A 
ATOM     35  C   UNL A   1      44.230  23.700  29.037  1.00  0.00     0.031 C 
ATOM     36  C   UNL A   1      46.075  25.003  27.791  1.00  0.00     0.031 A 
BRANCH  23  37
ATOM     37  C   UNL A   1      45.888  25.262  33.289  1.00  0.00    -0.014 A 
ATOM     38  C   UNL A   1      46.873  25.294  34.291  1.00  0.00     0.010 A 
ATOM     39  C   UNL A   1      44.982  24.179  33.301  1.00  0.00     0.010 A 
ATOM     40  C   UNL A   1      46.949  24.281  35.259  1.00  0.00     0.020 A 
ATOM     41  C   UNL A   1      45.025  23.188  34.281  1.00  0.00     0.020 A 
ATOM     42  C   UNL A   1      46.022  23.234  35.245  1.00  0.00     0.054 A 
BRANCH  42  43
ATOM     43  S   UNL A   1      46.185  21.885  36.445  1.00  0.00     0.124 S 
ATOM     44  O   UNL A   1      45.734  22.517  37.682  1.00  0.00    -0.237 OA
ATOM     45  O   UNL A   1      45.292  20.872  35.890  1.00  0.00    -0.237 OA
ATOM     46  O   UNL A   1      47.607  21.552  36.398  1.00  0.00    -0.744 OA
ENDBRANCH  42  43
ENDBRANCH  23  37
BRANCH  24  47
ATOM     47  C   UNL A   1      40.311  23.841  26.867  1.00  0.00    -0.014 A 
ATOM     48  C   UNL A   1      39.074  24.480  26.654  1.00  0.00     0.010 A 
ATOM     49  C   UNL A   1      40.375  22.453  26.628  1.00  0.00     0.010 A 
ATOM     50  C   UNL A   1      37.971  23.775  26.141  1.00  0.00     0.020 A 
ATOM     51  C   UNL A   1      39.278  21.739  26.129  1.00  0.00     0.020 A 
ATOM     52  C   UNL A   1      38.092  22.413  25.853  1.00  0.00     0.054 A 
BRANCH  52  53
ATOM     53  S   UNL A   1      36.728  21.553  25.014  1.00  0.00     0.124 S 
ATOM     54  O   UNL A   1      35.604  21.796  25.912  1.00  0.00    -0.237 OA
ATOM     55  O   UNL A   1      36.673  22.242  23.729  1.00  0.00    -0.237 OA
ATOM     56  O   UNL A   1      37.182  20.165  24.954  1.00  0.00    -0.744 OA
ENDBRANCH  52  53
ENDBRANCH  24  47
BRANCH  36  57
ATOM     57  C   UNL A   1      46.435  25.604  26.452  1.00  0.00    -0.014 A 
ATOM     58  C   UNL A   1      45.967  26.862  26.021  1.00  0.00     0.010 A 
ATOM     59  C   UNL A   1      47.426  24.960  25.693  1.00  0.00     0.010 A 
ATOM     60  C   UNL A   1      46.480  27.457  24.858  1.00  0.00     0.020 A 
ATOM     61  C   UNL A   1      47.950  25.553  24.542  1.00  0.00     0.020 A 
ATOM     62  C   UNL A   1      47.479  26.802  24.132  1.00  0.00     0.054 A 
BRANCH  62  63
ATOM     63  S   UNL A   1      48.190  27.609  22.668  1.00  0.00     0.124 S 
ATOM     64  O   UNL A   1      48.372  26.495  21.741  1.00  0.00    -0.237 OA
ATOM     65  O   UNL A   1      47.153  28.570  22.300  1.00  0.00    -0.237 OA
ATOM     66  O   UNL A   1      49.430  28.205  23.164  1.00  0.00    -0.744 OA
ENDBRANCH  62  63
ENDBRANCH  36  57
ENDBRANCH  10  11
ENDBRANCH   2   5
BRANCH   3  67
ATOM     67  C   UNL A   1      39.626  33.551  32.642  1.00  0.00     0.118 C 
BRANCH  67  68
ATOM     68  C   UNL A   1      38.194  34.007  32.902  1.00  0.00     0.042 C 
BRANCH  68  69
ATOM     69  C   UNL A   1      37.341  34.160  31.648  1.00  0.00     0.118 C 
BRANCH  69  70
ATOM     70  N   UNL A   1      35.962  33.739  31.841  1.00  0.00    -0.349 N 
ATOM     71  C   UNL A   1      35.394  32.497  31.669  1.00  0.00     0.287 C 
ATOM     72  H   UNL A   1      35.343  34.446  32.137  1.00  0.00     0.163 HD
ATOM     73  O   UNL A   1      34.163  32.425  31.711  1.00  0.00    -0.266 OA
BRANCH  71  74
ATOM     74  C   UNL A   1      36.259  31.363  31.457  1.00  0.00     0.195 A 
ATOM     75  O   UNL A   1      36.726  30.685  32.569  1.00  0.00    -0.451 OA
ATOM     76  C   UNL A   1      36.738  30.755  30.310  1.00  0.00     0.012 A 
ATOM     77  C   UNL A   1      37.405  29.586  32.119  1.00  0.00     0.135 A 
ATOM     78  C   UNL A   1      37.419  29.608  30.747  1.00  0.00     0.028 A 
ATOM     79  C   UNL A   1      36.620  31.011  28.846  1.00  0.00     0.041 C 
ATOM     80  C   UNL A   1      37.983  28.561  32.853  1.00  0.00     0.048 A 
ATOM     81  C   UNL A   1      38.004  28.602  29.979  1.00  0.00    -0.037 A 
ATOM     82  C   UNL A   1      37.707  30.217  28.059  1.00  0.00     0.010 C 
ATOM     83  C   UNL A   1      38.554  27.521  32.093  1.00  0.00     0.004 A 
ATOM     84  C   UNL A   1      38.559  27.532  30.683  1.00  0.00     0.004 A 
ATOM     85  C   UNL A   1      37.863  28.723  28.486  1.00  0.00     0.036 C 
ENDBRANCH  71  74
ENDBRANCH  69  70
ENDBRANCH  68  69
ENDBRANCH  67  68
ENDBRANCH   3  67
TORSDOF 13
ENDMDL
MODEL 2
REMARK VINA RESULT:     -11.7      3.908     11.518
REMARK SMILES O=C(NCCCNC(=O)c1oc2cccc3c2c1CCC3)c1ccc(-c2c3nc(c(-c4ccc(S(=O)(=O)[O-])cc4)c4ccc([nH]4)c(-c4ccc(S(=O)(=O)[O-])cc4)c4nc(c(-c5ccc(S(=O)(=O)[O-])cc5)c5ccc2[nH]5)C=C4)C=C3)cc1
REMARK SMILES IDX 1 1 2 2 3 3 22 5 23 6 81 7 24 8 80 9 25 10 26 11 27 12 74 13
REMARK SMILES IDX 28 14 79 15 73 16 75 17 29 18 78 19 72 20 71 21 30 23 60 24
REMARK SMILES IDX 41 25 59 26 42 27 45 28 58 29 76 30 43 31 44 32 57 34 77 35
REMARK SMILES IDX 46 36 31 37 32 38 40 39 33 40 39 41 34 42 35 43 36 44 37 45
REMARK SMILES IDX 38 46 61 47 62 48 70 49 63 50 69 51 64 52 65 53 66 54 67 55
REMARK SMILES IDX 68 56 47 57 48 58 56 59 49 60 55 61 50 62 51 63 52 64 53 65
REMARK SMILES IDX 54 66 4 67 5 68 6 69 7 70 8 71 9 73 10 74 11 75 18 76 12 77
REMARK SMILES IDX 17 78 19 79 13 80 16 81 20 82 14 83 15 84 21 85
REMARK H PARENT 3 4 75 22 45 33 7 72
REMARK Flexibility Score: inf
ROOT
ATOM      1  O   UNL A   1      44.173  24.100  31.888  1.00  0.00    -0.269 OA
ATOM      2  C   UNL A   1      44.481  24.896  30.999  1.00  0.00     0.251 C 
ATOM      3  N   UNL A   1      45.502  24.538  30.158  1.00  0.00    -0.352 N 
ATOM      4  H   UNL A   1      45.978  23.726  30.446  1.00  0.00     0.163 HD
ENDROOT
BRANCH   2   5
ATOM      5  C   UNL A   1      43.827  26.225  30.963  1.00  0.00     0.039 A 
ATOM      6  C   UNL A   1      43.803  27.128  32.027  1.00  0.00     0.014 A 
ATOM      7  C   UNL A   1      43.153  26.546  29.773  1.00  0.00     0.014 A 
ATOM      8  C   UNL A   1      42.985  28.247  31.969  1.00  0.00     0.010 A 
ATOM      9  C   UNL A   1      42.365  27.685  29.695  1.00  0.00     0.010 A 
ATOM     10  C   UNL A   1      42.240  28.501  30.818  1.00  0.00    -0.014 A 
BRANCH  10  11
ATOM     11  C   UNL A   1      41.425  29.709  30.785  1.00  0.00     0.031 A 
ATOM     12  C   UNL A   1      42.180  30.980  30.570  1.00  0.00     0.074 A 
ATOM     13  C   UNL A   1      40.079  29.674  30.792  1.00  0.00     0.049 A 
ATOM     14  N   UNL A   1      42.205  32.044  31.305  1.00  0.00    -0.248 NA
ATOM     15  C   UNL A   1      43.096  31.027  29.416  1.00  0.00     0.031 C 
ATOM     16  C   UNL A   1      39.204  28.502  30.688  1.00  0.00     0.029 A 
ATOM     17  N   UNL A   1      39.203  30.714  30.759  1.00  0.00    -0.354 N 
ATOM     18  C   UNL A   1      43.026  32.954  30.640  1.00  0.00     0.074 A 
ATOM     19  C   UNL A   1      43.629  32.241  29.542  1.00  0.00     0.031 C 
ATOM     20  C   UNL A   1      37.959  28.911  30.352  1.00  0.00     0.029 A 
ATOM     21  C   UNL A   1      37.922  30.364  30.349  1.00  0.00     0.049 A 
ATOM     22  H   UNL A   1      39.454  31.633  31.004  1.00  0.00     0.167 HD
ATOM     23  C   UNL A   1      43.056  34.286  30.916  1.00  0.00     0.031 A 
ATOM     24  C   UNL A   1      36.951  31.218  29.939  1.00  0.00     0.031 A 
ATOM     25  C   UNL A   1      42.440  34.614  32.167  1.00  0.00     0.049 A 
ATOM     26  C   UNL A   1      37.310  32.564  30.455  1.00  0.00     0.074 A 
ATOM     27  C   UNL A   1      42.726  34.338  33.488  1.00  0.00     0.029 A 
ATOM     28  N   UNL A   1      41.131  35.031  32.143  1.00  0.00    -0.354 N 
ATOM     29  N   UNL A   1      37.351  32.868  31.722  1.00  0.00    -0.248 NA
ATOM     30  C   UNL A   1      38.043  33.462  29.575  1.00  0.00     0.031 C 
ATOM     31  C   UNL A   1      41.457  34.129  34.101  1.00  0.00     0.029 A 
ATOM     32  C   UNL A   1      40.475  34.336  33.129  1.00  0.00     0.049 A 
ATOM     33  H   UNL A   1      40.739  35.699  31.536  1.00  0.00     0.167 HD
ATOM     34  C   UNL A   1      38.425  33.736  31.850  1.00  0.00     0.074 A 
ATOM     35  C   UNL A   1      38.757  34.133  30.483  1.00  0.00     0.031 C 
ATOM     36  C   UNL A   1      39.117  33.848  33.021  1.00  0.00     0.031 A 
BRANCH  23  37
ATOM     37  C   UNL A   1      43.394  35.319  29.879  1.00  0.00    -0.014 A 
ATOM     38  C   UNL A   1      44.590  36.052  29.958  1.00  0.00     0.010 A 
ATOM     39  C   UNL A   1      42.428  35.747  28.943  1.00  0.00     0.010 A 
ATOM     40  C   UNL A   1      44.806  37.170  29.137  1.00  0.00     0.020 A 
ATOM     41  C   UNL A   1      42.648  36.834  28.096  1.00  0.00     0.020 A 
ATOM     42  C   UNL A   1      43.830  37.552  28.211  1.00  0.00     0.054 A 
BRANCH  42  43
ATOM     43  S   UNL A   1      44.081  39.048  27.220  1.00  0.00     0.124 S 
ATOM     44  O   UNL A   1      42.816  39.154  26.497  1.00  0.00    -0.237 OA
ATOM     45  O   UNL A   1      44.310  40.061  28.246  1.00  0.00    -0.237 OA
ATOM     46  O   UNL A   1      45.243  38.726  26.396  1.00  0.00    -0.744 OA
ENDBRANCH  42  43
ENDBRANCH  23  37
BRANCH  24  47
ATOM     47  C   UNL A   1      35.991  31.025  28.816  1.00  0.00    -0.014 A 
ATOM     48  C   UNL A   1      35.807  29.752  28.242  1.00  0.00     0.010 A 
ATOM     49  C   UNL A   1      35.044  32.022  28.504  1.00  0.00     0.010 A 
ATOM     50  C   UNL A   1      34.675  29.467  27.457  1.00  0.00     0.020 A 
ATOM     51  C   UNL A   1      33.921  31.750  27.714  1.00  0.00     0.020 A 
ATOM     52  C   UNL A   1      33.723  30.462  27.225  1.00  0.00     0.054 A 
BRANCH  52  53
ATOM     53  S   UNL A   1      32.174  30.036  26.375  1.00  0.00     0.124 S 
ATOM     54  O   UNL A   1      31.402  31.269  26.490  1.00  0.00    -0.237 OA
ATOM     55  O   UNL A   1      32.641  29.703  25.033  1.00  0.00    -0.237 OA
ATOM     56  O   UNL A   1      31.656  28.909  27.149  1.00  0.00    -0.744 OA
ENDBRANCH  52  53
ENDBRANCH  24  47
BRANCH  36  57
ATOM     57  C   UNL A   1      38.551  33.182  34.255  1.00  0.00    -0.014 A 
ATOM     58  C   UNL A   1      38.937  31.895  34.681  1.00  0.00     0.010 A 
ATOM     59  C   UNL A   1      37.748  33.959  35.106  1.00  0.00     0.010 A 
ATOM     60  C   UNL A   1      38.527  31.402  35.929  1.00  0.00     0.020 A 
ATOM     61  C   UNL A   1      37.349  33.479  36.355  1.00  0.00     0.020 A 
ATOM     62  C   UNL A   1      37.745  32.204  36.764  1.00  0.00     0.054 A 
BRANCH  62  63
ATOM     63  S   UNL A   1      37.277  31.588  38.408  1.00  0.00     0.124 S 
ATOM     64  O   UNL A   1      37.096  30.158  38.179  1.00  0.00    -0.237 OA
ATOM     65  O   UNL A   1      38.434  31.952  39.224  1.00  0.00    -0.237 OA
ATOM     66  O   UNL A   1      36.051  32.322  38.721  1.00  0.00    -0.744 OA
ENDBRANCH  62  63
ENDBRANCH  36  57
ENDBRANCH  10  11
ENDBRANCH   2   5
BRANCH   3  67
ATOM     67  C   UNL A   1      46.029  25.108  28.930  1.00  0.00     0.118 C 
BRANCH  67  68
ATOM     68  C   UNL A   1      45.882  24.246  27.681  1.00  0.00     0.042 C 
BRANCH  68  69
ATOM     69  C   UNL A   1      44.708  23.275  27.716  1.00  0.00     0.118 C 
BRANCH  69  70
ATOM     70  N   UNL A   1      44.298  22.826  26.394  1.00  0.00    -0.349 N 
ATOM     71  C   UNL A   1      43.322  23.328  25.564  1.00  0.00     0.287 C 
ATOM     72  H   UNL A   1      44.789  22.048  26.042  1.00  0.00     0.163 HD
ATOM     73  O   UNL A   1      43.027  22.663  24.568  1.00  0.00    -0.266 OA
BRANCH  71  74
ATOM     74  C   UNL A   1      42.712  24.591  25.896  1.00  0.00     0.195 A 
ATOM     75  O   UNL A   1      43.288  25.744  25.393  1.00  0.00    -0.451 OA
ATOM     76  C   UNL A   1      41.593  24.921  26.642  1.00  0.00     0.012 A 
ATOM     77  C   UNL A   1      42.468  26.787  25.727  1.00  0.00     0.135 A 
ATOM     78  C   UNL A   1      41.429  26.306  26.483  1.00  0.00     0.028 A 
ATOM     79  C   UNL A   1      40.588  24.160  27.438  1.00  0.00     0.041 C 
ATOM     80  C   UNL A   1      42.576  28.124  25.377  1.00  0.00     0.048 A 
ATOM     81  C   UNL A   1      40.395  27.115  26.953  1.00  0.00    -0.037 A 
ATOM     82  C   UNL A   1      39.791  25.117  28.376  1.00  0.00     0.010 C 
ATOM     83  C   UNL A   1      41.525  28.953  25.819  1.00  0.00     0.004 A 
ATOM     84  C   UNL A   1      40.449  28.461  26.585  1.00  0.00     0.004 A 
ATOM     85  C   UNL A   1      39.282  26.427  27.695  1.00  0.00     0.036 C 
ENDBRANCH  71  74
ENDBRANCH  69  70
ENDBRANCH  68  69
ENDBRANCH  67  68
ENDBRANCH   3  67
TORSDOF 13
ENDMDL
MODEL 3
REMARK VINA RESULT:     -11.5      4.017     10.608
REMARK SMILES O=C(NCCCNC(=O)c1oc2cccc3c2c1CCC3)c1ccc(-c2c3nc(c(-c4ccc(S(=O)(=O)[O-])cc4)c4ccc([nH]4)c(-c4ccc(S(=O)(=O)[O-])cc4)c4nc(c(-c5ccc(S(=O)(=O)[O-])cc5)c5ccc2[nH]5)C=C4)C=C3)cc1
REMARK SMILES IDX 1 1 2 2 3 3 22 5 23 6 81 7 24 8 80 9 25 10 26 11 27 12 74 13
REMARK SMILES IDX 28 14 79 15 73 16 75 17 29 18 78 19 72 20 71 21 30 23 60 24
REMARK SMILES IDX 41 25 59 26 42 27 45 28 58 29 76 30 43 31 44 32 57 34 77 35
REMARK SMILES IDX 46 36 31 37 32 38 40 39 33 40 39 41 34 42 35 43 36 44 37 45
REMARK SMILES IDX 38 46 61 47 62 48 70 49 63 50 69 51 64 52 65 53 66 54 67 55
REMARK SMILES IDX 68 56 47 57 48 58 56 59 49 60 55 61 50 62 51 63 52 64 53 65
REMARK SMILES IDX 54 66 4 67 5 68 6 69 7 70 8 71 9 73 10 74 11 75 18 76 12 77
REMARK SMILES IDX 17 78 19 79 13 80 16 81 20 82 14 83 15 84 21 85
REMARK H PARENT 3 4 75 22 45 33 7 72
REMARK Flexibility Score: inf
ROOT
ATOM      1  O   UNL A   1      43.151  22.587  24.615  1.00  0.00    -0.269 OA
ATOM      2  C   UNL A   1      42.281  22.788  25.464  1.00  0.00     0.251 C 
ATOM      3  N   UNL A   1      41.260  21.877  25.548  1.00  0.00    -0.352 N 
ATOM      4  H   UNL A   1      41.262  21.221  24.814  1.00  0.00     0.163 HD
ENDROOT
BRANCH   2   5
ATOM      5  C   UNL A   1      42.317  24.042  26.252  1.00  0.00     0.039 A 
ATOM      6  C   UNL A   1      42.894  24.170  27.516  1.00  0.00     0.014 A 
ATOM      7  C   UNL A   1      41.674  25.149  25.674  1.00  0.00     0.014 A 
ATOM      8  C   UNL A   1      42.687  25.323  28.260  1.00  0.00     0.010 A 
ATOM      9  C   UNL A   1      41.498  26.319  26.399  1.00  0.00     0.010 A 
ATOM     10  C   UNL A   1      41.956  26.378  27.713  1.00  0.00    -0.014 A 
BRANCH  10  11
ATOM     11  C   UNL A   1      41.797  27.585  28.515  1.00  0.00     0.031 A 
ATOM     12  C   UNL A   1      42.909  28.575  28.401  1.00  0.00     0.074 A 
ATOM     13  C   UNL A   1      40.663  27.862  29.186  1.00  0.00     0.049 A 
ATOM     14  N   UNL A   1      43.646  29.079  29.338  1.00  0.00    -0.248 NA
ATOM     15  C   UNL A   1      43.301  28.990  27.042  1.00  0.00     0.031 C 
ATOM     16  C   UNL A   1      39.386  27.144  29.141  1.00  0.00     0.029 A 
ATOM     17  N   UNL A   1      40.380  28.944  29.961  1.00  0.00    -0.354 N 
ATOM     18  C   UNL A   1      44.503  29.983  28.711  1.00  0.00     0.074 A 
ATOM     19  C   UNL A   1      44.319  29.810  27.292  1.00  0.00     0.031 C 
ATOM     20  C   UNL A   1      38.415  27.940  29.644  1.00  0.00     0.029 A 
ATOM     21  C   UNL A   1      39.020  29.156  30.160  1.00  0.00     0.049 A 
ATOM     22  H   UNL A   1      41.074  29.524  30.345  1.00  0.00     0.167 HD
ATOM     23  C   UNL A   1      45.205  30.942  29.374  1.00  0.00     0.031 A 
ATOM     24  C   UNL A   1      38.447  30.298  30.620  1.00  0.00     0.031 A 
ATOM     25  C   UNL A   1      45.261  30.720  30.788  1.00  0.00     0.049 A 
ATOM     26  C   UNL A   1      39.511  31.069  31.312  1.00  0.00     0.074 A 
ATOM     27  C   UNL A   1      45.825  29.754  31.595  1.00  0.00     0.029 A 
ATOM     28  N   UNL A   1      44.345  31.380  31.573  1.00  0.00    -0.354 N 
ATOM     29  N   UNL A   1      40.108  30.669  32.399  1.00  0.00    -0.248 NA
ATOM     30  C   UNL A   1      40.217  32.093  30.555  1.00  0.00     0.031 C 
ATOM     31  C   UNL A   1      44.885  29.562  32.648  1.00  0.00     0.029 A 
ATOM     32  C   UNL A   1      43.829  30.454  32.444  1.00  0.00     0.049 A 
ATOM     33  H   UNL A   1      44.106  32.333  31.520  1.00  0.00     0.167 HD
ATOM     34  C   UNL A   1      41.426  31.078  32.258  1.00  0.00     0.074 A 
ATOM     35  C   UNL A   1      41.413  32.024  31.146  1.00  0.00     0.031 C 
ATOM     36  C   UNL A   1      42.448  30.416  32.876  1.00  0.00     0.031 A 
BRANCH  23  37
ATOM     37  C   UNL A   1      45.588  32.248  28.739  1.00  0.00    -0.014 A 
ATOM     38  C   UNL A   1      46.917  32.702  28.774  1.00  0.00     0.010 A 
ATOM     39  C   UNL A   1      44.600  33.158  28.305  1.00  0.00     0.010 A 
ATOM     40  C   UNL A   1      47.241  34.014  28.394  1.00  0.00     0.020 A 
ATOM     41  C   UNL A   1      44.915  34.452  27.889  1.00  0.00     0.020 A 
ATOM     42  C   UNL A   1      46.235  34.879  27.954  1.00  0.00     0.054 A 
BRANCH  42  43
ATOM     43  S   UNL A   1      46.650  36.597  27.552  1.00  0.00     0.124 S 
ATOM     44  O   UNL A   1      47.308  36.459  26.255  1.00  0.00    -0.237 OA
ATOM     45  O   UNL A   1      45.337  37.233  27.531  1.00  0.00    -0.237 OA
ATOM     46  O   UNL A   1      47.521  37.007  28.651  1.00  0.00    -0.744 OA
ENDBRANCH  42  43
ENDBRANCH  23  37
BRANCH  24  47
ATOM     47  C   UNL A   1      37.183  30.928  30.148  1.00  0.00    -0.014 A 
ATOM     48  C   UNL A   1      36.229  31.401  31.070  1.00  0.00     0.010 A 
ATOM     49  C   UNL A   1      37.044  31.332  28.804  1.00  0.00     0.010 A 
ATOM     50  C   UNL A   1      35.229  32.308  30.679  1.00  0.00     0.020 A 
ATOM     51  C   UNL A   1      36.043  32.225  28.403  1.00  0.00     0.020 A 
ATOM     52  C   UNL A   1      35.163  32.738  29.351  1.00  0.00     0.054 A 
BRANCH  52  53
ATOM     53  S   UNL A   1      33.993  34.052  28.895  1.00  0.00     0.124 S 
ATOM     54  O   UNL A   1      33.134  33.384  27.923  1.00  0.00    -0.237 OA
ATOM     55  O   UNL A   1      33.372  34.370  30.177  1.00  0.00    -0.237 OA
ATOM     56  O   UNL A   1      34.850  35.101  28.344  1.00  0.00    -0.744 OA
ENDBRANCH  52  53
ENDBRANCH  24  47
BRANCH  36  57
ATOM     57  C   UNL A   1      42.103  29.367  33.908  1.00  0.00    -0.014 A 
ATOM     58  C   UNL A   1      41.730  28.049  33.573  1.00  0.00     0.010 A 
ATOM     59  C   UNL A   1      42.347  29.673  35.257  1.00  0.00     0.010 A 
ATOM     60  C   UNL A   1      41.607  27.066  34.566  1.00  0.00     0.020 A 
ATOM     61  C   UNL A   1      42.238  28.695  36.248  1.00  0.00     0.020 A 
ATOM     62  C   UNL A   1      41.874  27.393  35.898  1.00  0.00     0.054 A 
BRANCH  62  63
ATOM     63  S   UNL A   1      41.781  26.100  37.170  1.00  0.00     0.124 S 
ATOM     64  O   UNL A   1      42.047  24.881  36.411  1.00  0.00    -0.237 OA
ATOM     65  O   UNL A   1      42.830  26.499  38.105  1.00  0.00    -0.237 OA
ATOM     66  O   UNL A   1      40.419  26.217  37.690  1.00  0.00    -0.744 OA
ENDBRANCH  62  63
ENDBRANCH  36  57
ENDBRANCH  10  11
ENDBRANCH   2   5
BRANCH   3  67
ATOM     67  C   UNL A   1      40.176  21.679  26.493  1.00  0.00     0.118 C 
BRANCH  67  68
ATOM     68  C   UNL A   1      39.027  22.678  26.405  1.00  0.00     0.042 C 
BRANCH  68  69
ATOM     69  C   UNL A   1      37.757  22.127  25.768  1.00  0.00     0.118 C 
BRANCH  69  70
ATOM     70  N   UNL A   1      37.635  22.462  24.357  1.00  0.00    -0.349 N 
ATOM     71  C   UNL A   1      36.538  22.911  23.657  1.00  0.00     0.287 C 
ATOM     72  H   UNL A   1      38.456  22.350  23.825  1.00  0.00     0.163 HD
ATOM     73  O   UNL A   1      36.626  22.947  22.427  1.00  0.00    -0.266 OA
BRANCH  71  74
ATOM     74  C   UNL A   1      35.366  23.316  24.391  1.00  0.00     0.195 A 
ATOM     75  O   UNL A   1      35.310  24.616  24.863  1.00  0.00    -0.451 OA
ATOM     76  C   UNL A   1      34.201  22.651  24.731  1.00  0.00     0.012 A 
ATOM     77  C   UNL A   1      34.066  24.800  25.400  1.00  0.00     0.135 A 
ATOM     78  C   UNL A   1      33.374  23.618  25.325  1.00  0.00     0.028 A 
ATOM     79  C   UNL A   1      33.675  21.268  24.542  1.00  0.00     0.041 C 
ATOM     80  C   UNL A   1      33.508  25.957  25.923  1.00  0.00     0.048 A 
ATOM     81  C   UNL A   1      32.055  23.482  25.757  1.00  0.00    -0.037 A 
ATOM     82  C   UNL A   1      32.468  21.004  25.492  1.00  0.00     0.010 C 
ATOM     83  C   UNL A   1      32.165  25.847  26.338  1.00  0.00     0.004 A 
ATOM     84  C   UNL A   1      31.446  24.638  26.251  1.00  0.00     0.004 A 
ATOM     85  C   UNL A   1      31.403  22.145  25.530  1.00  0.00     0.036 C 
ENDBRANCH  71  74
ENDBRANCH  69  70
ENDBRANCH  68  69
ENDBRANCH  67  68
ENDBRANCH   3  67
TORSDOF 13
ENDMDL
