MODEL 1
REMARK VINA RESULT:     -11.9      0.000      0.000
REMARK SMILES CN(C(=O)c1cccn1CC(=O)NCCCNC(=O)c1ccc(-c2c3nc(c(-c4ccc(S(=O)(=O)[O-])cc4)c4ccc([nH]4)c(-c4ccc(S(=O)(=O)[O-])cc4)c4nc(c(-c5ccc(S(=O)(=O)[O-])cc5)c5ccc2[nH]5)C=C4)C=C3)cc1)c1ccc(F)cc1
REMARK SMILES IDX 14 1 13 2 11 3 12 4 10 6 9 7 5 8 6 9 7 10 8 11 3 12 4 13
REMARK SMILES IDX 2 14 1 15 80 16 81 17 86 18 82 19 85 20 83 21 84 22 15 23
REMARK SMILES IDX 16 24 17 25 18 26 19 28 20 29 21 30 79 31 22 32 78 33 23 34
REMARK SMILES IDX 24 35 25 36 72 37 26 38 77 39 71 40 73 41 27 42 76 43 70 44
REMARK SMILES IDX 69 45 28 47 58 48 39 49 57 50 40 51 43 52 56 53 74 54 41 55
REMARK SMILES IDX 42 56 55 58 75 59 44 60 29 61 30 62 38 63 31 64 37 65 32 66
REMARK SMILES IDX 33 67 34 68 35 69 36 70 59 71 60 72 68 73 61 74 67 75 62 76
REMARK SMILES IDX 63 77 64 78 65 79 66 80 45 81 46 82 54 83 47 84 53 85 48 86
REMARK SMILES IDX 49 87 50 88 51 89 52 90
REMARK H PARENT 13 5 17 27 73 46 43 57
REMARK Flexibility Score: inf
ROOT
ATOM      1  C   UNL A   1      33.205  27.436  25.422  1.00  0.00     0.117 C 
ENDROOT
BRANCH   1   2
ATOM      2  N   UNL A   1      34.282  26.488  25.622  1.00  0.00    -0.354 N 
ATOM      3  C   UNL A   1      34.367  25.187  25.208  1.00  0.00     0.239 C 
ATOM      4  O   UNL A   1      35.377  24.545  25.497  1.00  0.00    -0.273 OA
ATOM      5  H   UNL A   1      35.057  26.824  26.126  1.00  0.00     0.163 HD
BRANCH   3   6
ATOM      6  C   UNL A   1      33.274  24.588  24.348  1.00  0.00     0.222 C 
BRANCH   6   7
ATOM      7  N   UNL A   1      32.298  23.803  25.098  1.00  0.00    -0.334 N 
ATOM      8  C   UNL A   1      32.195  22.416  25.134  1.00  0.00     0.108 A 
ATOM      9  C   UNL A   1      31.152  22.130  26.006  1.00  0.00     0.033 A 
ATOM     10  C   UNL A   1      30.601  23.347  26.466  1.00  0.00     0.020 A 
ATOM     11  C   UNL A   1      31.340  24.362  25.910  1.00  0.00     0.087 A 
BRANCH   8  12
ATOM     12  C   UNL A   1      33.113  21.513  24.446  1.00  0.00     0.274 C 
ATOM     13  O   UNL A   1      34.320  21.710  24.555  1.00  0.00    -0.267 OA
BRANCH  12  14
ATOM     14  N   UNL A   1      32.589  20.502  23.599  1.00  0.00    -0.310 N 
ATOM     15  C   UNL A   1      31.924  20.763  22.319  1.00  0.00     0.153 C 
BRANCH  14  16
ATOM     16  C   UNL A   1      32.744  19.114  23.963  1.00  0.00     0.044 A 
ATOM     17  C   UNL A   1      32.540  18.686  25.284  1.00  0.00     0.029 A 
ATOM     18  C   UNL A   1      33.106  18.144  23.009  1.00  0.00     0.029 A 
ATOM     19  C   UNL A   1      32.711  17.347  25.649  1.00  0.00     0.041 A 
ATOM     20  C   UNL A   1      33.293  16.807  23.375  1.00  0.00     0.041 A 
ATOM     21  C   UNL A   1      33.094  16.421  24.692  1.00  0.00     0.123 A 
ATOM     22  F   UNL A   1      33.274  15.140  25.043  1.00  0.00    -0.207 F 
ENDBRANCH  14  16
ENDBRANCH  12  14
ENDBRANCH   8  12
ENDBRANCH   6   7
ENDBRANCH   3   6
ENDBRANCH   1   2
BRANCH   1  23
ATOM     23  C   UNL A   1      33.572  28.834  25.925  1.00  0.00     0.042 C 
BRANCH  23  24
ATOM     24  C   UNL A   1      34.778  28.815  26.859  1.00  0.00     0.118 C 
BRANCH  24  25
ATOM     25  N   UNL A   1      35.261  30.173  27.074  1.00  0.00    -0.352 N 
ATOM     26  C   UNL A   1      36.297  30.640  27.837  1.00  0.00     0.251 C 
ATOM     27  H   UNL A   1      34.759  30.868  26.591  1.00  0.00     0.163 HD
ATOM     28  O   UNL A   1      36.276  31.820  28.174  1.00  0.00    -0.269 OA
BRANCH  26  29
ATOM     29  C   UNL A   1      37.422  29.775  28.252  1.00  0.00     0.039 A 
ATOM     30  C   UNL A   1      38.535  29.708  27.400  1.00  0.00     0.014 A 
ATOM     31  C   UNL A   1      37.360  28.961  29.388  1.00  0.00     0.014 A 
ATOM     32  C   UNL A   1      39.603  28.873  27.715  1.00  0.00     0.010 A 
ATOM     33  C   UNL A   1      38.430  28.135  29.716  1.00  0.00     0.010 A 
ATOM     34  C   UNL A   1      39.557  28.112  28.890  1.00  0.00    -0.014 A 
BRANCH  34  35
ATOM     35  C   UNL A   1      40.807  27.510  29.399  1.00  0.00     0.031 A 
ATOM     36  C   UNL A   1      41.133  26.216  28.594  1.00  0.00     0.074 A 
ATOM     37  C   UNL A   1      41.428  28.157  30.441  1.00  0.00     0.049 A 
ATOM     38  N   UNL A   1      41.868  25.200  28.918  1.00  0.00    -0.248 NA
ATOM     39  C   UNL A   1      40.505  25.982  27.254  1.00  0.00     0.031 C 
ATOM     40  C   UNL A   1      40.976  29.441  31.038  1.00  0.00     0.029 A 
ATOM     41  N   UNL A   1      42.551  27.904  31.207  1.00  0.00    -0.354 N 
ATOM     42  C   UNL A   1      41.969  24.346  27.789  1.00  0.00     0.074 A 
ATOM     43  C   UNL A   1      41.026  24.827  26.832  1.00  0.00     0.031 C 
ATOM     44  C   UNL A   1      41.740  29.790  32.103  1.00  0.00     0.029 A 
ATOM     45  C   UNL A   1      42.783  28.801  32.296  1.00  0.00     0.049 A 
ATOM     46  H   UNL A   1      43.156  27.152  31.014  1.00  0.00     0.167 HD
ATOM     47  C   UNL A   1      42.936  23.387  27.671  1.00  0.00     0.031 A 
ATOM     48  C   UNL A   1      43.725  28.722  33.295  1.00  0.00     0.031 A 
ATOM     49  C   UNL A   1      43.699  23.345  28.872  1.00  0.00     0.049 A 
ATOM     50  C   UNL A   1      44.617  27.637  32.872  1.00  0.00     0.074 A 
ATOM     51  C   UNL A   1      43.384  22.945  30.143  1.00  0.00     0.029 A 
ATOM     52  N   UNL A   1      44.800  24.167  28.901  1.00  0.00    -0.354 N 
ATOM     53  N   UNL A   1      45.481  27.723  31.907  1.00  0.00    -0.248 NA
ATOM     54  C   UNL A   1      44.498  26.326  33.525  1.00  0.00     0.031 C 
ATOM     55  C   UNL A   1      43.941  23.975  30.924  1.00  0.00     0.029 A 
ATOM     56  C   UNL A   1      44.807  24.748  30.140  1.00  0.00     0.049 A 
ATOM     57  H   UNL A   1      45.452  24.309  28.177  1.00  0.00     0.167 HD
ATOM     58  C   UNL A   1      45.673  26.408  31.585  1.00  0.00     0.074 A 
ATOM     59  C   UNL A   1      45.354  25.639  32.773  1.00  0.00     0.031 C 
ATOM     60  C   UNL A   1      45.490  26.006  30.300  1.00  0.00     0.031 A 
BRANCH  47  61
ATOM     61  C   UNL A   1      43.505  22.626  26.499  1.00  0.00    -0.014 A 
ATOM     62  C   UNL A   1      42.796  21.458  26.107  1.00  0.00     0.010 A 
ATOM     63  C   UNL A   1      44.826  22.759  26.051  1.00  0.00     0.010 A 
ATOM     64  C   UNL A   1      43.422  20.395  25.458  1.00  0.00     0.020 A 
ATOM     65  C   UNL A   1      45.451  21.708  25.352  1.00  0.00     0.020 A 
ATOM     66  C   UNL A   1      44.762  20.513  25.115  1.00  0.00     0.054 A 
BRANCH  66  67
ATOM     67  S   UNL A   1      45.592  19.055  24.424  1.00  0.00     0.124 S 
ATOM     68  O   UNL A   1      44.830  18.818  23.202  1.00  0.00    -0.237 OA
ATOM     69  O   UNL A   1      46.959  19.534  24.226  1.00  0.00    -0.237 OA
ATOM     70  O   UNL A   1      45.440  18.048  25.470  1.00  0.00    -0.744 OA
ENDBRANCH  66  67
ENDBRANCH  47  61
BRANCH  48  71
ATOM     71  C   UNL A   1      44.065  29.310  34.659  1.00  0.00    -0.014 A 
ATOM     72  C   UNL A   1      43.728  28.795  35.915  1.00  0.00     0.010 A 
ATOM     73  C   UNL A   1      44.953  30.432  34.687  1.00  0.00     0.010 A 
ATOM     74  C   UNL A   1      44.381  29.259  37.094  1.00  0.00     0.020 A 
ATOM     75  C   UNL A   1      45.645  30.856  35.824  1.00  0.00     0.020 A 
ATOM     76  C   UNL A   1      45.383  30.237  37.028  1.00  0.00     0.054 A 
BRANCH  76  77
ATOM     77  S   UNL A   1      46.460  30.593  38.452  1.00  0.00     0.124 S 
ATOM     78  O   UNL A   1      46.469  32.051  38.488  1.00  0.00    -0.237 OA
ATOM     79  O   UNL A   1      45.762  29.936  39.554  1.00  0.00    -0.237 OA
ATOM     80  O   UNL A   1      47.732  29.972  38.084  1.00  0.00    -0.744 OA
ENDBRANCH  76  77
ENDBRANCH  48  71
BRANCH  60  81
ATOM     81  C   UNL A   1      45.669  27.076  29.225  1.00  0.00    -0.014 A 
ATOM     82  C   UNL A   1      46.957  27.583  28.969  1.00  0.00     0.010 A 
ATOM     83  C   UNL A   1      44.602  27.658  28.508  1.00  0.00     0.010 A 
ATOM     84  C   UNL A   1      47.178  28.620  28.049  1.00  0.00     0.020 A 
ATOM     85  C   UNL A   1      44.811  28.704  27.583  1.00  0.00     0.020 A 
ATOM     86  C   UNL A   1      46.104  29.177  27.357  1.00  0.00     0.054 A 
BRANCH  86  87
ATOM     87  S   UNL A   1      46.432  30.516  26.169  1.00  0.00     0.124 S 
ATOM     88  O   UNL A   1      47.714  31.047  26.625  1.00  0.00    -0.237 OA
ATOM     89  O   UNL A   1      46.470  29.805  24.894  1.00  0.00    -0.237 OA
ATOM     90  O   UNL A   1      45.297  31.423  26.340  1.00  0.00    -0.744 OA
ENDBRANCH  86  87
ENDBRANCH  60  81
ENDBRANCH  34  35
ENDBRANCH  26  29
ENDBRANCH  24  25
ENDBRANCH  23  24
ENDBRANCH   1  23
TORSDOF 17
ENDMDL
MODEL 2
REMARK VINA RESULT:     -11.8      4.996      7.181
REMARK SMILES CN(C(=O)c1cccn1CC(=O)NCCCNC(=O)c1ccc(-c2c3nc(c(-c4ccc(S(=O)(=O)[O-])cc4)c4ccc([nH]4)c(-c4ccc(S(=O)(=O)[O-])cc4)c4nc(c(-c5ccc(S(=O)(=O)[O-])cc5)c5ccc2[nH]5)C=C4)C=C3)cc1)c1ccc(F)cc1
REMARK SMILES IDX 14 1 13 2 11 3 12 4 10 6 9 7 5 8 6 9 7 10 8 11 3 12 4 13
REMARK SMILES IDX 2 14 1 15 80 16 81 17 86 18 82 19 85 20 83 21 84 22 15 23
REMARK SMILES IDX 16 24 17 25 18 26 19 28 20 29 21 30 79 31 22 32 78 33 23 34
REMARK SMILES IDX 24 35 25 36 72 37 26 38 77 39 71 40 73 41 27 42 76 43 70 44
REMARK SMILES IDX 69 45 28 47 58 48 39 49 57 50 40 51 43 52 56 53 74 54 41 55
REMARK SMILES IDX 42 56 55 58 75 59 44 60 29 61 30 62 38 63 31 64 37 65 32 66
REMARK SMILES IDX 33 67 34 68 35 69 36 70 59 71 60 72 68 73 61 74 67 75 62 76
REMARK SMILES IDX 63 77 64 78 65 79 66 80 45 81 46 82 54 83 47 84 53 85 48 86
REMARK SMILES IDX 49 87 50 88 51 89 52 90
REMARK H PARENT 13 5 17 27 73 46 43 57
REMARK Flexibility Score: inf
ROOT
ATOM      1  C   UNL A   1      33.657  30.743  27.004  1.00  0.00     0.117 C 
ENDROOT
BRANCH   1   2
ATOM      2  N   UNL A   1      32.787  29.777  27.645  1.00  0.00    -0.354 N 
ATOM      3  C   UNL A   1      32.246  28.634  27.125  1.00  0.00     0.239 C 
ATOM      4  O   UNL A   1      31.515  27.953  27.845  1.00  0.00    -0.273 OA
ATOM      5  H   UNL A   1      32.553  29.970  28.581  1.00  0.00     0.163 HD
BRANCH   3   6
ATOM      6  C   UNL A   1      32.608  28.187  25.725  1.00  0.00     0.222 C 
BRANCH   6   7
ATOM      7  N   UNL A   1      32.669  26.736  25.567  1.00  0.00    -0.334 N 
ATOM      8  C   UNL A   1      31.669  25.910  25.067  1.00  0.00     0.108 A 
ATOM      9  C   UNL A   1      32.194  24.625  25.069  1.00  0.00     0.033 A 
ATOM     10  C   UNL A   1      33.500  24.671  25.607  1.00  0.00     0.020 A 
ATOM     11  C   UNL A   1      33.777  25.987  25.884  1.00  0.00     0.087 A 
BRANCH   8  12
ATOM     12  C   UNL A   1      30.388  26.396  24.560  1.00  0.00     0.274 C 
ATOM     13  O   UNL A   1      29.359  26.030  25.122  1.00  0.00    -0.267 OA
BRANCH  12  14
ATOM     14  N   UNL A   1      30.363  27.191  23.385  1.00  0.00    -0.310 N 
ATOM     15  C   UNL A   1      31.098  26.871  22.158  1.00  0.00     0.153 C 
BRANCH  14  16
ATOM     16  C   UNL A   1      29.533  28.372  23.339  1.00  0.00     0.044 A 
ATOM     17  C   UNL A   1      30.046  29.630  23.691  1.00  0.00     0.029 A 
ATOM     18  C   UNL A   1      28.185  28.302  22.941  1.00  0.00     0.029 A 
ATOM     19  C   UNL A   1      29.243  30.774  23.671  1.00  0.00     0.041 A 
ATOM     20  C   UNL A   1      27.375  29.444  22.935  1.00  0.00     0.041 A 
ATOM     21  C   UNL A   1      27.912  30.668  23.302  1.00  0.00     0.123 A 
ATOM     22  F   UNL A   1      27.136  31.761  23.296  1.00  0.00    -0.207 F 
ENDBRANCH  14  16
ENDBRANCH  12  14
ENDBRANCH   8  12
ENDBRANCH   6   7
ENDBRANCH   3   6
ENDBRANCH   1   2
BRANCH   1  23
ATOM     23  C   UNL A   1      33.549  32.126  27.649  1.00  0.00     0.042 C 
BRANCH  23  24
ATOM     24  C   UNL A   1      32.199  32.785  27.385  1.00  0.00     0.118 C 
BRANCH  24  25
ATOM     25  N   UNL A   1      32.299  34.224  27.586  1.00  0.00    -0.352 N 
ATOM     26  C   UNL A   1      32.995  34.947  28.518  1.00  0.00     0.251 C 
ATOM     27  H   UNL A   1      31.781  34.765  26.949  1.00  0.00     0.163 HD
ATOM     28  O   UNL A   1      32.631  36.098  28.742  1.00  0.00    -0.269 OA
BRANCH  26  29
ATOM     29  C   UNL A   1      34.158  34.389  29.241  1.00  0.00     0.039 A 
ATOM     30  C   UNL A   1      33.925  33.830  30.507  1.00  0.00     0.014 A 
ATOM     31  C   UNL A   1      35.464  34.498  28.753  1.00  0.00     0.014 A 
ATOM     32  C   UNL A   1      34.988  33.334  31.254  1.00  0.00     0.010 A 
ATOM     33  C   UNL A   1      36.530  33.992  29.489  1.00  0.00     0.010 A 
ATOM     34  C   UNL A   1      36.285  33.390  30.727  1.00  0.00    -0.014 A 
BRANCH  34  35
ATOM     35  C   UNL A   1      37.343  32.564  31.346  1.00  0.00     0.031 A 
ATOM     36  C   UNL A   1      37.564  31.274  30.500  1.00  0.00     0.074 A 
ATOM     37  C   UNL A   1      37.914  33.048  32.499  1.00  0.00     0.049 A 
ATOM     38  N   UNL A   1      38.077  30.135  30.840  1.00  0.00    -0.248 NA
ATOM     39  C   UNL A   1      37.092  31.214  29.079  1.00  0.00     0.031 C 
ATOM     40  C   UNL A   1      37.595  34.359  33.123  1.00  0.00     0.029 A 
ATOM     41  N   UNL A   1      38.869  32.575  33.379  1.00  0.00    -0.354 N 
ATOM     42  C   UNL A   1      38.192  29.332  29.676  1.00  0.00     0.074 A 
ATOM     43  C   UNL A   1      37.474  30.009  28.645  1.00  0.00     0.031 C 
ATOM     44  C   UNL A   1      38.256  34.524  34.296  1.00  0.00     0.029 A 
ATOM     45  C   UNL A   1      39.092  33.366  34.549  1.00  0.00     0.049 A 
ATOM     46  H   UNL A   1      39.367  31.742  33.211  1.00  0.00     0.167 HD
ATOM     47  C   UNL A   1      39.001  28.232  29.614  1.00  0.00     0.031 A 
ATOM     48  C   UNL A   1      39.867  33.084  35.649  1.00  0.00     0.031 A 
ATOM     49  C   UNL A   1      39.579  28.005  30.894  1.00  0.00     0.049 A 
ATOM     50  C   UNL A   1      40.624  31.886  35.266  1.00  0.00     0.074 A 
ATOM     51  C   UNL A   1      39.037  27.603  32.085  1.00  0.00     0.029 A 
ATOM     52  N   UNL A   1      40.783  28.630  31.117  1.00  0.00    -0.354 N 
ATOM     53  N   UNL A   1      41.612  31.874  34.425  1.00  0.00    -0.248 NA
ATOM     54  C   UNL A   1      40.211  30.584  35.806  1.00  0.00     0.031 C 
ATOM     55  C   UNL A   1      39.641  28.487  32.999  1.00  0.00     0.029 A 
ATOM     56  C   UNL A   1      40.717  29.142  32.384  1.00  0.00     0.049 A 
ATOM     57  H   UNL A   1      41.540  28.696  30.491  1.00  0.00     0.167 HD
ATOM     58  C   UNL A   1      41.633  30.562  34.038  1.00  0.00     0.074 A 
ATOM     59  C   UNL A   1      41.040  29.801  35.121  1.00  0.00     0.031 C 
ATOM     60  C   UNL A   1      41.563  30.258  32.716  1.00  0.00     0.031 A 
BRANCH  47  61
ATOM     61  C   UNL A   1      39.594  27.444  28.472  1.00  0.00    -0.014 A 
ATOM     62  C   UNL A   1      39.694  26.039  28.665  1.00  0.00     0.010 A 
ATOM     63  C   UNL A   1      40.373  28.011  27.455  1.00  0.00     0.010 A 
ATOM     64  C   UNL A   1      40.652  25.268  28.008  1.00  0.00     0.020 A 
ATOM     65  C   UNL A   1      41.309  27.228  26.752  1.00  0.00     0.020 A 
ATOM     66  C   UNL A   1      41.481  25.878  27.077  1.00  0.00     0.054 A 
BRANCH  66  67
ATOM     67  S   UNL A   1      42.824  24.889  26.362  1.00  0.00     0.124 S 
ATOM     68  O   UNL A   1      43.870  25.016  27.372  1.00  0.00    -0.237 OA
ATOM     69  O   UNL A   1      42.216  23.564  26.254  1.00  0.00    -0.237 OA
ATOM     70  O   UNL A   1      43.092  25.547  25.087  1.00  0.00    -0.744 OA
ENDBRANCH  66  67
ENDBRANCH  47  61
BRANCH  48  71
ATOM     71  C   UNL A   1      40.110  33.541  37.082  1.00  0.00    -0.014 A 
ATOM     72  C   UNL A   1      41.324  33.929  37.657  1.00  0.00     0.010 A 
ATOM     73  C   UNL A   1      38.959  33.748  37.908  1.00  0.00     0.010 A 
ATOM     74  C   UNL A   1      41.354  34.638  38.893  1.00  0.00     0.020 A 
ATOM     75  C   UNL A   1      38.965  34.494  39.089  1.00  0.00     0.020 A 
ATOM     76  C   UNL A   1      40.169  34.974  39.562  1.00  0.00     0.054 A 
BRANCH  76  77
ATOM     77  S   UNL A   1      40.159  36.162  40.941  1.00  0.00     0.124 S 
ATOM     78  O   UNL A   1      38.744  36.493  41.067  1.00  0.00    -0.237 OA
ATOM     79  O   UNL A   1      40.729  35.385  42.039  1.00  0.00    -0.237 OA
ATOM     80  O   UNL A   1      41.012  37.250  40.462  1.00  0.00    -0.744 OA
ENDBRANCH  76  77
ENDBRANCH  48  71
BRANCH  60  81
ATOM     81  C   UNL A   1      42.052  31.335  31.748  1.00  0.00    -0.014 A 
ATOM     82  C   UNL A   1      41.112  32.032  30.965  1.00  0.00     0.010 A 
ATOM     83  C   UNL A   1      43.412  31.634  31.526  1.00  0.00     0.010 A 
ATOM     84  C   UNL A   1      41.502  32.977  30.003  1.00  0.00     0.020 A 
ATOM     85  C   UNL A   1      43.818  32.580  30.560  1.00  0.00     0.020 A 
ATOM     86  C   UNL A   1      42.855  33.250  29.804  1.00  0.00     0.054 A 
BRANCH  86  87
ATOM     87  S   UNL A   1      43.320  34.486  28.552  1.00  0.00     0.124 S 
ATOM     88  O   UNL A   1      42.095  35.266  28.396  1.00  0.00    -0.237 OA
ATOM     89  O   UNL A   1      44.427  35.188  29.196  1.00  0.00    -0.237 OA
ATOM     90  O   UNL A   1      43.689  33.684  27.387  1.00  0.00    -0.744 OA
ENDBRANCH  86  87
ENDBRANCH  60  81
ENDBRANCH  34  35
ENDBRANCH  26  29
ENDBRANCH  24  25
ENDBRANCH  23  24
ENDBRANCH   1  23
TORSDOF 17
ENDMDL
MODEL 3
REMARK VINA RESULT:     -11.8      3.802      9.039
REMARK SMILES CN(C(=O)c1cccn1CC(=O)NCCCNC(=O)c1ccc(-c2c3nc(c(-c4ccc(S(=O)(=O)[O-])cc4)c4ccc([nH]4)c(-c4ccc(S(=O)(=O)[O-])cc4)c4nc(c(-c5ccc(S(=O)(=O)[O-])cc5)c5ccc2[nH]5)C=C4)C=C3)cc1)c1ccc(F)cc1
REMARK SMILES IDX 14 1 13 2 11 3 12 4 10 6 9 7 5 8 6 9 7 10 8 11 3 12 4 13
REMARK SMILES IDX 2 14 1 15 80 16 81 17 86 18 82 19 85 20 83 21 84 22 15 23
REMARK SMILES IDX 16 24 17 25 18 26 19 28 20 29 21 30 79 31 22 32 78 33 23 34
REMARK SMILES IDX 24 35 25 36 72 37 26 38 77 39 71 40 73 41 27 42 76 43 70 44
REMARK SMILES IDX 69 45 28 47 58 48 39 49 57 50 40 51 43 52 56 53 74 54 41 55
REMARK SMILES IDX 42 56 55 58 75 59 44 60 29 61 30 62 38 63 31 64 37 65 32 66
REMARK SMILES IDX 33 67 34 68 35 69 36 70 59 71 60 72 68 73 61 74 67 75 62 76
REMARK SMILES IDX 63 77 64 78 65 79 66 80 45 81 46 82 54 83 47 84 53 85 48 86
REMARK SMILES IDX 49 87 50 88 51 89 52 90
REMARK H PARENT 13 5 17 27 73 46 43 57
REMARK Flexibility Score: inf
ROOT
ATOM      1  C   UNL A   1      38.491  22.296  25.651  1.00  0.00     0.117 C 
ENDROOT
BRANCH   1   2
ATOM      2  N   UNL A   1      37.294  22.696  26.363  1.00  0.00    -0.354 N 
ATOM      3  C   UNL A   1      36.009  22.773  25.902  1.00  0.00     0.239 C 
ATOM      4  O   UNL A   1      35.131  23.153  26.678  1.00  0.00    -0.273 OA
ATOM      5  H   UNL A   1      37.423  22.948  27.305  1.00  0.00     0.163 HD
BRANCH   3   6
ATOM      6  C   UNL A   1      35.674  22.324  24.495  1.00  0.00     0.222 C 
BRANCH   6   7
ATOM      7  N   UNL A   1      34.421  21.583  24.396  1.00  0.00    -0.334 N 
ATOM      8  C   UNL A   1      33.274  21.973  23.713  1.00  0.00     0.108 A 
ATOM      9  C   UNL A   1      32.363  20.937  23.866  1.00  0.00     0.033 A 
ATOM     10  C   UNL A   1      32.947  19.936  24.675  1.00  0.00     0.020 A 
ATOM     11  C   UNL A   1      34.224  20.348  24.968  1.00  0.00     0.087 A 
BRANCH   8  12
ATOM     12  C   UNL A   1      33.172  23.199  22.926  1.00  0.00     0.274 C 
ATOM     13  O   UNL A   1      33.905  23.331  21.950  1.00  0.00    -0.267 OA
BRANCH  12  14
ATOM     14  N   UNL A   1      32.308  24.236  23.363  1.00  0.00    -0.310 N 
ATOM     15  C   UNL A   1      30.847  24.197  23.241  1.00  0.00     0.153 C 
BRANCH  14  16
ATOM     16  C   UNL A   1      32.860  25.397  24.021  1.00  0.00     0.044 A 
ATOM     17  C   UNL A   1      33.021  25.430  25.415  1.00  0.00     0.029 A 
ATOM     18  C   UNL A   1      33.253  26.533  23.289  1.00  0.00     0.029 A 
ATOM     19  C   UNL A   1      33.532  26.560  26.060  1.00  0.00     0.041 A 
ATOM     20  C   UNL A   1      33.752  27.670  23.934  1.00  0.00     0.041 A 
ATOM     21  C   UNL A   1      33.885  27.672  25.315  1.00  0.00     0.123 A 
ATOM     22  F   UNL A   1      34.362  28.761  25.933  1.00  0.00    -0.207 F 
ENDBRANCH  14  16
ENDBRANCH  12  14
ENDBRANCH   8  12
ENDBRANCH   6   7
ENDBRANCH   3   6
ENDBRANCH   1   2
BRANCH   1  23
ATOM     23  C   UNL A   1      39.182  21.104  26.318  1.00  0.00     0.042 C 
BRANCH  23  24
ATOM     24  C   UNL A   1      39.248  19.886  25.402  1.00  0.00     0.118 C 
BRANCH  24  25
ATOM     25  N   UNL A   1      40.269  18.961  25.877  1.00  0.00    -0.352 N 
ATOM     26  C   UNL A   1      41.590  19.166  26.168  1.00  0.00     0.251 C 
ATOM     27  H   UNL A   1      39.956  18.038  26.009  1.00  0.00     0.163 HD
ATOM     28  O   UNL A   1      42.336  18.190  26.172  1.00  0.00    -0.269 OA
BRANCH  26  29
ATOM     29  C   UNL A   1      42.131  20.507  26.479  1.00  0.00     0.039 A 
ATOM     30  C   UNL A   1      42.706  21.233  25.426  1.00  0.00     0.014 A 
ATOM     31  C   UNL A   1      42.177  21.010  27.784  1.00  0.00     0.014 A 
ATOM     32  C   UNL A   1      43.274  22.479  25.669  1.00  0.00     0.010 A 
ATOM     33  C   UNL A   1      42.731  22.261  28.032  1.00  0.00     0.010 A 
ATOM     34  C   UNL A   1      43.257  23.001  26.969  1.00  0.00    -0.014 A 
BRANCH  34  35
ATOM     35  C   UNL A   1      43.532  24.440  27.164  1.00  0.00     0.031 A 
ATOM     36  C   UNL A   1      42.188  25.217  27.305  1.00  0.00     0.074 A 
ATOM     37  C   UNL A   1      44.852  24.823  27.181  1.00  0.00     0.049 A 
ATOM     38  N   UNL A   1      41.929  26.471  27.109  1.00  0.00    -0.248 NA
ATOM     39  C   UNL A   1      40.928  24.487  27.657  1.00  0.00     0.031 C 
ATOM     40  C   UNL A   1      46.010  23.896  27.088  1.00  0.00     0.029 A 
ATOM     41  N   UNL A   1      45.507  26.036  27.288  1.00  0.00    -0.354 N 
ATOM     42  C   UNL A   1      40.591  26.717  27.511  1.00  0.00     0.074 A 
ATOM     43  C   UNL A   1      39.995  25.441  27.739  1.00  0.00     0.031 C 
ATOM     44  C   UNL A   1      47.185  24.572  27.048  1.00  0.00     0.029 A 
ATOM     45  C   UNL A   1      46.929  25.997  27.141  1.00  0.00     0.049 A 
ATOM     46  H   UNL A   1      45.024  26.877  27.457  1.00  0.00     0.167 HD
ATOM     47  C   UNL A   1      40.115  27.973  27.768  1.00  0.00     0.031 A 
ATOM     48  C   UNL A   1      47.819  27.042  27.064  1.00  0.00     0.031 A 
ATOM     49  C   UNL A   1      41.128  28.925  27.466  1.00  0.00     0.049 A 
ATOM     50  C   UNL A   1      47.025  28.225  27.412  1.00  0.00     0.074 A 
ATOM     51  C   UNL A   1      41.686  29.323  26.281  1.00  0.00     0.029 A 
ATOM     52  N   UNL A   1      41.965  29.247  28.507  1.00  0.00    -0.354 N 
ATOM     53  N   UNL A   1      46.613  28.514  28.608  1.00  0.00    -0.248 NA
ATOM     54  C   UNL A   1      46.593  29.130  26.338  1.00  0.00     0.031 C 
ATOM     55  C   UNL A   1      43.059  29.349  26.594  1.00  0.00     0.029 A 
ATOM     56  C   UNL A   1      43.229  29.279  27.983  1.00  0.00     0.049 A 
ATOM     57  H   UNL A   1      41.708  29.420  29.442  1.00  0.00     0.167 HD
ATOM     58  C   UNL A   1      45.564  29.353  28.348  1.00  0.00     0.074 A 
ATOM     59  C   UNL A   1      45.820  29.945  27.049  1.00  0.00     0.031 C 
ATOM     60  C   UNL A   1      44.343  29.069  28.871  1.00  0.00     0.031 A 
BRANCH  47  61
ATOM     61  C   UNL A   1      38.924  28.494  28.533  1.00  0.00    -0.014 A 
ATOM     62  C   UNL A   1      38.335  29.689  28.037  1.00  0.00     0.010 A 
ATOM     63  C   UNL A   1      38.622  28.125  29.850  1.00  0.00     0.010 A 
ATOM     64  C   UNL A   1      37.632  30.566  28.863  1.00  0.00     0.020 A 
ATOM     65  C   UNL A   1      37.870  28.983  30.677  1.00  0.00     0.020 A 
ATOM     66  C   UNL A   1      37.434  30.221  30.193  1.00  0.00     0.054 A 
BRANCH  66  67
ATOM     67  S   UNL A   1      36.664  31.453  31.281  1.00  0.00     0.124 S 
ATOM     68  O   UNL A   1      36.344  30.661  32.464  1.00  0.00    -0.237 OA
ATOM     69  O   UNL A   1      37.735  32.433  31.455  1.00  0.00    -0.237 OA
ATOM     70  O   UNL A   1      35.520  31.925  30.507  1.00  0.00    -0.744 OA
ENDBRANCH  66  67
ENDBRANCH  47  61
BRANCH  48  71
ATOM     71  C   UNL A   1      49.259  27.352  26.672  1.00  0.00    -0.014 A 
ATOM     72  C   UNL A   1      50.136  28.245  27.296  1.00  0.00     0.010 A 
ATOM     73  C   UNL A   1      49.849  26.542  25.650  1.00  0.00     0.010 A 
ATOM     74  C   UNL A   1      51.536  28.196  27.035  1.00  0.00     0.020 A 
ATOM     75  C   UNL A   1      51.224  26.440  25.428  1.00  0.00     0.020 A 
ATOM     76  C   UNL A   1      52.074  27.246  26.155  1.00  0.00     0.054 A 
BRANCH  76  77
ATOM     77  S   UNL A   1      53.867  26.938  26.069  1.00  0.00     0.124 S 
ATOM     78  O   UNL A   1      54.382  28.198  25.545  1.00  0.00    -0.237 OA
ATOM     79  O   UNL A   1      54.208  26.642  27.458  1.00  0.00    -0.237 OA
ATOM     80  O   UNL A   1      53.975  25.796  25.161  1.00  0.00    -0.744 OA
ENDBRANCH  76  77
ENDBRANCH  48  71
BRANCH  60  81
ATOM     81  C   UNL A   1      44.332  28.225  30.144  1.00  0.00    -0.014 A 
ATOM     82  C   UNL A   1      44.108  26.838  30.046  1.00  0.00     0.010 A 
ATOM     83  C   UNL A   1      44.459  28.758  31.444  1.00  0.00     0.010 A 
ATOM     84  C   UNL A   1      44.011  26.020  31.183  1.00  0.00     0.020 A 
ATOM     85  C   UNL A   1      44.359  27.947  32.595  1.00  0.00     0.020 A 
ATOM     86  C   UNL A   1      44.138  26.576  32.455  1.00  0.00     0.054 A 
BRANCH  86  87
ATOM     87  S   UNL A   1      44.010  25.481  33.902  1.00  0.00     0.124 S 
ATOM     88  O   UNL A   1      45.229  25.787  34.648  1.00  0.00    -0.237 OA
ATOM     89  O   UNL A   1      42.768  25.928  34.528  1.00  0.00    -0.237 OA
ATOM     90  O   UNL A   1      43.965  24.139  33.324  1.00  0.00    -0.744 OA
ENDBRANCH  86  87
ENDBRANCH  60  81
ENDBRANCH  34  35
ENDBRANCH  26  29
ENDBRANCH  24  25
ENDBRANCH  23  24
ENDBRANCH   1  23
TORSDOF 17
ENDMDL
