MODEL 1
REMARK VINA RESULT:     -11.8      0.000      0.000
REMARK SMILES CS(=O)(=O)c1ccc(/C=C(/C(=O)NCCCNC(=O)c2ccc(-c3c4nc(c(-c5ccc(S(=O)(=O)[O-])cc5)c5ccc([nH]5)c(-c5ccc(S(=O)(=O)[O-])cc5)c5nc(c(-c6ccc(S(=O)(=O)[O-])cc6)c6ccc3[nH]6)C=C5)C=C4)cc2)c2ccccc2)cc1
REMARK SMILES IDX 15 1 14 2 13 3 11 4 12 5 10 7 9 8 8 9 5 10 6 11 87 12 7 13
REMARK SMILES IDX 86 14 2 15 1 16 3 17 4 18 80 19 81 20 85 21 82 22 84 23
REMARK SMILES IDX 83 24 16 25 17 26 18 27 19 29 20 30 21 31 79 32 22 33 78 34
REMARK SMILES IDX 23 35 24 36 25 37 72 38 26 39 77 40 71 41 73 42 27 43 76 44
REMARK SMILES IDX 70 45 69 46 28 48 58 49 39 50 57 51 40 52 43 53 56 54 74 55
REMARK SMILES IDX 41 56 42 57 55 59 75 60 44 61 29 62 30 63 38 64 31 65 37 66
REMARK SMILES IDX 32 67 33 68 34 69 35 70 36 71 59 72 60 73 68 74 61 75 67 76
REMARK SMILES IDX 62 77 63 78 64 79 65 80 66 81 45 82 46 83 54 84 47 85 53 86
REMARK SMILES IDX 48 87 49 88 50 89 51 90 52 91
REMARK H PARENT 13 6 17 28 73 47 43 58
REMARK Flexibility Score: inf
ROOT
ATOM      1  C   UNL A   1      32.528  27.310  26.259  1.00  0.00     0.042 C 
ENDROOT
BRANCH   1   2
ATOM      2  C   UNL A   1      32.758  25.897  25.716  1.00  0.00     0.118 C 
BRANCH   2   3
ATOM      3  N   UNL A   1      33.045  25.928  24.295  1.00  0.00    -0.352 N 
ATOM      4  C   UNL A   1      33.550  25.035  23.405  1.00  0.00     0.251 C 
ATOM      5  O   UNL A   1      33.664  25.442  22.246  1.00  0.00    -0.269 OA
ATOM      6  H   UNL A   1      32.825  26.795  23.881  1.00  0.00     0.163 HD
BRANCH   4   7
ATOM      7  C   UNL A   1      33.875  23.597  23.746  1.00  0.00     0.047 C 
ATOM      8  C   UNL A   1      32.939  22.619  23.713  1.00  0.00     0.022 C 
BRANCH   8   9
ATOM      9  C   UNL A   1      33.081  21.158  23.919  1.00  0.00    -0.025 A 
ATOM     10  C   UNL A   1      33.350  18.360  24.091  1.00  0.00     0.067 A 
ATOM     11  C   UNL A   1      34.051  19.186  24.969  1.00  0.00     0.021 A 
ATOM     12  C   UNL A   1      32.474  18.913  23.158  1.00  0.00     0.021 A 
ATOM     13  C   UNL A   1      33.890  20.574  24.902  1.00  0.00     0.009 A 
ATOM     14  C   UNL A   1      32.349  20.306  23.074  1.00  0.00     0.009 A 
BRANCH  10  15
ATOM     15  S   UNL A   1      33.633  16.608  24.174  1.00  0.00     0.175 S 
ATOM     16  C   UNL A   1      35.030  16.372  25.238  1.00  0.00     0.163 C 
ATOM     17  O   UNL A   1      34.002  16.177  22.842  1.00  0.00    -0.224 OA
ATOM     18  O   UNL A   1      32.491  16.028  24.861  1.00  0.00    -0.224 OA
ENDBRANCH  10  15
ENDBRANCH   8   9
BRANCH   7  19
ATOM     19  C   UNL A   1      35.231  23.338  24.295  1.00  0.00    -0.013 A 
ATOM     20  C   UNL A   1      35.513  23.741  25.611  1.00  0.00     0.009 A 
ATOM     21  C   UNL A   1      36.208  22.633  23.580  1.00  0.00     0.009 A 
ATOM     22  C   UNL A   1      36.729  23.423  26.214  1.00  0.00     0.001 A 
ATOM     23  C   UNL A   1      37.421  22.301  24.191  1.00  0.00     0.001 A 
ATOM     24  C   UNL A   1      37.677  22.689  25.507  1.00  0.00     0.000 A 
ENDBRANCH   7  19
ENDBRANCH   4   7
ENDBRANCH   2   3
ENDBRANCH   1   2
BRANCH   1  25
ATOM     25  C   UNL A   1      33.819  28.100  26.486  1.00  0.00     0.118 C 
BRANCH  25  26
ATOM     26  N   UNL A   1      33.559  29.477  26.880  1.00  0.00    -0.352 N 
ATOM     27  C   UNL A   1      34.300  30.330  27.659  1.00  0.00     0.251 C 
ATOM     28  H   UNL A   1      32.719  29.857  26.533  1.00  0.00     0.163 HD
ATOM     29  O   UNL A   1      33.788  31.373  28.057  1.00  0.00    -0.269 OA
BRANCH  27  30
ATOM     30  C   UNL A   1      35.697  30.004  28.029  1.00  0.00     0.039 A 
ATOM     31  C   UNL A   1      35.964  29.577  29.334  1.00  0.00     0.014 A 
ATOM     32  C   UNL A   1      36.747  30.169  27.121  1.00  0.00     0.014 A 
ATOM     33  C   UNL A   1      37.274  29.268  29.712  1.00  0.00     0.010 A 
ATOM     34  C   UNL A   1      38.044  29.801  27.481  1.00  0.00     0.010 A 
ATOM     35  C   UNL A   1      38.322  29.351  28.781  1.00  0.00    -0.014 A 
BRANCH  35  36
ATOM     36  C   UNL A   1      39.709  28.968  29.149  1.00  0.00     0.031 A 
ATOM     37  C   UNL A   1      40.621  29.962  29.819  1.00  0.00     0.074 A 
ATOM     38  C   UNL A   1      40.169  27.742  28.830  1.00  0.00     0.049 A 
ATOM     39  N   UNL A   1      41.878  29.830  30.158  1.00  0.00    -0.248 NA
ATOM     40  C   UNL A   1      40.051  31.283  30.130  1.00  0.00     0.031 C 
ATOM     41  C   UNL A   1      39.398  26.701  28.147  1.00  0.00     0.029 A 
ATOM     42  N   UNL A   1      41.399  27.166  29.028  1.00  0.00    -0.354 N 
ATOM     43  C   UNL A   1      42.254  31.050  30.707  1.00  0.00     0.074 A 
ATOM     44  C   UNL A   1      41.106  31.925  30.613  1.00  0.00     0.031 C 
ATOM     45  C   UNL A   1      40.165  25.609  27.999  1.00  0.00     0.029 A 
ATOM     46  C   UNL A   1      41.493  25.884  28.542  1.00  0.00     0.049 A 
ATOM     47  H   UNL A   1      42.144  27.628  29.477  1.00  0.00     0.167 HD
ATOM     48  C   UNL A   1      43.441  31.406  31.257  1.00  0.00     0.031 A 
ATOM     49  C   UNL A   1      42.531  25.026  28.523  1.00  0.00     0.031 A 
ATOM     50  C   UNL A   1      44.580  30.532  31.355  1.00  0.00     0.049 A 
ATOM     51  C   UNL A   1      43.840  25.445  29.133  1.00  0.00     0.074 A 
ATOM     52  C   UNL A   1      45.814  30.786  31.931  1.00  0.00     0.029 A 
ATOM     53  N   UNL A   1      44.628  29.235  30.866  1.00  0.00    -0.354 N 
ATOM     54  N   UNL A   1      44.158  26.587  29.696  1.00  0.00    -0.248 NA
ATOM     55  C   UNL A   1      44.927  24.456  29.118  1.00  0.00     0.031 C 
ATOM     56  C   UNL A   1      46.621  29.658  31.751  1.00  0.00     0.029 A 
ATOM     57  C   UNL A   1      45.873  28.682  31.113  1.00  0.00     0.049 A 
ATOM     58  H   UNL A   1      43.886  28.777  30.410  1.00  0.00     0.167 HD
ATOM     59  C   UNL A   1      45.473  26.443  30.124  1.00  0.00     0.074 A 
ATOM     60  C   UNL A   1      45.885  25.099  29.771  1.00  0.00     0.031 C 
ATOM     61  C   UNL A   1      46.268  27.343  30.753  1.00  0.00     0.031 A 
BRANCH  48  62
ATOM     62  C   UNL A   1      43.564  32.807  31.798  1.00  0.00    -0.014 A 
ATOM     63  C   UNL A   1      43.304  33.085  33.153  1.00  0.00     0.010 A 
ATOM     64  C   UNL A   1      43.977  33.853  30.953  1.00  0.00     0.010 A 
ATOM     65  C   UNL A   1      43.411  34.390  33.642  1.00  0.00     0.020 A 
ATOM     66  C   UNL A   1      44.112  35.156  31.445  1.00  0.00     0.020 A 
ATOM     67  C   UNL A   1      43.810  35.418  32.783  1.00  0.00     0.054 A 
BRANCH  67  68
ATOM     68  S   UNL A   1      43.954  37.100  33.450  1.00  0.00     0.124 S 
ATOM     69  O   UNL A   1      42.779  37.182  34.314  1.00  0.00    -0.237 OA
ATOM     70  O   UNL A   1      45.239  37.061  34.142  1.00  0.00    -0.237 OA
ATOM     71  O   UNL A   1      43.914  37.948  32.262  1.00  0.00    -0.744 OA
ENDBRANCH  67  68
ENDBRANCH  48  62
BRANCH  49  72
ATOM     72  C   UNL A   1      42.370  23.678  27.913  1.00  0.00    -0.014 A 
ATOM     73  C   UNL A   1      42.695  23.460  26.564  1.00  0.00     0.010 A 
ATOM     74  C   UNL A   1      41.901  22.600  28.686  1.00  0.00     0.010 A 
ATOM     75  C   UNL A   1      42.537  22.194  25.992  1.00  0.00     0.020 A 
ATOM     76  C   UNL A   1      41.767  21.326  28.125  1.00  0.00     0.020 A 
ATOM     77  C   UNL A   1      42.075  21.134  26.778  1.00  0.00     0.054 A 
BRANCH  77  78
ATOM     78  S   UNL A   1      41.927  19.488  26.030  1.00  0.00     0.124 S 
ATOM     79  O   UNL A   1      42.440  18.626  27.090  1.00  0.00    -0.237 OA
ATOM     80  O   UNL A   1      40.494  19.387  25.768  1.00  0.00    -0.237 OA
ATOM     81  O   UNL A   1      42.764  19.580  24.836  1.00  0.00    -0.744 OA
ENDBRANCH  77  78
ENDBRANCH  49  72
BRANCH  61  82
ATOM     82  C   UNL A   1      47.654  26.894  31.133  1.00  0.00    -0.014 A 
ATOM     83  C   UNL A   1      47.925  26.364  32.407  1.00  0.00     0.010 A 
ATOM     84  C   UNL A   1      48.689  26.958  30.183  1.00  0.00     0.010 A 
ATOM     85  C   UNL A   1      49.215  25.938  32.735  1.00  0.00     0.020 A 
ATOM     86  C   UNL A   1      49.974  26.508  30.498  1.00  0.00     0.020 A 
ATOM     87  C   UNL A   1      50.231  26.014  31.778  1.00  0.00     0.054 A 
BRANCH  87  88
ATOM     88  S   UNL A   1      51.888  25.417  32.212  1.00  0.00     0.124 S 
ATOM     89  O   UNL A   1      51.700  23.969  32.206  1.00  0.00    -0.237 OA
ATOM     90  O   UNL A   1      52.714  25.949  31.131  1.00  0.00    -0.237 OA
ATOM     91  O   UNL A   1      52.137  26.007  33.525  1.00  0.00    -0.744 OA
ENDBRANCH  87  88
ENDBRANCH  61  82
ENDBRANCH  35  36
ENDBRANCH  27  30
ENDBRANCH  25  26
ENDBRANCH   1  25
TORSDOF 16
ENDMDL
MODEL 2
REMARK VINA RESULT:     -11.1      4.856      9.871
REMARK SMILES CS(=O)(=O)c1ccc(/C=C(/C(=O)NCCCNC(=O)c2ccc(-c3c4nc(c(-c5ccc(S(=O)(=O)[O-])cc5)c5ccc([nH]5)c(-c5ccc(S(=O)(=O)[O-])cc5)c5nc(c(-c6ccc(S(=O)(=O)[O-])cc6)c6ccc3[nH]6)C=C5)C=C4)cc2)c2ccccc2)cc1
REMARK SMILES IDX 15 1 14 2 13 3 11 4 12 5 10 7 9 8 8 9 5 10 6 11 87 12 7 13
REMARK SMILES IDX 86 14 2 15 1 16 3 17 4 18 80 19 81 20 85 21 82 22 84 23
REMARK SMILES IDX 83 24 16 25 17 26 18 27 19 29 20 30 21 31 79 32 22 33 78 34
REMARK SMILES IDX 23 35 24 36 25 37 72 38 26 39 77 40 71 41 73 42 27 43 76 44
REMARK SMILES IDX 70 45 69 46 28 48 58 49 39 50 57 51 40 52 43 53 56 54 74 55
REMARK SMILES IDX 41 56 42 57 55 59 75 60 44 61 29 62 30 63 38 64 31 65 37 66
REMARK SMILES IDX 32 67 33 68 34 69 35 70 36 71 59 72 60 73 68 74 61 75 67 76
REMARK SMILES IDX 62 77 63 78 64 79 65 80 66 81 45 82 46 83 54 84 47 85 53 86
REMARK SMILES IDX 48 87 49 88 50 89 51 90 52 91
REMARK H PARENT 13 6 17 28 73 47 43 58
REMARK Flexibility Score: inf
ROOT
ATOM      1  C   UNL A   1      37.428  23.835  25.500  1.00  0.00     0.042 C 
ENDROOT
BRANCH   1   2
ATOM      2  C   UNL A   1      37.191  22.333  25.322  1.00  0.00     0.118 C 
BRANCH   2   3
ATOM      3  N   UNL A   1      36.232  21.842  26.292  1.00  0.00    -0.352 N 
ATOM      4  C   UNL A   1      34.949  22.157  26.607  1.00  0.00     0.251 C 
ATOM      5  O   UNL A   1      34.451  21.509  27.531  1.00  0.00    -0.269 OA
ATOM      6  H   UNL A   1      36.593  21.115  26.851  1.00  0.00     0.163 HD
BRANCH   4   7
ATOM      7  C   UNL A   1      34.115  23.162  25.843  1.00  0.00     0.047 C 
ATOM      8  C   UNL A   1      33.706  24.329  26.396  1.00  0.00     0.022 C 
BRANCH   8   9
ATOM      9  C   UNL A   1      32.973  25.465  25.789  1.00  0.00    -0.025 A 
ATOM     10  C   UNL A   1      31.730  27.620  24.469  1.00  0.00     0.067 A 
ATOM     11  C   UNL A   1      30.956  26.636  25.086  1.00  0.00     0.021 A 
ATOM     12  C   UNL A   1      33.120  27.569  24.548  1.00  0.00     0.021 A 
ATOM     13  C   UNL A   1      31.578  25.585  25.768  1.00  0.00     0.009 A 
ATOM     14  C   UNL A   1      33.733  26.491  25.200  1.00  0.00     0.009 A 
BRANCH  10  15
ATOM     15  S   UNL A   1      30.897  28.903  23.564  1.00  0.00     0.175 S 
ATOM     16  C   UNL A   1      29.312  28.253  23.111  1.00  0.00     0.163 C 
ATOM     17  O   UNL A   1      31.657  29.125  22.353  1.00  0.00    -0.224 OA
ATOM     18  O   UNL A   1      30.645  29.985  24.502  1.00  0.00    -0.224 OA
ENDBRANCH  10  15
ENDBRANCH   8   9
BRANCH   7  19
ATOM     19  C   UNL A   1      33.610  22.729  24.514  1.00  0.00    -0.013 A 
ATOM     20  C   UNL A   1      32.697  21.662  24.456  1.00  0.00     0.009 A 
ATOM     21  C   UNL A   1      33.944  23.398  23.330  1.00  0.00     0.009 A 
ATOM     22  C   UNL A   1      32.106  21.289  23.250  1.00  0.00     0.001 A 
ATOM     23  C   UNL A   1      33.338  23.032  22.124  1.00  0.00     0.001 A 
ATOM     24  C   UNL A   1      32.417  21.985  22.086  1.00  0.00     0.000 A 
ENDBRANCH   7  19
ENDBRANCH   4   7
ENDBRANCH   2   3
ENDBRANCH   1   2
BRANCH   1  25
ATOM     25  C   UNL A   1      38.423  24.174  26.612  1.00  0.00     0.118 C 
BRANCH  25  26
ATOM     26  N   UNL A   1      39.794  24.224  26.128  1.00  0.00    -0.352 N 
ATOM     27  C   UNL A   1      40.808  25.101  26.426  1.00  0.00     0.251 C 
ATOM     28  H   UNL A   1      40.034  23.517  25.485  1.00  0.00     0.163 HD
ATOM     29  O   UNL A   1      41.820  25.102  25.731  1.00  0.00    -0.269 OA
BRANCH  27  30
ATOM     30  C   UNL A   1      40.689  26.045  27.561  1.00  0.00     0.039 A 
ATOM     31  C   UNL A   1      39.691  25.826  28.516  1.00  0.00     0.014 A 
ATOM     32  C   UNL A   1      41.511  27.171  27.659  1.00  0.00     0.014 A 
ATOM     33  C   UNL A   1      39.553  26.704  29.594  1.00  0.00     0.010 A 
ATOM     34  C   UNL A   1      41.413  28.011  28.768  1.00  0.00     0.010 A 
ATOM     35  C   UNL A   1      40.431  27.790  29.745  1.00  0.00    -0.014 A 
BRANCH  35  36
ATOM     36  C   UNL A   1      40.336  28.698  30.917  1.00  0.00     0.031 A 
ATOM     37  C   UNL A   1      39.341  29.828  30.926  1.00  0.00     0.074 A 
ATOM     38  C   UNL A   1      41.186  28.541  31.952  1.00  0.00     0.049 A 
ATOM     39  N   UNL A   1      39.157  30.757  31.830  1.00  0.00    -0.248 NA
ATOM     40  C   UNL A   1      38.452  29.941  29.759  1.00  0.00     0.031 C 
ATOM     41  C   UNL A   1      42.221  27.509  32.047  1.00  0.00     0.029 A 
ATOM     42  N   UNL A   1      41.322  29.254  33.117  1.00  0.00    -0.354 N 
ATOM     43  C   UNL A   1      38.144  31.571  31.337  1.00  0.00     0.074 A 
ATOM     44  C   UNL A   1      37.786  31.055  30.033  1.00  0.00     0.031 C 
ATOM     45  C   UNL A   1      42.872  27.644  33.213  1.00  0.00     0.029 A 
ATOM     46  C   UNL A   1      42.328  28.793  33.932  1.00  0.00     0.049 A 
ATOM     47  H   UNL A   1      40.751  30.023  33.347  1.00  0.00     0.167 HD
ATOM     48  C   UNL A   1      37.551  32.640  31.922  1.00  0.00     0.031 A 
ATOM     49  C   UNL A   1      42.773  29.248  35.119  1.00  0.00     0.031 A 
ATOM     50  C   UNL A   1      37.903  33.149  33.221  1.00  0.00     0.049 A 
ATOM     51  C   UNL A   1      42.105  30.439  35.746  1.00  0.00     0.074 A 
ATOM     52  C   UNL A   1      37.334  34.202  33.918  1.00  0.00     0.029 A 
ATOM     53  N   UNL A   1      38.916  32.642  34.022  1.00  0.00    -0.354 N 
ATOM     54  N   UNL A   1      41.111  31.163  35.286  1.00  0.00    -0.248 NA
ATOM     55  C   UNL A   1      42.607  30.869  37.059  1.00  0.00     0.031 C 
ATOM     56  C   UNL A   1      38.032  34.359  35.120  1.00  0.00     0.029 A 
ATOM     57  C   UNL A   1      38.999  33.369  35.197  1.00  0.00     0.049 A 
ATOM     58  H   UNL A   1      39.491  31.879  33.788  1.00  0.00     0.167 HD
ATOM     59  C   UNL A   1      40.854  32.116  36.264  1.00  0.00     0.074 A 
ATOM     60  C   UNL A   1      41.784  31.867  37.348  1.00  0.00     0.031 C 
ATOM     61  C   UNL A   1      39.931  33.109  36.266  1.00  0.00     0.031 A 
BRANCH  48  62
ATOM     62  C   UNL A   1      36.453  33.332  31.155  1.00  0.00    -0.014 A 
ATOM     63  C   UNL A   1      35.134  33.357  31.644  1.00  0.00     0.010 A 
ATOM     64  C   UNL A   1      36.748  33.995  29.950  1.00  0.00     0.010 A 
ATOM     65  C   UNL A   1      34.122  33.992  30.920  1.00  0.00     0.020 A 
ATOM     66  C   UNL A   1      35.743  34.656  29.236  1.00  0.00     0.020 A 
ATOM     67  C   UNL A   1      34.432  34.635  29.718  1.00  0.00     0.054 A 
BRANCH  67  68
ATOM     68  S   UNL A   1      33.099  35.464  28.807  1.00  0.00     0.124 S 
ATOM     69  O   UNL A   1      32.310  36.043  29.892  1.00  0.00    -0.237 OA
ATOM     70  O   UNL A   1      33.825  36.423  27.979  1.00  0.00    -0.237 OA
ATOM     71  O   UNL A   1      32.451  34.378  28.077  1.00  0.00    -0.744 OA
ENDBRANCH  67  68
ENDBRANCH  48  62
BRANCH  49  72
ATOM     72  C   UNL A   1      43.907  28.563  35.798  1.00  0.00    -0.014 A 
ATOM     73  C   UNL A   1      45.233  28.956  35.547  1.00  0.00     0.010 A 
ATOM     74  C   UNL A   1      43.664  27.521  36.711  1.00  0.00     0.010 A 
ATOM     75  C   UNL A   1      46.297  28.307  36.182  1.00  0.00     0.020 A 
ATOM     76  C   UNL A   1      44.723  26.889  37.369  1.00  0.00     0.020 A 
ATOM     77  C   UNL A   1      46.034  27.278  37.091  1.00  0.00     0.054 A 
BRANCH  77  78
ATOM     78  S   UNL A   1      47.426  26.485  37.943  1.00  0.00     0.124 S 
ATOM     79  O   UNL A   1      46.871  26.247  39.272  1.00  0.00    -0.237 OA
ATOM     80  O   UNL A   1      47.658  25.295  37.130  1.00  0.00    -0.237 OA
ATOM     81  O   UNL A   1      48.483  27.491  37.876  1.00  0.00    -0.744 OA
ENDBRANCH  77  78
ENDBRANCH  49  72
BRANCH  61  82
ATOM     82  C   UNL A   1      39.856  33.981  37.490  1.00  0.00    -0.014 A 
ATOM     83  C   UNL A   1      40.532  35.213  37.552  1.00  0.00     0.010 A 
ATOM     84  C   UNL A   1      39.055  33.584  38.576  1.00  0.00     0.010 A 
ATOM     85  C   UNL A   1      40.436  36.015  38.692  1.00  0.00     0.020 A 
ATOM     86  C   UNL A   1      38.934  34.396  39.707  1.00  0.00     0.020 A 
ATOM     87  C   UNL A   1      39.638  35.600  39.763  1.00  0.00     0.054 A 
BRANCH  87  88
ATOM     88  S   UNL A   1      39.495  36.677  41.216  1.00  0.00     0.124 S 
ATOM     89  O   UNL A   1      40.879  36.747  41.678  1.00  0.00    -0.237 OA
ATOM     90  O   UNL A   1      38.959  37.912  40.648  1.00  0.00    -0.237 OA
ATOM     91  O   UNL A   1      38.580  35.955  42.095  1.00  0.00    -0.744 OA
ENDBRANCH  87  88
ENDBRANCH  61  82
ENDBRANCH  35  36
ENDBRANCH  27  30
ENDBRANCH  25  26
ENDBRANCH   1  25
TORSDOF 16
ENDMDL
MODEL 3
REMARK VINA RESULT:     -11.0      4.489     11.419
REMARK SMILES CS(=O)(=O)c1ccc(/C=C(/C(=O)NCCCNC(=O)c2ccc(-c3c4nc(c(-c5ccc(S(=O)(=O)[O-])cc5)c5ccc([nH]5)c(-c5ccc(S(=O)(=O)[O-])cc5)c5nc(c(-c6ccc(S(=O)(=O)[O-])cc6)c6ccc3[nH]6)C=C5)C=C4)cc2)c2ccccc2)cc1
REMARK SMILES IDX 15 1 14 2 13 3 11 4 12 5 10 7 9 8 8 9 5 10 6 11 87 12 7 13
REMARK SMILES IDX 86 14 2 15 1 16 3 17 4 18 80 19 81 20 85 21 82 22 84 23
REMARK SMILES IDX 83 24 16 25 17 26 18 27 19 29 20 30 21 31 79 32 22 33 78 34
REMARK SMILES IDX 23 35 24 36 25 37 72 38 26 39 77 40 71 41 73 42 27 43 76 44
REMARK SMILES IDX 70 45 69 46 28 48 58 49 39 50 57 51 40 52 43 53 56 54 74 55
REMARK SMILES IDX 41 56 42 57 55 59 75 60 44 61 29 62 30 63 38 64 31 65 37 66
REMARK SMILES IDX 32 67 33 68 34 69 35 70 36 71 59 72 60 73 68 74 61 75 67 76
REMARK SMILES IDX 62 77 63 78 64 79 65 80 66 81 45 82 46 83 54 84 47 85 53 86
REMARK SMILES IDX 48 87 49 88 50 89 51 90 52 91
REMARK H PARENT 13 6 17 28 73 47 43 58
REMARK Flexibility Score: inf
ROOT
ATOM      1  C   UNL A   1      42.137  22.225  25.535  1.00  0.00     0.042 C 
ENDROOT
BRANCH   1   2
ATOM      2  C   UNL A   1      43.340  22.949  26.143  1.00  0.00     0.118 C 
BRANCH   2   3
ATOM      3  N   UNL A   1      44.462  22.953  25.224  1.00  0.00    -0.352 N 
ATOM      4  C   UNL A   1      45.424  23.854  24.899  1.00  0.00     0.251 C 
ATOM      5  O   UNL A   1      46.224  23.492  24.032  1.00  0.00    -0.269 OA
ATOM      6  H   UNL A   1      44.543  22.111  24.719  1.00  0.00     0.163 HD
BRANCH   4   7
ATOM      7  C   UNL A   1      45.601  25.188  25.592  1.00  0.00     0.047 C 
ATOM      8  C   UNL A   1      45.022  26.322  25.130  1.00  0.00     0.022 C 
BRANCH   8   9
ATOM      9  C   UNL A   1      45.002  27.685  25.713  1.00  0.00    -0.025 A 
ATOM     10  C   UNL A   1      44.814  30.199  26.968  1.00  0.00     0.067 A 
ATOM     11  C   UNL A   1      46.050  29.729  26.521  1.00  0.00     0.021 A 
ATOM     12  C   UNL A   1      43.660  29.449  26.748  1.00  0.00     0.021 A 
ATOM     13  C   UNL A   1      46.133  28.494  25.869  1.00  0.00     0.009 A 
ATOM     14  C   UNL A   1      43.760  28.197  26.129  1.00  0.00     0.009 A 
BRANCH  10  15
ATOM     15  S   UNL A   1      44.766  31.744  27.843  1.00  0.00     0.175 S 
ATOM     16  C   UNL A   1      46.220  31.797  28.855  1.00  0.00     0.163 C 
ATOM     17  O   UNL A   1      43.611  31.699  28.714  1.00  0.00    -0.224 OA
ATOM     18  O   UNL A   1      44.918  32.796  26.851  1.00  0.00    -0.224 OA
ENDBRANCH  10  15
ENDBRANCH   8   9
BRANCH   7  19
ATOM     19  C   UNL A   1      46.587  25.231  26.702  1.00  0.00    -0.013 A 
ATOM     20  C   UNL A   1      47.952  25.346  26.385  1.00  0.00     0.009 A 
ATOM     21  C   UNL A   1      46.202  25.246  28.048  1.00  0.00     0.009 A 
ATOM     22  C   UNL A   1      48.910  25.504  27.386  1.00  0.00     0.001 A 
ATOM     23  C   UNL A   1      47.162  25.421  29.050  1.00  0.00     0.001 A 
ATOM     24  C   UNL A   1      48.511  25.556  28.718  1.00  0.00     0.000 A 
ENDBRANCH   7  19
ENDBRANCH   4   7
ENDBRANCH   2   3
ENDBRANCH   1   2
BRANCH   1  25
ATOM     25  C   UNL A   1      41.025  21.923  26.544  1.00  0.00     0.118 C 
BRANCH  25  26
ATOM     26  N   UNL A   1      39.703  22.209  26.007  1.00  0.00    -0.352 N 
ATOM     27  C   UNL A   1      38.860  23.265  26.245  1.00  0.00     0.251 C 
ATOM     28  H   UNL A   1      39.360  21.539  25.371  1.00  0.00     0.163 HD
ATOM     29  O   UNL A   1      37.694  23.196  25.866  1.00  0.00    -0.269 OA
BRANCH  27  30
ATOM     30  C   UNL A   1      39.335  24.473  26.958  1.00  0.00     0.039 A 
ATOM     31  C   UNL A   1      40.129  25.394  26.267  1.00  0.00     0.014 A 
ATOM     32  C   UNL A   1      39.053  24.676  28.313  1.00  0.00     0.014 A 
ATOM     33  C   UNL A   1      40.595  26.539  26.918  1.00  0.00     0.010 A 
ATOM     34  C   UNL A   1      39.467  25.850  28.942  1.00  0.00     0.010 A 
ATOM     35  C   UNL A   1      40.246  26.792  28.254  1.00  0.00    -0.014 A 
BRANCH  35  36
ATOM     36  C   UNL A   1      40.683  28.034  28.942  1.00  0.00     0.031 A 
ATOM     37  C   UNL A   1      42.046  28.113  29.577  1.00  0.00     0.074 A 
ATOM     38  C   UNL A   1      39.831  29.074  29.044  1.00  0.00     0.049 A 
ATOM     39  N   UNL A   1      42.576  29.088  30.272  1.00  0.00    -0.248 NA
ATOM     40  C   UNL A   1      42.917  26.936  29.431  1.00  0.00     0.031 C 
ATOM     41  C   UNL A   1      38.470  29.108  28.504  1.00  0.00     0.029 A 
ATOM     42  N   UNL A   1      39.979  30.298  29.645  1.00  0.00    -0.354 N 
ATOM     43  C   UNL A   1      43.834  28.638  30.657  1.00  0.00     0.074 A 
ATOM     44  C   UNL A   1      43.968  27.286  30.159  1.00  0.00     0.031 C 
ATOM     45  C   UNL A   1      37.916  30.299  28.782  1.00  0.00     0.029 A 
ATOM     46  C   UNL A   1      38.865  31.098  29.552  1.00  0.00     0.049 A 
ATOM     47  H   UNL A   1      40.806  30.578  30.101  1.00  0.00     0.167 HD
ATOM     48  C   UNL A   1      44.798  29.296  31.346  1.00  0.00     0.031 A 
ATOM     49  C   UNL A   1      38.626  32.331  30.038  1.00  0.00     0.031 A 
ATOM     50  C   UNL A   1      44.665  30.643  31.836  1.00  0.00     0.049 A 
ATOM     51  C   UNL A   1      39.708  33.039  30.806  1.00  0.00     0.074 A 
ATOM     52  C   UNL A   1      45.599  31.412  32.509  1.00  0.00     0.029 A 
ATOM     53  N   UNL A   1      43.526  31.424  31.704  1.00  0.00    -0.354 N 
ATOM     54  N   UNL A   1      40.912  32.616  31.113  1.00  0.00    -0.248 NA
ATOM     55  C   UNL A   1      39.406  34.397  31.281  1.00  0.00     0.031 C 
ATOM     56  C   UNL A   1      45.010  32.641  32.823  1.00  0.00     0.029 A 
ATOM     57  C   UNL A   1      43.728  32.659  32.297  1.00  0.00     0.049 A 
ATOM     58  H   UNL A   1      42.697  31.141  31.256  1.00  0.00     0.167 HD
ATOM     59  C   UNL A   1      41.518  33.664  31.795  1.00  0.00     0.074 A 
ATOM     60  C   UNL A   1      40.555  34.747  31.840  1.00  0.00     0.031 C 
ATOM     61  C   UNL A   1      42.759  33.726  32.335  1.00  0.00     0.031 A 
BRANCH  48  62
ATOM     62  C   UNL A   1      46.087  28.563  31.610  1.00  0.00    -0.014 A 
ATOM     63  C   UNL A   1      46.157  27.549  32.583  1.00  0.00     0.010 A 
ATOM     64  C   UNL A   1      47.235  28.864  30.854  1.00  0.00     0.010 A 
ATOM     65  C   UNL A   1      47.360  26.882  32.827  1.00  0.00     0.020 A 
ATOM     66  C   UNL A   1      48.435  28.180  31.076  1.00  0.00     0.020 A 
ATOM     67  C   UNL A   1      48.494  27.205  32.075  1.00  0.00     0.054 A 
BRANCH  67  68
ATOM     68  S   UNL A   1      50.038  26.312  32.404  1.00  0.00     0.124 S 
ATOM     69  O   UNL A   1      50.944  26.909  31.426  1.00  0.00    -0.237 OA
ATOM     70  O   UNL A   1      50.312  26.646  33.799  1.00  0.00    -0.237 OA
ATOM     71  O   UNL A   1      49.689  24.915  32.158  1.00  0.00    -0.744 OA
ENDBRANCH  67  68
ENDBRANCH  48  62
BRANCH  49  72
ATOM     72  C   UNL A   1      37.307  32.979  29.804  1.00  0.00    -0.014 A 
ATOM     73  C   UNL A   1      37.064  33.700  28.622  1.00  0.00     0.010 A 
ATOM     74  C   UNL A   1      36.279  32.865  30.758  1.00  0.00     0.010 A 
ATOM     75  C   UNL A   1      35.826  34.312  28.407  1.00  0.00     0.020 A 
ATOM     76  C   UNL A   1      35.031  33.452  30.534  1.00  0.00     0.020 A 
ATOM     77  C   UNL A   1      34.816  34.183  29.365  1.00  0.00     0.054 A 
BRANCH  77  78
ATOM     78  S   UNL A   1      33.199  34.940  29.042  1.00  0.00     0.124 S 
ATOM     79  O   UNL A   1      32.619  34.014  28.075  1.00  0.00    -0.237 OA
ATOM     80  O   UNL A   1      32.582  34.945  30.366  1.00  0.00    -0.237 OA
ATOM     81  O   UNL A   1      33.540  36.261  28.519  1.00  0.00    -0.744 OA
ENDBRANCH  77  78
ENDBRANCH  49  72
BRANCH  61  82
ATOM     82  C   UNL A   1      43.164  35.018  32.992  1.00  0.00    -0.014 A 
ATOM     83  C   UNL A   1      44.141  35.853  32.420  1.00  0.00     0.010 A 
ATOM     84  C   UNL A   1      42.521  35.427  34.174  1.00  0.00     0.010 A 
ATOM     85  C   UNL A   1      44.491  37.057  33.037  1.00  0.00     0.020 A 
ATOM     86  C   UNL A   1      42.848  36.643  34.780  1.00  0.00     0.020 A 
ATOM     87  C   UNL A   1      43.843  37.443  34.214  1.00  0.00     0.054 A 
BRANCH  87  88
ATOM     88  S   UNL A   1      44.285  39.029  34.975  1.00  0.00     0.124 S 
ATOM     89  O   UNL A   1      44.253  38.703  36.398  1.00  0.00    -0.237 OA
ATOM     90  O   UNL A   1      45.610  39.293  34.420  1.00  0.00    -0.237 OA
ATOM     91  O   UNL A   1      43.234  39.937  34.521  1.00  0.00    -0.744 OA
ENDBRANCH  87  88
ENDBRANCH  61  82
ENDBRANCH  35  36
ENDBRANCH  27  30
ENDBRANCH  25  26
ENDBRANCH   1  25
TORSDOF 16
ENDMDL
