MODEL 1
REMARK VINA RESULT:     -12.3      0.000      0.000
REMARK SMILES NC(=O)[C@@H]1CCC[N@@H+]1[C@@H](C(=O)NCCCNC(=O)c1ccc(-c2c3nc(c(-c4ccc(S(=O)(=O)[O-])cc4)c4ccc([nH]4)c(-c4ccc(S(=O)(=O)[O-])cc4)c4nc(c(-c5ccc(S(=O)(=O)[O-])cc5)c5ccc2[nH]5)C=C4)C=C3)cc1)c1c[nH]c2cc(OCc3ccccc3)ccc12
REMARK SMILES IDX 13 1 12 2 10 3 11 4 9 6 8 7 4 8 5 9 6 10 7 11 2 13 1 14 3 17
REMARK SMILES IDX 79 18 80 19 95 20 81 21 82 22 94 23 83 25 93 26 84 27 85 28
REMARK SMILES IDX 86 29 87 30 88 31 92 32 89 33 91 34 90 35 14 36 15 37 16 38
REMARK SMILES IDX 17 39 18 41 19 42 20 43 78 44 21 45 77 46 22 47 23 48 24 49
REMARK SMILES IDX 71 50 25 51 76 52 70 53 72 54 26 55 75 56 69 57 68 58 27 60
REMARK SMILES IDX 57 61 38 62 56 63 39 64 42 65 55 66 73 67 40 68 41 69 54 71
REMARK SMILES IDX 74 72 43 73 28 74 29 75 37 76 30 77 36 78 31 79 32 80 33 81
REMARK SMILES IDX 34 82 35 83 58 84 59 85 67 86 60 87 66 88 61 89 62 90 63 91
REMARK SMILES IDX 64 92 65 93 44 94 45 95 53 96 46 97 52 98 47 99 48 100
REMARK SMILES IDX 49 101 50 102 51 103
REMARK H PARENT 12 5 8 12 1 15 1 16 81 24 16 40 72 59 42 70
REMARK Flexibility Score: inf
ROOT
ATOM      1  C   UNL A   1      33.742  28.059  26.150  1.00  0.00     0.118 C 
ENDROOT
BRANCH   1   2
ATOM      2  N   UNL A   1      32.531  27.398  26.603  1.00  0.00    -0.351 N 
ATOM      3  C   UNL A   1      31.674  26.452  26.126  1.00  0.00     0.283 C 
ATOM      4  O   UNL A   1      30.664  26.371  26.836  1.00  0.00    -0.268 OA
ATOM      5  H   UNL A   1      32.255  27.721  27.491  1.00  0.00     0.163 HD
BRANCH   3   6
ATOM      6  C   UNL A   1      31.904  25.595  24.843  1.00  0.00     0.308 C 
BRANCH   6   7
ATOM      7  N   UNL A   1      30.997  25.947  23.691  1.00  0.00    -0.311 N 
ATOM      8  C   UNL A   1      31.517  26.520  22.445  1.00  0.00     0.275 C 
ATOM      9  C   UNL A   1      31.506  28.024  22.688  1.00  0.00     0.081 C 
ATOM     10  C   UNL A   1      30.340  28.250  23.636  1.00  0.00     0.068 C 
ATOM     11  C   UNL A   1      29.885  26.858  24.020  1.00  0.00     0.264 C 
ATOM     12  H   UNL A   1      30.746  24.974  23.518  1.00  0.00     0.349 HD
BRANCH   8  13
ATOM     13  C   UNL A   1      32.751  25.858  21.830  1.00  0.00     0.275 C 
ATOM     14  N   UNL A   1      32.483  24.912  20.878  1.00  0.00    -0.365 N 
ATOM     15  H   UNL A   1      33.222  24.438  20.432  1.00  0.00     0.159 HD
ATOM     16  H   UNL A   1      31.550  24.706  20.639  1.00  0.00     0.159 HD
ATOM     17  O   UNL A   1      33.915  26.047  22.170  1.00  0.00    -0.268 OA
ENDBRANCH   8  13
ENDBRANCH   6   7
BRANCH   6  18
ATOM     18  C   UNL A   1      31.655  24.047  24.999  1.00  0.00     0.044 A 
ATOM     19  C   UNL A   1      30.842  23.527  26.009  1.00  0.00     0.094 A 
ATOM     20  C   UNL A   1      32.504  22.936  24.613  1.00  0.00     0.009 A 
ATOM     21  N   UNL A   1      31.534  22.466  26.552  1.00  0.00    -0.361 N 
ATOM     22  C   UNL A   1      32.647  22.201  25.793  1.00  0.00     0.050 A 
ATOM     23  C   UNL A   1      33.416  22.669  23.572  1.00  0.00     0.015 A 
ATOM     24  H   UNL A   1      31.269  21.973  27.363  1.00  0.00     0.166 HD
ATOM     25  C   UNL A   1      33.818  21.490  26.090  1.00  0.00     0.073 A 
ATOM     26  C   UNL A   1      34.582  21.936  23.835  1.00  0.00     0.047 A 
ATOM     27  C   UNL A   1      34.819  21.445  25.112  1.00  0.00     0.121 A 
BRANCH  27  28
ATOM     28  O   UNL A   1      36.053  21.069  25.564  1.00  0.00    -0.489 OA
BRANCH  28  29
ATOM     29  C   UNL A   1      37.180  21.362  24.742  1.00  0.00     0.265 C 
BRANCH  29  30
ATOM     30  C   UNL A   1      38.074  22.239  25.577  1.00  0.00    -0.011 A 
ATOM     31  C   UNL A   1      37.692  23.556  25.875  1.00  0.00     0.007 A 
ATOM     32  C   UNL A   1      39.223  21.706  26.170  1.00  0.00     0.007 A 
ATOM     33  C   UNL A   1      38.448  24.323  26.758  1.00  0.00     0.000 A 
ATOM     34  C   UNL A   1      39.980  22.477  27.051  1.00  0.00     0.000 A 
ATOM     35  C   UNL A   1      39.590  23.783  27.348  1.00  0.00     0.000 A 
ENDBRANCH  29  30
ENDBRANCH  28  29
ENDBRANCH  27  28
ENDBRANCH   6  18
ENDBRANCH   3   6
ENDBRANCH   1   2
BRANCH   1  36
ATOM     36  C   UNL A   1      34.162  29.267  27.015  1.00  0.00     0.042 C 
BRANCH  36  37
ATOM     37  C   UNL A   1      35.639  29.336  27.442  1.00  0.00     0.118 C 
BRANCH  37  38
ATOM     38  N   UNL A   1      35.763  29.532  28.873  1.00  0.00    -0.352 N 
ATOM     39  C   UNL A   1      36.807  29.242  29.717  1.00  0.00     0.251 C 
ATOM     40  H   UNL A   1      34.977  29.935  29.308  1.00  0.00     0.163 HD
ATOM     41  O   UNL A   1      36.592  29.233  30.928  1.00  0.00    -0.269 OA
BRANCH  39  42
ATOM     42  C   UNL A   1      38.178  28.954  29.217  1.00  0.00     0.039 A 
ATOM     43  C   UNL A   1      39.108  28.418  30.118  1.00  0.00     0.014 A 
ATOM     44  C   UNL A   1      38.602  29.328  27.939  1.00  0.00     0.014 A 
ATOM     45  C   UNL A   1      40.449  28.263  29.747  1.00  0.00     0.010 A 
ATOM     46  C   UNL A   1      39.939  29.139  27.556  1.00  0.00     0.010 A 
ATOM     47  C   UNL A   1      40.882  28.629  28.463  1.00  0.00    -0.014 A 
BRANCH  47  48
ATOM     48  C   UNL A   1      42.320  28.523  28.088  1.00  0.00     0.031 A 
ATOM     49  C   UNL A   1      43.250  29.694  28.280  1.00  0.00     0.074 A 
ATOM     50  C   UNL A   1      42.796  27.379  27.557  1.00  0.00     0.049 A 
ATOM     51  N   UNL A   1      44.527  29.791  28.003  1.00  0.00    -0.248 NA
ATOM     52  C   UNL A   1      42.666  30.921  28.845  1.00  0.00     0.031 C 
ATOM     53  C   UNL A   1      42.006  26.175  27.299  1.00  0.00     0.029 A 
ATOM     54  N   UNL A   1      44.060  27.045  27.136  1.00  0.00    -0.354 N 
ATOM     55  C   UNL A   1      44.894  31.090  28.341  1.00  0.00     0.074 A 
ATOM     56  C   UNL A   1      43.697  31.754  28.811  1.00  0.00     0.031 C 
ATOM     57  C   UNL A   1      42.805  25.230  26.776  1.00  0.00     0.029 A 
ATOM     58  C   UNL A   1      44.157  25.767  26.637  1.00  0.00     0.049 A 
ATOM     59  H   UNL A   1      44.826  27.662  27.187  1.00  0.00     0.167 HD
ATOM     60  C   UNL A   1      46.115  31.676  28.278  1.00  0.00     0.031 A 
ATOM     61  C   UNL A   1      45.208  25.101  26.120  1.00  0.00     0.031 A 
ATOM     62  C   UNL A   1      47.312  31.017  27.821  1.00  0.00     0.049 A 
ATOM     63  C   UNL A   1      46.554  25.768  26.061  1.00  0.00     0.074 A 
ATOM     64  C   UNL A   1      48.603  31.513  27.772  1.00  0.00     0.029 A 
ATOM     65  N   UNL A   1      47.364  29.721  27.330  1.00  0.00    -0.354 N 
ATOM     66  N   UNL A   1      46.890  26.979  26.438  1.00  0.00    -0.248 NA
ATOM     67  C   UNL A   1      47.665  24.974  25.519  1.00  0.00     0.031 C 
ATOM     68  C   UNL A   1      49.430  30.532  27.210  1.00  0.00     0.029 A 
ATOM     69  C   UNL A   1      48.661  29.408  26.957  1.00  0.00     0.049 A 
ATOM     70  H   UNL A   1      46.594  29.113  27.258  1.00  0.00     0.167 HD
ATOM     71  C   UNL A   1      48.255  27.084  26.199  1.00  0.00     0.074 A 
ATOM     72  C   UNL A   1      48.686  25.810  25.659  1.00  0.00     0.031 C 
ATOM     73  C   UNL A   1      49.078  28.141  26.412  1.00  0.00     0.031 A 
BRANCH  60  74
ATOM     74  C   UNL A   1      46.216  33.118  28.705  1.00  0.00    -0.014 A 
ATOM     75  C   UNL A   1      46.508  33.465  30.037  1.00  0.00     0.010 A 
ATOM     76  C   UNL A   1      46.046  34.142  27.756  1.00  0.00     0.010 A 
ATOM     77  C   UNL A   1      46.577  34.807  30.422  1.00  0.00     0.020 A 
ATOM     78  C   UNL A   1      46.138  35.486  28.132  1.00  0.00     0.020 A 
ATOM     79  C   UNL A   1      46.382  35.809  29.468  1.00  0.00     0.054 A 
BRANCH  79  80
ATOM     80  S   UNL A   1      46.476  37.543  29.993  1.00  0.00     0.124 S 
ATOM     81  O   UNL A   1      47.317  37.452  31.183  1.00  0.00    -0.237 OA
ATOM     82  O   UNL A   1      47.086  38.198  28.840  1.00  0.00    -0.237 OA
ATOM     83  O   UNL A   1      45.080  37.904  30.243  1.00  0.00    -0.744 OA
ENDBRANCH  79  80
ENDBRANCH  60  74
BRANCH  61  84
ATOM     84  C   UNL A   1      45.026  23.707  25.633  1.00  0.00    -0.014 A 
ATOM     85  C   UNL A   1      44.571  23.460  24.326  1.00  0.00     0.010 A 
ATOM     86  C   UNL A   1      45.339  22.618  26.467  1.00  0.00     0.010 A 
ATOM     87  C   UNL A   1      44.429  22.150  23.862  1.00  0.00     0.020 A 
ATOM     88  C   UNL A   1      45.220  21.306  25.999  1.00  0.00     0.020 A 
ATOM     89  C   UNL A   1      44.759  21.081  24.700  1.00  0.00     0.054 A 
BRANCH  89  90
ATOM     90  S   UNL A   1      44.645  19.389  24.050  1.00  0.00     0.124 S 
ATOM     91  O   UNL A   1      43.435  18.896  24.700  1.00  0.00    -0.237 OA
ATOM     92  O   UNL A   1      44.547  19.609  22.610  1.00  0.00    -0.237 OA
ATOM     93  O   UNL A   1      45.893  18.771  24.494  1.00  0.00    -0.744 OA
ENDBRANCH  89  90
ENDBRANCH  61  84
BRANCH  73  94
ATOM     94  C   UNL A   1      50.536  27.960  26.081  1.00  0.00    -0.014 A 
ATOM     95  C   UNL A   1      51.436  27.439  27.027  1.00  0.00     0.010 A 
ATOM     96  C   UNL A   1      51.001  28.274  24.792  1.00  0.00     0.010 A 
ATOM     97  C   UNL A   1      52.784  27.265  26.699  1.00  0.00     0.020 A 
ATOM     98  C   UNL A   1      52.343  28.080  24.451  1.00  0.00     0.020 A 
ATOM     99  C   UNL A   1      53.230  27.590  25.413  1.00  0.00     0.054 A 
BRANCH  99 100
ATOM    100  S   UNL A   1      54.976  27.324  24.997  1.00  0.00     0.124 S 
ATOM    101  O   UNL A   1      55.382  28.648  24.532  1.00  0.00    -0.237 OA
ATOM    102  O   UNL A   1      55.551  26.902  26.272  1.00  0.00    -0.237 OA
ATOM    103  O   UNL A   1      54.931  26.288  23.967  1.00  0.00    -0.744 OA
ENDBRANCH  99 100
ENDBRANCH  73  94
ENDBRANCH  47  48
ENDBRANCH  39  42
ENDBRANCH  37  38
ENDBRANCH  36  37
ENDBRANCH   1  36
TORSDOF 19
ENDMDL
MODEL 2
REMARK VINA RESULT:     -12.3      3.362      6.004
REMARK SMILES NC(=O)[C@@H]1CCC[N@@H+]1[C@@H](C(=O)NCCCNC(=O)c1ccc(-c2c3nc(c(-c4ccc(S(=O)(=O)[O-])cc4)c4ccc([nH]4)c(-c4ccc(S(=O)(=O)[O-])cc4)c4nc(c(-c5ccc(S(=O)(=O)[O-])cc5)c5ccc2[nH]5)C=C4)C=C3)cc1)c1c[nH]c2cc(OCc3ccccc3)ccc12
REMARK SMILES IDX 13 1 12 2 10 3 11 4 9 6 8 7 4 8 5 9 6 10 7 11 2 13 1 14 3 17
REMARK SMILES IDX 79 18 80 19 95 20 81 21 82 22 94 23 83 25 93 26 84 27 85 28
REMARK SMILES IDX 86 29 87 30 88 31 92 32 89 33 91 34 90 35 14 36 15 37 16 38
REMARK SMILES IDX 17 39 18 41 19 42 20 43 78 44 21 45 77 46 22 47 23 48 24 49
REMARK SMILES IDX 71 50 25 51 76 52 70 53 72 54 26 55 75 56 69 57 68 58 27 60
REMARK SMILES IDX 57 61 38 62 56 63 39 64 42 65 55 66 73 67 40 68 41 69 54 71
REMARK SMILES IDX 74 72 43 73 28 74 29 75 37 76 30 77 36 78 31 79 32 80 33 81
REMARK SMILES IDX 34 82 35 83 58 84 59 85 67 86 60 87 66 88 61 89 62 90 63 91
REMARK SMILES IDX 64 92 65 93 44 94 45 95 53 96 46 97 52 98 47 99 48 100
REMARK SMILES IDX 49 101 50 102 51 103
REMARK H PARENT 12 5 8 12 1 15 1 16 81 24 16 40 72 59 42 70
REMARK Flexibility Score: inf
ROOT
ATOM      1  C   UNL A   1      33.314  26.474  25.340  1.00  0.00     0.118 C 
ENDROOT
BRANCH   1   2
ATOM      2  N   UNL A   1      32.495  25.716  26.269  1.00  0.00    -0.351 N 
ATOM      3  C   UNL A   1      31.846  24.518  26.277  1.00  0.00     0.283 C 
ATOM      4  O   UNL A   1      31.117  24.416  27.271  1.00  0.00    -0.268 OA
ATOM      5  H   UNL A   1      32.378  26.196  27.121  1.00  0.00     0.163 HD
BRANCH   3   6
ATOM      6  C   UNL A   1      31.969  23.422  25.174  1.00  0.00     0.308 C 
BRANCH   6   7
ATOM      7  N   UNL A   1      33.358  22.857  25.012  1.00  0.00    -0.311 N 
ATOM      8  C   UNL A   1      33.658  21.450  25.295  1.00  0.00     0.275 C 
ATOM      9  C   UNL A   1      34.009  21.431  26.777  1.00  0.00     0.081 C 
ATOM     10  C   UNL A   1      34.627  22.793  27.042  1.00  0.00     0.068 C 
ATOM     11  C   UNL A   1      34.417  23.564  25.756  1.00  0.00     0.264 C 
ATOM     12  H   UNL A   1      33.355  22.989  24.000  1.00  0.00     0.349 HD
BRANCH   8  13
ATOM     13  C   UNL A   1      32.702  20.401  24.727  1.00  0.00     0.275 C 
ATOM     14  N   UNL A   1      32.590  20.402  23.363  1.00  0.00    -0.365 N 
ATOM     15  H   UNL A   1      31.994  19.758  22.916  1.00  0.00     0.159 HD
ATOM     16  H   UNL A   1      33.105  21.049  22.828  1.00  0.00     0.159 HD
ATOM     17  O   UNL A   1      31.994  19.641  25.381  1.00  0.00    -0.268 OA
ENDBRANCH   8  13
ENDBRANCH   6   7
BRANCH   6  18
ATOM     18  C   UNL A   1      31.627  23.885  23.707  1.00  0.00     0.044 A 
ATOM     19  C   UNL A   1      32.478  23.620  22.631  1.00  0.00     0.094 A 
ATOM     20  C   UNL A   1      30.822  25.005  23.261  1.00  0.00     0.009 A 
ATOM     21  N   UNL A   1      32.576  24.796  21.919  1.00  0.00    -0.361 N 
ATOM     22  C   UNL A   1      31.675  25.710  22.407  1.00  0.00     0.050 A 
ATOM     23  C   UNL A   1      29.673  25.678  23.724  1.00  0.00     0.015 A 
ATOM     24  H   UNL A   1      33.199  24.956  21.172  1.00  0.00     0.166 HD
ATOM     25  C   UNL A   1      31.614  27.105  22.278  1.00  0.00     0.073 A 
ATOM     26  C   UNL A   1      29.574  27.070  23.584  1.00  0.00     0.047 A 
ATOM     27  C   UNL A   1      30.590  27.777  22.956  1.00  0.00     0.121 A 
BRANCH  27  28
ATOM     28  O   UNL A   1      30.779  29.123  23.101  1.00  0.00    -0.489 OA
BRANCH  28  29
ATOM     29  C   UNL A   1      29.874  29.836  23.938  1.00  0.00     0.265 C 
BRANCH  29  30
ATOM     30  C   UNL A   1      29.128  30.772  23.025  1.00  0.00    -0.011 A 
ATOM     31  C   UNL A   1      28.996  32.128  23.360  1.00  0.00     0.007 A 
ATOM     32  C   UNL A   1      28.679  30.326  21.778  1.00  0.00     0.007 A 
ATOM     33  C   UNL A   1      28.428  33.023  22.455  1.00  0.00     0.000 A 
ATOM     34  C   UNL A   1      28.109  31.222  20.875  1.00  0.00     0.000 A 
ATOM     35  C   UNL A   1      27.988  32.569  21.212  1.00  0.00     0.000 A 
ENDBRANCH  29  30
ENDBRANCH  28  29
ENDBRANCH  27  28
ENDBRANCH   6  18
ENDBRANCH   3   6
ENDBRANCH   1   2
BRANCH   1  36
ATOM     36  C   UNL A   1      33.456  27.969  25.701  1.00  0.00     0.042 C 
BRANCH  36  37
ATOM     37  C   UNL A   1      33.175  28.361  27.163  1.00  0.00     0.118 C 
BRANCH  37  38
ATOM     38  N   UNL A   1      33.279  29.794  27.351  1.00  0.00    -0.352 N 
ATOM     39  C   UNL A   1      34.288  30.541  27.907  1.00  0.00     0.251 C 
ATOM     40  H   UNL A   1      32.506  30.313  27.031  1.00  0.00     0.163 HD
ATOM     41  O   UNL A   1      34.047  31.707  28.219  1.00  0.00    -0.269 OA
BRANCH  39  42
ATOM     42  C   UNL A   1      35.652  29.993  28.132  1.00  0.00     0.039 A 
ATOM     43  C   UNL A   1      35.988  29.574  29.427  1.00  0.00     0.014 A 
ATOM     44  C   UNL A   1      36.640  30.016  27.144  1.00  0.00     0.014 A 
ATOM     45  C   UNL A   1      37.299  29.188  29.731  1.00  0.00     0.010 A 
ATOM     46  C   UNL A   1      37.945  29.595  27.441  1.00  0.00     0.010 A 
ATOM     47  C   UNL A   1      38.295  29.201  28.743  1.00  0.00    -0.014 A 
BRANCH  47  48
ATOM     48  C   UNL A   1      39.704  28.849  29.079  1.00  0.00     0.031 A 
ATOM     49  C   UNL A   1      40.599  29.850  29.766  1.00  0.00     0.074 A 
ATOM     50  C   UNL A   1      40.192  27.635  28.756  1.00  0.00     0.049 A 
ATOM     51  N   UNL A   1      41.852  29.727  30.127  1.00  0.00    -0.248 NA
ATOM     52  C   UNL A   1      40.014  31.164  30.074  1.00  0.00     0.031 C 
ATOM     53  C   UNL A   1      39.444  26.578  28.074  1.00  0.00     0.029 A 
ATOM     54  N   UNL A   1      41.436  27.088  28.955  1.00  0.00    -0.354 N 
ATOM     55  C   UNL A   1      42.210  30.949  30.687  1.00  0.00     0.074 A 
ATOM     56  C   UNL A   1      41.052  31.811  30.586  1.00  0.00     0.031 C 
ATOM     57  C   UNL A   1      40.240  25.507  27.924  1.00  0.00     0.029 A 
ATOM     58  C   UNL A   1      41.560  25.807  28.472  1.00  0.00     0.049 A 
ATOM     59  H   UNL A   1      42.170  27.568  29.402  1.00  0.00     0.167 HD
ATOM     60  C   UNL A   1      43.389  31.321  31.246  1.00  0.00     0.031 A 
ATOM     61  C   UNL A   1      42.614  24.966  28.464  1.00  0.00     0.031 A 
ATOM     62  C   UNL A   1      44.542  30.464  31.359  1.00  0.00     0.049 A 
ATOM     63  C   UNL A   1      43.912  25.397  29.090  1.00  0.00     0.074 A 
ATOM     64  C   UNL A   1      45.761  30.735  31.955  1.00  0.00     0.029 A 
ATOM     65  N   UNL A   1      44.621  29.172  30.861  1.00  0.00    -0.354 N 
ATOM     66  N   UNL A   1      44.210  26.538  29.663  1.00  0.00    -0.248 NA
ATOM     67  C   UNL A   1      45.010  24.421  29.078  1.00  0.00     0.031 C 
ATOM     68  C   UNL A   1      46.593  29.623  31.781  1.00  0.00     0.029 A 
ATOM     69  C   UNL A   1      45.874  28.641  31.119  1.00  0.00     0.049 A 
ATOM     70  H   UNL A   1      43.893  28.702  30.394  1.00  0.00     0.167 HD
ATOM     71  C   UNL A   1      45.524  26.410  30.101  1.00  0.00     0.074 A 
ATOM     72  C   UNL A   1      45.957  25.075  29.739  1.00  0.00     0.031 C 
ATOM     73  C   UNL A   1      46.299  27.315  30.747  1.00  0.00     0.031 A 
BRANCH  60  74
ATOM     74  C   UNL A   1      43.496  32.730  31.769  1.00  0.00    -0.014 A 
ATOM     75  C   UNL A   1      43.894  33.790  30.933  1.00  0.00     0.010 A 
ATOM     76  C   UNL A   1      43.167  33.006  33.110  1.00  0.00     0.010 A 
ATOM     77  C   UNL A   1      44.010  35.087  31.439  1.00  0.00     0.020 A 
ATOM     78  C   UNL A   1      43.258  34.307  33.613  1.00  0.00     0.020 A 
ATOM     79  C   UNL A   1      43.699  35.336  32.779  1.00  0.00     0.054 A 
BRANCH  79  80
ATOM     80  S   UNL A   1      43.859  37.029  33.411  1.00  0.00     0.124 S 
ATOM     81  O   UNL A   1      45.113  36.956  34.153  1.00  0.00    -0.237 OA
ATOM     82  O   UNL A   1      43.895  37.828  32.190  1.00  0.00    -0.237 OA
ATOM     83  O   UNL A   1      42.660  37.207  34.231  1.00  0.00    -0.744 OA
ENDBRANCH  79  80
ENDBRANCH  60  74
BRANCH  61  84
ATOM     84  C   UNL A   1      42.473  23.618  27.854  1.00  0.00    -0.014 A 
ATOM     85  C   UNL A   1      42.747  23.418  26.489  1.00  0.00     0.010 A 
ATOM     86  C   UNL A   1      42.093  22.518  28.644  1.00  0.00     0.010 A 
ATOM     87  C   UNL A   1      42.641  22.144  25.924  1.00  0.00     0.020 A 
ATOM     88  C   UNL A   1      42.009  21.238  28.088  1.00  0.00     0.020 A 
ATOM     89  C   UNL A   1      42.277  21.061  26.729  1.00  0.00     0.054 A 
BRANCH  89  90
ATOM     90  S   UNL A   1      42.225  19.401  25.995  1.00  0.00     0.124 S 
ATOM     91  O   UNL A   1      42.687  18.566  27.100  1.00  0.00    -0.237 OA
ATOM     92  O   UNL A   1      40.817  19.258  25.636  1.00  0.00    -0.237 OA
ATOM     93  O   UNL A   1      43.141  19.504  24.860  1.00  0.00    -0.744 OA
ENDBRANCH  89  90
ENDBRANCH  61  84
BRANCH  73  94
ATOM     94  C   UNL A   1      47.692  26.887  31.127  1.00  0.00    -0.014 A 
ATOM     95  C   UNL A   1      48.775  27.081  30.253  1.00  0.00     0.010 A 
ATOM     96  C   UNL A   1      47.925  26.325  32.395  1.00  0.00     0.010 A 
ATOM     97  C   UNL A   1      50.064  26.689  30.628  1.00  0.00     0.020 A 
ATOM     98  C   UNL A   1      49.215  25.954  32.784  1.00  0.00     0.020 A 
ATOM     99  C   UNL A   1      50.276  26.124  31.890  1.00  0.00     0.054 A 
BRANCH  99 100
ATOM    100  S   UNL A   1      51.962  25.656  32.371  1.00  0.00     0.124 S 
ATOM    101  O   UNL A   1      52.768  26.401  31.408  1.00  0.00    -0.237 OA
ATOM    102  O   UNL A   1      52.044  26.121  33.753  1.00  0.00    -0.237 OA
ATOM    103  O   UNL A   1      51.977  24.204  32.206  1.00  0.00    -0.744 OA
ENDBRANCH  99 100
ENDBRANCH  73  94
ENDBRANCH  47  48
ENDBRANCH  39  42
ENDBRANCH  37  38
ENDBRANCH  36  37
ENDBRANCH   1  36
TORSDOF 19
ENDMDL
MODEL 3
REMARK VINA RESULT:     -12.1      4.081      9.689
REMARK SMILES NC(=O)[C@@H]1CCC[N@@H+]1[C@@H](C(=O)NCCCNC(=O)c1ccc(-c2c3nc(c(-c4ccc(S(=O)(=O)[O-])cc4)c4ccc([nH]4)c(-c4ccc(S(=O)(=O)[O-])cc4)c4nc(c(-c5ccc(S(=O)(=O)[O-])cc5)c5ccc2[nH]5)C=C4)C=C3)cc1)c1c[nH]c2cc(OCc3ccccc3)ccc12
REMARK SMILES IDX 13 1 12 2 10 3 11 4 9 6 8 7 4 8 5 9 6 10 7 11 2 13 1 14 3 17
REMARK SMILES IDX 79 18 80 19 95 20 81 21 82 22 94 23 83 25 93 26 84 27 85 28
REMARK SMILES IDX 86 29 87 30 88 31 92 32 89 33 91 34 90 35 14 36 15 37 16 38
REMARK SMILES IDX 17 39 18 41 19 42 20 43 78 44 21 45 77 46 22 47 23 48 24 49
REMARK SMILES IDX 71 50 25 51 76 52 70 53 72 54 26 55 75 56 69 57 68 58 27 60
REMARK SMILES IDX 57 61 38 62 56 63 39 64 42 65 55 66 73 67 40 68 41 69 54 71
REMARK SMILES IDX 74 72 43 73 28 74 29 75 37 76 30 77 36 78 31 79 32 80 33 81
REMARK SMILES IDX 34 82 35 83 58 84 59 85 67 86 60 87 66 88 61 89 62 90 63 91
REMARK SMILES IDX 64 92 65 93 44 94 45 95 53 96 46 97 52 98 47 99 48 100
REMARK SMILES IDX 49 101 50 102 51 103
REMARK H PARENT 12 5 8 12 1 15 1 16 81 24 16 40 72 59 42 70
REMARK Flexibility Score: inf
ROOT
ATOM      1  C   UNL A   1      34.221  24.321  25.104  1.00  0.00     0.118 C 
ENDROOT
BRANCH   1   2
ATOM      2  N   UNL A   1      34.307  24.851  23.755  1.00  0.00    -0.351 N 
ATOM      3  C   UNL A   1      33.484  25.500  22.884  1.00  0.00     0.283 C 
ATOM      4  O   UNL A   1      33.995  25.569  21.760  1.00  0.00    -0.268 OA
ATOM      5  H   UNL A   1      35.199  24.701  23.365  1.00  0.00     0.163 HD
BRANCH   3   6
ATOM      6  C   UNL A   1      32.070  26.061  23.231  1.00  0.00     0.308 C 
BRANCH   6   7
ATOM      7  N   UNL A   1      32.070  27.127  24.298  1.00  0.00    -0.311 N 
ATOM      8  C   UNL A   1      31.773  28.529  23.988  1.00  0.00     0.275 C 
ATOM      9  C   UNL A   1      33.125  29.131  23.629  1.00  0.00     0.081 C 
ATOM     10  C   UNL A   1      34.127  28.345  24.458  1.00  0.00     0.068 C 
ATOM     11  C   UNL A   1      33.313  27.232  25.085  1.00  0.00     0.264 C 
ATOM     12  H   UNL A   1      31.266  26.725  24.779  1.00  0.00     0.349 HD
BRANCH   8  13
ATOM     13  C   UNL A   1      30.557  28.810  23.103  1.00  0.00     0.275 C 
ATOM     14  N   UNL A   1      30.808  29.601  22.015  1.00  0.00    -0.365 N 
ATOM     15  H   UNL A   1      30.079  29.829  21.393  1.00  0.00     0.159 HD
ATOM     16  H   UNL A   1      31.718  29.941  21.853  1.00  0.00     0.159 HD
ATOM     17  O   UNL A   1      29.404  28.459  23.331  1.00  0.00    -0.268 OA
ENDBRANCH   8  13
ENDBRANCH   6   7
BRANCH   6  18
ATOM     18  C   UNL A   1      31.042  25.016  23.809  1.00  0.00     0.044 A 
ATOM     19  C   UNL A   1      30.207  25.318  24.887  1.00  0.00     0.094 A 
ATOM     20  C   UNL A   1      31.097  23.567  23.792  1.00  0.00     0.009 A 
ATOM     21  N   UNL A   1      30.272  24.237  25.739  1.00  0.00    -0.361 N 
ATOM     22  C   UNL A   1      30.960  23.212  25.137  1.00  0.00     0.050 A 
ATOM     23  C   UNL A   1      31.582  22.579  22.911  1.00  0.00     0.015 A 
ATOM     24  H   UNL A   1      29.883  24.204  26.644  1.00  0.00     0.166 HD
ATOM     25  C   UNL A   1      31.583  22.077  25.676  1.00  0.00     0.073 A 
ATOM     26  C   UNL A   1      32.185  21.421  23.423  1.00  0.00     0.047 A 
ATOM     27  C   UNL A   1      32.271  21.233  24.796  1.00  0.00     0.121 A 
BRANCH  27  28
ATOM     28  O   UNL A   1      33.147  20.369  25.390  1.00  0.00    -0.489 OA
BRANCH  28  29
ATOM     29  C   UNL A   1      34.104  19.716  24.561  1.00  0.00     0.265 C 
BRANCH  29  30
ATOM     30  C   UNL A   1      33.871  18.241  24.755  1.00  0.00    -0.011 A 
ATOM     31  C   UNL A   1      34.915  17.328  24.543  1.00  0.00     0.007 A 
ATOM     32  C   UNL A   1      32.654  17.786  25.275  1.00  0.00     0.007 A 
ATOM     33  C   UNL A   1      34.742  15.981  24.854  1.00  0.00     0.000 A 
ATOM     34  C   UNL A   1      32.483  16.437  25.583  1.00  0.00     0.000 A 
ATOM     35  C   UNL A   1      33.528  15.537  25.376  1.00  0.00     0.000 A 
ENDBRANCH  29  30
ENDBRANCH  28  29
ENDBRANCH  27  28
ENDBRANCH   6  18
ENDBRANCH   3   6
ENDBRANCH   1   2
BRANCH   1  36
ATOM     36  C   UNL A   1      35.584  23.937  25.719  1.00  0.00     0.042 C 
BRANCH  36  37
ATOM     37  C   UNL A   1      36.722  23.612  24.736  1.00  0.00     0.118 C 
BRANCH  37  38
ATOM     38  N   UNL A   1      37.650  22.654  25.305  1.00  0.00    -0.352 N 
ATOM     39  C   UNL A   1      38.779  22.859  26.060  1.00  0.00     0.251 C 
ATOM     40  H   UNL A   1      37.438  21.710  25.122  1.00  0.00     0.163 HD
ATOM     41  O   UNL A   1      39.565  21.924  26.199  1.00  0.00    -0.269 OA
BRANCH  39  42
ATOM     42  C   UNL A   1      39.071  24.161  26.717  1.00  0.00     0.039 A 
ATOM     43  C   UNL A   1      39.866  25.085  26.024  1.00  0.00     0.014 A 
ATOM     44  C   UNL A   1      38.703  24.432  28.038  1.00  0.00     0.014 A 
ATOM     45  C   UNL A   1      40.295  26.262  26.648  1.00  0.00     0.010 A 
ATOM     46  C   UNL A   1      39.104  25.629  28.650  1.00  0.00     0.010 A 
ATOM     47  C   UNL A   1      39.925  26.545  27.972  1.00  0.00    -0.014 A 
BRANCH  47  48
ATOM     48  C   UNL A   1      40.431  27.767  28.657  1.00  0.00     0.031 A 
ATOM     49  C   UNL A   1      41.845  27.822  29.179  1.00  0.00     0.074 A 
ATOM     50  C   UNL A   1      39.619  28.830  28.829  1.00  0.00     0.049 A 
ATOM     51  N   UNL A   1      42.457  28.794  29.810  1.00  0.00    -0.248 NA
ATOM     52  C   UNL A   1      42.675  26.624  28.978  1.00  0.00     0.031 C 
ATOM     53  C   UNL A   1      38.225  28.906  28.392  1.00  0.00     0.029 A 
ATOM     54  N   UNL A   1      39.851  30.047  29.423  1.00  0.00    -0.354 N 
ATOM     55  C   UNL A   1      43.733  28.320  30.096  1.00  0.00     0.074 A 
ATOM     56  C   UNL A   1      43.795  26.961  29.601  1.00  0.00     0.031 C 
ATOM     57  C   UNL A   1      37.730  30.111  28.720  1.00  0.00     0.029 A 
ATOM     58  C   UNL A   1      38.758  30.882  29.413  1.00  0.00     0.049 A 
ATOM     59  H   UNL A   1      40.717  30.298  29.817  1.00  0.00     0.167 HD
ATOM     60  C   UNL A   1      44.764  28.957  30.704  1.00  0.00     0.031 A 
ATOM     61  C   UNL A   1      38.596  32.125  29.909  1.00  0.00     0.031 A 
ATOM     62  C   UNL A   1      44.712  30.313  31.190  1.00  0.00     0.049 A 
ATOM     63  C   UNL A   1      39.753  32.814  30.579  1.00  0.00     0.074 A 
ATOM     64  C   UNL A   1      45.721  31.059  31.772  1.00  0.00     0.029 A 
ATOM     65  N   UNL A   1      43.587  31.123  31.154  1.00  0.00    -0.354 N 
ATOM     66  N   UNL A   1      40.968  32.367  30.789  1.00  0.00    -0.248 NA
ATOM     67  C   UNL A   1      39.519  34.181  31.065  1.00  0.00     0.031 C 
ATOM     68  C   UNL A   1      45.196  32.307  32.128  1.00  0.00     0.029 A 
ATOM     69  C   UNL A   1      43.872  32.354  31.722  1.00  0.00     0.049 A 
ATOM     70  H   UNL A   1      42.715  30.862  30.780  1.00  0.00     0.167 HD
ATOM     71  C   UNL A   1      41.650  33.405  31.413  1.00  0.00     0.074 A 
ATOM     72  C   UNL A   1      40.717  34.508  31.533  1.00  0.00     0.031 C 
ATOM     73  C   UNL A   1      42.935  33.442  31.844  1.00  0.00     0.031 A 
BRANCH  60  74
ATOM     74  C   UNL A   1      46.044  28.184  30.893  1.00  0.00    -0.014 A 
ATOM     75  C   UNL A   1      47.024  28.139  29.885  1.00  0.00     0.010 A 
ATOM     76  C   UNL A   1      46.284  27.514  32.108  1.00  0.00     0.010 A 
ATOM     77  C   UNL A   1      48.196  27.399  30.066  1.00  0.00     0.020 A 
ATOM     78  C   UNL A   1      47.467  26.793  32.303  1.00  0.00     0.020 A 
ATOM     79  C   UNL A   1      48.405  26.724  31.272  1.00  0.00     0.054 A 
BRANCH  79  80
ATOM     80  S   UNL A   1      49.935  25.770  31.482  1.00  0.00     0.124 S 
ATOM     81  O   UNL A   1      50.857  26.786  31.979  1.00  0.00    -0.237 OA
ATOM     82  O   UNL A   1      49.547  24.746  32.448  1.00  0.00    -0.237 OA
ATOM     83  O   UNL A   1      50.220  25.274  30.136  1.00  0.00    -0.744 OA
ENDBRANCH  79  80
ENDBRANCH  60  74
BRANCH  61  84
ATOM     84  C   UNL A   1      37.281  32.805  29.769  1.00  0.00    -0.014 A 
ATOM     85  C   UNL A   1      36.354  32.793  30.826  1.00  0.00     0.010 A 
ATOM     86  C   UNL A   1      36.962  33.496  28.586  1.00  0.00     0.010 A 
ATOM     87  C   UNL A   1      35.131  33.458  30.703  1.00  0.00     0.020 A 
ATOM     88  C   UNL A   1      35.749  34.181  28.467  1.00  0.00     0.020 A 
ATOM     89  C   UNL A   1      34.838  34.152  29.525  1.00  0.00     0.054 A 
BRANCH  89  90
ATOM     90  S   UNL A   1      33.279  35.076  29.417  1.00  0.00     0.124 S 
ATOM     91  O   UNL A   1      32.569  34.349  28.369  1.00  0.00    -0.237 OA
ATOM     92  O   UNL A   1      32.734  34.938  30.765  1.00  0.00    -0.237 OA
ATOM     93  O   UNL A   1      33.710  36.427  29.063  1.00  0.00    -0.744 OA
ENDBRANCH  89  90
ENDBRANCH  61  84
BRANCH  73  94
ATOM     94  C   UNL A   1      43.419  34.725  32.467  1.00  0.00    -0.014 A 
ATOM     95  C   UNL A   1      43.326  34.940  33.853  1.00  0.00     0.010 A 
ATOM     96  C   UNL A   1      44.017  35.708  31.659  1.00  0.00     0.010 A 
ATOM     97  C   UNL A   1      43.792  36.132  34.417  1.00  0.00     0.020 A 
ATOM     98  C   UNL A   1      44.507  36.891  32.221  1.00  0.00     0.020 A 
ATOM     99  C   UNL A   1      44.377  37.102  33.596  1.00  0.00     0.054 A 
BRANCH  99 100
ATOM    100  S   UNL A   1      45.008  38.626  34.352  1.00  0.00     0.124 S 
ATOM    101  O   UNL A   1      43.775  39.293  34.763  1.00  0.00    -0.237 OA
ATOM    102  O   UNL A   1      45.844  38.124  35.440  1.00  0.00    -0.237 OA
ATOM    103  O   UNL A   1      45.736  39.275  33.264  1.00  0.00    -0.744 OA
ENDBRANCH  99 100
ENDBRANCH  73  94
ENDBRANCH  47  48
ENDBRANCH  39  42
ENDBRANCH  37  38
ENDBRANCH  36  37
ENDBRANCH   1  36
TORSDOF 19
ENDMDL
