MODEL 1
REMARK VINA RESULT:     -12.0      0.000      0.000
REMARK SMILES CCOc1ccc(C(=O)N2CCC(C(=O)NCCCNC(=O)c3ccc(-c4c5nc(c(-c6ccc(S(=O)(=O)[O-])cc6)c6ccc([nH]6)c(-c6ccc(S(=O)(=O)[O-])cc6)c6nc(c(-c7ccc(S(=O)(=O)[O-])cc7)c7ccc4[nH]7)C=C6)C=C5)cc3)(c3ccccc3)CC2)cc1OC
REMARK SMILES IDX 18 1 17 2 16 3 14 4 15 5 13 7 8 8 9 9 10 10 11 11 90 12
REMARK SMILES IDX 12 13 89 14 7 15 4 16 5 17 92 18 6 19 91 20 3 21 2 22 1 23
REMARK SMILES IDX 93 24 94 25 83 26 84 27 88 28 85 29 87 30 86 31 19 32 20 33
REMARK SMILES IDX 21 34 22 36 23 37 24 38 82 39 25 40 81 41 26 42 27 43 28 44
REMARK SMILES IDX 75 45 29 46 80 47 74 48 76 49 30 50 79 51 73 52 72 53 31 55
REMARK SMILES IDX 61 56 42 57 60 58 43 59 46 60 59 61 77 62 44 63 45 64 58 66
REMARK SMILES IDX 78 67 47 68 32 69 33 70 41 71 34 72 40 73 35 74 36 75 37 76
REMARK SMILES IDX 38 77 39 78 62 79 63 80 71 81 64 82 70 83 65 84 66 85 67 86
REMARK SMILES IDX 68 87 69 88 48 89 49 90 57 91 50 92 56 93 51 94 52 95 53 96
REMARK SMILES IDX 54 97 55 98
REMARK H PARENT 16 6 20 35 76 54 46 65
REMARK Flexibility Score: inf
ROOT
ATOM      1  C   UNL A   1      32.727  29.924  27.254  1.00  0.00     0.042 C 
ENDROOT
BRANCH   1   2
ATOM      2  C   UNL A   1      32.028  29.867  25.904  1.00  0.00     0.117 C 
BRANCH   2   3
ATOM      3  N   UNL A   1      32.971  29.916  24.791  1.00  0.00    -0.355 N 
ATOM      4  C   UNL A   1      33.333  29.012  23.829  1.00  0.00     0.230 C 
ATOM      5  O   UNL A   1      34.298  29.374  23.153  1.00  0.00    -0.274 OA
ATOM      6  H   UNL A   1      33.445  30.776  24.718  1.00  0.00     0.163 HD
BRANCH   4   7
ATOM      7  C   UNL A   1      32.586  27.644  23.658  1.00  0.00     0.077 C 
ATOM      8  C   UNL A   1      34.368  23.671  23.517  1.00  0.00     0.253 C 
ATOM      9  O   UNL A   1      35.336  23.558  22.765  1.00  0.00    -0.269 OA
ATOM     10  N   UNL A   1      33.663  24.885  23.614  1.00  0.00    -0.339 N 
ATOM     11  C   UNL A   1      33.365  25.515  22.340  1.00  0.00     0.121 C 
ATOM     12  C   UNL A   1      32.935  25.338  24.796  1.00  0.00     0.121 C 
ATOM     13  C   UNL A   1      33.198  27.023  22.373  1.00  0.00     0.043 C 
ATOM     14  C   UNL A   1      32.851  26.844  24.966  1.00  0.00     0.043 C 
BRANCH   8  15
ATOM     15  C   UNL A   1      33.878  22.434  24.207  1.00  0.00     0.043 A 
ATOM     16  C   UNL A   1      32.892  20.017  25.288  1.00  0.00     0.161 A 
ATOM     17  C   UNL A   1      34.206  20.100  24.802  1.00  0.00     0.051 A 
ATOM     18  C   UNL A   1      32.079  21.145  25.267  1.00  0.00     0.161 A 
ATOM     19  C   UNL A   1      34.700  21.304  24.274  1.00  0.00     0.018 A 
ATOM     20  C   UNL A   1      32.565  22.303  24.656  1.00  0.00     0.064 A 
BRANCH  16  21
ATOM     21  O   UNL A   1      32.443  18.841  25.817  1.00  0.00    -0.490 OA
BRANCH  21  22
ATOM     22  C   UNL A   1      32.533  17.743  24.899  1.00  0.00     0.226 C 
ATOM     23  C   UNL A   1      32.831  16.480  25.690  1.00  0.00     0.049 C 
ENDBRANCH  21  22
ENDBRANCH  16  21
BRANCH  18  24
ATOM     24  O   UNL A   1      30.814  21.340  25.738  1.00  0.00    -0.493 OA
ATOM     25  C   UNL A   1      30.421  22.613  26.212  1.00  0.00     0.278 C 
ENDBRANCH  18  24
ENDBRANCH   8  15
BRANCH   7  26
ATOM     26  C   UNL A   1      31.024  27.714  23.482  1.00  0.00    -0.032 A 
ATOM     27  C   UNL A   1      30.347  28.770  22.850  1.00  0.00     0.005 A 
ATOM     28  C   UNL A   1      30.198  26.699  24.018  1.00  0.00     0.005 A 
ATOM     29  C   UNL A   1      28.948  28.801  22.744  1.00  0.00     0.000 A 
ATOM     30  C   UNL A   1      28.802  26.736  23.937  1.00  0.00     0.000 A 
ATOM     31  C   UNL A   1      28.174  27.789  23.294  1.00  0.00     0.000 A 
ENDBRANCH   7  26
ENDBRANCH   4   7
ENDBRANCH   2   3
ENDBRANCH   1   2
BRANCH   1  32
ATOM     32  C   UNL A   1      33.777  31.018  27.353  1.00  0.00     0.118 C 
BRANCH  32  33
ATOM     33  N   UNL A   1      33.193  32.345  27.500  1.00  0.00    -0.352 N 
ATOM     34  C   UNL A   1      33.521  33.344  28.390  1.00  0.00     0.251 C 
ATOM     35  H   UNL A   1      32.463  32.556  26.875  1.00  0.00     0.163 HD
ATOM     36  O   UNL A   1      32.810  34.327  28.504  1.00  0.00    -0.269 OA
BRANCH  34  37
ATOM     37  C   UNL A   1      34.736  33.191  29.220  1.00  0.00     0.039 A 
ATOM     38  C   UNL A   1      34.702  32.347  30.332  1.00  0.00     0.014 A 
ATOM     39  C   UNL A   1      35.913  33.855  28.871  1.00  0.00     0.014 A 
ATOM     40  C   UNL A   1      35.877  32.109  31.051  1.00  0.00     0.010 A 
ATOM     41  C   UNL A   1      37.096  33.545  29.527  1.00  0.00     0.010 A 
ATOM     42  C   UNL A   1      37.091  32.674  30.629  1.00  0.00    -0.014 A 
BRANCH  42  43
ATOM     43  C   UNL A   1      38.377  32.406  31.321  1.00  0.00     0.031 A 
ATOM     44  C   UNL A   1      39.316  31.376  30.754  1.00  0.00     0.074 A 
ATOM     45  C   UNL A   1      38.650  32.999  32.501  1.00  0.00     0.049 A 
ATOM     46  N   UNL A   1      40.392  30.856  31.286  1.00  0.00    -0.248 NA
ATOM     47  C   UNL A   1      38.978  30.833  29.427  1.00  0.00     0.031 C 
ATOM     48  C   UNL A   1      37.810  33.996  33.168  1.00  0.00     0.029 A 
ATOM     49  N   UNL A   1      39.706  32.827  33.361  1.00  0.00    -0.354 N 
ATOM     50  C   UNL A   1      40.834  29.900  30.379  1.00  0.00     0.074 A 
ATOM     51  C   UNL A   1      39.889  29.882  29.285  1.00  0.00     0.031 C 
ATOM     52  C   UNL A   1      38.389  34.357  34.325  1.00  0.00     0.029 A 
ATOM     53  C   UNL A   1      39.612  33.581  34.509  1.00  0.00     0.049 A 
ATOM     54  H   UNL A   1      40.460  32.223  33.175  1.00  0.00     0.167 HD
ATOM     55  C   UNL A   1      41.937  29.118  30.444  1.00  0.00     0.031 A 
ATOM     56  C   UNL A   1      40.408  33.626  35.595  1.00  0.00     0.031 A 
ATOM     57  C   UNL A   1      42.887  29.160  31.521  1.00  0.00     0.049 A 
ATOM     58  C   UNL A   1      41.628  32.745  35.647  1.00  0.00     0.074 A 
ATOM     59  C   UNL A   1      44.065  28.447  31.657  1.00  0.00     0.029 A 
ATOM     60  N   UNL A   1      42.772  29.965  32.645  1.00  0.00    -0.354 N 
ATOM     61  N   UNL A   1      42.053  31.875  34.762  1.00  0.00    -0.248 NA
ATOM     62  C   UNL A   1      42.479  32.854  36.841  1.00  0.00     0.031 C 
ATOM     63  C   UNL A   1      44.640  28.788  32.884  1.00  0.00     0.029 A 
ATOM     64  C   UNL A   1      43.851  29.757  33.485  1.00  0.00     0.049 A 
ATOM     65  H   UNL A   1      42.032  30.590  32.819  1.00  0.00     0.167 HD
ATOM     66  C   UNL A   1      43.241  31.364  35.274  1.00  0.00     0.074 A 
ATOM     67  C   UNL A   1      43.467  32.021  36.545  1.00  0.00     0.031 C 
ATOM     68  C   UNL A   1      44.072  30.438  34.735  1.00  0.00     0.031 A 
BRANCH  55  69
ATOM     69  C   UNL A   1      42.167  28.144  29.318  1.00  0.00    -0.014 A 
ATOM     70  C   UNL A   1      43.022  28.459  28.247  1.00  0.00     0.010 A 
ATOM     71  C   UNL A   1      41.544  26.884  29.348  1.00  0.00     0.010 A 
ATOM     72  C   UNL A   1      43.213  27.551  27.202  1.00  0.00     0.020 A 
ATOM     73  C   UNL A   1      41.756  25.959  28.321  1.00  0.00     0.020 A 
ATOM     74  C   UNL A   1      42.575  26.307  27.245  1.00  0.00     0.054 A 
BRANCH  74  75
ATOM     75  S   UNL A   1      42.855  25.141  25.885  1.00  0.00     0.124 S 
ATOM     76  O   UNL A   1      42.381  25.903  24.732  1.00  0.00    -0.237 OA
ATOM     77  O   UNL A   1      44.298  24.922  25.941  1.00  0.00    -0.237 OA
ATOM     78  O   UNL A   1      42.038  23.985  26.245  1.00  0.00    -0.744 OA
ENDBRANCH  74  75
ENDBRANCH  55  69
BRANCH  56  79
ATOM     79  C   UNL A   1      40.083  34.547  36.720  1.00  0.00    -0.014 A 
ATOM     80  C   UNL A   1      39.296  34.102  37.796  1.00  0.00     0.010 A 
ATOM     81  C   UNL A   1      40.570  35.867  36.729  1.00  0.00     0.010 A 
ATOM     82  C   UNL A   1      38.981  34.966  38.851  1.00  0.00     0.020 A 
ATOM     83  C   UNL A   1      40.281  36.725  37.795  1.00  0.00     0.020 A 
ATOM     84  C   UNL A   1      39.478  36.272  38.843  1.00  0.00     0.054 A 
BRANCH  84  85
ATOM     85  S   UNL A   1      39.093  37.361  40.244  1.00  0.00     0.124 S 
ATOM     86  O   UNL A   1      40.421  37.796  40.664  1.00  0.00    -0.237 OA
ATOM     87  O   UNL A   1      38.256  38.386  39.626  1.00  0.00    -0.237 OA
ATOM     88  O   UNL A   1      38.398  36.480  41.180  1.00  0.00    -0.744 OA
ENDBRANCH  84  85
ENDBRANCH  56  79
BRANCH  68  89
ATOM     89  C   UNL A   1      45.342  30.117  35.477  1.00  0.00    -0.014 A 
ATOM     90  C   UNL A   1      45.354  29.212  36.552  1.00  0.00     0.010 A 
ATOM     91  C   UNL A   1      46.557  30.658  35.018  1.00  0.00     0.010 A 
ATOM     92  C   UNL A   1      46.563  28.861  37.162  1.00  0.00     0.020 A 
ATOM     93  C   UNL A   1      47.768  30.290  35.609  1.00  0.00     0.020 A 
ATOM     94  C   UNL A   1      47.762  29.397  36.681  1.00  0.00     0.054 A 
BRANCH  94  95
ATOM     95  S   UNL A   1      49.322  28.862  37.436  1.00  0.00     0.124 S 
ATOM     96  O   UNL A   1      49.013  28.936  38.861  1.00  0.00    -0.237 OA
ATOM     97  O   UNL A   1      49.493  27.515  36.898  1.00  0.00    -0.237 OA
ATOM     98  O   UNL A   1      50.293  29.844  36.958  1.00  0.00    -0.744 OA
ENDBRANCH  94  95
ENDBRANCH  68  89
ENDBRANCH  42  43
ENDBRANCH  34  37
ENDBRANCH  32  33
ENDBRANCH   1  32
TORSDOF 18
ENDMDL
MODEL 2
REMARK VINA RESULT:     -11.4      4.175      8.715
REMARK SMILES CCOc1ccc(C(=O)N2CCC(C(=O)NCCCNC(=O)c3ccc(-c4c5nc(c(-c6ccc(S(=O)(=O)[O-])cc6)c6ccc([nH]6)c(-c6ccc(S(=O)(=O)[O-])cc6)c6nc(c(-c7ccc(S(=O)(=O)[O-])cc7)c7ccc4[nH]7)C=C6)C=C5)cc3)(c3ccccc3)CC2)cc1OC
REMARK SMILES IDX 18 1 17 2 16 3 14 4 15 5 13 7 8 8 9 9 10 10 11 11 90 12
REMARK SMILES IDX 12 13 89 14 7 15 4 16 5 17 92 18 6 19 91 20 3 21 2 22 1 23
REMARK SMILES IDX 93 24 94 25 83 26 84 27 88 28 85 29 87 30 86 31 19 32 20 33
REMARK SMILES IDX 21 34 22 36 23 37 24 38 82 39 25 40 81 41 26 42 27 43 28 44
REMARK SMILES IDX 75 45 29 46 80 47 74 48 76 49 30 50 79 51 73 52 72 53 31 55
REMARK SMILES IDX 61 56 42 57 60 58 43 59 46 60 59 61 77 62 44 63 45 64 58 66
REMARK SMILES IDX 78 67 47 68 32 69 33 70 41 71 34 72 40 73 35 74 36 75 37 76
REMARK SMILES IDX 38 77 39 78 62 79 63 80 71 81 64 82 70 83 65 84 66 85 67 86
REMARK SMILES IDX 68 87 69 88 48 89 49 90 57 91 50 92 56 93 51 94 52 95 53 96
REMARK SMILES IDX 54 97 55 98
REMARK H PARENT 16 6 20 35 76 54 46 65
REMARK Flexibility Score: inf
ROOT
ATOM      1  C   UNL A   1      33.807  28.532  26.264  1.00  0.00     0.042 C 
ENDROOT
BRANCH   1   2
ATOM      2  C   UNL A   1      32.891  29.329  25.348  1.00  0.00     0.117 C 
BRANCH   2   3
ATOM      3  N   UNL A   1      33.383  29.371  23.974  1.00  0.00    -0.355 N 
ATOM      4  C   UNL A   1      33.314  28.491  22.928  1.00  0.00     0.230 C 
ATOM      5  O   UNL A   1      34.004  28.823  21.962  1.00  0.00    -0.274 OA
ATOM      6  H   UNL A   1      33.864  30.202  23.756  1.00  0.00     0.163 HD
BRANCH   4   7
ATOM      7  C   UNL A   1      32.454  27.182  23.004  1.00  0.00     0.077 C 
ATOM      8  C   UNL A   1      33.892  23.074  22.812  1.00  0.00     0.253 C 
ATOM      9  O   UNL A   1      34.682  22.837  21.899  1.00  0.00    -0.269 OA
ATOM     10  N   UNL A   1      33.307  24.345  22.955  1.00  0.00    -0.339 N 
ATOM     11  C   UNL A   1      32.808  24.923  21.719  1.00  0.00     0.121 C 
ATOM     12  C   UNL A   1      32.859  24.924  24.218  1.00  0.00     0.121 C 
ATOM     13  C   UNL A   1      32.756  26.439  21.673  1.00  0.00     0.043 C 
ATOM     14  C   UNL A   1      32.916  26.439  24.291  1.00  0.00     0.043 C 
BRANCH   8  15
ATOM     15  C   UNL A   1      33.463  21.923  23.672  1.00  0.00     0.043 A 
ATOM     16  C   UNL A   1      32.874  19.657  25.254  1.00  0.00     0.161 A 
ATOM     17  C   UNL A   1      33.543  20.760  25.806  1.00  0.00     0.051 A 
ATOM     18  C   UNL A   1      32.469  19.694  23.923  1.00  0.00     0.161 A 
ATOM     19  C   UNL A   1      33.826  21.892  25.023  1.00  0.00     0.018 A 
ATOM     20  C   UNL A   1      32.842  20.792  23.145  1.00  0.00     0.064 A 
BRANCH  16  21
ATOM     21  O   UNL A   1      32.590  18.578  26.042  1.00  0.00    -0.490 OA
BRANCH  21  22
ATOM     22  C   UNL A   1      33.398  17.433  25.736  1.00  0.00     0.226 C 
ATOM     23  C   UNL A   1      32.479  16.243  25.515  1.00  0.00     0.049 C 
ENDBRANCH  21  22
ENDBRANCH  16  21
BRANCH  18  24
ATOM     24  O   UNL A   1      31.753  18.797  23.185  1.00  0.00    -0.493 OA
ATOM     25  C   UNL A   1      32.366  18.110  22.113  1.00  0.00     0.278 C 
ENDBRANCH  18  24
ENDBRANCH   8  15
BRANCH   7  26
ATOM     26  C   UNL A   1      30.897  27.370  23.126  1.00  0.00    -0.032 A 
ATOM     27  C   UNL A   1      30.200  28.498  22.663  1.00  0.00     0.005 A 
ATOM     28  C   UNL A   1      30.108  26.395  23.779  1.00  0.00     0.005 A 
ATOM     29  C   UNL A   1      28.811  28.633  22.823  1.00  0.00     0.000 A 
ATOM     30  C   UNL A   1      28.729  26.535  23.963  1.00  0.00     0.000 A 
ATOM     31  C   UNL A   1      28.076  27.656  23.480  1.00  0.00     0.000 A 
ENDBRANCH   7  26
ENDBRANCH   4   7
ENDBRANCH   2   3
ENDBRANCH   1   2
BRANCH   1  32
ATOM     32  C   UNL A   1      33.591  28.814  27.742  1.00  0.00     0.118 C 
BRANCH  32  33
ATOM     33  N   UNL A   1      33.580  30.239  28.045  1.00  0.00    -0.352 N 
ATOM     34  C   UNL A   1      34.581  31.019  28.582  1.00  0.00     0.251 C 
ATOM     35  H   UNL A   1      32.741  30.709  27.837  1.00  0.00     0.163 HD
ATOM     36  O   UNL A   1      34.347  32.158  28.946  1.00  0.00    -0.269 OA
BRANCH  34  37
ATOM     37  C   UNL A   1      35.936  30.443  28.730  1.00  0.00     0.039 A 
ATOM     38  C   UNL A   1      36.782  30.393  27.620  1.00  0.00     0.014 A 
ATOM     39  C   UNL A   1      36.374  29.990  29.975  1.00  0.00     0.014 A 
ATOM     40  C   UNL A   1      38.100  29.958  27.779  1.00  0.00     0.010 A 
ATOM     41  C   UNL A   1      37.708  29.647  30.150  1.00  0.00     0.010 A 
ATOM     42  C   UNL A   1      38.585  29.621  29.053  1.00  0.00    -0.014 A 
BRANCH  42  43
ATOM     43  C   UNL A   1      39.992  29.209  29.287  1.00  0.00     0.031 A 
ATOM     44  C   UNL A   1      40.986  30.229  29.771  1.00  0.00     0.074 A 
ATOM     45  C   UNL A   1      40.398  27.965  28.965  1.00  0.00     0.049 A 
ATOM     46  N   UNL A   1      42.287  30.138  29.864  1.00  0.00    -0.248 NA
ATOM     47  C   UNL A   1      40.445  31.541  30.170  1.00  0.00     0.031 C 
ATOM     48  C   UNL A   1      39.538  26.890  28.462  1.00  0.00     0.029 A 
ATOM     49  N   UNL A   1      41.649  27.401  28.990  1.00  0.00    -0.354 N 
ATOM     50  C   UNL A   1      42.721  31.388  30.292  1.00  0.00     0.074 A 
ATOM     51  C   UNL A   1      41.552  32.231  30.400  1.00  0.00     0.031 C 
ATOM     52  C   UNL A   1      40.285  25.796  28.241  1.00  0.00     0.029 A 
ATOM     53  C   UNL A   1      41.681  26.104  28.533  1.00  0.00     0.049 A 
ATOM     54  H   UNL A   1      42.450  27.880  29.307  1.00  0.00     0.167 HD
ATOM     55  C   UNL A   1      43.980  31.792  30.583  1.00  0.00     0.031 A 
ATOM     56  C   UNL A   1      42.719  25.263  28.350  1.00  0.00     0.031 A 
ATOM     57  C   UNL A   1      45.134  30.940  30.500  1.00  0.00     0.049 A 
ATOM     58  C   UNL A   1      44.111  25.736  28.678  1.00  0.00     0.074 A 
ATOM     59  C   UNL A   1      46.446  31.237  30.824  1.00  0.00     0.029 A 
ATOM     60  N   UNL A   1      45.115  29.623  30.069  1.00  0.00    -0.354 N 
ATOM     61  N   UNL A   1      44.499  26.908  29.120  1.00  0.00    -0.248 NA
ATOM     62  C   UNL A   1      45.204  24.771  28.488  1.00  0.00     0.031 C 
ATOM     63  C   UNL A   1      47.228  30.113  30.546  1.00  0.00     0.029 A 
ATOM     64  C   UNL A   1      46.394  29.097  30.105  1.00  0.00     0.049 A 
ATOM     65  H   UNL A   1      44.311  29.135  29.778  1.00  0.00     0.167 HD
ATOM     66  C   UNL A   1      45.875  26.808  29.299  1.00  0.00     0.074 A 
ATOM     67  C   UNL A   1      46.251  25.463  28.918  1.00  0.00     0.031 C 
ATOM     68  C   UNL A   1      46.746  27.747  29.745  1.00  0.00     0.031 A 
BRANCH  55  69
ATOM     69  C   UNL A   1      44.169  33.223  31.012  1.00  0.00    -0.014 A 
ATOM     70  C   UNL A   1      43.929  34.287  30.125  1.00  0.00     0.010 A 
ATOM     71  C   UNL A   1      44.564  33.509  32.332  1.00  0.00     0.010 A 
ATOM     72  C   UNL A   1      44.126  35.608  30.534  1.00  0.00     0.020 A 
ATOM     73  C   UNL A   1      44.732  34.831  32.755  1.00  0.00     0.020 A 
ATOM     74  C   UNL A   1      44.530  35.871  31.847  1.00  0.00     0.054 A 
BRANCH  74  75
ATOM     75  S   UNL A   1      44.758  37.597  32.356  1.00  0.00     0.124 S 
ATOM     76  O   UNL A   1      44.783  38.289  31.069  1.00  0.00    -0.237 OA
ATOM     77  O   UNL A   1      43.579  37.848  33.180  1.00  0.00    -0.237 OA
ATOM     78  O   UNL A   1      46.027  37.580  33.079  1.00  0.00    -0.744 OA
ENDBRANCH  74  75
ENDBRANCH  55  69
BRANCH  56  79
ATOM     79  C   UNL A   1      42.482  23.885  27.839  1.00  0.00    -0.014 A 
ATOM     80  C   UNL A   1      42.603  23.606  26.467  1.00  0.00     0.010 A 
ATOM     81  C   UNL A   1      42.146  22.841  28.721  1.00  0.00     0.010 A 
ATOM     82  C   UNL A   1      42.373  22.314  25.982  1.00  0.00     0.020 A 
ATOM     83  C   UNL A   1      41.942  21.543  28.244  1.00  0.00     0.020 A 
ATOM     84  C   UNL A   1      42.046  21.290  26.875  1.00  0.00     0.054 A 
BRANCH  84  85
ATOM     85  S   UNL A   1      41.795  19.613  26.227  1.00  0.00     0.124 S 
ATOM     86  O   UNL A   1      40.345  19.560  26.073  1.00  0.00    -0.237 OA
ATOM     87  O   UNL A   1      42.564  19.637  24.985  1.00  0.00    -0.237 OA
ATOM     88  O   UNL A   1      42.345  18.756  27.275  1.00  0.00    -0.744 OA
ENDBRANCH  84  85
ENDBRANCH  56  79
BRANCH  68  89
ATOM     89  C   UNL A   1      48.187  27.345  29.913  1.00  0.00    -0.014 A 
ATOM     90  C   UNL A   1      49.142  27.608  28.916  1.00  0.00     0.010 A 
ATOM     91  C   UNL A   1      48.603  26.786  31.135  1.00  0.00     0.010 A 
ATOM     92  C   UNL A   1      50.490  27.309  29.137  1.00  0.00     0.020 A 
ATOM     93  C   UNL A   1      49.952  26.510  31.369  1.00  0.00     0.020 A 
ATOM     94  C   UNL A   1      50.886  26.768  30.365  1.00  0.00     0.054 A 
BRANCH  94  95
ATOM     95  S   UNL A   1      52.651  26.466  30.657  1.00  0.00     0.124 S 
ATOM     96  O   UNL A   1      52.618  25.337  31.582  1.00  0.00    -0.237 OA
ATOM     97  O   UNL A   1      53.151  26.167  29.317  1.00  0.00    -0.237 OA
ATOM     98  O   UNL A   1      53.129  27.724  31.226  1.00  0.00    -0.744 OA
ENDBRANCH  94  95
ENDBRANCH  68  89
ENDBRANCH  42  43
ENDBRANCH  34  37
ENDBRANCH  32  33
ENDBRANCH   1  32
TORSDOF 18
ENDMDL
MODEL 3
REMARK VINA RESULT:     -10.9      6.961     13.855
REMARK SMILES CCOc1ccc(C(=O)N2CCC(C(=O)NCCCNC(=O)c3ccc(-c4c5nc(c(-c6ccc(S(=O)(=O)[O-])cc6)c6ccc([nH]6)c(-c6ccc(S(=O)(=O)[O-])cc6)c6nc(c(-c7ccc(S(=O)(=O)[O-])cc7)c7ccc4[nH]7)C=C6)C=C5)cc3)(c3ccccc3)CC2)cc1OC
REMARK SMILES IDX 18 1 17 2 16 3 14 4 15 5 13 7 8 8 9 9 10 10 11 11 90 12
REMARK SMILES IDX 12 13 89 14 7 15 4 16 5 17 92 18 6 19 91 20 3 21 2 22 1 23
REMARK SMILES IDX 93 24 94 25 83 26 84 27 88 28 85 29 87 30 86 31 19 32 20 33
REMARK SMILES IDX 21 34 22 36 23 37 24 38 82 39 25 40 81 41 26 42 27 43 28 44
REMARK SMILES IDX 75 45 29 46 80 47 74 48 76 49 30 50 79 51 73 52 72 53 31 55
REMARK SMILES IDX 61 56 42 57 60 58 43 59 46 60 59 61 77 62 44 63 45 64 58 66
REMARK SMILES IDX 78 67 47 68 32 69 33 70 41 71 34 72 40 73 35 74 36 75 37 76
REMARK SMILES IDX 38 77 39 78 62 79 63 80 71 81 64 82 70 83 65 84 66 85 67 86
REMARK SMILES IDX 68 87 69 88 48 89 49 90 57 91 50 92 56 93 51 94 52 95 53 96
REMARK SMILES IDX 54 97 55 98
REMARK H PARENT 16 6 20 35 76 54 46 65
REMARK Flexibility Score: inf
ROOT
ATOM      1  C   UNL A   1      44.134  36.718  32.275  1.00  0.00     0.042 C 
ENDROOT
BRANCH   1   2
ATOM      2  C   UNL A   1      43.288  35.797  33.142  1.00  0.00     0.117 C 
BRANCH   2   3
ATOM      3  N   UNL A   1      43.569  34.387  32.888  1.00  0.00    -0.355 N 
ATOM      4  C   UNL A   1      42.888  33.401  32.226  1.00  0.00     0.230 C 
ATOM      5  O   UNL A   1      43.381  32.281  32.373  1.00  0.00    -0.274 OA
ATOM      6  H   UNL A   1      44.422  34.083  33.272  1.00  0.00     0.163 HD
BRANCH   4   7
ATOM      7  C   UNL A   1      41.590  33.705  31.399  1.00  0.00     0.077 C 
ATOM      8  C   UNL A   1      37.520  32.473  32.340  1.00  0.00     0.253 C 
ATOM      9  O   UNL A   1      37.388  31.287  32.643  1.00  0.00    -0.269 OA
ATOM     10  N   UNL A   1      38.771  32.990  31.959  1.00  0.00    -0.339 N 
ATOM     11  C   UNL A   1      39.504  32.164  31.015  1.00  0.00     0.121 C 
ATOM     12  C   UNL A   1      39.195  34.375  32.138  1.00  0.00     0.121 C 
ATOM     13  C   UNL A   1      41.015  32.306  31.048  1.00  0.00     0.043 C 
ATOM     14  C   UNL A   1      40.688  34.576  32.320  1.00  0.00     0.043 C 
BRANCH   8  15
ATOM     15  C   UNL A   1      36.277  33.307  32.249  1.00  0.00     0.043 A 
ATOM     16  C   UNL A   1      33.808  34.675  32.123  1.00  0.00     0.161 A 
ATOM     17  C   UNL A   1      34.450  34.469  33.355  1.00  0.00     0.051 A 
ATOM     18  C   UNL A   1      34.410  34.229  30.951  1.00  0.00     0.161 A 
ATOM     19  C   UNL A   1      35.683  33.798  33.416  1.00  0.00     0.018 A 
ATOM     20  C   UNL A   1      35.589  33.488  31.050  1.00  0.00     0.064 A 
BRANCH  16  21
ATOM     21  O   UNL A   1      32.621  35.350  32.087  1.00  0.00    -0.490 OA
BRANCH  21  22
ATOM     22  C   UNL A   1      32.652  36.577  32.829  1.00  0.00     0.226 C 
ATOM     23  C   UNL A   1      33.546  37.561  32.090  1.00  0.00     0.049 C 
ENDBRANCH  21  22
ENDBRANCH  16  21
BRANCH  18  24
ATOM     24  O   UNL A   1      34.032  34.368  29.648  1.00  0.00    -0.493 OA
ATOM     25  C   UNL A   1      33.139  35.396  29.274  1.00  0.00     0.278 C 
ENDBRANCH  18  24
ENDBRANCH   8  15
BRANCH   7  26
ATOM     26  C   UNL A   1      41.783  34.513  30.063  1.00  0.00    -0.032 A 
ATOM     27  C   UNL A   1      40.728  34.948  29.244  1.00  0.00     0.005 A 
ATOM     28  C   UNL A   1      43.082  34.805  29.585  1.00  0.00     0.005 A 
ATOM     29  C   UNL A   1      40.953  35.641  28.044  1.00  0.00     0.000 A 
ATOM     30  C   UNL A   1      43.313  35.474  28.378  1.00  0.00     0.000 A 
ATOM     31  C   UNL A   1      42.245  35.898  27.606  1.00  0.00     0.000 A 
ENDBRANCH   7  26
ENDBRANCH   4   7
ENDBRANCH   2   3
ENDBRANCH   1   2
BRANCH   1  32
ATOM     32  C   UNL A   1      45.535  36.192  32.011  1.00  0.00     0.118 C 
BRANCH  32  33
ATOM     33  N   UNL A   1      46.318  37.083  31.166  1.00  0.00    -0.352 N 
ATOM     34  C   UNL A   1      47.110  36.776  30.080  1.00  0.00     0.251 C 
ATOM     35  H   UNL A   1      46.276  38.037  31.403  1.00  0.00     0.163 HD
ATOM     36  O   UNL A   1      47.847  37.618  29.596  1.00  0.00    -0.269 OA
BRANCH  34  37
ATOM     37  C   UNL A   1      47.068  35.404  29.529  1.00  0.00     0.039 A 
ATOM     38  C   UNL A   1      47.145  34.315  30.401  1.00  0.00     0.014 A 
ATOM     39  C   UNL A   1      46.914  35.202  28.157  1.00  0.00     0.014 A 
ATOM     40  C   UNL A   1      46.988  33.020  29.899  1.00  0.00     0.010 A 
ATOM     41  C   UNL A   1      46.665  33.925  27.674  1.00  0.00     0.010 A 
ATOM     42  C   UNL A   1      46.706  32.818  28.539  1.00  0.00    -0.014 A 
BRANCH  42  43
ATOM     43  C   UNL A   1      46.473  31.468  27.966  1.00  0.00     0.031 A 
ATOM     44  C   UNL A   1      45.082  30.895  27.978  1.00  0.00     0.074 A 
ATOM     45  C   UNL A   1      47.512  30.722  27.540  1.00  0.00     0.049 A 
ATOM     46  N   UNL A   1      44.686  29.679  27.704  1.00  0.00    -0.248 NA
ATOM     47  C   UNL A   1      43.997  31.802  28.390  1.00  0.00     0.031 C 
ATOM     48  C   UNL A   1      48.912  31.154  27.499  1.00  0.00     0.029 A 
ATOM     49  N   UNL A   1      47.552  29.429  27.080  1.00  0.00    -0.354 N 
ATOM     50  C   UNL A   1      43.318  29.666  27.948  1.00  0.00     0.074 A 
ATOM     51  C   UNL A   1      42.959  30.980  28.431  1.00  0.00     0.031 C 
ATOM     52  C   UNL A   1      49.668  30.149  27.028  1.00  0.00     0.029 A 
ATOM     53  C   UNL A   1      48.820  28.986  26.783  1.00  0.00     0.049 A 
ATOM     54  H   UNL A   1      46.748  28.871  26.973  1.00  0.00     0.167 HD
ATOM     55  C   UNL A   1      42.436  28.654  27.770  1.00  0.00     0.031 A 
ATOM     56  C   UNL A   1      49.254  27.776  26.379  1.00  0.00     0.031 A 
ATOM     57  C   UNL A   1      42.795  27.359  27.263  1.00  0.00     0.049 A 
ATOM     58  C   UNL A   1      48.256  26.665  26.192  1.00  0.00     0.074 A 
ATOM     59  C   UNL A   1      41.968  26.281  26.996  1.00  0.00     0.029 A 
ATOM     60  N   UNL A   1      44.085  26.966  26.940  1.00  0.00    -0.354 N 
ATOM     61  N   UNL A   1      46.959  26.681  26.389  1.00  0.00    -0.248 NA
ATOM     62  C   UNL A   1      48.777  25.373  25.722  1.00  0.00     0.031 C 
ATOM     63  C   UNL A   1      42.765  25.222  26.553  1.00  0.00     0.029 A 
ATOM     64  C   UNL A   1      44.079  25.659  26.488  1.00  0.00     0.049 A 
ATOM     65  H   UNL A   1      44.885  27.533  27.021  1.00  0.00     0.167 HD
ATOM     66  C   UNL A   1      46.505  25.417  26.029  1.00  0.00     0.074 A 
ATOM     67  C   UNL A   1      47.665  24.661  25.603  1.00  0.00     0.031 C 
ATOM     68  C   UNL A   1      45.241  24.930  26.045  1.00  0.00     0.031 A 
BRANCH  55  69
ATOM     69  C   UNL A   1      40.998  28.912  28.136  1.00  0.00    -0.014 A 
ATOM     70  C   UNL A   1      40.551  28.790  29.464  1.00  0.00     0.010 A 
ATOM     71  C   UNL A   1      40.086  29.312  27.142  1.00  0.00     0.010 A 
ATOM     72  C   UNL A   1      39.211  29.017  29.784  1.00  0.00     0.020 A 
ATOM     73  C   UNL A   1      38.750  29.570  27.463  1.00  0.00     0.020 A 
ATOM     74  C   UNL A   1      38.317  29.402  28.779  1.00  0.00     0.054 A 
BRANCH  74  75
ATOM     75  S   UNL A   1      36.587  29.709  29.226  1.00  0.00     0.124 S 
ATOM     76  O   UNL A   1      36.502  29.085  30.545  1.00  0.00    -0.237 OA
ATOM     77  O   UNL A   1      36.506  31.167  29.218  1.00  0.00    -0.237 OA
ATOM     78  O   UNL A   1      35.831  29.039  28.171  1.00  0.00    -0.744 OA
ENDBRANCH  74  75
ENDBRANCH  55  69
BRANCH  56  79
ATOM     79  C   UNL A   1      50.703  27.553  26.116  1.00  0.00    -0.014 A 
ATOM     80  C   UNL A   1      51.244  27.824  24.847  1.00  0.00     0.010 A 
ATOM     81  C   UNL A   1      51.553  27.083  27.134  1.00  0.00     0.010 A 
ATOM     82  C   UNL A   1      52.602  27.608  24.593  1.00  0.00     0.020 A 
ATOM     83  C   UNL A   1      52.917  26.892  26.892  1.00  0.00     0.020 A 
ATOM     84  C   UNL A   1      53.431  27.145  25.619  1.00  0.00     0.054 A 
BRANCH  84  85
ATOM     85  S   UNL A   1      55.199  26.915  25.278  1.00  0.00     0.124 S 
ATOM     86  O   UNL A   1      55.477  28.016  24.362  1.00  0.00    -0.237 OA
ATOM     87  O   UNL A   1      55.794  27.030  26.607  1.00  0.00    -0.237 OA
ATOM     88  O   UNL A   1      55.262  25.580  24.689  1.00  0.00    -0.744 OA
ENDBRANCH  84  85
ENDBRANCH  56  79
BRANCH  68  89
ATOM     89  C   UNL A   1      45.019  23.533  25.529  1.00  0.00    -0.014 A 
ATOM     90  C   UNL A   1      44.964  23.260  24.152  1.00  0.00     0.010 A 
ATOM     91  C   UNL A   1      44.965  22.466  26.446  1.00  0.00     0.010 A 
ATOM     92  C   UNL A   1      44.850  21.941  23.700  1.00  0.00     0.020 A 
ATOM     93  C   UNL A   1      44.878  21.147  25.997  1.00  0.00     0.020 A 
ATOM     94  C   UNL A   1      44.815  20.893  24.626  1.00  0.00     0.054 A 
BRANCH  94  95
ATOM     95  S   UNL A   1      44.751  19.187  24.013  1.00  0.00     0.124 S 
ATOM     96  O   UNL A   1      46.096  18.705  24.310  1.00  0.00    -0.237 OA
ATOM     97  O   UNL A   1      43.680  18.599  24.814  1.00  0.00    -0.237 OA
ATOM     98  O   UNL A   1      44.444  19.340  22.592  1.00  0.00    -0.744 OA
ENDBRANCH  94  95
ENDBRANCH  68  89
ENDBRANCH  42  43
ENDBRANCH  34  37
ENDBRANCH  32  33
ENDBRANCH   1  32
TORSDOF 18
ENDMDL
