MODEL 1
REMARK VINA RESULT:     -12.8      0.000      0.000
REMARK SMILES O=C(C[N@@H+]1CC[N@H+](Cc2cc(F)ccc2Cl)[C@H]2CS(=O)(=O)C[C@H]21)NCCCNC(=O)c1ccc(-c2c3nc(c(-c4ccc(S(=O)(=O)[O-])cc4)c4ccc([nH]4)c(-c4ccc(S(=O)(=O)[O-])cc4)c4nc(c(-c5ccc(S(=O)(=O)[O-])cc5)c5ccc2[nH]5)C=C4)C=C3)cc1
REMARK SMILES IDX 26 1 25 2 24 3 1 4 2 5 3 7 4 8 5 9 23 10 6 12 17 13 22 14
REMARK SMILES IDX 7 15 18 16 19 17 20 19 21 20 8 21 9 22 10 23 15 24 11 25
REMARK SMILES IDX 14 26 16 27 12 28 13 29 27 30 28 31 29 32 30 34 31 35 32 36
REMARK SMILES IDX 90 37 33 38 89 39 34 40 35 41 36 42 83 43 37 44 88 45 82 46
REMARK SMILES IDX 84 47 38 48 87 49 81 50 80 51 39 53 69 54 50 55 68 56 51 57
REMARK SMILES IDX 54 58 67 59 85 60 52 61 53 62 66 64 86 65 55 66 40 67 41 68
REMARK SMILES IDX 49 69 42 70 48 71 43 72 44 73 45 74 46 75 47 76 70 77 71 78
REMARK SMILES IDX 79 79 72 80 78 81 73 82 74 83 75 84 76 85 77 86 56 87 57 88
REMARK SMILES IDX 65 89 58 90 64 91 59 92 60 93 61 94 62 95 63 96
REMARK H PARENT 24 6 4 11 7 18 28 33 84 52 54 63
REMARK Flexibility Score: inf
ROOT
ATOM      1  C   UNL A   1      40.554  22.621  27.126  1.00  0.00     0.042 C 
ENDROOT
BRANCH   1   2
ATOM      2  C   UNL A   1      39.525  21.669  26.159  1.00  0.00     0.118 C 
BRANCH   2   3
ATOM      3  N   UNL A   1      37.710  22.035  25.185  1.00  0.00    -0.351 N 
ATOM      4  O   UNL A   1      35.778  20.574  25.037  1.00  0.00    -0.269 OA
ATOM      5  C   UNL A   1      36.392  21.599  24.742  1.00  0.00     0.275 C 
ATOM      6  H   UNL A   1      37.784  22.965  24.867  1.00  0.00     0.163 HD
BRANCH   5   7
ATOM      7  C   UNL A   1      35.752  22.558  23.678  1.00  0.00     0.364 C 
BRANCH   7   8
ATOM      8  N   UNL A   1      34.297  22.788  23.734  1.00  0.00    -0.314 N 
ATOM      9  C   UNL A   1      33.604  23.137  22.498  1.00  0.00     0.325 C 
ATOM     10  C   UNL A   1      33.717  23.349  24.952  1.00  0.00     0.259 C 
ATOM     11  H   UNL A   1      34.052  21.803  23.842  1.00  0.00     0.349 HD
ATOM     12  C   UNL A   1      32.748  24.435  22.543  1.00  0.00     0.325 C 
ATOM     13  C   UNL A   1      33.571  24.886  24.862  1.00  0.00     0.259 C 
ATOM     14  C   UNL A   1      32.317  22.812  25.278  1.00  0.00     0.208 C 
ATOM     15  N   UNL A   1      33.036  25.424  23.594  1.00  0.00    -0.318 N 
ATOM     16  C   UNL A   1      32.756  25.335  26.071  1.00  0.00     0.208 C 
ATOM     17  S   UNL A   1      31.634  24.004  26.417  1.00  0.00     0.162 S 
ATOM     18  H   UNL A   1      32.105  25.741  23.863  1.00  0.00     0.349 HD
ATOM     19  O   UNL A   1      31.885  23.538  27.767  1.00  0.00    -0.228 OA
ATOM     20  O   UNL A   1      30.305  24.373  25.975  1.00  0.00    -0.228 OA
BRANCH  15  21
ATOM     21  C   UNL A   1      33.726  26.630  23.112  1.00  0.00     0.301 C 
BRANCH  21  22
ATOM     22  C   UNL A   1      33.220  27.881  23.777  1.00  0.00     0.028 A 
ATOM     23  C   UNL A   1      34.153  28.591  25.174  1.00  0.00     0.050 A 
ATOM     24  C   UNL A   1      31.505  28.424  23.480  1.00  0.00     0.050 A 
ATOM     25  C   UNL A   1      33.330  29.761  26.287  1.00  0.00     0.123 A 
ATOM     26  C   UNL A   1      30.722  29.648  24.547  1.00  0.00     0.024 A 
ATOM     27  Cl  UNL A   1      30.618  27.835  22.123  1.00  0.00    -0.084 Cl
ATOM     28  F   UNL A   1      33.986  30.211  27.365  1.00  0.00    -0.207 F 
ATOM     29  C   UNL A   1      31.645  30.325  25.963  1.00  0.00     0.041 A 
ENDBRANCH  21  22
ENDBRANCH  15  21
ENDBRANCH   7   8
ENDBRANCH   5   7
ENDBRANCH   2   3
ENDBRANCH   1   2
BRANCH   1  30
ATOM     30  C   UNL A   1      41.854  23.247  26.615  1.00  0.00     0.118 C 
BRANCH  30  31
ATOM     31  N   UNL A   1      41.717  24.330  25.647  1.00  0.00    -0.352 N 
ATOM     32  C   UNL A   1      41.758  25.683  25.906  1.00  0.00     0.251 C 
ATOM     33  H   UNL A   1      41.582  24.066  24.709  1.00  0.00     0.163 HD
ATOM     34  O   UNL A   1      41.744  26.506  25.000  1.00  0.00    -0.269 OA
BRANCH  32  35
ATOM     35  C   UNL A   1      41.724  26.092  27.319  1.00  0.00     0.039 A 
ATOM     36  C   UNL A   1      42.787  26.862  27.793  1.00  0.00     0.014 A 
ATOM     37  C   UNL A   1      40.551  25.933  28.060  1.00  0.00     0.014 A 
ATOM     38  C   UNL A   1      42.632  27.568  28.982  1.00  0.00     0.010 A 
ATOM     39  C   UNL A   1      40.374  26.699  29.205  1.00  0.00     0.010 A 
ATOM     40  C   UNL A   1      41.402  27.542  29.660  1.00  0.00    -0.014 A 
BRANCH  40  41
ATOM     41  C   UNL A   1      41.161  28.425  30.826  1.00  0.00     0.031 A 
ATOM     42  C   UNL A   1      40.063  29.445  30.774  1.00  0.00     0.074 A 
ATOM     43  C   UNL A   1      41.976  28.350  31.898  1.00  0.00     0.049 A 
ATOM     44  N   UNL A   1      39.728  30.340  31.666  1.00  0.00    -0.248 NA
ATOM     45  C   UNL A   1      39.251  29.484  29.546  1.00  0.00     0.031 C 
ATOM     46  C   UNL A   1      43.109  27.430  32.043  1.00  0.00     0.029 A 
ATOM     47  N   UNL A   1      41.981  29.062  33.072  1.00  0.00    -0.354 N 
ATOM     48  C   UNL A   1      38.678  31.054  31.104  1.00  0.00     0.074 A 
ATOM     49  C   UNL A   1      38.469  30.528  29.774  1.00  0.00     0.031 C 
ATOM     50  C   UNL A   1      43.677  27.615  33.247  1.00  0.00     0.029 A 
ATOM     51  C   UNL A   1      42.978  28.689  33.943  1.00  0.00     0.049 A 
ATOM     52  H   UNL A   1      41.331  29.774  33.272  1.00  0.00     0.167 HD
ATOM     53  C   UNL A   1      37.939  32.044  31.656  1.00  0.00     0.031 A 
ATOM     54  C   UNL A   1      43.296  29.162  35.165  1.00  0.00     0.031 A 
ATOM     55  C   UNL A   1      38.149  32.557  32.982  1.00  0.00     0.049 A 
ATOM     56  C   UNL A   1      42.467  30.273  35.751  1.00  0.00     0.074 A 
ATOM     57  C   UNL A   1      37.420  33.520  33.657  1.00  0.00     0.029 A 
ATOM     58  N   UNL A   1      39.164  32.151  33.835  1.00  0.00    -0.354 N 
ATOM     59  N   UNL A   1      41.429  30.887  35.233  1.00  0.00    -0.248 NA
ATOM     60  C   UNL A   1      42.848  30.751  37.087  1.00  0.00     0.031 C 
ATOM     61  C   UNL A   1      38.029  33.735  34.898  1.00  0.00     0.029 A 
ATOM     62  C   UNL A   1      39.101  32.864  35.020  1.00  0.00     0.049 A 
ATOM     63  H   UNL A   1      39.832  31.457  33.630  1.00  0.00     0.167 HD
ATOM     64  C   UNL A   1      41.020  31.809  36.189  1.00  0.00     0.074 A 
ATOM     65  C   UNL A   1      41.909  31.658  37.323  1.00  0.00     0.031 C 
ATOM     66  C   UNL A   1      40.001  32.703  36.133  1.00  0.00     0.031 A 
BRANCH  53  67
ATOM     67  C   UNL A   1      36.840  32.638  30.815  1.00  0.00    -0.014 A 
ATOM     68  C   UNL A   1      37.086  33.735  29.970  1.00  0.00     0.010 A 
ATOM     69  C   UNL A   1      35.551  32.079  30.855  1.00  0.00     0.010 A 
ATOM     70  C   UNL A   1      36.052  34.291  29.214  1.00  0.00     0.020 A 
ATOM     71  C   UNL A   1      34.520  32.613  30.076  1.00  0.00     0.020 A 
ATOM     72  C   UNL A   1      34.774  33.728  29.274  1.00  0.00     0.054 A 
BRANCH  72  73
ATOM     73  S   UNL A   1      33.456  34.461  28.267  1.00  0.00     0.124 S 
ATOM     74  O   UNL A   1      34.217  35.276  27.323  1.00  0.00    -0.237 OA
ATOM     75  O   UNL A   1      32.800  33.288  27.697  1.00  0.00    -0.237 OA
ATOM     76  O   UNL A   1      32.657  35.210  29.234  1.00  0.00    -0.744 OA
ENDBRANCH  72  73
ENDBRANCH  53  67
BRANCH  54  77
ATOM     77  C   UNL A   1      44.444  28.584  35.918  1.00  0.00    -0.014 A 
ATOM     78  C   UNL A   1      45.735  29.122  35.775  1.00  0.00     0.010 A 
ATOM     79  C   UNL A   1      44.250  27.496  36.788  1.00  0.00     0.010 A 
ATOM     80  C   UNL A   1      46.814  28.572  36.475  1.00  0.00     0.020 A 
ATOM     81  C   UNL A   1      45.321  26.962  37.512  1.00  0.00     0.020 A 
ATOM     82  C   UNL A   1      46.599  27.497  37.342  1.00  0.00     0.054 A 
BRANCH  82  83
ATOM     83  S   UNL A   1      48.003  26.835  38.281  1.00  0.00     0.124 S 
ATOM     84  O   UNL A   1      48.366  27.968  39.126  1.00  0.00    -0.237 OA
ATOM     85  O   UNL A   1      47.409  25.693  38.971  1.00  0.00    -0.237 OA
ATOM     86  O   UNL A   1      48.974  26.488  37.244  1.00  0.00    -0.744 OA
ENDBRANCH  82  83
ENDBRANCH  54  77
BRANCH  66  87
ATOM     87  C   UNL A   1      39.783  33.577  37.339  1.00  0.00    -0.014 A 
ATOM     88  C   UNL A   1      40.314  34.877  37.400  1.00  0.00     0.010 A 
ATOM     89  C   UNL A   1      38.984  33.111  38.400  1.00  0.00     0.010 A 
ATOM     90  C   UNL A   1      40.074  35.686  38.512  1.00  0.00     0.020 A 
ATOM     91  C   UNL A   1      38.717  33.927  39.500  1.00  0.00     0.020 A 
ATOM     92  C   UNL A   1      39.276  35.206  39.555  1.00  0.00     0.054 A 
BRANCH  92  93
ATOM     93  S   UNL A   1      38.938  36.295  40.966  1.00  0.00     0.124 S 
ATOM     94  O   UNL A   1      40.207  36.259  41.688  1.00  0.00    -0.237 OA
ATOM     95  O   UNL A   1      38.618  37.565  40.321  1.00  0.00    -0.237 OA
ATOM     96  O   UNL A   1      37.816  35.647  41.643  1.00  0.00    -0.744 OA
ENDBRANCH  92  93
ENDBRANCH  66  87
ENDBRANCH  40  41
ENDBRANCH  32  35
ENDBRANCH  30  31
ENDBRANCH   1  30
TORSDOF 16
ENDMDL
MODEL 2
REMARK VINA RESULT:     -12.4      6.223     11.733
REMARK SMILES O=C(C[N@@H+]1CC[N@H+](Cc2cc(F)ccc2Cl)[C@H]2CS(=O)(=O)C[C@H]21)NCCCNC(=O)c1ccc(-c2c3nc(c(-c4ccc(S(=O)(=O)[O-])cc4)c4ccc([nH]4)c(-c4ccc(S(=O)(=O)[O-])cc4)c4nc(c(-c5ccc(S(=O)(=O)[O-])cc5)c5ccc2[nH]5)C=C4)C=C3)cc1
REMARK SMILES IDX 26 1 25 2 24 3 1 4 2 5 3 7 4 8 5 9 23 10 6 12 17 13 22 14
REMARK SMILES IDX 7 15 18 16 19 17 20 19 21 20 8 21 9 22 10 23 15 24 11 25
REMARK SMILES IDX 14 26 16 27 12 28 13 29 27 30 28 31 29 32 30 34 31 35 32 36
REMARK SMILES IDX 90 37 33 38 89 39 34 40 35 41 36 42 83 43 37 44 88 45 82 46
REMARK SMILES IDX 84 47 38 48 87 49 81 50 80 51 39 53 69 54 50 55 68 56 51 57
REMARK SMILES IDX 54 58 67 59 85 60 52 61 53 62 66 64 86 65 55 66 40 67 41 68
REMARK SMILES IDX 49 69 42 70 48 71 43 72 44 73 45 74 46 75 47 76 70 77 71 78
REMARK SMILES IDX 79 79 72 80 78 81 73 82 74 83 75 84 76 85 77 86 56 87 57 88
REMARK SMILES IDX 65 89 58 90 64 91 59 92 60 93 61 94 62 95 63 96
REMARK H PARENT 24 6 4 11 7 18 28 33 84 52 54 63
REMARK Flexibility Score: inf
ROOT
ATOM      1  C   UNL A   1      36.851  29.563  28.682  1.00  0.00     0.042 C 
ENDROOT
BRANCH   1   2
ATOM      2  C   UNL A   1      35.457  30.127  27.881  1.00  0.00     0.118 C 
BRANCH   2   3
ATOM      3  N   UNL A   1      33.686  29.212  27.247  1.00  0.00    -0.351 N 
ATOM      4  O   UNL A   1      31.714  30.274  26.312  1.00  0.00    -0.269 OA
ATOM      5  C   UNL A   1      32.322  29.293  26.739  1.00  0.00     0.275 C 
ATOM      6  H   UNL A   1      33.861  28.247  27.338  1.00  0.00     0.163 HD
BRANCH   5   7
ATOM      7  C   UNL A   1      31.541  27.938  26.858  1.00  0.00     0.364 C 
BRANCH   7   8
ATOM      8  N   UNL A   1      31.198  27.220  25.616  1.00  0.00    -0.314 N 
ATOM      9  C   UNL A   1      30.203  26.156  25.685  1.00  0.00     0.325 C 
ATOM     10  C   UNL A   1      32.230  27.043  24.596  1.00  0.00     0.259 C 
ATOM     11  H   UNL A   1      30.660  27.987  25.212  1.00  0.00     0.349 HD
ATOM     12  C   UNL A   1      30.642  24.776  25.115  1.00  0.00     0.325 C 
ATOM     13  C   UNL A   1      32.945  25.679  24.736  1.00  0.00     0.259 C 
ATOM     14  C   UNL A   1      31.696  27.092  23.158  1.00  0.00     0.208 C 
ATOM     15  N   UNL A   1      32.082  24.504  24.982  1.00  0.00    -0.318 N 
ATOM     16  C   UNL A   1      33.825  25.501  23.503  1.00  0.00     0.208 C 
ATOM     17  S   UNL A   1      32.973  26.321  22.180  1.00  0.00     0.162 S 
ATOM     18  H   UNL A   1      32.134  24.001  24.096  1.00  0.00     0.349 HD
ATOM     19  O   UNL A   1      33.838  27.363  21.659  1.00  0.00    -0.228 OA
ATOM     20  O   UNL A   1      32.371  25.330  21.312  1.00  0.00    -0.228 OA
BRANCH  15  21
ATOM     21  C   UNL A   1      32.612  23.568  25.985  1.00  0.00     0.301 C 
BRANCH  21  22
ATOM     22  C   UNL A   1      33.210  22.338  25.357  1.00  0.00     0.028 A 
ATOM     23  C   UNL A   1      32.142  20.898  25.020  1.00  0.00     0.050 A 
ATOM     24  C   UNL A   1      35.021  22.133  25.335  1.00  0.00     0.050 A 
ATOM     25  C   UNL A   1      32.903  19.274  24.748  1.00  0.00     0.123 A 
ATOM     26  C   UNL A   1      35.769  20.530  24.985  1.00  0.00     0.024 A 
ATOM     27  Cl  UNL A   1      36.063  23.487  25.570  1.00  0.00    -0.084 Cl
ATOM     28  F   UNL A   1      32.117  18.201  24.592  1.00  0.00    -0.207 F 
ATOM     29  C   UNL A   1      34.698  19.088  24.686  1.00  0.00     0.041 A 
ENDBRANCH  21  22
ENDBRANCH  15  21
ENDBRANCH   7   8
ENDBRANCH   5   7
ENDBRANCH   2   3
ENDBRANCH   1   2
BRANCH   1  30
ATOM     30  C   UNL A   1      36.855  29.084  30.135  1.00  0.00     0.118 C 
BRANCH  30  31
ATOM     31  N   UNL A   1      36.473  30.065  31.145  1.00  0.00    -0.352 N 
ATOM     32  C   UNL A   1      37.264  31.061  31.675  1.00  0.00     0.251 C 
ATOM     33  H   UNL A   1      35.550  30.010  31.484  1.00  0.00     0.163 HD
ATOM     34  O   UNL A   1      36.806  31.901  32.438  1.00  0.00    -0.269 OA
BRANCH  32  35
ATOM     35  C   UNL A   1      38.700  31.010  31.356  1.00  0.00     0.039 A 
ATOM     36  C   UNL A   1      39.502  30.166  32.125  1.00  0.00     0.014 A 
ATOM     37  C   UNL A   1      39.169  31.581  30.171  1.00  0.00     0.014 A 
ATOM     38  C   UNL A   1      40.758  29.806  31.646  1.00  0.00     0.010 A 
ATOM     39  C   UNL A   1      40.391  31.160  29.662  1.00  0.00     0.010 A 
ATOM     40  C   UNL A   1      41.182  30.249  30.383  1.00  0.00    -0.014 A 
BRANCH  40  41
ATOM     41  C   UNL A   1      42.435  29.733  29.781  1.00  0.00     0.031 A 
ATOM     42  C   UNL A   1      43.631  30.632  29.665  1.00  0.00     0.074 A 
ATOM     43  C   UNL A   1      42.467  28.481  29.280  1.00  0.00     0.049 A 
ATOM     44  N   UNL A   1      44.796  30.384  29.126  1.00  0.00    -0.248 NA
ATOM     45  C   UNL A   1      43.490  31.996  30.200  1.00  0.00     0.031 C 
ATOM     46  C   UNL A   1      41.350  27.531  29.292  1.00  0.00     0.029 A 
ATOM     47  N   UNL A   1      43.478  27.790  28.660  1.00  0.00    -0.354 N 
ATOM     48  C   UNL A   1      45.521  31.563  29.245  1.00  0.00     0.074 A 
ATOM     49  C   UNL A   1      44.647  32.540  29.855  1.00  0.00     0.031 C 
ATOM     50  C   UNL A   1      41.748  26.375  28.735  1.00  0.00     0.029 A 
ATOM     51  C   UNL A   1      43.130  26.511  28.291  1.00  0.00     0.049 A 
ATOM     52  H   UNL A   1      44.370  28.173  28.495  1.00  0.00     0.167 HD
ATOM     53  C   UNL A   1      46.807  31.802  28.899  1.00  0.00     0.031 A 
ATOM     54  C   UNL A   1      43.844  25.557  27.661  1.00  0.00     0.031 A 
ATOM     55  C   UNL A   1      47.671  30.822  28.300  1.00  0.00     0.049 A 
ATOM     56  C   UNL A   1      45.268  25.852  27.274  1.00  0.00     0.074 A 
ATOM     57  C   UNL A   1      49.008  30.945  27.963  1.00  0.00     0.029 A 
ATOM     58  N   UNL A   1      47.285  29.538  27.947  1.00  0.00    -0.354 N 
ATOM     59  N   UNL A   1      45.961  26.950  27.463  1.00  0.00    -0.248 NA
ATOM     60  C   UNL A   1      46.008  24.778  26.597  1.00  0.00     0.031 C 
ATOM     61  C   UNL A   1      49.414  29.753  27.355  1.00  0.00     0.029 A 
ATOM     62  C   UNL A   1      48.348  28.867  27.367  1.00  0.00     0.049 A 
ATOM     63  H   UNL A   1      46.387  29.159  28.087  1.00  0.00     0.167 HD
ATOM     64  C   UNL A   1      47.225  26.693  26.946  1.00  0.00     0.074 A 
ATOM     65  C   UNL A   1      47.206  25.329  26.456  1.00  0.00     0.031 C 
ATOM     66  C   UNL A   1      48.305  27.511  26.880  1.00  0.00     0.031 A 
BRANCH  53  67
ATOM     67  C   UNL A   1      47.347  33.183  29.158  1.00  0.00    -0.014 A 
ATOM     68  C   UNL A   1      47.976  33.500  30.376  1.00  0.00     0.010 A 
ATOM     69  C   UNL A   1      47.243  34.171  28.163  1.00  0.00     0.010 A 
ATOM     70  C   UNL A   1      48.451  34.792  30.611  1.00  0.00     0.020 A 
ATOM     71  C   UNL A   1      47.745  35.458  28.383  1.00  0.00     0.020 A 
ATOM     72  C   UNL A   1      48.329  35.764  29.614  1.00  0.00     0.054 A 
BRANCH  72  73
ATOM     73  S   UNL A   1      48.971  37.428  29.943  1.00  0.00     0.124 S 
ATOM     74  O   UNL A   1      50.226  37.418  29.195  1.00  0.00    -0.237 OA
ATOM     75  O   UNL A   1      47.923  38.287  29.400  1.00  0.00    -0.237 OA
ATOM     76  O   UNL A   1      49.113  37.464  31.397  1.00  0.00    -0.744 OA
ENDBRANCH  72  73
ENDBRANCH  53  67
BRANCH  54  77
ATOM     77  C   UNL A   1      43.229  24.233  27.365  1.00  0.00    -0.014 A 
ATOM     78  C   UNL A   1      43.124  23.254  28.370  1.00  0.00     0.010 A 
ATOM     79  C   UNL A   1      42.738  23.945  26.079  1.00  0.00     0.010 A 
ATOM     80  C   UNL A   1      42.554  22.008  28.090  1.00  0.00     0.020 A 
ATOM     81  C   UNL A   1      42.142  22.711  25.801  1.00  0.00     0.020 A 
ATOM     82  C   UNL A   1      42.064  21.745  26.807  1.00  0.00     0.054 A 
BRANCH  82  83
ATOM     83  S   UNL A   1      41.280  20.142  26.480  1.00  0.00     0.124 S 
ATOM     84  O   UNL A   1      41.418  19.468  27.767  1.00  0.00    -0.237 OA
ATOM     85  O   UNL A   1      39.921  20.526  26.107  1.00  0.00    -0.237 OA
ATOM     86  O   UNL A   1      42.082  19.586  25.391  1.00  0.00    -0.744 OA
ENDBRANCH  82  83
ENDBRANCH  54  77
BRANCH  66  87
ATOM     87  C   UNL A   1      49.561  26.949  26.269  1.00  0.00    -0.014 A 
ATOM     88  C   UNL A   1      49.902  27.220  24.933  1.00  0.00     0.010 A 
ATOM     89  C   UNL A   1      50.441  26.191  27.063  1.00  0.00     0.010 A 
ATOM     90  C   UNL A   1      51.088  26.718  24.392  1.00  0.00     0.020 A 
ATOM     91  C   UNL A   1      51.641  25.712  26.535  1.00  0.00     0.020 A 
ATOM     92  C   UNL A   1      51.951  25.968  25.198  1.00  0.00     0.054 A 
BRANCH  92  93
ATOM     93  S   UNL A   1      53.508  25.369  24.486  1.00  0.00     0.124 S 
ATOM     94  O   UNL A   1      53.326  25.663  23.067  1.00  0.00    -0.237 OA
ATOM     95  O   UNL A   1      54.508  26.184  25.173  1.00  0.00    -0.237 OA
ATOM     96  O   UNL A   1      53.525  23.950  24.833  1.00  0.00    -0.744 OA
ENDBRANCH  92  93
ENDBRANCH  66  87
ENDBRANCH  40  41
ENDBRANCH  32  35
ENDBRANCH  30  31
ENDBRANCH   1  30
TORSDOF 16
ENDMDL
MODEL 3
REMARK VINA RESULT:     -12.3      2.992      9.296
REMARK SMILES O=C(C[N@@H+]1CC[N@H+](Cc2cc(F)ccc2Cl)[C@H]2CS(=O)(=O)C[C@H]21)NCCCNC(=O)c1ccc(-c2c3nc(c(-c4ccc(S(=O)(=O)[O-])cc4)c4ccc([nH]4)c(-c4ccc(S(=O)(=O)[O-])cc4)c4nc(c(-c5ccc(S(=O)(=O)[O-])cc5)c5ccc2[nH]5)C=C4)C=C3)cc1
REMARK SMILES IDX 26 1 25 2 24 3 1 4 2 5 3 7 4 8 5 9 23 10 6 12 17 13 22 14
REMARK SMILES IDX 7 15 18 16 19 17 20 19 21 20 8 21 9 22 10 23 15 24 11 25
REMARK SMILES IDX 14 26 16 27 12 28 13 29 27 30 28 31 29 32 30 34 31 35 32 36
REMARK SMILES IDX 90 37 33 38 89 39 34 40 35 41 36 42 83 43 37 44 88 45 82 46
REMARK SMILES IDX 84 47 38 48 87 49 81 50 80 51 39 53 69 54 50 55 68 56 51 57
REMARK SMILES IDX 54 58 67 59 85 60 52 61 53 62 66 64 86 65 55 66 40 67 41 68
REMARK SMILES IDX 49 69 42 70 48 71 43 72 44 73 45 74 46 75 47 76 70 77 71 78
REMARK SMILES IDX 79 79 72 80 78 81 73 82 74 83 75 84 76 85 77 86 56 87 57 88
REMARK SMILES IDX 65 89 58 90 64 91 59 92 60 93 61 94 62 95 63 96
REMARK H PARENT 24 6 4 11 7 18 28 33 84 52 54 63
REMARK Flexibility Score: inf
ROOT
ATOM      1  C   UNL A   1      35.321  31.992  28.568  1.00  0.00     0.042 C 
ENDROOT
BRANCH   1   2
ATOM      2  C   UNL A   1      35.138  30.565  27.655  1.00  0.00     0.118 C 
BRANCH   2   3
ATOM      3  N   UNL A   1      33.480  29.477  26.989  1.00  0.00    -0.351 N 
ATOM      4  O   UNL A   1      31.452  30.331  25.965  1.00  0.00    -0.269 OA
ATOM      5  C   UNL A   1      32.133  29.420  26.436  1.00  0.00     0.275 C 
ATOM      6  H   UNL A   1      33.739  28.535  27.110  1.00  0.00     0.163 HD
BRANCH   5   7
ATOM      7  C   UNL A   1      31.475  28.002  26.565  1.00  0.00     0.364 C 
BRANCH   7   8
ATOM      8  N   UNL A   1      31.181  27.256  25.327  1.00  0.00    -0.314 N 
ATOM      9  C   UNL A   1      30.191  26.186  25.384  1.00  0.00     0.325 C 
ATOM     10  C   UNL A   1      32.248  27.066  24.348  1.00  0.00     0.259 C 
ATOM     11  H   UNL A   1      30.652  28.010  24.888  1.00  0.00     0.349 HD
ATOM     12  C   UNL A   1      30.660  24.798  24.859  1.00  0.00     0.325 C 
ATOM     13  C   UNL A   1      32.968  25.711  24.541  1.00  0.00     0.259 C 
ATOM     14  C   UNL A   1      31.764  27.081  22.891  1.00  0.00     0.208 C 
ATOM     15  N   UNL A   1      32.105  24.535  24.782  1.00  0.00    -0.318 N 
ATOM     16  C   UNL A   1      33.892  25.514  23.342  1.00  0.00     0.208 C 
ATOM     17  S   UNL A   1      33.081  26.300  21.974  1.00  0.00     0.162 S 
ATOM     18  H   UNL A   1      32.191  24.014  23.909  1.00  0.00     0.349 HD
ATOM     19  O   UNL A   1      33.956  27.337  21.461  1.00  0.00    -0.228 OA
ATOM     20  O   UNL A   1      32.516  25.286  21.107  1.00  0.00    -0.228 OA
BRANCH  15  21
ATOM     21  C   UNL A   1      32.606  23.623  25.822  1.00  0.00     0.301 C 
BRANCH  21  22
ATOM     22  C   UNL A   1      33.193  22.364  25.243  1.00  0.00     0.028 A 
ATOM     23  C   UNL A   1      32.109  20.927  24.949  1.00  0.00     0.050 A 
ATOM     24  C   UNL A   1      35.002  22.136  25.241  1.00  0.00     0.050 A 
ATOM     25  C   UNL A   1      32.850  19.285  24.741  1.00  0.00     0.123 A 
ATOM     26  C   UNL A   1      35.731  20.512  24.954  1.00  0.00     0.024 A 
ATOM     27  Cl  UNL A   1      36.060  23.484  25.436  1.00  0.00    -0.084 Cl
ATOM     28  F   UNL A   1      32.052  18.218  24.617  1.00  0.00    -0.207 F 
ATOM     29  C   UNL A   1      34.643  19.074  24.699  1.00  0.00     0.041 A 
ENDBRANCH  21  22
ENDBRANCH  15  21
ENDBRANCH   7   8
ENDBRANCH   5   7
ENDBRANCH   2   3
ENDBRANCH   1   2
BRANCH   1  30
ATOM     30  C   UNL A   1      34.922  33.378  28.056  1.00  0.00     0.118 C 
BRANCH  30  31
ATOM     31  N   UNL A   1      33.709  33.957  28.621  1.00  0.00    -0.352 N 
ATOM     32  C   UNL A   1      33.529  34.410  29.910  1.00  0.00     0.251 C 
ATOM     33  H   UNL A   1      32.935  34.032  28.017  1.00  0.00     0.163 HD
ATOM     34  O   UNL A   1      32.500  34.981  30.247  1.00  0.00    -0.269 OA
BRANCH  32  35
ATOM     35  C   UNL A   1      34.588  34.092  30.881  1.00  0.00     0.039 A 
ATOM     36  C   UNL A   1      34.492  32.880  31.566  1.00  0.00     0.014 A 
ATOM     37  C   UNL A   1      35.759  34.853  30.906  1.00  0.00     0.014 A 
ATOM     38  C   UNL A   1      35.621  32.372  32.201  1.00  0.00     0.010 A 
ATOM     39  C   UNL A   1      36.901  34.306  31.477  1.00  0.00     0.010 A 
ATOM     40  C   UNL A   1      36.847  33.050  32.106  1.00  0.00    -0.014 A 
BRANCH  40  41
ATOM     41  C   UNL A   1      38.094  32.437  32.622  1.00  0.00     0.031 A 
ATOM     42  C   UNL A   1      38.546  32.733  34.021  1.00  0.00     0.074 A 
ATOM     43  C   UNL A   1      38.848  31.672  31.805  1.00  0.00     0.049 A 
ATOM     44  N   UNL A   1      39.629  32.336  34.636  1.00  0.00    -0.248 NA
ATOM     45  C   UNL A   1      37.683  33.613  34.825  1.00  0.00     0.031 C 
ATOM     46  C   UNL A   1      38.533  31.353  30.409  1.00  0.00     0.029 A 
ATOM     47  N   UNL A   1      40.036  31.023  32.030  1.00  0.00    -0.354 N 
ATOM     48  C   UNL A   1      39.583  32.927  35.892  1.00  0.00     0.074 A 
ATOM     49  C   UNL A   1      38.397  33.753  35.931  1.00  0.00     0.031 C 
ATOM     50  C   UNL A   1      39.488  30.548  29.914  1.00  0.00     0.029 A 
ATOM     51  C   UNL A   1      40.501  30.324  30.940  1.00  0.00     0.049 A 
ATOM     52  H   UNL A   1      40.513  31.055  32.891  1.00  0.00     0.167 HD
ATOM     53  C   UNL A   1      40.441  32.776  36.928  1.00  0.00     0.031 A 
ATOM     54  C   UNL A   1      41.620  29.588  30.783  1.00  0.00     0.031 A 
ATOM     55  C   UNL A   1      41.614  31.947  36.884  1.00  0.00     0.049 A 
ATOM     56  C   UNL A   1      42.564  29.447  31.946  1.00  0.00     0.074 A 
ATOM     57  C   UNL A   1      42.518  31.681  37.897  1.00  0.00     0.029 A 
ATOM     58  N   UNL A   1      42.048  31.251  35.766  1.00  0.00    -0.354 N 
ATOM     59  N   UNL A   1      42.465  29.954  33.153  1.00  0.00    -0.248 NA
ATOM     60  C   UNL A   1      43.766  28.630  31.730  1.00  0.00     0.031 C 
ATOM     61  C   UNL A   1      43.529  30.867  37.375  1.00  0.00     0.029 A 
ATOM     62  C   UNL A   1      43.223  30.579  36.053  1.00  0.00     0.049 A 
ATOM     63  H   UNL A   1      41.589  31.237  34.895  1.00  0.00     0.167 HD
ATOM     64  C   UNL A   1      43.581  29.500  33.846  1.00  0.00     0.074 A 
ATOM     65  C   UNL A   1      44.329  28.662  32.930  1.00  0.00     0.031 C 
ATOM     66  C   UNL A   1      43.955  29.756  35.124  1.00  0.00     0.031 A 
BRANCH  53  67
ATOM     67  C   UNL A   1      40.136  33.533  38.193  1.00  0.00    -0.014 A 
ATOM     68  C   UNL A   1      39.203  33.044  39.125  1.00  0.00     0.010 A 
ATOM     69  C   UNL A   1      40.807  34.739  38.464  1.00  0.00     0.010 A 
ATOM     70  C   UNL A   1      38.913  33.768  40.283  1.00  0.00     0.020 A 
ATOM     71  C   UNL A   1      40.542  35.452  39.637  1.00  0.00     0.020 A 
ATOM     72  C   UNL A   1      39.582  34.971  40.530  1.00  0.00     0.054 A 
BRANCH  72  73
ATOM     73  S   UNL A   1      39.196  35.881  42.050  1.00  0.00     0.124 S 
ATOM     74  O   UNL A   1      40.266  35.441  42.943  1.00  0.00    -0.237 OA
ATOM     75  O   UNL A   1      39.272  37.272  41.618  1.00  0.00    -0.237 OA
ATOM     76  O   UNL A   1      37.858  35.412  42.405  1.00  0.00    -0.744 OA
ENDBRANCH  72  73
ENDBRANCH  53  67
BRANCH  54  77
ATOM     77  C   UNL A   1      41.904  28.923  29.481  1.00  0.00    -0.014 A 
ATOM     78  C   UNL A   1      41.454  27.614  29.235  1.00  0.00     0.010 A 
ATOM     79  C   UNL A   1      42.619  29.599  28.476  1.00  0.00     0.010 A 
ATOM     80  C   UNL A   1      41.728  26.986  28.015  1.00  0.00     0.020 A 
ATOM     81  C   UNL A   1      42.871  28.986  27.244  1.00  0.00     0.020 A 
ATOM     82  C   UNL A   1      42.433  27.678  27.027  1.00  0.00     0.054 A 
BRANCH  82  83
ATOM     83  S   UNL A   1      42.731  26.865  25.432  1.00  0.00     0.124 S 
ATOM     84  O   UNL A   1      44.070  26.315  25.617  1.00  0.00    -0.237 OA
ATOM     85  O   UNL A   1      41.647  25.888  25.370  1.00  0.00    -0.237 OA
ATOM     86  O   UNL A   1      42.629  27.958  24.467  1.00  0.00    -0.744 OA
ENDBRANCH  82  83
ENDBRANCH  54  77
BRANCH  66  87
ATOM     87  C   UNL A   1      45.223  29.109  35.614  1.00  0.00    -0.014 A 
ATOM     88  C   UNL A   1      46.456  29.779  35.540  1.00  0.00     0.010 A 
ATOM     89  C   UNL A   1      45.168  27.836  36.212  1.00  0.00     0.010 A 
ATOM     90  C   UNL A   1      47.617  29.177  36.030  1.00  0.00     0.020 A 
ATOM     91  C   UNL A   1      46.321  27.244  36.730  1.00  0.00     0.020 A 
ATOM     92  C   UNL A   1      47.542  27.914  36.623  1.00  0.00     0.054 A 
BRANCH  92  93
ATOM     93  S   UNL A   1      49.055  27.175  37.296  1.00  0.00     0.124 S 
ATOM     94  O   UNL A   1      48.552  25.937  37.887  1.00  0.00    -0.237 OA
ATOM     95  O   UNL A   1      49.888  27.011  36.107  1.00  0.00    -0.237 OA
ATOM     96  O   UNL A   1      49.533  28.172  38.251  1.00  0.00    -0.744 OA
ENDBRANCH  92  93
ENDBRANCH  66  87
ENDBRANCH  40  41
ENDBRANCH  32  35
ENDBRANCH  30  31
ENDBRANCH   1  30
TORSDOF 16
ENDMDL
