MODEL 1
REMARK VINA RESULT:      -9.8      0.000      0.000
REMARK SMILES O=C(COc1ccc(C(=O)/C=C/c2ccc(Cl)c([N+](=O)[O-])c2)cc1)NCCCNC(=O)c1ccc(-c2c3nc(c(-c4ccc(S(=O)(=O)[O-])cc4)c4ccc([nH]4)c(-c4ccc(S(=O)(=O)[O-])cc4)c4nc(c(-c5ccc(S(=O)(=O)[O-])cc5)c5ccc2[nH]5)C=C4)C=C3)cc1
REMARK SMILES IDX 1 1 2 2 25 3 3 5 4 6 5 7 6 8 24 9 7 10 23 11 8 12 9 13 10 14
REMARK SMILES IDX 11 15 12 16 13 17 14 18 22 19 15 20 18 21 16 22 17 23 19 24
REMARK SMILES IDX 20 25 21 26 26 27 27 28 28 29 29 30 30 31 31 33 32 34 33 35
REMARK SMILES IDX 91 36 34 37 90 38 35 39 36 40 37 41 84 42 38 43 89 44 83 45
REMARK SMILES IDX 85 46 39 47 88 48 82 49 81 50 40 52 70 53 51 54 69 55 52 56
REMARK SMILES IDX 55 57 68 58 86 59 53 60 54 61 67 63 87 64 56 65 41 66 42 67
REMARK SMILES IDX 50 68 43 69 49 70 44 71 45 72 46 73 47 74 48 75 71 76 72 77
REMARK SMILES IDX 80 78 73 79 79 80 74 81 75 82 76 83 77 84 78 85 57 86 58 87
REMARK SMILES IDX 66 88 59 89 65 90 60 91 61 92 62 93 63 94 64 95
REMARK H PARENT 25 4 29 32 85 51 55 62
REMARK Flexibility Score: inf
ROOT
ATOM      1  O   UNL A   1      32.585  35.980  31.237  1.00  0.00    -0.271 OA
ATOM      2  C   UNL A   1      33.500  35.178  31.392  1.00  0.00     0.257 C 
ATOM      3  N   UNL A   1      34.341  34.772  30.373  1.00  0.00    -0.353 N 
ATOM      4  H   UNL A   1      35.180  34.309  30.602  1.00  0.00     0.163 HD
ENDROOT
BRANCH   2   5
ATOM      5  C   UNL A   1      33.793  34.517  32.748  1.00  0.00     0.329 C 
BRANCH   5   6
ATOM      6  O   UNL A   1      34.099  33.117  32.716  1.00  0.00    -0.484 OA
BRANCH   6   7
ATOM      7  C   UNL A   1      35.397  32.864  33.075  1.00  0.00     0.120 A 
ATOM      8  C   UNL A   1      36.178  31.991  32.324  1.00  0.00     0.047 A 
ATOM      9  C   UNL A   1      35.897  33.388  34.262  1.00  0.00     0.047 A 
ATOM     10  C   UNL A   1      37.504  31.740  32.708  1.00  0.00     0.016 A 
ATOM     11  C   UNL A   1      37.212  33.141  34.647  1.00  0.00     0.016 A 
ATOM     12  C   UNL A   1      38.046  32.360  33.845  1.00  0.00     0.022 A 
BRANCH  12  13
ATOM     13  C   UNL A   1      39.476  32.133  34.202  1.00  0.00     0.185 C 
ATOM     14  O   UNL A   1      40.246  33.083  34.302  1.00  0.00    -0.289 OA
BRANCH  13  15
ATOM     15  C   UNL A   1      39.999  30.747  34.415  1.00  0.00     0.053 C 
ATOM     16  C   UNL A   1      41.239  30.353  34.086  1.00  0.00     0.012 C 
BRANCH  16  17
ATOM     17  C   UNL A   1      41.762  29.015  34.362  1.00  0.00    -0.019 A 
ATOM     18  C   UNL A   1      42.387  28.295  33.341  1.00  0.00     0.010 A 
ATOM     19  C   UNL A   1      41.583  28.416  35.611  1.00  0.00     0.095 A 
ATOM     20  C   UNL A   1      42.815  26.984  33.565  1.00  0.00     0.028 A 
ATOM     21  C   UNL A   1      42.004  27.086  35.839  1.00  0.00     0.288 A 
ATOM     22  C   UNL A   1      42.625  26.364  34.809  1.00  0.00     0.118 A 
ATOM     23  Cl  UNL A   1      43.211  24.742  34.915  1.00  0.00    -0.077 Cl
BRANCH  21  24
ATOM     24  N   UNL A   1      41.739  26.522  37.171  1.00  0.00     0.064 N 
ATOM     25  O   UNL A   1      42.679  26.319  37.946  1.00  0.00    -0.258 OA
ATOM     26  O   UNL A   1      40.559  26.256  37.447  1.00  0.00    -0.258 OA
ENDBRANCH  21  24
ENDBRANCH  16  17
ENDBRANCH  13  15
ENDBRANCH  12  13
ENDBRANCH   6   7
ENDBRANCH   5   6
ENDBRANCH   2   5
BRANCH   3  27
ATOM     27  C   UNL A   1      34.026  35.007  28.976  1.00  0.00     0.117 C 
BRANCH  27  28
ATOM     28  C   UNL A   1      33.685  33.746  28.203  1.00  0.00     0.042 C 
BRANCH  28  29
ATOM     29  C   UNL A   1      34.491  32.518  28.608  1.00  0.00     0.118 C 
BRANCH  29  30
ATOM     30  N   UNL A   1      33.898  31.263  28.170  1.00  0.00    -0.352 N 
ATOM     31  C   UNL A   1      34.481  30.039  27.934  1.00  0.00     0.251 C 
ATOM     32  H   UNL A   1      32.925  31.293  28.019  1.00  0.00     0.163 HD
ATOM     33  O   UNL A   1      33.801  29.144  27.442  1.00  0.00    -0.269 OA
BRANCH  31  34
ATOM     34  C   UNL A   1      35.913  29.801  28.242  1.00  0.00     0.039 A 
ATOM     35  C   UNL A   1      36.260  29.391  29.533  1.00  0.00     0.014 A 
ATOM     36  C   UNL A   1      36.916  30.010  27.292  1.00  0.00     0.014 A 
ATOM     37  C   UNL A   1      37.600  29.148  29.853  1.00  0.00     0.010 A 
ATOM     38  C   UNL A   1      38.238  29.679  27.585  1.00  0.00     0.010 A 
ATOM     39  C   UNL A   1      38.599  29.266  28.875  1.00  0.00    -0.014 A 
BRANCH  39  40
ATOM     40  C   UNL A   1      40.026  29.002  29.200  1.00  0.00     0.031 A 
ATOM     41  C   UNL A   1      40.654  27.678  28.842  1.00  0.00     0.074 A 
ATOM     42  C   UNL A   1      40.754  29.938  29.842  1.00  0.00     0.049 A 
ATOM     43  N   UNL A   1      41.880  27.265  29.042  1.00  0.00    -0.248 NA
ATOM     44  C   UNL A   1      39.785  26.677  28.201  1.00  0.00     0.031 C 
ATOM     45  C   UNL A   1      40.257  31.242  30.285  1.00  0.00     0.029 A 
ATOM     46  N   UNL A   1      42.072  29.937  30.230  1.00  0.00    -0.354 N 
ATOM     47  C   UNL A   1      41.924  25.959  28.565  1.00  0.00     0.074 A 
ATOM     48  C   UNL A   1      40.588  25.627  28.124  1.00  0.00     0.031 C 
ATOM     49  C   UNL A   1      41.265  31.928  30.850  1.00  0.00     0.029 A 
ATOM     50  C   UNL A   1      42.469  31.104  30.840  1.00  0.00     0.049 A 
ATOM     51  H   UNL A   1      42.675  29.173  30.085  1.00  0.00     0.167 HD
ATOM     52  C   UNL A   1      42.984  25.119  28.476  1.00  0.00     0.031 A 
ATOM     53  C   UNL A   1      43.668  31.472  31.332  1.00  0.00     0.031 A 
ATOM     54  C   UNL A   1      44.316  25.454  28.902  1.00  0.00     0.049 A 
ATOM     55  C   UNL A   1      44.832  30.525  31.216  1.00  0.00     0.074 A 
ATOM     56  C   UNL A   1      45.467  24.691  28.808  1.00  0.00     0.029 A 
ATOM     57  N   UNL A   1      44.677  26.651  29.502  1.00  0.00    -0.354 N 
ATOM     58  N   UNL A   1      44.867  29.319  30.702  1.00  0.00    -0.248 NA
ATOM     59  C   UNL A   1      46.126  31.001  31.726  1.00  0.00     0.031 C 
ATOM     60  C   UNL A   1      46.515  25.407  29.399  1.00  0.00     0.029 A 
ATOM     61  C   UNL A   1      46.030  26.642  29.799  1.00  0.00     0.049 A 
ATOM     62  H   UNL A   1      44.063  27.397  29.690  1.00  0.00     0.167 HD
ATOM     63  C   UNL A   1      46.193  28.908  30.791  1.00  0.00     0.074 A 
ATOM     64  C   UNL A   1      46.928  29.999  31.397  1.00  0.00     0.031 C 
ATOM     65  C   UNL A   1      46.752  27.735  30.400  1.00  0.00     0.031 A 
BRANCH  52  66
ATOM     66  C   UNL A   1      42.739  23.750  27.893  1.00  0.00    -0.014 A 
ATOM     67  C   UNL A   1      42.480  22.642  28.720  1.00  0.00     0.010 A 
ATOM     68  C   UNL A   1      42.736  23.575  26.497  1.00  0.00     0.010 A 
ATOM     69  C   UNL A   1      42.270  21.376  28.165  1.00  0.00     0.020 A 
ATOM     70  C   UNL A   1      42.494  22.317  25.937  1.00  0.00     0.020 A 
ATOM     71  C   UNL A   1      42.281  21.222  26.776  1.00  0.00     0.054 A 
BRANCH  71  72
ATOM     72  S   UNL A   1      41.988  19.571  26.083  1.00  0.00     0.124 S 
ATOM     73  O   UNL A   1      42.419  18.706  27.179  1.00  0.00    -0.237 OA
ATOM     74  O   UNL A   1      40.551  19.584  25.822  1.00  0.00    -0.237 OA
ATOM     75  O   UNL A   1      42.835  19.539  24.895  1.00  0.00    -0.744 OA
ENDBRANCH  71  72
ENDBRANCH  52  66
BRANCH  53  76
ATOM     76  C   UNL A   1      43.838  32.816  31.952  1.00  0.00    -0.014 A 
ATOM     77  C   UNL A   1      43.667  32.995  33.337  1.00  0.00     0.010 A 
ATOM     78  C   UNL A   1      44.179  33.927  31.158  1.00  0.00     0.010 A 
ATOM     79  C   UNL A   1      43.808  34.260  33.912  1.00  0.00     0.020 A 
ATOM     80  C   UNL A   1      44.352  35.188  31.734  1.00  0.00     0.020 A 
ATOM     81  C   UNL A   1      44.153  35.350  33.106  1.00  0.00     0.054 A 
BRANCH  81  82
ATOM     82  S   UNL A   1      44.377  36.975  33.882  1.00  0.00     0.124 S 
ATOM     83  O   UNL A   1      43.968  36.714  35.258  1.00  0.00    -0.237 OA
ATOM     84  O   UNL A   1      45.802  37.226  33.681  1.00  0.00    -0.237 OA
ATOM     85  O   UNL A   1      43.486  37.844  33.116  1.00  0.00    -0.744 OA
ENDBRANCH  81  82
ENDBRANCH  53  76
BRANCH  65  86
ATOM     86  C   UNL A   1      48.242  27.589  30.563  1.00  0.00    -0.014 A 
ATOM     87  C   UNL A   1      48.806  27.001  31.709  1.00  0.00     0.010 A 
ATOM     88  C   UNL A   1      49.092  28.024  29.528  1.00  0.00     0.010 A 
ATOM     89  C   UNL A   1      50.194  26.896  31.838  1.00  0.00     0.020 A 
ATOM     90  C   UNL A   1      50.478  27.890  29.640  1.00  0.00     0.020 A 
ATOM     91  C   UNL A   1      51.021  27.345  30.804  1.00  0.00     0.054 A 
BRANCH  91  92
ATOM     92  S   UNL A   1      52.818  27.184  30.987  1.00  0.00     0.124 S 
ATOM     93  O   UNL A   1      53.266  28.564  30.821  1.00  0.00    -0.237 OA
ATOM     94  O   UNL A   1      52.955  26.637  32.336  1.00  0.00    -0.237 OA
ATOM     95  O   UNL A   1      53.196  26.271  29.910  1.00  0.00    -0.744 OA
ENDBRANCH  91  92
ENDBRANCH  65  86
ENDBRANCH  39  40
ENDBRANCH  31  34
ENDBRANCH  29  30
ENDBRANCH  28  29
ENDBRANCH  27  28
ENDBRANCH   3  27
TORSDOF 19
ENDMDL
MODEL 2
REMARK VINA RESULT:      -9.4      1.538      8.156
REMARK SMILES O=C(COc1ccc(C(=O)/C=C/c2ccc(Cl)c([N+](=O)[O-])c2)cc1)NCCCNC(=O)c1ccc(-c2c3nc(c(-c4ccc(S(=O)(=O)[O-])cc4)c4ccc([nH]4)c(-c4ccc(S(=O)(=O)[O-])cc4)c4nc(c(-c5ccc(S(=O)(=O)[O-])cc5)c5ccc2[nH]5)C=C4)C=C3)cc1
REMARK SMILES IDX 1 1 2 2 25 3 3 5 4 6 5 7 6 8 24 9 7 10 23 11 8 12 9 13 10 14
REMARK SMILES IDX 11 15 12 16 13 17 14 18 22 19 15 20 18 21 16 22 17 23 19 24
REMARK SMILES IDX 20 25 21 26 26 27 27 28 28 29 29 30 30 31 31 33 32 34 33 35
REMARK SMILES IDX 91 36 34 37 90 38 35 39 36 40 37 41 84 42 38 43 89 44 83 45
REMARK SMILES IDX 85 46 39 47 88 48 82 49 81 50 40 52 70 53 51 54 69 55 52 56
REMARK SMILES IDX 55 57 68 58 86 59 53 60 54 61 67 63 87 64 56 65 41 66 42 67
REMARK SMILES IDX 50 68 43 69 49 70 44 71 45 72 46 73 47 74 48 75 71 76 72 77
REMARK SMILES IDX 80 78 73 79 79 80 74 81 75 82 76 83 77 84 78 85 57 86 58 87
REMARK SMILES IDX 66 88 59 89 65 90 60 91 61 92 62 93 63 94 64 95
REMARK H PARENT 25 4 29 32 85 51 55 62
REMARK Flexibility Score: inf
ROOT
ATOM      1  O   UNL A   1      32.538  35.219  31.283  1.00  0.00    -0.271 OA
ATOM      2  C   UNL A   1      33.736  34.959  31.229  1.00  0.00     0.257 C 
ATOM      3  N   UNL A   1      34.499  35.105  30.086  1.00  0.00    -0.353 N 
ATOM      4  H   UNL A   1      35.481  35.095  30.162  1.00  0.00     0.163 HD
ENDROOT
BRANCH   2   5
ATOM      5  C   UNL A   1      34.515  34.414  32.437  1.00  0.00     0.329 C 
BRANCH   5   6
ATOM      6  O   UNL A   1      35.611  35.215  32.896  1.00  0.00    -0.484 OA
BRANCH   6   7
ATOM      7  C   UNL A   1      36.463  34.509  33.704  1.00  0.00     0.120 A 
ATOM      8  C   UNL A   1      36.033  34.040  34.942  1.00  0.00     0.047 A 
ATOM      9  C   UNL A   1      37.797  34.365  33.339  1.00  0.00     0.047 A 
ATOM     10  C   UNL A   1      36.920  33.322  35.758  1.00  0.00     0.016 A 
ATOM     11  C   UNL A   1      38.681  33.654  34.145  1.00  0.00     0.016 A 
ATOM     12  C   UNL A   1      38.237  33.077  35.337  1.00  0.00     0.022 A 
BRANCH  12  13
ATOM     13  C   UNL A   1      39.147  32.257  36.188  1.00  0.00     0.185 C 
ATOM     14  O   UNL A   1      39.358  32.577  37.354  1.00  0.00    -0.289 OA
BRANCH  13  15
ATOM     15  C   UNL A   1      39.839  31.055  35.627  1.00  0.00     0.053 C 
ATOM     16  C   UNL A   1      41.114  30.731  35.891  1.00  0.00     0.012 C 
BRANCH  16  17
ATOM     17  C   UNL A   1      41.759  29.516  35.392  1.00  0.00    -0.019 A 
ATOM     18  C   UNL A   1      41.217  28.849  34.291  1.00  0.00     0.010 A 
ATOM     19  C   UNL A   1      42.869  28.971  36.044  1.00  0.00     0.095 A 
ATOM     20  C   UNL A   1      41.771  27.642  33.856  1.00  0.00     0.028 A 
ATOM     21  C   UNL A   1      43.425  27.744  35.614  1.00  0.00     0.288 A 
ATOM     22  C   UNL A   1      42.873  27.075  34.512  1.00  0.00     0.118 A 
ATOM     23  Cl  UNL A   1      43.430  25.580  33.847  1.00  0.00    -0.077 Cl
BRANCH  21  24
ATOM     24  N   UNL A   1      44.566  27.224  36.383  1.00  0.00     0.064 N 
ATOM     25  O   UNL A   1      44.363  26.487  37.352  1.00  0.00    -0.258 OA
ATOM     26  O   UNL A   1      45.699  27.577  36.020  1.00  0.00    -0.258 OA
ENDBRANCH  21  24
ENDBRANCH  16  17
ENDBRANCH  13  15
ENDBRANCH  12  13
ENDBRANCH   6   7
ENDBRANCH   5   6
ENDBRANCH   2   5
BRANCH   3  27
ATOM     27  C   UNL A   1      33.896  35.272  28.776  1.00  0.00     0.117 C 
BRANCH  27  28
ATOM     28  C   UNL A   1      34.230  34.158  27.801  1.00  0.00     0.042 C 
BRANCH  28  29
ATOM     29  C   UNL A   1      34.625  32.840  28.455  1.00  0.00     0.118 C 
BRANCH  29  30
ATOM     30  N   UNL A   1      33.945  31.683  27.890  1.00  0.00    -0.352 N 
ATOM     31  C   UNL A   1      34.405  30.407  27.660  1.00  0.00     0.251 C 
ATOM     32  H   UNL A   1      33.007  31.838  27.631  1.00  0.00     0.163 HD
ATOM     33  O   UNL A   1      33.688  29.620  27.050  1.00  0.00    -0.269 OA
BRANCH  31  34
ATOM     34  C   UNL A   1      35.752  29.985  28.117  1.00  0.00     0.039 A 
ATOM     35  C   UNL A   1      36.822  30.080  27.221  1.00  0.00     0.014 A 
ATOM     36  C   UNL A   1      35.968  29.467  29.396  1.00  0.00     0.014 A 
ATOM     37  C   UNL A   1      38.106  29.700  27.625  1.00  0.00     0.010 A 
ATOM     38  C   UNL A   1      37.262  29.177  29.825  1.00  0.00     0.010 A 
ATOM     39  C   UNL A   1      38.343  29.268  28.939  1.00  0.00    -0.014 A 
BRANCH  39  40
ATOM     40  C   UNL A   1      39.706  28.870  29.382  1.00  0.00     0.031 A 
ATOM     41  C   UNL A   1      40.537  29.810  30.220  1.00  0.00     0.074 A 
ATOM     42  C   UNL A   1      40.213  27.677  29.010  1.00  0.00     0.049 A 
ATOM     43  N   UNL A   1      41.741  29.639  30.702  1.00  0.00    -0.248 NA
ATOM     44  C   UNL A   1      39.948  31.122  30.535  1.00  0.00     0.031 C 
ATOM     45  C   UNL A   1      39.533  26.694  28.163  1.00  0.00     0.029 A 
ATOM     46  N   UNL A   1      41.418  27.086  29.301  1.00  0.00    -0.354 N 
ATOM     47  C   UNL A   1      42.058  30.822  31.363  1.00  0.00     0.074 A 
ATOM     48  C   UNL A   1      40.945  31.724  31.167  1.00  0.00     0.031 C 
ATOM     49  C   UNL A   1      40.315  25.609  28.035  1.00  0.00     0.029 A 
ATOM     50  C   UNL A   1      41.563  25.830  28.759  1.00  0.00     0.049 A 
ATOM     51  H   UNL A   1      42.113  27.520  29.846  1.00  0.00     0.167 HD
ATOM     52  C   UNL A   1      43.161  31.124  32.089  1.00  0.00     0.031 A 
ATOM     53  C   UNL A   1      42.582  24.952  28.839  1.00  0.00     0.031 A 
ATOM     54  C   UNL A   1      44.262  30.222  32.295  1.00  0.00     0.049 A 
ATOM     55  C   UNL A   1      43.794  25.307  29.658  1.00  0.00     0.074 A 
ATOM     56  C   UNL A   1      45.402  30.416  33.056  1.00  0.00     0.029 A 
ATOM     57  N   UNL A   1      44.363  28.956  31.740  1.00  0.00    -0.354 N 
ATOM     58  N   UNL A   1      44.044  26.406  30.329  1.00  0.00    -0.248 NA
ATOM     59  C   UNL A   1      44.851  24.291  29.749  1.00  0.00     0.031 C 
ATOM     60  C   UNL A   1      46.216  29.286  32.919  1.00  0.00     0.029 A 
ATOM     61  C   UNL A   1      45.551  28.362  32.128  1.00  0.00     0.049 A 
ATOM     62  H   UNL A   1      43.687  28.540  31.156  1.00  0.00     0.167 HD
ATOM     63  C   UNL A   1      45.270  26.197  30.953  1.00  0.00     0.074 A 
ATOM     64  C   UNL A   1      45.702  24.864  30.589  1.00  0.00     0.031 C 
ATOM     65  C   UNL A   1      45.970  27.032  31.762  1.00  0.00     0.031 A 
BRANCH  52  66
ATOM     66  C   UNL A   1      43.227  32.494  32.716  1.00  0.00    -0.014 A 
ATOM     67  C   UNL A   1      42.812  32.709  34.043  1.00  0.00     0.010 A 
ATOM     68  C   UNL A   1      43.742  33.576  31.979  1.00  0.00     0.010 A 
ATOM     69  C   UNL A   1      42.866  33.988  34.605  1.00  0.00     0.020 A 
ATOM     70  C   UNL A   1      43.827  34.850  32.548  1.00  0.00     0.020 A 
ATOM     71  C   UNL A   1      43.372  35.051  33.852  1.00  0.00     0.054 A 
BRANCH  71  72
ATOM     72  S   UNL A   1      43.446  36.696  34.613  1.00  0.00     0.124 S 
ATOM     73  O   UNL A   1      44.858  36.795  34.975  1.00  0.00    -0.237 OA
ATOM     74  O   UNL A   1      43.014  37.571  33.526  1.00  0.00    -0.237 OA
ATOM     75  O   UNL A   1      42.521  36.600  35.738  1.00  0.00    -0.744 OA
ENDBRANCH  71  72
ENDBRANCH  52  66
BRANCH  53  76
ATOM     76  C   UNL A   1      42.486  23.635  28.151  1.00  0.00    -0.014 A 
ATOM     77  C   UNL A   1      41.676  22.610  28.673  1.00  0.00     0.010 A 
ATOM     78  C   UNL A   1      43.201  23.400  26.962  1.00  0.00     0.010 A 
ATOM     79  C   UNL A   1      41.602  21.369  28.036  1.00  0.00     0.020 A 
ATOM     80  C   UNL A   1      43.106  22.171  26.304  1.00  0.00     0.020 A 
ATOM     81  C   UNL A   1      42.317  21.158  26.853  1.00  0.00     0.054 A 
BRANCH  81  82
ATOM     82  S   UNL A   1      42.170  19.554  26.016  1.00  0.00     0.124 S 
ATOM     83  O   UNL A   1      40.741  19.491  25.728  1.00  0.00    -0.237 OA
ATOM     84  O   UNL A   1      43.044  19.722  24.858  1.00  0.00    -0.237 OA
ATOM     85  O   UNL A   1      42.651  18.603  27.016  1.00  0.00    -0.744 OA
ENDBRANCH  81  82
ENDBRANCH  53  76
BRANCH  65  86
ATOM     86  C   UNL A   1      47.252  26.509  32.354  1.00  0.00    -0.014 A 
ATOM     87  C   UNL A   1      48.500  26.758  31.753  1.00  0.00     0.010 A 
ATOM     88  C   UNL A   1      47.206  25.780  33.557  1.00  0.00     0.010 A 
ATOM     89  C   UNL A   1      49.670  26.245  32.318  1.00  0.00     0.020 A 
ATOM     90  C   UNL A   1      48.377  25.293  34.142  1.00  0.00     0.020 A 
ATOM     91  C   UNL A   1      49.601  25.511  33.507  1.00  0.00     0.054 A 
BRANCH  91  92
ATOM     92  S   UNL A   1      51.135  24.869  34.230  1.00  0.00     0.124 S 
ATOM     93  O   UNL A   1      51.661  26.044  34.920  1.00  0.00    -0.237 OA
ATOM     94  O   UNL A   1      50.655  23.793  35.095  1.00  0.00    -0.237 OA
ATOM     95  O   UNL A   1      51.908  24.429  33.070  1.00  0.00    -0.744 OA
ENDBRANCH  91  92
ENDBRANCH  65  86
ENDBRANCH  39  40
ENDBRANCH  31  34
ENDBRANCH  29  30
ENDBRANCH  28  29
ENDBRANCH  27  28
ENDBRANCH   3  27
TORSDOF 19
ENDMDL
MODEL 3
REMARK VINA RESULT:      -9.3      3.026      8.656
REMARK SMILES O=C(COc1ccc(C(=O)/C=C/c2ccc(Cl)c([N+](=O)[O-])c2)cc1)NCCCNC(=O)c1ccc(-c2c3nc(c(-c4ccc(S(=O)(=O)[O-])cc4)c4ccc([nH]4)c(-c4ccc(S(=O)(=O)[O-])cc4)c4nc(c(-c5ccc(S(=O)(=O)[O-])cc5)c5ccc2[nH]5)C=C4)C=C3)cc1
REMARK SMILES IDX 1 1 2 2 25 3 3 5 4 6 5 7 6 8 24 9 7 10 23 11 8 12 9 13 10 14
REMARK SMILES IDX 11 15 12 16 13 17 14 18 22 19 15 20 18 21 16 22 17 23 19 24
REMARK SMILES IDX 20 25 21 26 26 27 27 28 28 29 29 30 30 31 31 33 32 34 33 35
REMARK SMILES IDX 91 36 34 37 90 38 35 39 36 40 37 41 84 42 38 43 89 44 83 45
REMARK SMILES IDX 85 46 39 47 88 48 82 49 81 50 40 52 70 53 51 54 69 55 52 56
REMARK SMILES IDX 55 57 68 58 86 59 53 60 54 61 67 63 87 64 56 65 41 66 42 67
REMARK SMILES IDX 50 68 43 69 49 70 44 71 45 72 46 73 47 74 48 75 71 76 72 77
REMARK SMILES IDX 80 78 73 79 79 80 74 81 75 82 76 83 77 84 78 85 57 86 58 87
REMARK SMILES IDX 66 88 59 89 65 90 60 91 61 92 62 93 63 94 64 95
REMARK H PARENT 25 4 29 32 85 51 55 62
REMARK Flexibility Score: inf
ROOT
ATOM      1  O   UNL A   1      33.285  34.202  32.265  1.00  0.00    -0.271 OA
ATOM      2  C   UNL A   1      34.400  34.240  31.755  1.00  0.00     0.257 C 
ATOM      3  N   UNL A   1      34.644  34.731  30.486  1.00  0.00    -0.353 N 
ATOM      4  H   UNL A   1      35.571  34.939  30.225  1.00  0.00     0.163 HD
ENDROOT
BRANCH   2   5
ATOM      5  C   UNL A   1      35.652  33.717  32.477  1.00  0.00     0.329 C 
BRANCH   5   6
ATOM      6  O   UNL A   1      36.395  34.680  33.233  1.00  0.00    -0.484 OA
BRANCH   6   7
ATOM      7  C   UNL A   1      37.740  34.608  32.983  1.00  0.00     0.120 A 
ATOM      8  C   UNL A   1      38.205  34.371  31.692  1.00  0.00     0.047 A 
ATOM      9  C   UNL A   1      38.641  34.652  34.042  1.00  0.00     0.047 A 
ATOM     10  C   UNL A   1      39.586  34.296  31.455  1.00  0.00     0.016 A 
ATOM     11  C   UNL A   1      40.011  34.578  33.811  1.00  0.00     0.016 A 
ATOM     12  C   UNL A   1      40.500  34.455  32.508  1.00  0.00     0.022 A 
BRANCH  12  13
ATOM     13  C   UNL A   1      41.965  34.437  32.228  1.00  0.00     0.185 C 
ATOM     14  O   UNL A   1      42.634  35.456  32.372  1.00  0.00    -0.289 OA
BRANCH  13  15
ATOM     15  C   UNL A   1      42.633  33.191  31.740  1.00  0.00     0.053 C 
ATOM     16  C   UNL A   1      42.433  32.657  30.525  1.00  0.00     0.012 C 
BRANCH  16  17
ATOM     17  C   UNL A   1      43.145  31.477  30.033  1.00  0.00    -0.019 A 
ATOM     18  C   UNL A   1      44.132  30.887  30.826  1.00  0.00     0.010 A 
ATOM     19  C   UNL A   1      42.902  30.973  28.753  1.00  0.00     0.095 A 
ATOM     20  C   UNL A   1      44.879  29.812  30.335  1.00  0.00     0.028 A 
ATOM     21  C   UNL A   1      43.663  29.893  28.248  1.00  0.00     0.288 A 
ATOM     22  C   UNL A   1      44.659  29.308  29.045  1.00  0.00     0.118 A 
ATOM     23  Cl  UNL A   1      45.670  27.981  28.596  1.00  0.00    -0.077 Cl
BRANCH  21  24
ATOM     24  N   UNL A   1      43.369  29.454  26.876  1.00  0.00     0.064 N 
ATOM     25  O   UNL A   1      42.195  29.320  26.517  1.00  0.00    -0.258 OA
ATOM     26  O   UNL A   1      44.338  29.219  26.138  1.00  0.00    -0.258 OA
ENDBRANCH  21  24
ENDBRANCH  16  17
ENDBRANCH  13  15
ENDBRANCH  12  13
ENDBRANCH   6   7
ENDBRANCH   5   6
ENDBRANCH   2   5
BRANCH   3  27
ATOM     27  C   UNL A   1      33.576  34.948  29.528  1.00  0.00     0.117 C 
BRANCH  27  28
ATOM     28  C   UNL A   1      33.709  34.119  28.263  1.00  0.00     0.042 C 
BRANCH  28  29
ATOM     29  C   UNL A   1      34.556  32.862  28.416  1.00  0.00     0.118 C 
BRANCH  29  30
ATOM     30  N   UNL A   1      34.081  31.740  27.619  1.00  0.00    -0.352 N 
ATOM     31  C   UNL A   1      34.669  30.524  27.358  1.00  0.00     0.251 C 
ATOM     32  H   UNL A   1      33.199  31.872  27.201  1.00  0.00     0.163 HD
ATOM     33  O   UNL A   1      34.138  29.772  26.546  1.00  0.00    -0.269 OA
BRANCH  31  34
ATOM     34  C   UNL A   1      35.934  30.127  28.022  1.00  0.00     0.039 A 
ATOM     35  C   UNL A   1      35.869  29.546  29.293  1.00  0.00     0.014 A 
ATOM     36  C   UNL A   1      37.180  30.351  27.430  1.00  0.00     0.014 A 
ATOM     37  C   UNL A   1      37.044  29.151  29.941  1.00  0.00     0.010 A 
ATOM     38  C   UNL A   1      38.340  29.873  28.036  1.00  0.00     0.010 A 
ATOM     39  C   UNL A   1      38.289  29.288  29.309  1.00  0.00    -0.014 A 
BRANCH  39  40
ATOM     40  C   UNL A   1      39.544  28.864  29.985  1.00  0.00     0.031 A 
ATOM     41  C   UNL A   1      39.966  29.515  31.279  1.00  0.00     0.074 A 
ATOM     42  C   UNL A   1      40.322  27.915  29.426  1.00  0.00     0.049 A 
ATOM     43  N   UNL A   1      41.022  29.279  32.015  1.00  0.00    -0.248 NA
ATOM     44  C   UNL A   1      39.103  30.588  31.800  1.00  0.00     0.031 C 
ATOM     45  C   UNL A   1      40.054  27.238  28.156  1.00  0.00     0.029 A 
ATOM     46  N   UNL A   1      41.497  27.352  29.859  1.00  0.00    -0.354 N 
ATOM     47  C   UNL A   1      40.957  30.179  33.074  1.00  0.00     0.074 A 
ATOM     48  C   UNL A   1      39.793  31.007  32.851  1.00  0.00     0.031 C 
ATOM     49  C   UNL A   1      41.014  26.327  27.931  1.00  0.00     0.029 A 
ATOM     50  C   UNL A   1      41.985  26.376  29.021  1.00  0.00     0.049 A 
ATOM     51  H   UNL A   1      41.949  27.621  30.691  1.00  0.00     0.167 HD
ATOM     52  C   UNL A   1      41.774  30.292  34.148  1.00  0.00     0.031 A 
ATOM     53  C   UNL A   1      43.084  25.604  29.119  1.00  0.00     0.031 A 
ATOM     54  C   UNL A   1      42.925  29.460  34.377  1.00  0.00     0.049 A 
ATOM     55  C   UNL A   1      43.974  25.743  30.325  1.00  0.00     0.074 A 
ATOM     56  C   UNL A   1      43.788  29.463  35.460  1.00  0.00     0.029 A 
ATOM     57  N   UNL A   1      43.375  28.476  33.510  1.00  0.00    -0.354 N 
ATOM     58  N   UNL A   1      43.857  26.557  31.348  1.00  0.00    -0.248 NA
ATOM     59  C   UNL A   1      45.131  24.840  30.402  1.00  0.00     0.031 C 
ATOM     60  C   UNL A   1      44.789  28.514  35.223  1.00  0.00     0.029 A 
ATOM     61  C   UNL A   1      44.511  27.875  34.025  1.00  0.00     0.049 A 
ATOM     62  H   UNL A   1      42.948  28.238  32.655  1.00  0.00     0.167 HD
ATOM     63  C   UNL A   1      44.904  26.237  32.206  1.00  0.00     0.074 A 
ATOM     64  C   UNL A   1      45.633  25.149  31.588  1.00  0.00     0.031 C 
ATOM     65  C   UNL A   1      45.227  26.790  33.402  1.00  0.00     0.031 A 
BRANCH  52  66
ATOM     66  C   UNL A   1      41.449  31.361  35.161  1.00  0.00    -0.014 A 
ATOM     67  C   UNL A   1      40.247  31.329  35.893  1.00  0.00     0.010 A 
ATOM     68  C   UNL A   1      42.370  32.395  35.408  1.00  0.00     0.010 A 
ATOM     69  C   UNL A   1      39.952  32.335  36.817  1.00  0.00     0.020 A 
ATOM     70  C   UNL A   1      42.093  33.386  36.354  1.00  0.00     0.020 A 
ATOM     71  C   UNL A   1      40.878  33.359  37.040  1.00  0.00     0.054 A 
BRANCH  71  72
ATOM     72  S   UNL A   1      40.476  34.642  38.258  1.00  0.00     0.124 S 
ATOM     73  O   UNL A   1      41.543  34.467  39.241  1.00  0.00    -0.237 OA
ATOM     74  O   UNL A   1      40.547  35.868  37.467  1.00  0.00    -0.237 OA
ATOM     75  O   UNL A   1      39.140  34.276  38.720  1.00  0.00    -0.744 OA
ENDBRANCH  71  72
ENDBRANCH  52  66
BRANCH  53  76
ATOM     76  C   UNL A   1      43.389  24.603  28.058  1.00  0.00    -0.014 A 
ATOM     77  C   UNL A   1      44.243  24.930  26.989  1.00  0.00     0.010 A 
ATOM     78  C   UNL A   1      42.830  23.314  28.116  1.00  0.00     0.010 A 
ATOM     79  C   UNL A   1      44.513  23.995  25.985  1.00  0.00     0.020 A 
ATOM     80  C   UNL A   1      43.121  22.366  27.131  1.00  0.00     0.020 A 
ATOM     81  C   UNL A   1      43.951  22.717  26.064  1.00  0.00     0.054 A 
BRANCH  81  82
ATOM     82  S   UNL A   1      44.351  21.505  24.774  1.00  0.00     0.124 S 
ATOM     83  O   UNL A   1      45.735  21.169  25.092  1.00  0.00    -0.237 OA
ATOM     84  O   UNL A   1      43.371  20.450  25.019  1.00  0.00    -0.237 OA
ATOM     85  O   UNL A   1      44.155  22.250  23.533  1.00  0.00    -0.744 OA
ENDBRANCH  81  82
ENDBRANCH  53  76
BRANCH  65  86
ATOM     86  C   UNL A   1      46.389  26.192  34.151  1.00  0.00    -0.014 A 
ATOM     87  C   UNL A   1      46.211  25.503  35.365  1.00  0.00     0.010 A 
ATOM     88  C   UNL A   1      47.683  26.295  33.607  1.00  0.00     0.010 A 
ATOM     89  C   UNL A   1      47.312  24.974  36.044  1.00  0.00     0.020 A 
ATOM     90  C   UNL A   1      48.782  25.739  34.267  1.00  0.00     0.020 A 
ATOM     91  C   UNL A   1      48.591  25.100  35.493  1.00  0.00     0.054 A 
BRANCH  91  92
ATOM     92  S   UNL A   1      50.002  24.391  36.385  1.00  0.00     0.124 S 
ATOM     93  O   UNL A   1      50.041  23.029  35.858  1.00  0.00    -0.237 OA
ATOM     94  O   UNL A   1      51.107  25.256  35.977  1.00  0.00    -0.237 OA
ATOM     95  O   UNL A   1      49.617  24.505  37.790  1.00  0.00    -0.744 OA
ENDBRANCH  91  92
ENDBRANCH  65  86
ENDBRANCH  39  40
ENDBRANCH  31  34
ENDBRANCH  29  30
ENDBRANCH  28  29
ENDBRANCH  27  28
ENDBRANCH   3  27
TORSDOF 19
ENDMDL
