MODEL 1
REMARK VINA RESULT:      -9.8      0.000      0.000
REMARK SMILES CCCOc1ccc(NC(=O)CCC(=O)NCCCNC(=O)c2ccc(-c3c4nc(c(-c5ccc(S(=O)(=O)[O-])cc5)c5ccc([nH]5)c(-c5ccc(S(=O)(=O)[O-])cc5)c5nc(c(-c6ccc(S(=O)(=O)[O-])cc6)c6ccc3[nH]6)C=C5)C=C4)cc2)cc1
REMARK SMILES IDX 14 1 15 2 16 3 13 5 12 6 10 7 9 8 11 10 8 11 5 12 6 13 84 14
REMARK SMILES IDX 7 15 83 16 4 17 3 18 2 19 1 20 17 21 18 22 19 23 20 24 21 25
REMARK SMILES IDX 22 27 23 28 24 29 82 30 25 31 81 32 26 33 27 34 28 35 75 36
REMARK SMILES IDX 29 37 80 38 74 39 76 40 30 41 79 42 73 43 72 44 31 46 61 47
REMARK SMILES IDX 42 48 60 49 43 50 46 51 59 52 77 53 44 54 45 55 58 57 78 58
REMARK SMILES IDX 47 59 32 60 33 61 41 62 34 63 40 64 35 65 36 66 37 67 38 68
REMARK SMILES IDX 39 69 62 70 63 71 71 72 64 73 70 74 65 75 66 76 67 77 68 78
REMARK SMILES IDX 69 79 48 80 49 81 57 82 50 83 56 84 51 85 52 86 53 87 54 88
REMARK SMILES IDX 55 89
REMARK H PARENT 16 4 9 9 20 26 76 45 46 56
REMARK Flexibility Score: inf
ROOT
ATOM      1  C   UNL A   1      30.967  27.988  23.170  1.00  0.00     0.220 C 
ATOM      2  O   UNL A   1      30.416  27.875  22.074  1.00  0.00    -0.275 OA
ATOM      3  N   UNL A   1      32.083  28.765  23.258  1.00  0.00    -0.356 N 
ATOM      4  H   UNL A   1      32.452  29.048  22.390  1.00  0.00     0.163 HD
ENDROOT
BRANCH   1   5
ATOM      5  C   UNL A   1      30.414  27.271  24.381  1.00  0.00     0.110 C 
BRANCH   5   6
ATOM      6  C   UNL A   1      30.668  25.769  24.333  1.00  0.00     0.110 C 
BRANCH   6   7
ATOM      7  C   UNL A   1      30.528  25.131  25.696  1.00  0.00     0.224 C 
ATOM      8  N   UNL A   1      31.432  24.221  26.164  1.00  0.00    -0.326 N 
ATOM      9  H   UNL A   1      31.182  23.752  26.993  1.00  0.00     0.169 HD
ATOM     10  O   UNL A   1      29.637  25.511  26.462  1.00  0.00    -0.275 OA
BRANCH   8  11
ATOM     11  C   UNL A   1      32.669  23.871  25.612  1.00  0.00     0.041 A 
ATOM     12  C   UNL A   1      35.082  22.856  24.656  1.00  0.00     0.119 A 
ATOM     13  C   UNL A   1      35.060  24.089  25.305  1.00  0.00     0.048 A 
ATOM     14  C   UNL A   1      33.906  22.140  24.493  1.00  0.00     0.048 A 
ATOM     15  C   UNL A   1      33.847  24.594  25.797  1.00  0.00     0.030 A 
ATOM     16  C   UNL A   1      32.694  22.688  24.884  1.00  0.00     0.030 A 
BRANCH  12  17
ATOM     17  O   UNL A   1      36.277  22.330  24.254  1.00  0.00    -0.494 OA
BRANCH  17  18
ATOM     18  C   UNL A   1      36.817  21.399  25.207  1.00  0.00     0.229 C 
BRANCH  18  19
ATOM     19  C   UNL A   1      38.324  21.590  25.434  1.00  0.00     0.038 C 
ATOM     20  C   UNL A   1      38.689  22.821  26.262  1.00  0.00     0.007 C 
ENDBRANCH  18  19
ENDBRANCH  17  18
ENDBRANCH  12  17
ENDBRANCH   8  11
ENDBRANCH   6   7
ENDBRANCH   5   6
ENDBRANCH   1   5
BRANCH   3  21
ATOM     21  C   UNL A   1      32.820  29.246  24.416  1.00  0.00     0.117 C 
BRANCH  21  22
ATOM     22  C   UNL A   1      33.798  28.228  24.997  1.00  0.00     0.042 C 
BRANCH  22  23
ATOM     23  C   UNL A   1      33.941  28.247  26.518  1.00  0.00     0.118 C 
BRANCH  23  24
ATOM     24  N   UNL A   1      33.623  29.522  27.132  1.00  0.00    -0.352 N 
ATOM     25  C   UNL A   1      34.423  30.370  27.859  1.00  0.00     0.251 C 
ATOM     26  H   UNL A   1      32.694  29.825  27.009  1.00  0.00     0.163 HD
ATOM     27  O   UNL A   1      33.938  31.402  28.321  1.00  0.00    -0.269 OA
BRANCH  25  28
ATOM     28  C   UNL A   1      35.842  30.041  28.135  1.00  0.00     0.039 A 
ATOM     29  C   UNL A   1      36.177  29.611  29.423  1.00  0.00     0.014 A 
ATOM     30  C   UNL A   1      36.845  30.181  27.171  1.00  0.00     0.014 A 
ATOM     31  C   UNL A   1      37.498  29.268  29.728  1.00  0.00     0.010 A 
ATOM     32  C   UNL A   1      38.158  29.787  27.463  1.00  0.00     0.010 A 
ATOM     33  C   UNL A   1      38.499  29.328  28.746  1.00  0.00    -0.014 A 
BRANCH  33  34
ATOM     34  C   UNL A   1      39.895  28.918  29.065  1.00  0.00     0.031 A 
ATOM     35  C   UNL A   1      40.839  29.875  29.746  1.00  0.00     0.074 A 
ATOM     36  C   UNL A   1      40.328  27.684  28.730  1.00  0.00     0.049 A 
ATOM     37  N   UNL A   1      42.085  29.689  30.105  1.00  0.00    -0.248 NA
ATOM     38  C   UNL A   1      40.326  31.221  30.049  1.00  0.00     0.031 C 
ATOM     39  C   UNL A   1      39.532  26.666  28.039  1.00  0.00     0.029 A 
ATOM     40  N   UNL A   1      41.544  27.073  28.926  1.00  0.00    -0.354 N 
ATOM     41  C   UNL A   1      42.507  30.891  30.661  1.00  0.00     0.074 A 
ATOM     42  C   UNL A   1      41.397  31.813  30.560  1.00  0.00     0.031 C 
ATOM     43  C   UNL A   1      40.273  25.554  27.889  1.00  0.00     0.029 A 
ATOM     44  C   UNL A   1      41.604  25.787  28.443  1.00  0.00     0.049 A 
ATOM     45  H   UNL A   1      42.302  27.517  29.371  1.00  0.00     0.167 HD
ATOM     46  C   UNL A   1      43.702  31.197  31.221  1.00  0.00     0.031 A 
ATOM     47  C   UNL A   1      42.614  24.893  28.441  1.00  0.00     0.031 A 
ATOM     48  C   UNL A   1      44.802  30.276  31.350  1.00  0.00     0.049 A 
ATOM     49  C   UNL A   1      43.931  25.260  29.072  1.00  0.00     0.074 A 
ATOM     50  C   UNL A   1      46.024  30.482  31.965  1.00  0.00     0.029 A 
ATOM     51  N   UNL A   1      44.814  28.981  30.859  1.00  0.00    -0.354 N 
ATOM     52  N   UNL A   1      44.278  26.378  29.664  1.00  0.00    -0.248 NA
ATOM     53  C   UNL A   1      44.989  24.239  29.047  1.00  0.00     0.031 C 
ATOM     54  C   UNL A   1      46.797  29.328  31.804  1.00  0.00     0.029 A 
ATOM     55  C   UNL A   1      46.034  28.385  31.136  1.00  0.00     0.049 A 
ATOM     56  H   UNL A   1      44.069  28.549  30.384  1.00  0.00     0.167 HD
ATOM     57  C   UNL A   1      45.582  26.180  30.108  1.00  0.00     0.074 A 
ATOM     58  C   UNL A   1      45.957  24.834  29.731  1.00  0.00     0.031 C 
ATOM     59  C   UNL A   1      46.394  27.040  30.769  1.00  0.00     0.031 A 
BRANCH  46  60
ATOM     60  C   UNL A   1      43.898  32.593  31.748  1.00  0.00    -0.014 A 
ATOM     61  C   UNL A   1      43.594  32.913  33.083  1.00  0.00     0.010 A 
ATOM     62  C   UNL A   1      44.477  33.576  30.923  1.00  0.00     0.010 A 
ATOM     63  C   UNL A   1      43.845  34.196  33.577  1.00  0.00     0.020 A 
ATOM     64  C   UNL A   1      44.751  34.852  31.420  1.00  0.00     0.020 A 
ATOM     65  C   UNL A   1      44.423  35.158  32.743  1.00  0.00     0.054 A 
BRANCH  65  66
ATOM     66  S   UNL A   1      44.787  36.797  33.427  1.00  0.00     0.124 S 
ATOM     67  O   UNL A   1      44.734  36.541  34.865  1.00  0.00    -0.237 OA
ATOM     68  O   UNL A   1      46.114  37.083  32.889  1.00  0.00    -0.237 OA
ATOM     69  O   UNL A   1      43.712  37.638  32.906  1.00  0.00    -0.744 OA
ENDBRANCH  65  66
ENDBRANCH  46  60
BRANCH  47  70
ATOM     70  C   UNL A   1      42.430  23.551  27.820  1.00  0.00    -0.014 A 
ATOM     71  C   UNL A   1      41.965  22.464  28.581  1.00  0.00     0.010 A 
ATOM     72  C   UNL A   1      42.758  23.346  26.467  1.00  0.00     0.010 A 
ATOM     73  C   UNL A   1      41.869  21.190  28.013  1.00  0.00     0.020 A 
ATOM     74  C   UNL A   1      42.635  22.080  25.888  1.00  0.00     0.020 A 
ATOM     75  C   UNL A   1      42.211  21.005  26.671  1.00  0.00     0.054 A 
BRANCH  75  76
ATOM     76  S   UNL A   1      42.071  19.346  25.948  1.00  0.00     0.124 S 
ATOM     77  O   UNL A   1      40.638  19.248  25.694  1.00  0.00    -0.237 OA
ATOM     78  O   UNL A   1      42.920  19.444  24.763  1.00  0.00    -0.237 OA
ATOM     79  O   UNL A   1      42.583  18.473  27.001  1.00  0.00    -0.744 OA
ENDBRANCH  75  76
ENDBRANCH  47  70
BRANCH  59  80
ATOM     80  C   UNL A   1      47.758  26.544  31.171  1.00  0.00    -0.014 A 
ATOM     81  C   UNL A   1      48.888  26.782  30.368  1.00  0.00     0.010 A 
ATOM     82  C   UNL A   1      47.921  25.885  32.404  1.00  0.00     0.010 A 
ATOM     83  C   UNL A   1      50.150  26.344  30.778  1.00  0.00     0.020 A 
ATOM     84  C   UNL A   1      49.185  25.469  32.829  1.00  0.00     0.020 A 
ATOM     85  C   UNL A   1      50.291  25.689  32.005  1.00  0.00     0.054 A 
BRANCH  85  86
ATOM     86  S   UNL A   1      51.947  25.176  32.538  1.00  0.00     0.124 S 
ATOM     87  O   UNL A   1      52.105  25.911  33.790  1.00  0.00    -0.237 OA
ATOM     88  O   UNL A   1      51.808  23.728  32.673  1.00  0.00    -0.237 OA
ATOM     89  O   UNL A   1      52.813  25.612  31.446  1.00  0.00    -0.744 OA
ENDBRANCH  85  86
ENDBRANCH  59  80
ENDBRANCH  33  34
ENDBRANCH  25  28
ENDBRANCH  23  24
ENDBRANCH  22  23
ENDBRANCH  21  22
ENDBRANCH   3  21
TORSDOF 19
ENDMDL
MODEL 2
REMARK VINA RESULT:      -9.4      2.835      9.576
REMARK SMILES CCCOc1ccc(NC(=O)CCC(=O)NCCCNC(=O)c2ccc(-c3c4nc(c(-c5ccc(S(=O)(=O)[O-])cc5)c5ccc([nH]5)c(-c5ccc(S(=O)(=O)[O-])cc5)c5nc(c(-c6ccc(S(=O)(=O)[O-])cc6)c6ccc3[nH]6)C=C5)C=C4)cc2)cc1
REMARK SMILES IDX 14 1 15 2 16 3 13 5 12 6 10 7 9 8 11 10 8 11 5 12 6 13 84 14
REMARK SMILES IDX 7 15 83 16 4 17 3 18 2 19 1 20 17 21 18 22 19 23 20 24 21 25
REMARK SMILES IDX 22 27 23 28 24 29 82 30 25 31 81 32 26 33 27 34 28 35 75 36
REMARK SMILES IDX 29 37 80 38 74 39 76 40 30 41 79 42 73 43 72 44 31 46 61 47
REMARK SMILES IDX 42 48 60 49 43 50 46 51 59 52 77 53 44 54 45 55 58 57 78 58
REMARK SMILES IDX 47 59 32 60 33 61 41 62 34 63 40 64 35 65 36 66 37 67 38 68
REMARK SMILES IDX 39 69 62 70 63 71 71 72 64 73 70 74 65 75 66 76 67 77 68 78
REMARK SMILES IDX 69 79 48 80 49 81 57 82 50 83 56 84 51 85 52 86 53 87 54 88
REMARK SMILES IDX 55 89
REMARK H PARENT 16 4 9 9 20 26 76 45 46 56
REMARK Flexibility Score: inf
ROOT
ATOM      1  C   UNL A   1      33.656  24.107  23.099  1.00  0.00     0.220 C 
ATOM      2  O   UNL A   1      33.384  24.577  21.993  1.00  0.00    -0.275 OA
ATOM      3  N   UNL A   1      34.371  22.949  23.151  1.00  0.00    -0.356 N 
ATOM      4  H   UNL A   1      34.476  22.493  22.285  1.00  0.00     0.163 HD
ENDROOT
BRANCH   1   5
ATOM      5  C   UNL A   1      33.196  24.803  24.360  1.00  0.00     0.110 C 
BRANCH   5   6
ATOM      6  C   UNL A   1      31.872  24.252  24.876  1.00  0.00     0.110 C 
BRANCH   6   7
ATOM      7  C   UNL A   1      31.371  25.025  26.074  1.00  0.00     0.224 C 
ATOM      8  N   UNL A   1      30.908  26.306  25.966  1.00  0.00    -0.326 N 
ATOM      9  H   UNL A   1      30.743  26.778  26.814  1.00  0.00     0.169 HD
ATOM     10  O   UNL A   1      31.270  24.462  27.169  1.00  0.00    -0.275 OA
BRANCH   8  11
ATOM     11  C   UNL A   1      30.641  27.031  24.800  1.00  0.00     0.041 A 
ATOM     12  C   UNL A   1      30.159  28.764  22.671  1.00  0.00     0.119 A 
ATOM     13  C   UNL A   1      29.275  27.719  22.925  1.00  0.00     0.048 A 
ATOM     14  C   UNL A   1      31.271  28.939  23.481  1.00  0.00     0.048 A 
ATOM     15  C   UNL A   1      29.510  26.854  24.003  1.00  0.00     0.030 A 
ATOM     16  C   UNL A   1      31.561  28.022  24.479  1.00  0.00     0.030 A 
BRANCH  12  17
ATOM     17  O   UNL A   1      29.880  29.654  21.673  1.00  0.00    -0.494 OA
BRANCH  17  18
ATOM     18  C   UNL A   1      28.910  30.638  22.068  1.00  0.00     0.229 C 
BRANCH  18  19
ATOM     19  C   UNL A   1      28.046  31.124  20.894  1.00  0.00     0.038 C 
ATOM     20  C   UNL A   1      27.848  32.638  20.839  1.00  0.00     0.007 C 
ENDBRANCH  18  19
ENDBRANCH  17  18
ENDBRANCH  12  17
ENDBRANCH   8  11
ENDBRANCH   6   7
ENDBRANCH   5   6
ENDBRANCH   1   5
BRANCH   3  21
ATOM     21  C   UNL A   1      35.006  22.271  24.272  1.00  0.00     0.117 C 
BRANCH  21  22
ATOM     22  C   UNL A   1      35.500  23.212  25.368  1.00  0.00     0.042 C 
BRANCH  22  23
ATOM     23  C   UNL A   1      36.926  23.731  25.194  1.00  0.00     0.118 C 
BRANCH  23  24
ATOM     24  N   UNL A   1      37.958  22.755  25.490  1.00  0.00    -0.352 N 
ATOM     25  C   UNL A   1      39.121  22.896  26.208  1.00  0.00     0.251 C 
ATOM     26  H   UNL A   1      37.799  21.856  25.122  1.00  0.00     0.163 HD
ATOM     27  O   UNL A   1      39.880  21.935  26.314  1.00  0.00    -0.269 OA
BRANCH  25  28
ATOM     28  C   UNL A   1      39.498  24.196  26.814  1.00  0.00     0.039 A 
ATOM     29  C   UNL A   1      39.074  24.458  28.120  1.00  0.00     0.014 A 
ATOM     30  C   UNL A   1      40.224  25.167  26.115  1.00  0.00     0.014 A 
ATOM     31  C   UNL A   1      39.421  25.661  28.744  1.00  0.00     0.010 A 
ATOM     32  C   UNL A   1      40.615  26.347  26.760  1.00  0.00     0.010 A 
ATOM     33  C   UNL A   1      40.216  26.609  28.081  1.00  0.00    -0.014 A 
BRANCH  33  34
ATOM     34  C   UNL A   1      40.621  27.868  28.767  1.00  0.00     0.031 A 
ATOM     35  C   UNL A   1      42.000  28.007  29.362  1.00  0.00     0.074 A 
ATOM     36  C   UNL A   1      39.746  28.889  28.873  1.00  0.00     0.049 A 
ATOM     37  N   UNL A   1      42.526  29.029  29.989  1.00  0.00    -0.248 NA
ATOM     38  C   UNL A   1      42.898  26.846  29.253  1.00  0.00     0.031 C 
ATOM     39  C   UNL A   1      38.369  28.880  28.372  1.00  0.00     0.029 A 
ATOM     40  N   UNL A   1      39.882  30.136  29.435  1.00  0.00    -0.354 N 
ATOM     41  C   UNL A   1      43.806  28.632  30.360  1.00  0.00     0.074 A 
ATOM     42  C   UNL A   1      43.965  27.263  29.921  1.00  0.00     0.031 C 
ATOM     43  C   UNL A   1      37.798  30.068  28.631  1.00  0.00     0.029 A 
ATOM     44  C   UNL A   1      38.752  30.915  29.342  1.00  0.00     0.049 A 
ATOM     45  H   UNL A   1      40.713  30.443  29.866  1.00  0.00     0.167 HD
ATOM     46  C   UNL A   1      44.768  29.345  30.993  1.00  0.00     0.031 A 
ATOM     47  C   UNL A   1      38.506  32.166  29.780  1.00  0.00     0.031 A 
ATOM     48  C   UNL A   1      44.628  30.717  31.408  1.00  0.00     0.049 A 
ATOM     49  C   UNL A   1      39.596  32.936  30.479  1.00  0.00     0.074 A 
ATOM     50  C   UNL A   1      45.576  31.536  31.995  1.00  0.00     0.029 A 
ATOM     51  N   UNL A   1      43.471  31.469  31.283  1.00  0.00    -0.354 N 
ATOM     52  N   UNL A   1      40.825  32.564  30.747  1.00  0.00    -0.248 NA
ATOM     53  C   UNL A   1      39.268  34.299  30.924  1.00  0.00     0.031 C 
ATOM     54  C   UNL A   1      44.980  32.770  32.269  1.00  0.00     0.029 A 
ATOM     55  C   UNL A   1      43.676  32.737  31.804  1.00  0.00     0.049 A 
ATOM     56  H   UNL A   1      42.630  31.151  30.883  1.00  0.00     0.167 HD
ATOM     57  C   UNL A   1      41.424  33.659  31.361  1.00  0.00     0.074 A 
ATOM     58  C   UNL A   1      40.430  34.710  31.413  1.00  0.00     0.031 C 
ATOM     59  C   UNL A   1      42.686  33.781  31.839  1.00  0.00     0.031 A 
BRANCH  46  60
ATOM     60  C   UNL A   1      46.078  28.661  31.282  1.00  0.00    -0.014 A 
ATOM     61  C   UNL A   1      47.111  28.641  30.328  1.00  0.00     0.010 A 
ATOM     62  C   UNL A   1      46.311  28.110  32.557  1.00  0.00     0.010 A 
ATOM     63  C   UNL A   1      48.345  28.062  30.635  1.00  0.00     0.020 A 
ATOM     64  C   UNL A   1      47.551  27.551  32.875  1.00  0.00     0.020 A 
ATOM     65  C   UNL A   1      48.559  27.522  31.908  1.00  0.00     0.054 A 
BRANCH  65  66
ATOM     66  S   UNL A   1      50.188  26.826  32.296  1.00  0.00     0.124 S 
ATOM     67  O   UNL A   1      50.898  27.003  31.031  1.00  0.00    -0.237 OA
ATOM     68  O   UNL A   1      50.645  27.671  33.396  1.00  0.00    -0.237 OA
ATOM     69  O   UNL A   1      49.898  25.440  32.656  1.00  0.00    -0.744 OA
ENDBRANCH  65  66
ENDBRANCH  46  60
BRANCH  47  70
ATOM     70  C   UNL A   1      37.166  32.785  29.574  1.00  0.00    -0.014 A 
ATOM     71  C   UNL A   1      36.792  33.286  28.315  1.00  0.00     0.010 A 
ATOM     72  C   UNL A   1      36.272  32.912  30.652  1.00  0.00     0.010 A 
ATOM     73  C   UNL A   1      35.566  33.936  28.146  1.00  0.00     0.020 A 
ATOM     74  C   UNL A   1      35.032  33.535  30.481  1.00  0.00     0.020 A 
ATOM     75  C   UNL A   1      34.696  34.063  29.233  1.00  0.00     0.054 A 
BRANCH  75  76
ATOM     76  S   UNL A   1      33.104  34.901  28.993  1.00  0.00     0.124 S 
ATOM     77  O   UNL A   1      33.524  36.227  28.555  1.00  0.00    -0.237 OA
ATOM     78  O   UNL A   1      32.460  34.072  27.976  1.00  0.00    -0.237 OA
ATOM     79  O   UNL A   1      32.487  34.841  30.316  1.00  0.00    -0.744 OA
ENDBRANCH  75  76
ENDBRANCH  47  70
BRANCH  59  80
ATOM     80  C   UNL A   1      43.088  35.109  32.424  1.00  0.00    -0.014 A 
ATOM     81  C   UNL A   1      43.718  36.092  31.640  1.00  0.00     0.010 A 
ATOM     82  C   UNL A   1      42.772  35.401  33.764  1.00  0.00     0.010 A 
ATOM     83  C   UNL A   1      44.050  37.331  32.195  1.00  0.00     0.020 A 
ATOM     84  C   UNL A   1      43.079  36.647  34.314  1.00  0.00     0.020 A 
ATOM     85  C   UNL A   1      43.729  37.601  33.529  1.00  0.00     0.054 A 
BRANCH  85  86
ATOM     86  S   UNL A   1      44.125  39.235  34.210  1.00  0.00     0.124 S 
ATOM     87  O   UNL A   1      42.987  40.034  33.764  1.00  0.00    -0.237 OA
ATOM     88  O   UNL A   1      44.187  38.978  35.647  1.00  0.00    -0.237 OA
ATOM     89  O   UNL A   1      45.404  39.569  33.589  1.00  0.00    -0.744 OA
ENDBRANCH  85  86
ENDBRANCH  59  80
ENDBRANCH  33  34
ENDBRANCH  25  28
ENDBRANCH  23  24
ENDBRANCH  22  23
ENDBRANCH  21  22
ENDBRANCH   3  21
TORSDOF 19
ENDMDL
MODEL 3
REMARK VINA RESULT:      -9.2      3.307      4.077
REMARK SMILES CCCOc1ccc(NC(=O)CCC(=O)NCCCNC(=O)c2ccc(-c3c4nc(c(-c5ccc(S(=O)(=O)[O-])cc5)c5ccc([nH]5)c(-c5ccc(S(=O)(=O)[O-])cc5)c5nc(c(-c6ccc(S(=O)(=O)[O-])cc6)c6ccc3[nH]6)C=C5)C=C4)cc2)cc1
REMARK SMILES IDX 14 1 15 2 16 3 13 5 12 6 10 7 9 8 11 10 8 11 5 12 6 13 84 14
REMARK SMILES IDX 7 15 83 16 4 17 3 18 2 19 1 20 17 21 18 22 19 23 20 24 21 25
REMARK SMILES IDX 22 27 23 28 24 29 82 30 25 31 81 32 26 33 27 34 28 35 75 36
REMARK SMILES IDX 29 37 80 38 74 39 76 40 30 41 79 42 73 43 72 44 31 46 61 47
REMARK SMILES IDX 42 48 60 49 43 50 46 51 59 52 77 53 44 54 45 55 58 57 78 58
REMARK SMILES IDX 47 59 32 60 33 61 41 62 34 63 40 64 35 65 36 66 37 67 38 68
REMARK SMILES IDX 39 69 62 70 63 71 71 72 64 73 70 74 65 75 66 76 67 77 68 78
REMARK SMILES IDX 69 79 48 80 49 81 57 82 50 83 56 84 51 85 52 86 53 87 54 88
REMARK SMILES IDX 55 89
REMARK H PARENT 16 4 9 9 20 26 76 45 46 56
REMARK Flexibility Score: inf
ROOT
ATOM      1  C   UNL A   1      32.669  28.977  24.354  1.00  0.00     0.220 C 
ATOM      2  O   UNL A   1      32.935  28.801  23.164  1.00  0.00    -0.275 OA
ATOM      3  N   UNL A   1      33.647  29.459  25.171  1.00  0.00    -0.356 N 
ATOM      4  H   UNL A   1      34.545  29.476  24.768  1.00  0.00     0.163 HD
ENDROOT
BRANCH   1   5
ATOM      5  C   UNL A   1      31.290  28.656  24.886  1.00  0.00     0.110 C 
BRANCH   5   6
ATOM      6  C   UNL A   1      31.071  27.158  25.062  1.00  0.00     0.110 C 
BRANCH   6   7
ATOM      7  C   UNL A   1      31.204  26.737  26.507  1.00  0.00     0.224 C 
ATOM      8  N   UNL A   1      31.542  25.462  26.861  1.00  0.00    -0.326 N 
ATOM      9  H   UNL A   1      31.460  25.243  27.817  1.00  0.00     0.169 HD
ATOM     10  O   UNL A   1      31.112  27.582  27.403  1.00  0.00    -0.275 OA
BRANCH   8  11
ATOM     11  C   UNL A   1      31.988  24.427  26.032  1.00  0.00     0.041 A 
ATOM     12  C   UNL A   1      32.724  22.146  24.609  1.00  0.00     0.119 A 
ATOM     13  C   UNL A   1      33.678  23.121  24.893  1.00  0.00     0.048 A 
ATOM     14  C   UNL A   1      31.417  22.314  25.039  1.00  0.00     0.048 A 
ATOM     15  C   UNL A   1      33.311  24.263  25.620  1.00  0.00     0.030 A 
ATOM     16  C   UNL A   1      31.031  23.490  25.663  1.00  0.00     0.030 A 
BRANCH  12  17
ATOM     17  O   UNL A   1      33.105  20.997  23.976  1.00  0.00    -0.494 OA
BRANCH  17  18
ATOM     18  C   UNL A   1      33.821  20.102  24.843  1.00  0.00     0.229 C 
BRANCH  18  19
ATOM     19  C   UNL A   1      33.515  18.624  24.554  1.00  0.00     0.038 C 
ATOM     20  C   UNL A   1      32.820  17.887  25.698  1.00  0.00     0.007 C 
ENDBRANCH  18  19
ENDBRANCH  17  18
ENDBRANCH  12  17
ENDBRANCH   8  11
ENDBRANCH   6   7
ENDBRANCH   5   6
ENDBRANCH   1   5
BRANCH   3  21
ATOM     21  C   UNL A   1      33.589  29.952  26.539  1.00  0.00     0.117 C 
BRANCH  21  22
ATOM     22  C   UNL A   1      34.667  29.376  27.453  1.00  0.00     0.042 C 
BRANCH  22  23
ATOM     23  C   UNL A   1      35.535  30.405  28.175  1.00  0.00     0.118 C 
BRANCH  23  24
ATOM     24  N   UNL A   1      35.539  30.276  29.620  1.00  0.00    -0.352 N 
ATOM     25  C   UNL A   1      36.572  29.962  30.471  1.00  0.00     0.251 C 
ATOM     26  H   UNL A   1      34.671  30.438  30.055  1.00  0.00     0.163 HD
ATOM     27  O   UNL A   1      36.349  29.875  31.677  1.00  0.00    -0.269 OA
BRANCH  25  28
ATOM     28  C   UNL A   1      37.934  29.681  29.957  1.00  0.00     0.039 A 
ATOM     29  C   UNL A   1      38.895  29.224  30.863  1.00  0.00     0.014 A 
ATOM     30  C   UNL A   1      38.289  29.891  28.620  1.00  0.00     0.014 A 
ATOM     31  C   UNL A   1      40.189  28.924  30.424  1.00  0.00     0.010 A 
ATOM     32  C   UNL A   1      39.569  29.540  28.172  1.00  0.00     0.010 A 
ATOM     33  C   UNL A   1      40.535  29.055  29.070  1.00  0.00    -0.014 A 
BRANCH  33  34
ATOM     34  C   UNL A   1      41.901  28.691  28.600  1.00  0.00     0.031 A 
ATOM     35  C   UNL A   1      42.981  29.738  28.498  1.00  0.00     0.074 A 
ATOM     36  C   UNL A   1      42.175  27.417  28.249  1.00  0.00     0.049 A 
ATOM     37  N   UNL A   1      44.226  29.602  28.116  1.00  0.00    -0.248 NA
ATOM     38  C   UNL A   1      42.613  31.118  28.854  1.00  0.00     0.031 C 
ATOM     39  C   UNL A   1      41.217  26.309  28.268  1.00  0.00     0.029 A 
ATOM     40  N   UNL A   1      43.340  26.837  27.807  1.00  0.00    -0.354 N 
ATOM     41  C   UNL A   1      44.784  30.874  28.172  1.00  0.00     0.074 A 
ATOM     42  C   UNL A   1      43.733  31.776  28.590  1.00  0.00     0.031 C 
ATOM     43  C   UNL A   1      41.839  25.183  27.877  1.00  0.00     0.029 A 
ATOM     44  C   UNL A   1      43.229  25.490  27.551  1.00  0.00     0.049 A 
ATOM     45  H   UNL A   1      44.178  27.341  27.684  1.00  0.00     0.167 HD
ATOM     46  C   UNL A   1      46.059  31.256  27.916  1.00  0.00     0.031 A 
ATOM     47  C   UNL A   1      44.137  24.601  27.101  1.00  0.00     0.031 A 
ATOM     48  C   UNL A   1      47.117  30.360  27.527  1.00  0.00     0.049 A 
ATOM     49  C   UNL A   1      45.547  25.054  26.827  1.00  0.00     0.074 A 
ATOM     50  C   UNL A   1      48.452  30.652  27.315  1.00  0.00     0.029 A 
ATOM     51  N   UNL A   1      46.962  29.003  27.292  1.00  0.00    -0.354 N 
ATOM     52  N   UNL A   1      46.070  26.249  26.966  1.00  0.00    -0.248 NA
ATOM     53  C   UNL A   1      46.493  24.034  26.348  1.00  0.00     0.031 C 
ATOM     54  C   UNL A   1      49.098  29.482  26.904  1.00  0.00     0.029 A 
ATOM     55  C   UNL A   1      48.174  28.450  26.912  1.00  0.00     0.049 A 
ATOM     56  H   UNL A   1      46.117  28.507  27.381  1.00  0.00     0.167 HD
ATOM     57  C   UNL A   1      47.411  26.115  26.622  1.00  0.00     0.074 A 
ATOM     58  C   UNL A   1      47.624  24.724  26.283  1.00  0.00     0.031 C 
ATOM     59  C   UNL A   1      48.380  27.062  26.590  1.00  0.00     0.031 A 
BRANCH  46  60
ATOM     60  C   UNL A   1      46.398  32.717  28.050  1.00  0.00    -0.014 A 
ATOM     61  C   UNL A   1      46.906  33.235  29.255  1.00  0.00     0.010 A 
ATOM     62  C   UNL A   1      46.291  33.563  26.931  1.00  0.00     0.010 A 
ATOM     63  C   UNL A   1      47.280  34.579  29.343  1.00  0.00     0.020 A 
ATOM     64  C   UNL A   1      46.687  34.901  27.009  1.00  0.00     0.020 A 
ATOM     65  C   UNL A   1      47.170  35.403  28.219  1.00  0.00     0.054 A 
BRANCH  65  66
ATOM     66  S   UNL A   1      47.714  37.128  28.349  1.00  0.00     0.124 S 
ATOM     67  O   UNL A   1      46.517  37.853  27.926  1.00  0.00    -0.237 OA
ATOM     68  O   UNL A   1      48.056  37.252  29.763  1.00  0.00    -0.237 OA
ATOM     69  O   UNL A   1      48.845  37.206  27.427  1.00  0.00    -0.744 OA
ENDBRANCH  65  66
ENDBRANCH  46  60
BRANCH  47  70
ATOM     70  C   UNL A   1      43.751  23.179  26.876  1.00  0.00    -0.014 A 
ATOM     71  C   UNL A   1      43.717  22.641  25.577  1.00  0.00     0.010 A 
ATOM     72  C   UNL A   1      43.375  22.367  27.961  1.00  0.00     0.010 A 
ATOM     73  C   UNL A   1      43.279  21.331  25.364  1.00  0.00     0.020 A 
ATOM     74  C   UNL A   1      42.964  21.047  27.755  1.00  0.00     0.020 A 
ATOM     75  C   UNL A   1      42.898  20.544  26.454  1.00  0.00     0.054 A 
BRANCH  75  76
ATOM     76  S   UNL A   1      42.341  18.842  26.159  1.00  0.00     0.124 S 
ATOM     77  O   UNL A   1      42.478  18.245  27.483  1.00  0.00    -0.237 OA
ATOM     78  O   UNL A   1      40.971  19.034  25.689  1.00  0.00    -0.237 OA
ATOM     79  O   UNL A   1      43.275  18.350  25.148  1.00  0.00    -0.744 OA
ENDBRANCH  75  76
ENDBRANCH  47  70
BRANCH  59  80
ATOM     80  C   UNL A   1      49.772  26.627  26.218  1.00  0.00    -0.014 A 
ATOM     81  C   UNL A   1      50.236  26.718  24.894  1.00  0.00     0.010 A 
ATOM     82  C   UNL A   1      50.651  26.179  27.223  1.00  0.00     0.010 A 
ATOM     83  C   UNL A   1      51.545  26.342  24.577  1.00  0.00     0.020 A 
ATOM     84  C   UNL A   1      51.967  25.828  26.914  1.00  0.00     0.020 A 
ATOM     85  C   UNL A   1      52.402  25.898  25.589  1.00  0.00     0.054 A 
BRANCH  85  86
ATOM     86  S   UNL A   1      54.110  25.464  25.161  1.00  0.00     0.124 S 
ATOM     87  O   UNL A   1      54.054  24.006  25.128  1.00  0.00    -0.237 OA
ATOM     88  O   UNL A   1      54.293  26.116  23.866  1.00  0.00    -0.237 OA
ATOM     89  O   UNL A   1      54.896  26.033  26.254  1.00  0.00    -0.744 OA
ENDBRANCH  85  86
ENDBRANCH  59  80
ENDBRANCH  33  34
ENDBRANCH  25  28
ENDBRANCH  23  24
ENDBRANCH  22  23
ENDBRANCH  21  22
ENDBRANCH   3  21
TORSDOF 19
ENDMDL
