MODEL 1
REMARK VINA RESULT:     -11.0      0.000      0.000
REMARK SMILES C[C@@H](C(=O)NCCCNC(=O)c1ccc(-c2c3nc(c(-c4ccc(S(=O)(=O)[O-])cc4)c4ccc([nH]4)c(-c4ccc(S(=O)(=O)[O-])cc4)c4nc(c(-c5ccc(S(=O)(=O)[O-])cc5)c5ccc2[nH]5)C=C4)C=C3)cc1)c1ccc(C[C@H]2CCC[C@@H]2O)cc1Br
REMARK SMILES IDX 6 1 5 2 3 3 4 4 2 6 1 7 72 8 73 9 84 10 74 11 83 12 85 13
REMARK SMILES IDX 75 14 76 15 77 16 78 17 81 18 79 19 80 20 82 21 7 23 8 24
REMARK SMILES IDX 9 25 10 26 11 28 12 29 13 30 71 31 14 32 70 33 15 34 16 35
REMARK SMILES IDX 17 36 64 37 18 38 69 39 63 40 65 41 19 42 68 43 62 44 61 45
REMARK SMILES IDX 20 47 50 48 31 49 49 50 32 51 35 52 48 53 66 54 33 55 34 56
REMARK SMILES IDX 47 58 67 59 36 60 21 61 22 62 30 63 23 64 29 65 24 66 25 67
REMARK SMILES IDX 26 68 27 69 28 70 51 71 52 72 60 73 53 74 59 75 54 76 55 77
REMARK SMILES IDX 56 78 57 79 58 80 37 81 38 82 46 83 39 84 45 85 40 86 41 87
REMARK SMILES IDX 42 88 43 89 44 90
REMARK H PARENT 5 5 82 22 9 27 65 46 35 57
REMARK Flexibility Score: inf
ROOT
ATOM      1  C   UNL A   1      32.002  28.405  25.076  1.00  0.00     0.117 C 
ENDROOT
BRANCH   1   2
ATOM      2  N   UNL A   1      31.237  27.410  25.801  1.00  0.00    -0.356 N 
ATOM      3  C   UNL A   1      31.088  26.069  25.596  1.00  0.00     0.227 C 
ATOM      4  O   UNL A   1      30.405  25.481  26.438  1.00  0.00    -0.274 OA
ATOM      5  H   UNL A   1      30.738  27.762  26.574  1.00  0.00     0.163 HD
BRANCH   3   6
ATOM      6  C   UNL A   1      31.787  25.378  24.406  1.00  0.00     0.106 C 
ATOM      7  C   UNL A   1      30.955  25.430  23.125  1.00  0.00     0.023 C 
BRANCH   6   8
ATOM      8  C   UNL A   1      32.186  23.917  24.643  1.00  0.00    -0.022 A 
ATOM      9  C   UNL A   1      31.280  22.878  24.354  1.00  0.00     0.006 A 
ATOM     10  C   UNL A   1      33.475  23.547  25.065  1.00  0.00     0.022 A 
ATOM     11  C   UNL A   1      31.600  21.540  24.583  1.00  0.00     0.004 A 
ATOM     12  C   UNL A   1      33.800  22.200  25.281  1.00  0.00     0.019 A 
ATOM     13  Br  UNL A   1      34.874  24.804  25.354  1.00  0.00    -0.051 Br
ATOM     14  C   UNL A   1      32.850  21.190  25.092  1.00  0.00    -0.047 A 
BRANCH  14  15
ATOM     15  C   UNL A   1      33.161  19.764  25.472  1.00  0.00     0.041 C 
BRANCH  15  16
ATOM     16  C   UNL A   1      33.684  18.875  24.329  1.00  0.00     0.022 C 
ATOM     17  C   UNL A   1      34.945  18.051  24.642  1.00  0.00     0.007 C 
ATOM     18  C   UNL A   1      32.684  17.855  23.772  1.00  0.00     0.117 C 
ATOM     19  C   UNL A   1      34.761  16.702  23.942  1.00  0.00     0.003 C 
ATOM     20  C   UNL A   1      33.575  16.886  23.011  1.00  0.00     0.032 C 
BRANCH  18  21
ATOM     21  O   UNL A   1      31.751  18.462  22.896  1.00  0.00    -0.393 OA
ATOM     22  H   UNL A   1      31.579  19.372  23.186  1.00  0.00     0.210 HD
ENDBRANCH  18  21
ENDBRANCH  15  16
ENDBRANCH  14  15
ENDBRANCH   6   8
ENDBRANCH   3   6
ENDBRANCH   1   2
BRANCH   1  23
ATOM     23  C   UNL A   1      33.488  28.352  25.418  1.00  0.00     0.042 C 
BRANCH  23  24
ATOM     24  C   UNL A   1      33.800  28.481  26.904  1.00  0.00     0.118 C 
BRANCH  24  25
ATOM     25  N   UNL A   1      33.701  29.850  27.386  1.00  0.00    -0.352 N 
ATOM     26  C   UNL A   1      34.590  30.588  28.127  1.00  0.00     0.251 C 
ATOM     27  H   UNL A   1      32.870  30.320  27.143  1.00  0.00     0.163 HD
ATOM     28  O   UNL A   1      34.234  31.668  28.598  1.00  0.00    -0.269 OA
BRANCH  26  29
ATOM     29  C   UNL A   1      35.957  30.084  28.381  1.00  0.00     0.039 A 
ATOM     30  C   UNL A   1      36.903  30.152  27.354  1.00  0.00     0.014 A 
ATOM     31  C   UNL A   1      36.308  29.536  29.618  1.00  0.00     0.014 A 
ATOM     32  C   UNL A   1      38.214  29.732  27.590  1.00  0.00     0.010 A 
ATOM     33  C   UNL A   1      37.634  29.197  29.877  1.00  0.00     0.010 A 
ATOM     34  C   UNL A   1      38.601  29.287  28.865  1.00  0.00    -0.014 A 
BRANCH  34  35
ATOM     35  C   UNL A   1      40.011  28.919  29.160  1.00  0.00     0.031 A 
ATOM     36  C   UNL A   1      40.949  29.931  29.762  1.00  0.00     0.074 A 
ATOM     37  C   UNL A   1      40.464  27.695  28.826  1.00  0.00     0.049 A 
ATOM     38  N   UNL A   1      42.225  29.814  30.033  1.00  0.00    -0.248 NA
ATOM     39  C   UNL A   1      40.389  31.255  30.079  1.00  0.00     0.031 C 
ATOM     40  C   UNL A   1      39.666  26.637  28.200  1.00  0.00     0.029 A 
ATOM     41  N   UNL A   1      41.710  27.133  28.957  1.00  0.00    -0.354 N 
ATOM     42  C   UNL A   1      42.621  31.048  30.534  1.00  0.00     0.074 A 
ATOM     43  C   UNL A   1      41.465  31.915  30.481  1.00  0.00     0.031 C 
ATOM     44  C   UNL A   1      40.434  25.550  28.025  1.00  0.00     0.029 A 
ATOM     45  C   UNL A   1      41.790  25.845  28.479  1.00  0.00     0.049 A 
ATOM     46  H   UNL A   1      42.475  27.606  29.356  1.00  0.00     0.167 HD
ATOM     47  C   UNL A   1      43.833  31.422  31.012  1.00  0.00     0.031 A 
ATOM     48  C   UNL A   1      42.836  24.999  28.401  1.00  0.00     0.031 A 
ATOM     49  C   UNL A   1      44.980  30.554  31.063  1.00  0.00     0.049 A 
ATOM     50  C   UNL A   1      44.176  25.443  28.919  1.00  0.00     0.074 A 
ATOM     51  C   UNL A   1      46.237  30.821  31.580  1.00  0.00     0.029 A 
ATOM     52  N   UNL A   1      45.016  29.256  30.578  1.00  0.00    -0.354 N 
ATOM     53  N   UNL A   1      44.513  26.591  29.456  1.00  0.00    -0.248 NA
ATOM     54  C   UNL A   1      45.276  24.472  28.832  1.00  0.00     0.031 C 
ATOM     55  C   UNL A   1      47.049  29.707  31.349  1.00  0.00     0.029 A 
ATOM     56  C   UNL A   1      46.280  28.719  30.753  1.00  0.00     0.049 A 
ATOM     57  H   UNL A   1      44.254  28.785  30.167  1.00  0.00     0.167 HD
ATOM     58  C   UNL A   1      45.856  26.471  29.796  1.00  0.00     0.074 A 
ATOM     59  C   UNL A   1      46.264  25.133  29.419  1.00  0.00     0.031 C 
ATOM     60  C   UNL A   1      46.676  27.386  30.371  1.00  0.00     0.031 A 
BRANCH  47  61
ATOM     61  C   UNL A   1      43.981  32.839  31.505  1.00  0.00    -0.014 A 
ATOM     62  C   UNL A   1      44.318  33.886  30.627  1.00  0.00     0.010 A 
ATOM     63  C   UNL A   1      43.745  33.135  32.860  1.00  0.00     0.010 A 
ATOM     64  C   UNL A   1      44.464  35.192  31.104  1.00  0.00     0.020 A 
ATOM     65  C   UNL A   1      43.859  34.446  33.335  1.00  0.00     0.020 A 
ATOM     66  C   UNL A   1      44.236  35.462  32.456  1.00  0.00     0.054 A 
BRANCH  66  67
ATOM     67  S   UNL A   1      44.420  37.168  33.043  1.00  0.00     0.124 S 
ATOM     68  O   UNL A   1      45.475  37.030  34.045  1.00  0.00    -0.237 OA
ATOM     69  O   UNL A   1      44.800  37.885  31.828  1.00  0.00    -0.237 OA
ATOM     70  O   UNL A   1      43.099  37.499  33.572  1.00  0.00    -0.744 OA
ENDBRANCH  66  67
ENDBRANCH  47  61
BRANCH  48  71
ATOM     71  C   UNL A   1      42.651  23.644  27.810  1.00  0.00    -0.014 A 
ATOM     72  C   UNL A   1      43.000  23.390  26.472  1.00  0.00     0.010 A 
ATOM     73  C   UNL A   1      42.140  22.592  28.594  1.00  0.00     0.010 A 
ATOM     74  C   UNL A   1      42.824  22.116  25.924  1.00  0.00     0.020 A 
ATOM     75  C   UNL A   1      41.994  21.310  28.058  1.00  0.00     0.020 A 
ATOM     76  C   UNL A   1      42.326  21.083  26.722  1.00  0.00     0.054 A 
BRANCH  76  77
ATOM     77  S   UNL A   1      42.161  19.424  26.003  1.00  0.00     0.124 S 
ATOM     78  O   UNL A   1      40.720  19.325  25.798  1.00  0.00    -0.237 OA
ATOM     79  O   UNL A   1      42.969  19.525  24.790  1.00  0.00    -0.237 OA
ATOM     80  O   UNL A   1      42.710  18.549  27.037  1.00  0.00    -0.744 OA
ENDBRANCH  76  77
ENDBRANCH  48  71
BRANCH  60  81
ATOM     81  C   UNL A   1      48.092  26.965  30.665  1.00  0.00    -0.014 A 
ATOM     82  C   UNL A   1      49.143  27.255  29.775  1.00  0.00     0.010 A 
ATOM     83  C   UNL A   1      48.383  26.322  31.882  1.00  0.00     0.010 A 
ATOM     84  C   UNL A   1      50.453  26.883  30.087  1.00  0.00     0.020 A 
ATOM     85  C   UNL A   1      49.697  25.978  32.211  1.00  0.00     0.020 A 
ATOM     86  C   UNL A   1      50.723  26.249  31.304  1.00  0.00     0.054 A 
BRANCH  86  87
ATOM     87  S   UNL A   1      52.439  25.824  31.705  1.00  0.00     0.124 S 
ATOM     88  O   UNL A   1      53.108  26.020  30.421  1.00  0.00    -0.237 OA
ATOM     89  O   UNL A   1      52.775  26.796  32.743  1.00  0.00    -0.237 OA
ATOM     90  O   UNL A   1      52.358  24.438  32.160  1.00  0.00    -0.744 OA
ENDBRANCH  86  87
ENDBRANCH  60  81
ENDBRANCH  34  35
ENDBRANCH  26  29
ENDBRANCH  24  25
ENDBRANCH  23  24
ENDBRANCH   1  23
TORSDOF 17
ENDMDL
MODEL 2
REMARK VINA RESULT:     -10.9      2.860      9.607
REMARK SMILES C[C@@H](C(=O)NCCCNC(=O)c1ccc(-c2c3nc(c(-c4ccc(S(=O)(=O)[O-])cc4)c4ccc([nH]4)c(-c4ccc(S(=O)(=O)[O-])cc4)c4nc(c(-c5ccc(S(=O)(=O)[O-])cc5)c5ccc2[nH]5)C=C4)C=C3)cc1)c1ccc(C[C@H]2CCC[C@@H]2O)cc1Br
REMARK SMILES IDX 6 1 5 2 3 3 4 4 2 6 1 7 72 8 73 9 84 10 74 11 83 12 85 13
REMARK SMILES IDX 75 14 76 15 77 16 78 17 81 18 79 19 80 20 82 21 7 23 8 24
REMARK SMILES IDX 9 25 10 26 11 28 12 29 13 30 71 31 14 32 70 33 15 34 16 35
REMARK SMILES IDX 17 36 64 37 18 38 69 39 63 40 65 41 19 42 68 43 62 44 61 45
REMARK SMILES IDX 20 47 50 48 31 49 49 50 32 51 35 52 48 53 66 54 33 55 34 56
REMARK SMILES IDX 47 58 67 59 36 60 21 61 22 62 30 63 23 64 29 65 24 66 25 67
REMARK SMILES IDX 26 68 27 69 28 70 51 71 52 72 60 73 53 74 59 75 54 76 55 77
REMARK SMILES IDX 56 78 57 79 58 80 37 81 38 82 46 83 39 84 45 85 40 86 41 87
REMARK SMILES IDX 42 88 43 89 44 90
REMARK H PARENT 5 5 82 22 9 27 65 46 35 57
REMARK Flexibility Score: inf
ROOT
ATOM      1  C   UNL A   1      34.988  21.991  24.699  1.00  0.00     0.117 C 
ENDROOT
BRANCH   1   2
ATOM      2  N   UNL A   1      33.952  21.080  25.145  1.00  0.00    -0.356 N 
ATOM      3  C   UNL A   1      32.632  20.990  24.811  1.00  0.00     0.227 C 
ATOM      4  O   UNL A   1      32.021  20.052  25.329  1.00  0.00    -0.274 OA
ATOM      5  H   UNL A   1      34.253  20.412  25.803  1.00  0.00     0.163 HD
BRANCH   3   6
ATOM      6  C   UNL A   1      32.009  21.988  23.812  1.00  0.00     0.106 C 
ATOM      7  C   UNL A   1      32.266  21.600  22.356  1.00  0.00     0.023 C 
BRANCH   6   8
ATOM      8  C   UNL A   1      32.446  23.446  23.988  1.00  0.00    -0.022 A 
ATOM      9  C   UNL A   1      33.211  24.084  22.992  1.00  0.00     0.006 A 
ATOM     10  C   UNL A   1      32.039  24.228  25.085  1.00  0.00     0.022 A 
ATOM     11  C   UNL A   1      33.648  25.401  23.133  1.00  0.00     0.004 A 
ATOM     12  C   UNL A   1      32.468  25.556  25.218  1.00  0.00     0.019 A 
ATOM     13  Br  UNL A   1      30.879  23.580  26.447  1.00  0.00    -0.051 Br
ATOM     14  C   UNL A   1      33.318  26.138  24.270  1.00  0.00    -0.047 A 
BRANCH  14  15
ATOM     15  C   UNL A   1      33.895  27.512  24.499  1.00  0.00     0.041 C 
BRANCH  15  16
ATOM     16  C   UNL A   1      33.314  28.280  25.700  1.00  0.00     0.022 C 
ATOM     17  C   UNL A   1      34.292  28.564  26.854  1.00  0.00     0.007 C 
ATOM     18  C   UNL A   1      32.692  29.643  25.376  1.00  0.00     0.117 C 
ATOM     19  C   UNL A   1      33.944  29.959  27.377  1.00  0.00     0.003 C 
ATOM     20  C   UNL A   1      32.612  30.313  26.739  1.00  0.00     0.032 C 
BRANCH  18  21
ATOM     21  O   UNL A   1      31.398  29.508  24.815  1.00  0.00    -0.393 OA
ATOM     22  H   UNL A   1      31.141  30.343  24.392  1.00  0.00     0.210 HD
ENDBRANCH  18  21
ENDBRANCH  15  16
ENDBRANCH  14  15
ENDBRANCH   6   8
ENDBRANCH   3   6
ENDBRANCH   1   2
BRANCH   1  23
ATOM     23  C   UNL A   1      35.449  22.930  25.810  1.00  0.00     0.042 C 
BRANCH  23  24
ATOM     24  C   UNL A   1      36.824  23.549  25.585  1.00  0.00     0.118 C 
BRANCH  24  25
ATOM     25  N   UNL A   1      37.912  22.635  25.896  1.00  0.00    -0.352 N 
ATOM     26  C   UNL A   1      39.147  22.891  26.438  1.00  0.00     0.251 C 
ATOM     27  H   UNL A   1      37.737  21.689  25.685  1.00  0.00     0.163 HD
ATOM     28  O   UNL A   1      40.001  22.004  26.443  1.00  0.00    -0.269 OA
BRANCH  26  29
ATOM     29  C   UNL A   1      39.462  24.225  26.993  1.00  0.00     0.039 A 
ATOM     30  C   UNL A   1      39.060  24.528  28.296  1.00  0.00     0.014 A 
ATOM     31  C   UNL A   1      40.140  25.182  26.231  1.00  0.00     0.014 A 
ATOM     32  C   UNL A   1      39.396  25.762  28.857  1.00  0.00     0.010 A 
ATOM     33  C   UNL A   1      40.546  26.377  26.820  1.00  0.00     0.010 A 
ATOM     34  C   UNL A   1      40.176  26.683  28.138  1.00  0.00    -0.014 A 
BRANCH  34  35
ATOM     35  C   UNL A   1      40.618  27.964  28.748  1.00  0.00     0.031 A 
ATOM     36  C   UNL A   1      42.001  28.091  29.330  1.00  0.00     0.074 A 
ATOM     37  C   UNL A   1      39.752  28.993  28.839  1.00  0.00     0.049 A 
ATOM     38  N   UNL A   1      42.542  29.105  29.956  1.00  0.00    -0.248 NA
ATOM     39  C   UNL A   1      42.883  26.918  29.214  1.00  0.00     0.031 C 
ATOM     40  C   UNL A   1      38.370  28.983  28.351  1.00  0.00     0.029 A 
ATOM     41  N   UNL A   1      39.900  30.246  29.381  1.00  0.00    -0.354 N 
ATOM     42  C   UNL A   1      43.817  28.688  30.322  1.00  0.00     0.074 A 
ATOM     43  C   UNL A   1      43.949  27.313  29.896  1.00  0.00     0.031 C 
ATOM     44  C   UNL A   1      37.808  30.178  28.594  1.00  0.00     0.029 A 
ATOM     45  C   UNL A   1      38.769  31.023  29.297  1.00  0.00     0.049 A 
ATOM     46  H   UNL A   1      40.738  30.558  29.792  1.00  0.00     0.167 HD
ATOM     47  C   UNL A   1      44.796  29.391  30.942  1.00  0.00     0.031 A 
ATOM     48  C   UNL A   1      38.524  32.271  29.744  1.00  0.00     0.031 A 
ATOM     49  C   UNL A   1      44.659  30.761  31.363  1.00  0.00     0.049 A 
ATOM     50  C   UNL A   1      39.619  33.025  30.447  1.00  0.00     0.074 A 
ATOM     51  C   UNL A   1      45.610  31.578  31.949  1.00  0.00     0.029 A 
ATOM     52  N   UNL A   1      43.501  31.514  31.251  1.00  0.00    -0.354 N 
ATOM     53  N   UNL A   1      40.842  32.637  30.720  1.00  0.00    -0.248 NA
ATOM     54  C   UNL A   1      39.305  34.389  30.892  1.00  0.00     0.031 C 
ATOM     55  C   UNL A   1      45.008  32.803  32.248  1.00  0.00     0.029 A 
ATOM     56  C   UNL A   1      43.702  32.775  31.785  1.00  0.00     0.049 A 
ATOM     57  H   UNL A   1      42.658  31.198  30.851  1.00  0.00     0.167 HD
ATOM     58  C   UNL A   1      41.452  33.720  31.344  1.00  0.00     0.074 A 
ATOM     59  C   UNL A   1      40.468  34.782  31.393  1.00  0.00     0.031 C 
ATOM     60  C   UNL A   1      42.714  33.825  31.830  1.00  0.00     0.031 A 
BRANCH  47  61
ATOM     61  C   UNL A   1      46.099  28.682  31.213  1.00  0.00    -0.014 A 
ATOM     62  C   UNL A   1      47.176  28.764  30.311  1.00  0.00     0.010 A 
ATOM     63  C   UNL A   1      46.262  27.952  32.405  1.00  0.00     0.010 A 
ATOM     64  C   UNL A   1      48.372  28.090  30.573  1.00  0.00     0.020 A 
ATOM     65  C   UNL A   1      47.468  27.303  32.686  1.00  0.00     0.020 A 
ATOM     66  C   UNL A   1      48.509  27.362  31.757  1.00  0.00     0.054 A 
BRANCH  66  67
ATOM     67  S   UNL A   1      50.078  26.510  32.076  1.00  0.00     0.124 S 
ATOM     68  O   UNL A   1      50.963  27.130  31.093  1.00  0.00    -0.237 OA
ATOM     69  O   UNL A   1      50.351  26.853  33.470  1.00  0.00    -0.237 OA
ATOM     70  O   UNL A   1      49.766  25.103  31.833  1.00  0.00    -0.744 OA
ENDBRANCH  66  67
ENDBRANCH  47  61
BRANCH  48  71
ATOM     71  C   UNL A   1      37.182  32.883  29.535  1.00  0.00    -0.014 A 
ATOM     72  C   UNL A   1      36.182  32.776  30.517  1.00  0.00     0.010 A 
ATOM     73  C   UNL A   1      36.904  33.595  28.353  1.00  0.00     0.010 A 
ATOM     74  C   UNL A   1      34.925  33.353  30.315  1.00  0.00     0.020 A 
ATOM     75  C   UNL A   1      35.659  34.201  28.162  1.00  0.00     0.020 A 
ATOM     76  C   UNL A   1      34.673  34.066  29.140  1.00  0.00     0.054 A 
BRANCH  76  77
ATOM     77  S   UNL A   1      33.052  34.854  28.926  1.00  0.00     0.124 S 
ATOM     78  O   UNL A   1      32.404  33.961  27.971  1.00  0.00    -0.237 OA
ATOM     79  O   UNL A   1      32.511  34.834  30.282  1.00  0.00    -0.237 OA
ATOM     80  O   UNL A   1      33.384  36.183  28.416  1.00  0.00    -0.744 OA
ENDBRANCH  76  77
ENDBRANCH  48  71
BRANCH  60  81
ATOM     81  C   UNL A   1      43.123  35.145  32.427  1.00  0.00    -0.014 A 
ATOM     82  C   UNL A   1      43.713  36.154  31.644  1.00  0.00     0.010 A 
ATOM     83  C   UNL A   1      42.855  35.402  33.785  1.00  0.00     0.010 A 
ATOM     84  C   UNL A   1      44.052  37.383  32.215  1.00  0.00     0.020 A 
ATOM     85  C   UNL A   1      43.163  36.642  34.352  1.00  0.00     0.020 A 
ATOM     86  C   UNL A   1      43.773  37.621  33.565  1.00  0.00     0.054 A 
BRANCH  86  87
ATOM     87  S   UNL A   1      44.177  39.243  34.267  1.00  0.00     0.124 S 
ATOM     88  O   UNL A   1      45.478  39.520  33.664  1.00  0.00    -0.237 OA
ATOM     89  O   UNL A   1      43.075  40.078  33.796  1.00  0.00    -0.237 OA
ATOM     90  O   UNL A   1      44.197  39.003  35.708  1.00  0.00    -0.744 OA
ENDBRANCH  86  87
ENDBRANCH  60  81
ENDBRANCH  34  35
ENDBRANCH  26  29
ENDBRANCH  24  25
ENDBRANCH  23  24
ENDBRANCH   1  23
TORSDOF 17
ENDMDL
MODEL 3
REMARK VINA RESULT:     -10.8      3.059      3.844
REMARK SMILES C[C@@H](C(=O)NCCCNC(=O)c1ccc(-c2c3nc(c(-c4ccc(S(=O)(=O)[O-])cc4)c4ccc([nH]4)c(-c4ccc(S(=O)(=O)[O-])cc4)c4nc(c(-c5ccc(S(=O)(=O)[O-])cc5)c5ccc2[nH]5)C=C4)C=C3)cc1)c1ccc(C[C@H]2CCC[C@@H]2O)cc1Br
REMARK SMILES IDX 6 1 5 2 3 3 4 4 2 6 1 7 72 8 73 9 84 10 74 11 83 12 85 13
REMARK SMILES IDX 75 14 76 15 77 16 78 17 81 18 79 19 80 20 82 21 7 23 8 24
REMARK SMILES IDX 9 25 10 26 11 28 12 29 13 30 71 31 14 32 70 33 15 34 16 35
REMARK SMILES IDX 17 36 64 37 18 38 69 39 63 40 65 41 19 42 68 43 62 44 61 45
REMARK SMILES IDX 20 47 50 48 31 49 49 50 32 51 35 52 48 53 66 54 33 55 34 56
REMARK SMILES IDX 47 58 67 59 36 60 21 61 22 62 30 63 23 64 29 65 24 66 25 67
REMARK SMILES IDX 26 68 27 69 28 70 51 71 52 72 60 73 53 74 59 75 54 76 55 77
REMARK SMILES IDX 56 78 57 79 58 80 37 81 38 82 46 83 39 84 45 85 40 86 41 87
REMARK SMILES IDX 42 88 43 89 44 90
REMARK H PARENT 5 5 82 22 9 27 65 46 35 57
REMARK Flexibility Score: inf
ROOT
ATOM      1  C   UNL A   1      31.690  27.874  26.024  1.00  0.00     0.117 C 
ENDROOT
BRANCH   1   2
ATOM      2  N   UNL A   1      30.843  26.803  26.511  1.00  0.00    -0.356 N 
ATOM      3  C   UNL A   1      30.614  25.549  26.024  1.00  0.00     0.227 C 
ATOM      4  O   UNL A   1      29.872  24.845  26.714  1.00  0.00    -0.274 OA
ATOM      5  H   UNL A   1      30.347  27.017  27.335  1.00  0.00     0.163 HD
BRANCH   3   6
ATOM      6  C   UNL A   1      31.298  25.079  24.724  1.00  0.00     0.106 C 
ATOM      7  C   UNL A   1      30.557  23.921  24.055  1.00  0.00     0.023 C 
BRANCH   6   8
ATOM      8  C   UNL A   1      32.767  24.665  24.872  1.00  0.00    -0.022 A 
ATOM      9  C   UNL A   1      33.213  24.040  26.052  1.00  0.00     0.006 A 
ATOM     10  C   UNL A   1      33.698  24.805  23.827  1.00  0.00     0.022 A 
ATOM     11  C   UNL A   1      34.548  23.676  26.230  1.00  0.00     0.004 A 
ATOM     12  C   UNL A   1      35.036  24.426  24.003  1.00  0.00     0.019 A 
ATOM     13  Br  UNL A   1      33.238  25.486  22.110  1.00  0.00    -0.051 Br
ATOM     14  C   UNL A   1      35.484  23.906  25.223  1.00  0.00    -0.047 A 
BRANCH  14  15
ATOM     15  C   UNL A   1      36.951  23.645  25.453  1.00  0.00     0.041 C 
BRANCH  15  16
ATOM     16  C   UNL A   1      37.315  22.191  25.806  1.00  0.00     0.022 C 
ATOM     17  C   UNL A   1      36.685  21.106  24.915  1.00  0.00     0.007 C 
ATOM     18  C   UNL A   1      38.813  21.866  25.812  1.00  0.00     0.117 C 
ATOM     19  C   UNL A   1      37.751  20.021  24.742  1.00  0.00     0.003 C 
ATOM     20  C   UNL A   1      38.831  20.346  25.761  1.00  0.00     0.032 C 
BRANCH  18  21
ATOM     21  O   UNL A   1      39.444  22.327  26.993  1.00  0.00    -0.393 OA
ATOM     22  H   UNL A   1      39.848  21.578  27.458  1.00  0.00     0.210 HD
ENDBRANCH  18  21
ENDBRANCH  15  16
ENDBRANCH  14  15
ENDBRANCH   6   8
ENDBRANCH   3   6
ENDBRANCH   1   2
BRANCH   1  23
ATOM     23  C   UNL A   1      33.072  27.856  26.670  1.00  0.00     0.042 C 
BRANCH  23  24
ATOM     24  C   UNL A   1      34.057  28.860  26.084  1.00  0.00     0.118 C 
BRANCH  24  25
ATOM     25  N   UNL A   1      33.819  30.220  26.543  1.00  0.00    -0.352 N 
ATOM     26  C   UNL A   1      34.451  30.940  27.526  1.00  0.00     0.251 C 
ATOM     27  H   UNL A   1      33.093  30.697  26.078  1.00  0.00     0.163 HD
ATOM     28  O   UNL A   1      33.971  32.012  27.894  1.00  0.00    -0.269 OA
BRANCH  26  29
ATOM     29  C   UNL A   1      35.687  30.427  28.156  1.00  0.00     0.039 A 
ATOM     30  C   UNL A   1      36.922  30.770  27.600  1.00  0.00     0.014 A 
ATOM     31  C   UNL A   1      35.634  29.601  29.283  1.00  0.00     0.014 A 
ATOM     32  C   UNL A   1      38.102  30.341  28.212  1.00  0.00     0.010 A 
ATOM     33  C   UNL A   1      36.810  29.245  29.939  1.00  0.00     0.010 A 
ATOM     34  C   UNL A   1      38.057  29.607  29.409  1.00  0.00    -0.014 A 
BRANCH  34  35
ATOM     35  C   UNL A   1      39.301  29.216  30.122  1.00  0.00     0.031 A 
ATOM     36  C   UNL A   1      39.735  29.962  31.356  1.00  0.00     0.074 A 
ATOM     37  C   UNL A   1      40.076  28.233  29.622  1.00  0.00     0.049 A 
ATOM     38  N   UNL A   1      40.817  29.806  32.076  1.00  0.00    -0.248 NA
ATOM     39  C   UNL A   1      38.850  31.039  31.830  1.00  0.00     0.031 C 
ATOM     40  C   UNL A   1      39.788  27.461  28.410  1.00  0.00     0.029 A 
ATOM     41  N   UNL A   1      41.270  27.719  30.064  1.00  0.00    -0.354 N 
ATOM     42  C   UNL A   1      40.751  30.772  33.073  1.00  0.00     0.074 A 
ATOM     43  C   UNL A   1      39.551  31.542  32.836  1.00  0.00     0.031 C 
ATOM     44  C   UNL A   1      40.763  26.557  28.221  1.00  0.00     0.029 A 
ATOM     45  C   UNL A   1      41.770  26.716  29.266  1.00  0.00     0.049 A 
ATOM     46  H   UNL A   1      41.726  28.037  30.876  1.00  0.00     0.167 HD
ATOM     47  C   UNL A   1      41.603  30.988  34.105  1.00  0.00     0.031 A 
ATOM     48  C   UNL A   1      42.915  26.010  29.355  1.00  0.00     0.031 A 
ATOM     49  C   UNL A   1      42.797  30.217  34.338  1.00  0.00     0.049 A 
ATOM     50  C   UNL A   1      43.855  26.281  30.497  1.00  0.00     0.074 A 
ATOM     51  C   UNL A   1      43.696  30.321  35.385  1.00  0.00     0.029 A 
ATOM     52  N   UNL A   1      43.262  29.206  33.512  1.00  0.00    -0.354 N 
ATOM     53  N   UNL A   1      43.739  27.151  31.471  1.00  0.00    -0.248 NA
ATOM     54  C   UNL A   1      45.076  25.466  30.558  1.00  0.00     0.031 C 
ATOM     55  C   UNL A   1      44.737  29.416  35.158  1.00  0.00     0.029 A 
ATOM     56  C   UNL A   1      44.451  28.698  34.007  1.00  0.00     0.049 A 
ATOM     57  H   UNL A   1      42.813  28.894  32.692  1.00  0.00     0.167 HD
ATOM     58  C   UNL A   1      44.857  26.969  32.277  1.00  0.00     0.074 A 
ATOM     59  C   UNL A   1      45.629  25.896  31.684  1.00  0.00     0.031 C 
ATOM     60  C   UNL A   1      45.212  27.630  33.407  1.00  0.00     0.031 A 
BRANCH  47  61
ATOM     61  C   UNL A   1      41.279  32.115  35.053  1.00  0.00    -0.014 A 
ATOM     62  C   UNL A   1      40.547  31.888  36.234  1.00  0.00     0.010 A 
ATOM     63  C   UNL A   1      41.745  33.414  34.779  1.00  0.00     0.010 A 
ATOM     64  C   UNL A   1      40.245  32.946  37.095  1.00  0.00     0.020 A 
ATOM     65  C   UNL A   1      41.472  34.470  35.654  1.00  0.00     0.020 A 
ATOM     66  C   UNL A   1      40.707  34.231  36.798  1.00  0.00     0.054 A 
BRANCH  66  67
ATOM     67  S   UNL A   1      40.312  35.582  37.941  1.00  0.00     0.124 S 
ATOM     68  O   UNL A   1      40.104  36.701  37.025  1.00  0.00    -0.237 OA
ATOM     69  O   UNL A   1      39.111  35.091  38.613  1.00  0.00    -0.237 OA
ATOM     70  O   UNL A   1      41.498  35.682  38.787  1.00  0.00    -0.744 OA
ENDBRANCH  66  67
ENDBRANCH  47  61
BRANCH  48  71
ATOM     71  C   UNL A   1      43.230  24.976  28.329  1.00  0.00    -0.014 A 
ATOM     72  C   UNL A   1      42.758  23.659  28.469  1.00  0.00     0.010 A 
ATOM     73  C   UNL A   1      43.991  25.312  27.195  1.00  0.00     0.010 A 
ATOM     74  C   UNL A   1      43.057  22.694  27.503  1.00  0.00     0.020 A 
ATOM     75  C   UNL A   1      44.264  24.357  26.211  1.00  0.00     0.020 A 
ATOM     76  C   UNL A   1      43.804  23.051  26.377  1.00  0.00     0.054 A 
BRANCH  76  77
ATOM     77  S   UNL A   1      44.130  21.794  25.109  1.00  0.00     0.124 S 
ATOM     78  O   UNL A   1      43.130  20.779  25.423  1.00  0.00    -0.237 OA
ATOM     79  O   UNL A   1      43.915  22.535  23.869  1.00  0.00    -0.237 OA
ATOM     80  O   UNL A   1      45.517  21.406  25.361  1.00  0.00    -0.744 OA
ENDBRANCH  76  77
ENDBRANCH  48  71
BRANCH  60  81
ATOM     81  C   UNL A   1      46.473  27.192  34.104  1.00  0.00    -0.014 A 
ATOM     82  C   UNL A   1      47.713  27.795  33.826  1.00  0.00     0.010 A 
ATOM     83  C   UNL A   1      46.402  26.199  35.100  1.00  0.00     0.010 A 
ATOM     84  C   UNL A   1      48.862  27.392  34.511  1.00  0.00     0.020 A 
ATOM     85  C   UNL A   1      47.544  25.818  35.810  1.00  0.00     0.020 A 
ATOM     86  C   UNL A   1      48.771  26.408  35.501  1.00  0.00     0.054 A 
BRANCH  86  87
ATOM     87  S   UNL A   1      50.269  25.943  36.410  1.00  0.00     0.124 S 
ATOM     88  O   UNL A   1      50.359  27.003  37.410  1.00  0.00    -0.237 OA
ATOM     89  O   UNL A   1      49.931  24.619  36.926  1.00  0.00    -0.237 OA
ATOM     90  O   UNL A   1      51.315  25.959  35.389  1.00  0.00    -0.744 OA
ENDBRANCH  86  87
ENDBRANCH  60  81
ENDBRANCH  34  35
ENDBRANCH  26  29
ENDBRANCH  24  25
ENDBRANCH  23  24
ENDBRANCH   1  23
TORSDOF 17
ENDMDL
