MODEL 1
REMARK VINA RESULT:      -9.0      0.000      0.000
REMARK SMILES COc1cccc(C(=O)NCc2ccc(OC)c(C(=O)NCCCNC(=O)c3ccc(-c4c5nc(c(-c6ccc(S(=O)(=O)[O-])cc6)c6ccc([nH]6)c(-c6ccc(S(=O)(=O)[O-])cc6)c6nc(c(-c7ccc(S(=O)(=O)[O-])cc7)c7ccc4[nH]7)C=C6)C=C5)cc3)c2)c1
REMARK SMILES IDX 22 1 21 2 19 3 20 4 18 6 12 7 13 8 88 9 14 10 15 11 11 12
REMARK SMILES IDX 10 13 8 14 9 15 7 17 3 18 4 19 89 20 5 21 6 22 2 23 1 24
REMARK SMILES IDX 16 25 17 26 23 27 24 28 25 29 26 30 27 32 28 33 29 34 87 35
REMARK SMILES IDX 30 36 86 37 31 38 32 39 33 40 80 41 34 42 85 43 79 44 81 45
REMARK SMILES IDX 35 46 84 47 78 48 77 49 36 51 66 52 47 53 65 54 48 55 51 56
REMARK SMILES IDX 64 57 82 58 49 59 50 60 63 62 83 63 52 64 37 65 38 66 46 67
REMARK SMILES IDX 39 68 45 69 40 70 41 71 42 72 43 73 44 74 67 75 68 76 76 77
REMARK SMILES IDX 69 78 75 79 70 80 71 81 72 82 73 83 74 84 53 85 54 86 62 87
REMARK SMILES IDX 55 88 61 89 56 90 57 91 58 92 59 93 60 94
REMARK H PARENT 21 5 10 16 25 31 81 50 51 61
REMARK Flexibility Score: inf
ROOT
ATOM      1  C   UNL A   1      36.185  32.438  31.091  1.00  0.00     0.118 C 
ENDROOT
BRANCH   1   2
ATOM      2  N   UNL A   1      37.149  33.486  30.769  1.00  0.00    -0.352 N 
ATOM      3  C   UNL A   1      38.201  34.112  31.404  1.00  0.00     0.255 C 
ATOM      4  O   UNL A   1      38.776  34.944  30.706  1.00  0.00    -0.269 OA
ATOM      5  H   UNL A   1      37.013  33.838  29.860  1.00  0.00     0.163 HD
BRANCH   3   6
ATOM      6  C   UNL A   1      38.620  33.837  32.823  1.00  0.00     0.082 A 
ATOM      7  C   UNL A   1      39.970  32.290  34.182  1.00  0.00    -0.028 A 
ATOM      8  C   UNL A   1      39.279  32.687  35.319  1.00  0.00     0.009 A 
ATOM      9  C   UNL A   1      39.748  33.019  33.006  1.00  0.00     0.023 A 
ATOM     10  C   UNL A   1      38.311  33.686  35.223  1.00  0.00     0.047 A 
ATOM     11  C   UNL A   1      37.920  34.231  33.981  1.00  0.00     0.131 A 
BRANCH   7  12
ATOM     12  C   UNL A   1      40.676  30.950  34.167  1.00  0.00     0.152 C 
BRANCH  12  13
ATOM     13  N   UNL A   1      40.007  29.904  33.421  1.00  0.00    -0.348 N 
ATOM     14  C   UNL A   1      40.267  28.606  33.082  1.00  0.00     0.251 C 
ATOM     15  O   UNL A   1      39.434  28.068  32.349  1.00  0.00    -0.269 OA
ATOM     16  H   UNL A   1      39.139  30.206  33.067  1.00  0.00     0.164 HD
BRANCH  14  17
ATOM     17  C   UNL A   1      41.460  27.821  33.509  1.00  0.00     0.043 A 
ATOM     18  C   UNL A   1      42.711  26.377  35.021  1.00  0.00     0.119 A 
ATOM     19  C   UNL A   1      43.788  26.376  34.138  1.00  0.00     0.046 A 
ATOM     20  C   UNL A   1      41.560  27.098  34.698  1.00  0.00     0.060 A 
ATOM     21  C   UNL A   1      43.712  27.079  32.938  1.00  0.00     0.005 A 
ATOM     22  C   UNL A   1      42.554  27.794  32.627  1.00  0.00     0.014 A 
BRANCH  18  23
ATOM     23  O   UNL A   1      42.890  25.652  36.170  1.00  0.00    -0.497 OA
ATOM     24  C   UNL A   1      42.797  26.363  37.401  1.00  0.00     0.278 C 
ENDBRANCH  18  23
ENDBRANCH  14  17
ENDBRANCH  12  13
ENDBRANCH   7  12
BRANCH  11  25
ATOM     25  O   UNL A   1      36.804  35.000  34.158  1.00  0.00    -0.496 OA
ATOM     26  C   UNL A   1      35.516  34.516  33.826  1.00  0.00     0.278 C 
ENDBRANCH  11  25
ENDBRANCH   3   6
ENDBRANCH   1   2
BRANCH   1  27
ATOM     27  C   UNL A   1      34.803  32.678  30.517  1.00  0.00     0.042 C 
BRANCH  27  28
ATOM     28  C   UNL A   1      34.748  32.675  29.003  1.00  0.00     0.118 C 
BRANCH  28  29
ATOM     29  N   UNL A   1      33.994  31.549  28.469  1.00  0.00    -0.352 N 
ATOM     30  C   UNL A   1      34.419  30.322  28.018  1.00  0.00     0.251 C 
ATOM     31  H   UNL A   1      33.021  31.690  28.424  1.00  0.00     0.163 HD
ATOM     32  O   UNL A   1      33.639  29.598  27.408  1.00  0.00    -0.269 OA
BRANCH  30  33
ATOM     33  C   UNL A   1      35.812  29.883  28.251  1.00  0.00     0.039 A 
ATOM     34  C   UNL A   1      36.759  30.037  27.234  1.00  0.00     0.014 A 
ATOM     35  C   UNL A   1      36.182  29.304  29.464  1.00  0.00     0.014 A 
ATOM     36  C   UNL A   1      38.086  29.671  27.466  1.00  0.00     0.010 A 
ATOM     37  C   UNL A   1      37.522  29.054  29.735  1.00  0.00     0.010 A 
ATOM     38  C   UNL A   1      38.487  29.213  28.733  1.00  0.00    -0.014 A 
BRANCH  38  39
ATOM     39  C   UNL A   1      39.898  28.862  29.027  1.00  0.00     0.031 A 
ATOM     40  C   UNL A   1      40.817  29.893  29.634  1.00  0.00     0.074 A 
ATOM     41  C   UNL A   1      40.371  27.647  28.687  1.00  0.00     0.049 A 
ATOM     42  N   UNL A   1      42.095  29.805  29.898  1.00  0.00    -0.248 NA
ATOM     43  C   UNL A   1      40.230  31.207  29.954  1.00  0.00     0.031 C 
ATOM     44  C   UNL A   1      39.594  26.582  28.049  1.00  0.00     0.029 A 
ATOM     45  N   UNL A   1      41.623  27.103  28.825  1.00  0.00    -0.354 N 
ATOM     46  C   UNL A   1      42.466  31.052  30.390  1.00  0.00     0.074 A 
ATOM     47  C   UNL A   1      41.295  31.897  30.329  1.00  0.00     0.031 C 
ATOM     48  C   UNL A   1      40.376  25.503  27.886  1.00  0.00     0.029 A 
ATOM     49  C   UNL A   1      41.720  25.812  28.363  1.00  0.00     0.049 A 
ATOM     50  H   UNL A   1      42.382  27.592  29.219  1.00  0.00     0.167 HD
ATOM     51  C   UNL A   1      43.665  31.451  30.876  1.00  0.00     0.031 A 
ATOM     52  C   UNL A   1      42.772  24.973  28.321  1.00  0.00     0.031 A 
ATOM     53  C   UNL A   1      44.820  30.598  30.952  1.00  0.00     0.049 A 
ATOM     54  C   UNL A   1      44.096  25.438  28.866  1.00  0.00     0.074 A 
ATOM     55  C   UNL A   1      46.067  30.882  31.480  1.00  0.00     0.029 A 
ATOM     56  N   UNL A   1      44.871  29.292  30.489  1.00  0.00    -0.354 N 
ATOM     57  N   UNL A   1      44.409  26.601  29.389  1.00  0.00    -0.248 NA
ATOM     58  C   UNL A   1      45.203  24.475  28.828  1.00  0.00     0.031 C 
ATOM     59  C   UNL A   1      46.888  29.768  31.285  1.00  0.00     0.029 A 
ATOM     60  C   UNL A   1      46.134  28.765  30.696  1.00  0.00     0.049 A 
ATOM     61  H   UNL A   1      44.120  28.810  30.072  1.00  0.00     0.167 HD
ATOM     62  C   UNL A   1      45.742  26.496  29.772  1.00  0.00     0.074 A 
ATOM     63  C   UNL A   1      46.168  25.152  29.435  1.00  0.00     0.031 C 
ATOM     64  C   UNL A   1      46.540  27.425  30.353  1.00  0.00     0.031 A 
BRANCH  51  65
ATOM     65  C   UNL A   1      43.785  32.873  31.360  1.00  0.00    -0.014 A 
ATOM     66  C   UNL A   1      43.479  33.219  32.690  1.00  0.00     0.010 A 
ATOM     67  C   UNL A   1      44.248  33.873  30.485  1.00  0.00     0.010 A 
ATOM     68  C   UNL A   1      43.592  34.543  33.122  1.00  0.00     0.020 A 
ATOM     69  C   UNL A   1      44.393  35.193  30.922  1.00  0.00     0.020 A 
ATOM     70  C   UNL A   1      44.048  35.523  32.235  1.00  0.00     0.054 A 
BRANCH  70  71
ATOM     71  S   UNL A   1      44.212  37.227  32.832  1.00  0.00     0.124 S 
ATOM     72  O   UNL A   1      44.163  37.988  31.586  1.00  0.00    -0.237 OA
ATOM     73  O   UNL A   1      43.048  37.373  33.702  1.00  0.00    -0.237 OA
ATOM     74  O   UNL A   1      45.503  37.235  33.515  1.00  0.00    -0.744 OA
ENDBRANCH  70  71
ENDBRANCH  51  65
BRANCH  52  75
ATOM     75  C   UNL A   1      42.612  23.602  27.762  1.00  0.00    -0.014 A 
ATOM     76  C   UNL A   1      43.027  23.311  26.450  1.00  0.00     0.010 A 
ATOM     77  C   UNL A   1      42.053  22.574  28.544  1.00  0.00     0.010 A 
ATOM     78  C   UNL A   1      42.865  22.026  25.923  1.00  0.00     0.020 A 
ATOM     79  C   UNL A   1      41.919  21.280  28.031  1.00  0.00     0.020 A 
ATOM     80  C   UNL A   1      42.314  21.018  26.718  1.00  0.00     0.054 A 
BRANCH  80  81
ATOM     81  S   UNL A   1      42.155  19.347  26.029  1.00  0.00     0.124 S 
ATOM     82  O   UNL A   1      42.688  18.521  27.107  1.00  0.00    -0.237 OA
ATOM     83  O   UNL A   1      40.717  19.238  25.797  1.00  0.00    -0.237 OA
ATOM     84  O   UNL A   1      42.970  19.398  24.816  1.00  0.00    -0.744 OA
ENDBRANCH  80  81
ENDBRANCH  52  75
BRANCH  64  85
ATOM     85  C   UNL A   1      47.945  27.011  30.703  1.00  0.00    -0.014 A 
ATOM     86  C   UNL A   1      49.016  27.236  29.821  1.00  0.00     0.010 A 
ATOM     87  C   UNL A   1      48.201  26.430  31.958  1.00  0.00     0.010 A 
ATOM     88  C   UNL A   1      50.313  26.851  30.174  1.00  0.00     0.020 A 
ATOM     89  C   UNL A   1      49.499  26.074  32.328  1.00  0.00     0.020 A 
ATOM     90  C   UNL A   1      50.545  26.274  31.426  1.00  0.00     0.054 A 
BRANCH  90  91
ATOM     91  S   UNL A   1      52.242  25.816  31.874  1.00  0.00     0.124 S 
ATOM     92  O   UNL A   1      52.527  26.740  32.968  1.00  0.00    -0.237 OA
ATOM     93  O   UNL A   1      52.104  24.412  32.256  1.00  0.00    -0.237 OA
ATOM     94  O   UNL A   1      53.000  26.049  30.647  1.00  0.00    -0.744 OA
ENDBRANCH  90  91
ENDBRANCH  64  85
ENDBRANCH  38  39
ENDBRANCH  30  33
ENDBRANCH  28  29
ENDBRANCH  27  28
ENDBRANCH   1  27
TORSDOF 18
ENDMDL
MODEL 2
REMARK VINA RESULT:      -8.1      4.768     13.831
REMARK SMILES COc1cccc(C(=O)NCc2ccc(OC)c(C(=O)NCCCNC(=O)c3ccc(-c4c5nc(c(-c6ccc(S(=O)(=O)[O-])cc6)c6ccc([nH]6)c(-c6ccc(S(=O)(=O)[O-])cc6)c6nc(c(-c7ccc(S(=O)(=O)[O-])cc7)c7ccc4[nH]7)C=C6)C=C5)cc3)c2)c1
REMARK SMILES IDX 22 1 21 2 19 3 20 4 18 6 12 7 13 8 88 9 14 10 15 11 11 12
REMARK SMILES IDX 10 13 8 14 9 15 7 17 3 18 4 19 89 20 5 21 6 22 2 23 1 24
REMARK SMILES IDX 16 25 17 26 23 27 24 28 25 29 26 30 27 32 28 33 29 34 87 35
REMARK SMILES IDX 30 36 86 37 31 38 32 39 33 40 80 41 34 42 85 43 79 44 81 45
REMARK SMILES IDX 35 46 84 47 78 48 77 49 36 51 66 52 47 53 65 54 48 55 51 56
REMARK SMILES IDX 64 57 82 58 49 59 50 60 63 62 83 63 52 64 37 65 38 66 46 67
REMARK SMILES IDX 39 68 45 69 40 70 41 71 42 72 43 73 44 74 67 75 68 76 76 77
REMARK SMILES IDX 69 78 75 79 70 80 71 81 72 82 73 83 74 84 53 85 54 86 62 87
REMARK SMILES IDX 55 88 61 89 56 90 57 91 58 92 59 93 60 94
REMARK H PARENT 21 5 10 16 25 31 81 50 51 61
REMARK Flexibility Score: inf
ROOT
ATOM      1  C   UNL A   1      45.679  22.694  39.895  1.00  0.00     0.118 C 
ENDROOT
BRANCH   1   2
ATOM      2  N   UNL A   1      47.066  22.251  39.800  1.00  0.00    -0.352 N 
ATOM      3  C   UNL A   1      47.768  21.289  39.104  1.00  0.00     0.255 C 
ATOM      4  O   UNL A   1      48.977  21.306  39.320  1.00  0.00    -0.269 OA
ATOM      5  H   UNL A   1      47.657  22.777  40.386  1.00  0.00     0.163 HD
BRANCH   3   6
ATOM      6  C   UNL A   1      47.138  20.288  38.174  1.00  0.00     0.082 A 
ATOM      7  C   UNL A   1      46.212  20.065  35.903  1.00  0.00    -0.028 A 
ATOM      8  C   UNL A   1      45.541  18.912  36.291  1.00  0.00     0.009 A 
ATOM      9  C   UNL A   1      47.140  20.605  36.803  1.00  0.00     0.023 A 
ATOM     10  C   UNL A   1      45.709  18.420  37.584  1.00  0.00     0.047 A 
ATOM     11  C   UNL A   1      46.450  19.121  38.561  1.00  0.00     0.131 A 
BRANCH   7  12
ATOM     12  C   UNL A   1      45.720  20.848  34.704  1.00  0.00     0.152 C 
BRANCH  12  13
ATOM     13  N   UNL A   1      44.506  21.611  34.915  1.00  0.00    -0.348 N 
ATOM     14  C   UNL A   1      44.065  22.870  34.623  1.00  0.00     0.251 C 
ATOM     15  O   UNL A   1      42.947  23.158  35.057  1.00  0.00    -0.269 OA
ATOM     16  H   UNL A   1      43.824  21.087  35.392  1.00  0.00     0.164 HD
BRANCH  14  17
ATOM     17  C   UNL A   1      44.821  23.899  33.853  1.00  0.00     0.043 A 
ATOM     18  C   UNL A   1      45.401  25.151  31.845  1.00  0.00     0.119 A 
ATOM     19  C   UNL A   1      46.325  25.899  32.571  1.00  0.00     0.046 A 
ATOM     20  C   UNL A   1      44.659  24.160  32.492  1.00  0.00     0.060 A 
ATOM     21  C   UNL A   1      46.499  25.667  33.933  1.00  0.00     0.005 A 
ATOM     22  C   UNL A   1      45.750  24.676  34.568  1.00  0.00     0.014 A 
BRANCH  18  23
ATOM     23  O   UNL A   1      45.308  25.461  30.514  1.00  0.00    -0.497 OA
ATOM     24  C   UNL A   1      46.529  25.706  29.823  1.00  0.00     0.278 C 
ENDBRANCH  18  23
ENDBRANCH  14  17
ENDBRANCH  12  13
ENDBRANCH   7  12
BRANCH  11  25
ATOM     25  O   UNL A   1      46.250  18.539  39.781  1.00  0.00    -0.496 OA
ATOM     26  C   UNL A   1      45.593  17.291  39.901  1.00  0.00     0.278 C 
ENDBRANCH  11  25
ENDBRANCH   3   6
ENDBRANCH   1   2
BRANCH   1  27
ATOM     27  C   UNL A   1      45.331  23.833  38.957  1.00  0.00     0.042 C 
BRANCH  27  28
ATOM     28  C   UNL A   1      45.544  25.212  39.547  1.00  0.00     0.118 C 
BRANCH  28  29
ATOM     29  N   UNL A   1      46.807  25.811  39.137  1.00  0.00    -0.352 N 
ATOM     30  C   UNL A   1      47.100  26.649  38.087  1.00  0.00     0.251 C 
ATOM     31  H   UNL A   1      47.577  25.576  39.704  1.00  0.00     0.163 HD
ATOM     32  O   UNL A   1      48.271  26.867  37.794  1.00  0.00    -0.269 OA
BRANCH  30  33
ATOM     33  C   UNL A   1      46.010  27.273  37.306  1.00  0.00     0.039 A 
ATOM     34  C   UNL A   1      44.693  26.852  37.509  1.00  0.00     0.014 A 
ATOM     35  C   UNL A   1      46.287  28.259  36.360  1.00  0.00     0.014 A 
ATOM     36  C   UNL A   1      43.655  27.471  36.810  1.00  0.00     0.010 A 
ATOM     37  C   UNL A   1      45.247  28.956  35.757  1.00  0.00     0.010 A 
ATOM     38  C   UNL A   1      43.920  28.557  35.957  1.00  0.00    -0.014 A 
BRANCH  38  39
ATOM     39  C   UNL A   1      42.834  29.269  35.238  1.00  0.00     0.031 A 
ATOM     40  C   UNL A   1      42.430  28.820  33.856  1.00  0.00     0.074 A 
ATOM     41  C   UNL A   1      42.263  30.355  35.793  1.00  0.00     0.049 A 
ATOM     42  N   UNL A   1      41.559  29.352  33.038  1.00  0.00    -0.248 NA
ATOM     43  C   UNL A   1      43.120  27.638  33.307  1.00  0.00     0.031 C 
ATOM     44  C   UNL A   1      42.603  30.917  37.103  1.00  0.00     0.029 A 
ATOM     45  N   UNL A   1      41.278  31.187  35.324  1.00  0.00    -0.354 N 
ATOM     46  C   UNL A   1      41.614  28.587  31.878  1.00  0.00     0.074 A 
ATOM     47  C   UNL A   1      42.647  27.595  32.072  1.00  0.00     0.031 C 
ATOM     48  C   UNL A   1      41.815  31.976  37.347  1.00  0.00     0.029 A 
ATOM     49  C   UNL A   1      40.948  32.199  36.195  1.00  0.00     0.049 A 
ATOM     50  H   UNL A   1      40.848  31.071  34.446  1.00  0.00     0.167 HD
ATOM     51  C   UNL A   1      40.855  28.683  30.760  1.00  0.00     0.031 A 
ATOM     52  C   UNL A   1      40.051  33.197  36.078  1.00  0.00     0.031 A 
ATOM     53  C   UNL A   1      39.816  29.661  30.583  1.00  0.00     0.049 A 
ATOM     54  C   UNL A   1      39.219  33.284  34.826  1.00  0.00     0.074 A 
ATOM     55  C   UNL A   1      38.948  29.809  29.515  1.00  0.00     0.029 A 
ATOM     56  N   UNL A   1      39.501  30.656  31.495  1.00  0.00    -0.354 N 
ATOM     57  N   UNL A   1      39.240  32.510  33.767  1.00  0.00    -0.248 NA
ATOM     58  C   UNL A   1      38.233  34.370  34.761  1.00  0.00     0.031 C 
ATOM     59  C   UNL A   1      38.147  30.929  29.757  1.00  0.00     0.029 A 
ATOM     60  C   UNL A   1      38.468  31.438  31.006  1.00  0.00     0.049 A 
ATOM     61  H   UNL A   1      39.947  30.789  32.363  1.00  0.00     0.167 HD
ATOM     62  C   UNL A   1      38.248  32.998  32.923  1.00  0.00     0.074 A 
ATOM     63  C   UNL A   1      37.636  34.121  33.604  1.00  0.00     0.031 C 
ATOM     64  C   UNL A   1      37.874  32.553  31.698  1.00  0.00     0.031 A 
BRANCH  51  65
ATOM     65  C   UNL A   1      41.125  27.706  29.646  1.00  0.00    -0.014 A 
ATOM     66  C   UNL A   1      42.361  27.692  28.971  1.00  0.00     0.010 A 
ATOM     67  C   UNL A   1      40.144  26.761  29.291  1.00  0.00     0.010 A 
ATOM     68  C   UNL A   1      42.594  26.782  27.937  1.00  0.00     0.020 A 
ATOM     69  C   UNL A   1      40.386  25.827  28.280  1.00  0.00     0.020 A 
ATOM     70  C   UNL A   1      41.604  25.855  27.597  1.00  0.00     0.054 A 
BRANCH  70  71
ATOM     71  S   UNL A   1      41.946  24.666  26.270  1.00  0.00     0.124 S 
ATOM     72  O   UNL A   1      40.805  23.760  26.377  1.00  0.00    -0.237 OA
ATOM     73  O   UNL A   1      41.965  25.514  25.081  1.00  0.00    -0.237 OA
ATOM     74  O   UNL A   1      43.235  24.089  26.642  1.00  0.00    -0.744 OA
ENDBRANCH  70  71
ENDBRANCH  51  65
BRANCH  52  75
ATOM     75  C   UNL A   1      39.880  34.180  37.183  1.00  0.00    -0.014 A 
ATOM     76  C   UNL A   1      40.536  35.423  37.144  1.00  0.00     0.010 A 
ATOM     77  C   UNL A   1      39.048  33.883  38.278  1.00  0.00     0.010 A 
ATOM     78  C   UNL A   1      40.383  36.340  38.188  1.00  0.00     0.020 A 
ATOM     79  C   UNL A   1      38.867  34.810  39.309  1.00  0.00     0.020 A 
ATOM     80  C   UNL A   1      39.547  36.028  39.263  1.00  0.00     0.054 A 
BRANCH  80  81
ATOM     81  S   UNL A   1      39.328  37.252  40.586  1.00  0.00     0.124 S 
ATOM     82  O   UNL A   1      38.921  36.416  41.709  1.00  0.00    -0.237 OA
ATOM     83  O   UNL A   1      40.659  37.847  40.687  1.00  0.00    -0.237 OA
ATOM     84  O   UNL A   1      38.295  38.142  40.060  1.00  0.00    -0.744 OA
ENDBRANCH  80  81
ENDBRANCH  52  75
BRANCH  64  85
ATOM     85  C   UNL A   1      36.722  33.255  31.029  1.00  0.00    -0.014 A 
ATOM     86  C   UNL A   1      36.855  33.832  29.754  1.00  0.00     0.010 A 
ATOM     87  C   UNL A   1      35.470  33.293  31.670  1.00  0.00     0.010 A 
ATOM     88  C   UNL A   1      35.767  34.469  29.150  1.00  0.00     0.020 A 
ATOM     89  C   UNL A   1      34.372  33.899  31.057  1.00  0.00     0.020 A 
ATOM     90  C   UNL A   1      34.532  34.497  29.806  1.00  0.00     0.054 A 
BRANCH  90  91
ATOM     91  S   UNL A   1      33.127  35.298  28.986  1.00  0.00     0.124 S 
ATOM     92  O   UNL A   1      32.710  34.276  28.030  1.00  0.00    -0.237 OA
ATOM     93  O   UNL A   1      32.205  35.538  30.094  1.00  0.00    -0.237 OA
ATOM     94  O   UNL A   1      33.709  36.502  28.397  1.00  0.00    -0.744 OA
ENDBRANCH  90  91
ENDBRANCH  64  85
ENDBRANCH  38  39
ENDBRANCH  30  33
ENDBRANCH  28  29
ENDBRANCH  27  28
ENDBRANCH   1  27
TORSDOF 18
ENDMDL
MODEL 3
REMARK VINA RESULT:      -7.9      4.043     11.300
REMARK SMILES COc1cccc(C(=O)NCc2ccc(OC)c(C(=O)NCCCNC(=O)c3ccc(-c4c5nc(c(-c6ccc(S(=O)(=O)[O-])cc6)c6ccc([nH]6)c(-c6ccc(S(=O)(=O)[O-])cc6)c6nc(c(-c7ccc(S(=O)(=O)[O-])cc7)c7ccc4[nH]7)C=C6)C=C5)cc3)c2)c1
REMARK SMILES IDX 22 1 21 2 19 3 20 4 18 6 12 7 13 8 88 9 14 10 15 11 11 12
REMARK SMILES IDX 10 13 8 14 9 15 7 17 3 18 4 19 89 20 5 21 6 22 2 23 1 24
REMARK SMILES IDX 16 25 17 26 23 27 24 28 25 29 26 30 27 32 28 33 29 34 87 35
REMARK SMILES IDX 30 36 86 37 31 38 32 39 33 40 80 41 34 42 85 43 79 44 81 45
REMARK SMILES IDX 35 46 84 47 78 48 77 49 36 51 66 52 47 53 65 54 48 55 51 56
REMARK SMILES IDX 64 57 82 58 49 59 50 60 63 62 83 63 52 64 37 65 38 66 46 67
REMARK SMILES IDX 39 68 45 69 40 70 41 71 42 72 43 73 44 74 67 75 68 76 76 77
REMARK SMILES IDX 69 78 75 79 70 80 71 81 72 82 73 83 74 84 53 85 54 86 62 87
REMARK SMILES IDX 55 88 61 89 56 90 57 91 58 92 59 93 60 94
REMARK H PARENT 21 5 10 16 25 31 81 50 51 61
REMARK Flexibility Score: inf
ROOT
ATOM      1  C   UNL A   1      44.011  27.292  25.449  1.00  0.00     0.118 C 
ENDROOT
BRANCH   1   2
ATOM      2  N   UNL A   1      45.086  27.543  24.495  1.00  0.00    -0.352 N 
ATOM      3  C   UNL A   1      46.401  27.957  24.549  1.00  0.00     0.255 C 
ATOM      4  O   UNL A   1      46.954  27.992  23.452  1.00  0.00    -0.269 OA
ATOM      5  H   UNL A   1      44.797  27.373  23.569  1.00  0.00     0.163 HD
BRANCH   3   6
ATOM      6  C   UNL A   1      47.113  28.352  25.814  1.00  0.00     0.082 A 
ATOM      7  C   UNL A   1      47.948  27.431  27.939  1.00  0.00    -0.028 A 
ATOM      8  C   UNL A   1      47.988  28.710  28.478  1.00  0.00     0.009 A 
ATOM      9  C   UNL A   1      47.696  27.316  26.566  1.00  0.00     0.023 A 
ATOM     10  C   UNL A   1      47.652  29.803  27.681  1.00  0.00     0.047 A 
ATOM     11  C   UNL A   1      47.152  29.647  26.369  1.00  0.00     0.131 A 
BRANCH   7  12
ATOM     12  C   UNL A   1      47.872  26.233  28.864  1.00  0.00     0.152 C 
BRANCH  12  13
ATOM     13  N   UNL A   1      46.889  26.329  29.925  1.00  0.00    -0.348 N 
ATOM     14  C   UNL A   1      45.670  25.778  30.199  1.00  0.00     0.251 C 
ATOM     15  O   UNL A   1      45.112  26.196  31.217  1.00  0.00    -0.269 OA
ATOM     16  H   UNL A   1      47.175  26.952  30.632  1.00  0.00     0.164 HD
BRANCH  14  17
ATOM     17  C   UNL A   1      44.976  24.750  29.372  1.00  0.00     0.043 A 
ATOM     18  C   UNL A   1      44.607  23.446  27.348  1.00  0.00     0.119 A 
ATOM     19  C   UNL A   1      43.568  22.760  27.972  1.00  0.00     0.046 A 
ATOM     20  C   UNL A   1      45.300  24.432  28.053  1.00  0.00     0.060 A 
ATOM     21  C   UNL A   1      43.231  23.049  29.293  1.00  0.00     0.005 A 
ATOM     22  C   UNL A   1      43.933  24.035  29.987  1.00  0.00     0.014 A 
BRANCH  18  23
ATOM     23  O   UNL A   1      44.856  23.083  26.051  1.00  0.00    -0.497 OA
ATOM     24  C   UNL A   1      45.973  23.696  25.414  1.00  0.00     0.278 C 
ENDBRANCH  18  23
ENDBRANCH  14  17
ENDBRANCH  12  13
ENDBRANCH   7  12
BRANCH  11  25
ATOM     25  O   UNL A   1      46.686  30.850  25.919  1.00  0.00    -0.496 OA
ATOM     26  C   UNL A   1      46.529  31.952  26.793  1.00  0.00     0.278 C 
ENDBRANCH  11  25
ENDBRANCH   3   6
ENDBRANCH   1   2
BRANCH   1  27
ATOM     27  C   UNL A   1      43.171  26.072  25.123  1.00  0.00     0.042 C 
BRANCH  27  28
ATOM     28  C   UNL A   1      41.681  26.278  25.298  1.00  0.00     0.118 C 
BRANCH  28  29
ATOM     29  N   UNL A   1      40.992  25.069  25.729  1.00  0.00    -0.352 N 
ATOM     30  C   UNL A   1      40.545  24.691  26.973  1.00  0.00     0.251 C 
ATOM     31  H   UNL A   1      40.818  24.417  25.013  1.00  0.00     0.163 HD
ATOM     32  O   UNL A   1      40.180  23.535  27.159  1.00  0.00    -0.269 OA
BRANCH  30  33
ATOM     33  C   UNL A   1      40.520  25.666  28.085  1.00  0.00     0.039 A 
ATOM     34  C   UNL A   1      41.688  26.359  28.415  1.00  0.00     0.014 A 
ATOM     35  C   UNL A   1      39.351  25.885  28.814  1.00  0.00     0.014 A 
ATOM     36  C   UNL A   1      41.658  27.317  29.431  1.00  0.00     0.010 A 
ATOM     37  C   UNL A   1      39.292  26.921  29.737  1.00  0.00     0.010 A 
ATOM     38  C   UNL A   1      40.449  27.634  30.074  1.00  0.00    -0.014 A 
BRANCH  38  39
ATOM     39  C   UNL A   1      40.373  28.682  31.123  1.00  0.00     0.031 A 
ATOM     40  C   UNL A   1      41.261  28.592  32.338  1.00  0.00     0.074 A 
ATOM     41  C   UNL A   1      39.462  29.669  31.018  1.00  0.00     0.049 A 
ATOM     42  N   UNL A   1      41.294  29.364  33.394  1.00  0.00    -0.248 NA
ATOM     43  C   UNL A   1      42.213  27.468  32.390  1.00  0.00     0.031 C 
ATOM     44  C   UNL A   1      38.513  29.835  29.914  1.00  0.00     0.029 A 
ATOM     45  N   UNL A   1      39.180  30.719  31.855  1.00  0.00    -0.354 N 
ATOM     46  C   UNL A   1      42.248  28.807  34.239  1.00  0.00     0.074 A 
ATOM     47  C   UNL A   1      42.725  27.600  33.604  1.00  0.00     0.031 C 
ATOM     48  C   UNL A   1      37.781  30.941  30.125  1.00  0.00     0.029 A 
ATOM     49  C   UNL A   1      38.174  31.536  31.397  1.00  0.00     0.049 A 
ATOM     50  H   UNL A   1      39.655  30.873  32.704  1.00  0.00     0.167 HD
ATOM     51  C   UNL A   1      42.708  29.273  35.425  1.00  0.00     0.031 A 
ATOM     52  C   UNL A   1      37.624  32.639  31.943  1.00  0.00     0.031 A 
ATOM     53  C   UNL A   1      42.243  30.486  36.040  1.00  0.00     0.049 A 
ATOM     54  C   UNL A   1      38.151  33.137  33.262  1.00  0.00     0.074 A 
ATOM     55  C   UNL A   1      42.682  31.080  37.210  1.00  0.00     0.029 A 
ATOM     56  N   UNL A   1      41.235  31.294  35.536  1.00  0.00    -0.354 N 
ATOM     57  N   UNL A   1      39.101  32.633  34.014  1.00  0.00    -0.248 NA
ATOM     58  C   UNL A   1      37.541  34.361  33.798  1.00  0.00     0.031 C 
ATOM     59  C   UNL A   1      41.901  32.215  37.443  1.00  0.00     0.029 A 
ATOM     60  C   UNL A   1      41.021  32.368  36.383  1.00  0.00     0.049 A 
ATOM     61  H   UNL A   1      40.743  31.128  34.699  1.00  0.00     0.167 HD
ATOM     62  C   UNL A   1      39.224  33.497  35.097  1.00  0.00     0.074 A 
ATOM     63  C   UNL A   1      38.264  34.562  34.891  1.00  0.00     0.031 C 
ATOM     64  C   UNL A   1      40.059  33.418  36.162  1.00  0.00     0.031 A 
BRANCH  51  65
ATOM     65  C   UNL A   1      43.765  28.464  36.131  1.00  0.00    -0.014 A 
ATOM     66  C   UNL A   1      43.420  27.448  37.042  1.00  0.00     0.010 A 
ATOM     67  C   UNL A   1      45.125  28.695  35.851  1.00  0.00     0.010 A 
ATOM     68  C   UNL A   1      44.413  26.710  37.692  1.00  0.00     0.020 A 
ATOM     69  C   UNL A   1      46.120  27.937  36.474  1.00  0.00     0.020 A 
ATOM     70  C   UNL A   1      45.757  26.960  37.404  1.00  0.00     0.054 A 
BRANCH  70  71
ATOM     71  S   UNL A   1      47.024  25.966  38.240  1.00  0.00     0.124 S 
ATOM     72  O   UNL A   1      46.212  24.989  38.961  1.00  0.00    -0.237 OA
ATOM     73  O   UNL A   1      47.801  25.436  37.123  1.00  0.00    -0.237 OA
ATOM     74  O   UNL A   1      47.725  26.932  39.082  1.00  0.00    -0.744 OA
ENDBRANCH  70  71
ENDBRANCH  51  65
BRANCH  52  75
ATOM     75  C   UNL A   1      36.529  33.355  31.234  1.00  0.00    -0.014 A 
ATOM     76  C   UNL A   1      36.697  33.787  29.906  1.00  0.00     0.010 A 
ATOM     77  C   UNL A   1      35.302  33.600  31.879  1.00  0.00     0.010 A 
ATOM     78  C   UNL A   1      35.671  34.470  29.246  1.00  0.00     0.020 A 
ATOM     79  C   UNL A   1      34.262  34.254  31.212  1.00  0.00     0.020 A 
ATOM     80  C   UNL A   1      34.459  34.697  29.903  1.00  0.00     0.054 A 
BRANCH  80  81
ATOM     81  S   UNL A   1      33.125  35.545  29.011  1.00  0.00     0.124 S 
ATOM     82  O   UNL A   1      32.286  36.025  30.104  1.00  0.00    -0.237 OA
ATOM     83  O   UNL A   1      33.848  36.574  28.268  1.00  0.00    -0.237 OA
ATOM     84  O   UNL A   1      32.539  34.489  28.187  1.00  0.00    -0.744 OA
ENDBRANCH  80  81
ENDBRANCH  52  75
BRANCH  64  85
ATOM     85  C   UNL A   1      40.003  34.536  37.170  1.00  0.00    -0.014 A 
ATOM     86  C   UNL A   1      39.174  34.461  38.303  1.00  0.00     0.010 A 
ATOM     87  C   UNL A   1      40.835  35.659  37.002  1.00  0.00     0.010 A 
ATOM     88  C   UNL A   1      39.149  35.508  39.229  1.00  0.00     0.020 A 
ATOM     89  C   UNL A   1      40.837  36.691  37.941  1.00  0.00     0.020 A 
ATOM     90  C   UNL A   1      39.982  36.616  39.041  1.00  0.00     0.054 A 
BRANCH  90  91
ATOM     91  S   UNL A   1      39.956  37.944  40.275  1.00  0.00     0.124 S 
ATOM     92  O   UNL A   1      41.228  38.617  40.024  1.00  0.00    -0.237 OA
ATOM     93  O   UNL A   1      38.761  38.699  39.907  1.00  0.00    -0.237 OA
ATOM     94  O   UNL A   1      39.869  37.234  41.549  1.00  0.00    -0.744 OA
ENDBRANCH  90  91
ENDBRANCH  64  85
ENDBRANCH  38  39
ENDBRANCH  30  33
ENDBRANCH  28  29
ENDBRANCH  27  28
ENDBRANCH   1  27
TORSDOF 18
ENDMDL
