MODEL 1
REMARK VINA RESULT:     -10.7      0.000      0.000
REMARK SMILES C[C@H](CNc1cccc(F)c1C(=O)NCCCNC(=O)c1ccc(-c2c3nc(c(-c4ccc(S(=O)(=O)[O-])cc4)c4ccc([nH]4)c(-c4ccc(S(=O)(=O)[O-])cc4)c4nc(c(-c5ccc(S(=O)(=O)[O-])cc5)c5ccc2[nH]5)C=C4)C=C3)cc1)C[NH+]1CCCC1
REMARK SMILES IDX 15 1 14 2 12 3 13 4 11 6 5 7 6 8 7 9 9 10 8 11 10 12 4 13
REMARK SMILES IDX 3 15 2 16 1 17 81 18 82 19 83 20 86 21 84 23 85 24 16 25
REMARK SMILES IDX 17 26 18 27 19 28 20 30 21 31 22 32 80 33 23 34 79 35 24 36
REMARK SMILES IDX 25 37 26 38 73 39 27 40 78 41 72 42 74 43 28 44 77 45 71 46
REMARK SMILES IDX 70 47 29 49 59 50 40 51 58 52 41 53 44 54 57 55 75 56 42 57
REMARK SMILES IDX 43 58 56 60 76 61 45 62 30 63 31 64 39 65 32 66 38 67 33 68
REMARK SMILES IDX 34 69 35 70 36 71 37 72 60 73 61 74 69 75 62 76 68 77 63 78
REMARK SMILES IDX 64 79 65 80 66 81 67 82 46 83 47 84 55 85 48 86 54 87 49 88
REMARK SMILES IDX 50 89 51 90 52 91 53 92
REMARK H PARENT 14 5 4 14 82 22 18 29 74 48 44 59
REMARK Flexibility Score: inf
ROOT
ATOM      1  C   UNL A   1      31.783  28.085  26.760  1.00  0.00     0.118 C 
ENDROOT
BRANCH   1   2
ATOM      2  N   UNL A   1      30.962  26.901  26.937  1.00  0.00    -0.352 N 
ATOM      3  C   UNL A   1      30.390  26.034  26.045  1.00  0.00     0.256 C 
ATOM      4  O   UNL A   1      29.558  25.239  26.491  1.00  0.00    -0.269 OA
ATOM      5  H   UNL A   1      30.781  26.680  27.880  1.00  0.00     0.163 HD
BRANCH   3   6
ATOM      6  C   UNL A   1      30.847  25.893  24.639  1.00  0.00     0.098 A 
ATOM      7  C   UNL A   1      31.608  24.741  24.300  1.00  0.00     0.050 A 
ATOM      8  C   UNL A   1      32.100  24.631  22.992  1.00  0.00     0.027 A 
ATOM      9  C   UNL A   1      31.807  25.595  22.023  1.00  0.00     0.005 A 
ATOM     10  C   UNL A   1      30.532  26.827  23.651  1.00  0.00     0.138 A 
ATOM     11  C   UNL A   1      31.014  26.689  22.353  1.00  0.00     0.040 A 
ATOM     12  F   UNL A   1      29.733  27.871  23.904  1.00  0.00    -0.206 F 
BRANCH   7  13
ATOM     13  N   UNL A   1      31.857  23.751  25.244  1.00  0.00    -0.384 N 
ATOM     14  H   UNL A   1      32.413  24.004  26.015  1.00  0.00     0.160 HD
BRANCH  13  15
ATOM     15  C   UNL A   1      31.376  22.383  25.201  1.00  0.00     0.122 C 
BRANCH  15  16
ATOM     16  C   UNL A   1      32.515  21.361  25.376  1.00  0.00     0.060 C 
ATOM     17  C   UNL A   1      32.518  20.331  24.230  1.00  0.00     0.015 C 
BRANCH  16  18
ATOM     18  C   UNL A   1      33.920  22.017  25.409  1.00  0.00     0.267 C 
BRANCH  18  19
ATOM     19  N   UNL A   1      34.913  21.719  24.379  1.00  0.00    -0.335 N 
ATOM     20  C   UNL A   1      36.166  21.133  24.839  1.00  0.00     0.262 C 
ATOM     21  C   UNL A   1      35.207  22.788  23.434  1.00  0.00     0.262 C 
ATOM     22  H   UNL A   1      34.397  20.995  23.879  1.00  0.00     0.348 HD
ATOM     23  C   UNL A   1      37.197  22.232  24.699  1.00  0.00     0.067 C 
ATOM     24  C   UNL A   1      36.702  23.061  23.527  1.00  0.00     0.067 C 
ENDBRANCH  18  19
ENDBRANCH  16  18
ENDBRANCH  15  16
ENDBRANCH  13  15
ENDBRANCH   7  13
ENDBRANCH   3   6
ENDBRANCH   1   2
BRANCH   1  25
ATOM     25  C   UNL A   1      33.249  27.675  26.629  1.00  0.00     0.042 C 
BRANCH  25  26
ATOM     26  C   UNL A   1      34.138  28.797  26.097  1.00  0.00     0.118 C 
BRANCH  26  27
ATOM     27  N   UNL A   1      33.883  30.060  26.774  1.00  0.00    -0.352 N 
ATOM     28  C   UNL A   1      34.611  30.660  27.769  1.00  0.00     0.251 C 
ATOM     29  H   UNL A   1      33.080  30.547  26.480  1.00  0.00     0.163 HD
ATOM     30  O   UNL A   1      34.130  31.611  28.390  1.00  0.00    -0.269 OA
BRANCH  28  31
ATOM     31  C   UNL A   1      35.961  30.161  28.108  1.00  0.00     0.039 A 
ATOM     32  C   UNL A   1      36.960  30.187  27.130  1.00  0.00     0.014 A 
ATOM     33  C   UNL A   1      36.240  29.655  29.382  1.00  0.00     0.014 A 
ATOM     34  C   UNL A   1      38.251  29.755  27.445  1.00  0.00     0.010 A 
ATOM     35  C   UNL A   1      37.540  29.280  29.710  1.00  0.00     0.010 A 
ATOM     36  C   UNL A   1      38.558  29.321  28.745  1.00  0.00    -0.014 A 
BRANCH  36  37
ATOM     37  C   UNL A   1      39.936  28.911  29.117  1.00  0.00     0.031 A 
ATOM     38  C   UNL A   1      40.870  29.897  29.765  1.00  0.00     0.074 A 
ATOM     39  C   UNL A   1      40.371  27.675  28.806  1.00  0.00     0.049 A 
ATOM     40  N   UNL A   1      42.131  29.752  30.083  1.00  0.00    -0.248 NA
ATOM     41  C   UNL A   1      40.319  31.226  30.074  1.00  0.00     0.031 C 
ATOM     42  C   UNL A   1      39.577  26.639  28.141  1.00  0.00     0.029 A 
ATOM     43  N   UNL A   1      41.596  27.083  28.992  1.00  0.00    -0.354 N 
ATOM     44  C   UNL A   1      42.530  30.975  30.613  1.00  0.00     0.074 A 
ATOM     45  C   UNL A   1      41.389  31.861  30.533  1.00  0.00     0.031 C 
ATOM     46  C   UNL A   1      40.331  25.540  27.983  1.00  0.00     0.029 A 
ATOM     47  C   UNL A   1      41.671  25.802  28.499  1.00  0.00     0.049 A 
ATOM     48  H   UNL A   1      42.350  27.534  29.437  1.00  0.00     0.167 HD
ATOM     49  C   UNL A   1      43.731  31.324  31.134  1.00  0.00     0.031 A 
ATOM     50  C   UNL A   1      42.704  24.940  28.448  1.00  0.00     0.031 A 
ATOM     51  C   UNL A   1      44.863  30.439  31.215  1.00  0.00     0.049 A 
ATOM     52  C   UNL A   1      44.032  25.349  29.020  1.00  0.00     0.074 A 
ATOM     53  C   UNL A   1      46.108  30.681  31.770  1.00  0.00     0.029 A 
ATOM     54  N   UNL A   1      44.892  29.143  30.721  1.00  0.00    -0.354 N 
ATOM     55  N   UNL A   1      44.372  26.489  29.576  1.00  0.00    -0.248 NA
ATOM     56  C   UNL A   1      45.115  24.357  28.968  1.00  0.00     0.031 C 
ATOM     57  C   UNL A   1      46.902  29.547  31.571  1.00  0.00     0.029 A 
ATOM     58  C   UNL A   1      46.138  28.580  30.936  1.00  0.00     0.049 A 
ATOM     59  H   UNL A   1      44.136  28.690  30.280  1.00  0.00     0.167 HD
ATOM     60  C   UNL A   1      45.703  26.346  29.951  1.00  0.00     0.074 A 
ATOM     61  C   UNL A   1      46.101  25.003  29.576  1.00  0.00     0.031 C 
ATOM     62  C   UNL A   1      46.521  27.246  30.549  1.00  0.00     0.031 A 
BRANCH  49  63
ATOM     63  C   UNL A   1      43.875  32.731  31.649  1.00  0.00    -0.014 A 
ATOM     64  C   UNL A   1      43.559  33.052  32.983  1.00  0.00     0.010 A 
ATOM     65  C   UNL A   1      44.345  33.746  30.795  1.00  0.00     0.010 A 
ATOM     66  C   UNL A   1      43.654  34.370  33.435  1.00  0.00     0.020 A 
ATOM     67  C   UNL A   1      44.466  35.062  31.253  1.00  0.00     0.020 A 
ATOM     68  C   UNL A   1      44.097  35.369  32.565  1.00  0.00     0.054 A 
BRANCH  68  69
ATOM     69  S   UNL A   1      44.202  37.074  33.176  1.00  0.00     0.124 S 
ATOM     70  O   UNL A   1      42.982  37.183  33.973  1.00  0.00    -0.237 OA
ATOM     71  O   UNL A   1      45.449  37.067  33.937  1.00  0.00    -0.237 OA
ATOM     72  O   UNL A   1      44.225  37.878  31.957  1.00  0.00    -0.744 OA
ENDBRANCH  68  69
ENDBRANCH  49  63
BRANCH  50  73
ATOM     73  C   UNL A   1      42.515  23.602  27.826  1.00  0.00    -0.014 A 
ATOM     74  C   UNL A   1      42.903  23.371  26.494  1.00  0.00     0.010 A 
ATOM     75  C   UNL A   1      41.982  22.539  28.578  1.00  0.00     0.010 A 
ATOM     76  C   UNL A   1      42.759  22.103  25.926  1.00  0.00     0.020 A 
ATOM     77  C   UNL A   1      41.859  21.263  28.020  1.00  0.00     0.020 A 
ATOM     78  C   UNL A   1      42.241  21.055  26.694  1.00  0.00     0.054 A 
BRANCH  78  79
ATOM     79  S   UNL A   1      42.135  19.399  25.959  1.00  0.00     0.124 S 
ATOM     80  O   UNL A   1      42.958  19.544  24.763  1.00  0.00    -0.237 OA
ATOM     81  O   UNL A   1      42.691  18.548  27.010  1.00  0.00    -0.237 OA
ATOM     82  O   UNL A   1      40.704  19.223  25.720  1.00  0.00    -0.744 OA
ENDBRANCH  78  79
ENDBRANCH  50  73
BRANCH  62  83
ATOM     83  C   UNL A   1      47.929  26.809  30.850  1.00  0.00    -0.014 A 
ATOM     84  C   UNL A   1      48.983  27.111  29.970  1.00  0.00     0.010 A 
ATOM     85  C   UNL A   1      48.210  26.147  32.059  1.00  0.00     0.010 A 
ATOM     86  C   UNL A   1      50.294  26.742  30.286  1.00  0.00     0.020 A 
ATOM     87  C   UNL A   1      49.523  25.797  32.389  1.00  0.00     0.020 A 
ATOM     88  C   UNL A   1      50.555  26.089  31.495  1.00  0.00     0.054 A 
BRANCH  88  89
ATOM     89  S   UNL A   1      52.272  25.674  31.910  1.00  0.00     0.124 S 
ATOM     90  O   UNL A   1      52.962  25.934  30.649  1.00  0.00    -0.237 OA
ATOM     91  O   UNL A   1      52.574  26.603  32.996  1.00  0.00    -0.237 OA
ATOM     92  O   UNL A   1      52.202  24.268  32.303  1.00  0.00    -0.744 OA
ENDBRANCH  88  89
ENDBRANCH  62  83
ENDBRANCH  36  37
ENDBRANCH  28  31
ENDBRANCH  26  27
ENDBRANCH  25  26
ENDBRANCH   1  25
TORSDOF 18
ENDMDL
MODEL 2
REMARK VINA RESULT:     -10.6      1.194      1.668
REMARK SMILES C[C@H](CNc1cccc(F)c1C(=O)NCCCNC(=O)c1ccc(-c2c3nc(c(-c4ccc(S(=O)(=O)[O-])cc4)c4ccc([nH]4)c(-c4ccc(S(=O)(=O)[O-])cc4)c4nc(c(-c5ccc(S(=O)(=O)[O-])cc5)c5ccc2[nH]5)C=C4)C=C3)cc1)C[NH+]1CCCC1
REMARK SMILES IDX 15 1 14 2 12 3 13 4 11 6 5 7 6 8 7 9 9 10 8 11 10 12 4 13
REMARK SMILES IDX 3 15 2 16 1 17 81 18 82 19 83 20 86 21 84 23 85 24 16 25
REMARK SMILES IDX 17 26 18 27 19 28 20 30 21 31 22 32 80 33 23 34 79 35 24 36
REMARK SMILES IDX 25 37 26 38 73 39 27 40 78 41 72 42 74 43 28 44 77 45 71 46
REMARK SMILES IDX 70 47 29 49 59 50 40 51 58 52 41 53 44 54 57 55 75 56 42 57
REMARK SMILES IDX 43 58 56 60 76 61 45 62 30 63 31 64 39 65 32 66 38 67 33 68
REMARK SMILES IDX 34 69 35 70 36 71 37 72 60 73 61 74 69 75 62 76 68 77 63 78
REMARK SMILES IDX 64 79 65 80 66 81 67 82 46 83 47 84 55 85 48 86 54 87 49 88
REMARK SMILES IDX 50 89 51 90 52 91 53 92
REMARK H PARENT 14 5 4 14 82 22 18 29 74 48 44 59
REMARK Flexibility Score: inf
ROOT
ATOM      1  C   UNL A   1      33.855  26.384  25.658  1.00  0.00     0.118 C 
ENDROOT
BRANCH   1   2
ATOM      2  N   UNL A   1      34.086  26.093  24.255  1.00  0.00    -0.352 N 
ATOM      3  C   UNL A   1      33.285  26.196  23.148  1.00  0.00     0.256 C 
ATOM      4  O   UNL A   1      33.690  25.663  22.111  1.00  0.00    -0.269 OA
ATOM      5  H   UNL A   1      34.991  25.756  24.061  1.00  0.00     0.163 HD
BRANCH   3   6
ATOM      6  C   UNL A   1      32.071  27.050  23.098  1.00  0.00     0.098 A 
ATOM      7  C   UNL A   1      30.845  26.486  23.546  1.00  0.00     0.050 A 
ATOM      8  C   UNL A   1      29.680  27.260  23.442  1.00  0.00     0.027 A 
ATOM      9  C   UNL A   1      29.722  28.574  22.965  1.00  0.00     0.005 A 
ATOM     10  C   UNL A   1      32.102  28.374  22.661  1.00  0.00     0.138 A 
ATOM     11  C   UNL A   1      30.937  29.132  22.584  1.00  0.00     0.040 A 
ATOM     12  F   UNL A   1      33.251  28.974  22.328  1.00  0.00    -0.206 F 
BRANCH   7  13
ATOM     13  N   UNL A   1      30.804  25.200  24.073  1.00  0.00    -0.384 N 
ATOM     14  H   UNL A   1      31.149  24.476  23.502  1.00  0.00     0.160 HD
BRANCH  13  15
ATOM     15  C   UNL A   1      30.303  24.822  25.381  1.00  0.00     0.122 C 
BRANCH  15  16
ATOM     16  C   UNL A   1      31.230  23.818  26.091  1.00  0.00     0.060 C 
ATOM     17  C   UNL A   1      30.418  22.707  26.784  1.00  0.00     0.015 C 
BRANCH  16  18
ATOM     18  C   UNL A   1      32.226  23.124  25.126  1.00  0.00     0.267 C 
BRANCH  18  19
ATOM     19  N   UNL A   1      33.279  22.248  25.634  1.00  0.00    -0.335 N 
ATOM     20  C   UNL A   1      34.242  22.854  26.546  1.00  0.00     0.262 C 
ATOM     21  C   UNL A   1      33.997  21.456  24.643  1.00  0.00     0.262 C 
ATOM     22  H   UNL A   1      32.696  21.612  26.177  1.00  0.00     0.348 HD
ATOM     23  C   UNL A   1      35.524  22.976  25.751  1.00  0.00     0.067 C 
ATOM     24  C   UNL A   1      35.471  21.813  24.776  1.00  0.00     0.067 C 
ENDBRANCH  18  19
ENDBRANCH  16  18
ENDBRANCH  15  16
ENDBRANCH  13  15
ENDBRANCH   7  13
ENDBRANCH   3   6
ENDBRANCH   1   2
BRANCH   1  25
ATOM     25  C   UNL A   1      33.917  27.893  25.883  1.00  0.00     0.042 C 
BRANCH  25  26
ATOM     26  C   UNL A   1      33.513  28.303  27.297  1.00  0.00     0.118 C 
BRANCH  26  27
ATOM     27  N   UNL A   1      33.433  29.749  27.442  1.00  0.00    -0.352 N 
ATOM     28  C   UNL A   1      34.353  30.608  27.987  1.00  0.00     0.251 C 
ATOM     29  H   UNL A   1      32.607  30.167  27.106  1.00  0.00     0.163 HD
ATOM     30  O   UNL A   1      34.029  31.770  28.241  1.00  0.00    -0.269 OA
BRANCH  28  31
ATOM     31  C   UNL A   1      35.724  30.140  28.282  1.00  0.00     0.039 A 
ATOM     32  C   UNL A   1      36.674  30.128  27.257  1.00  0.00     0.014 A 
ATOM     33  C   UNL A   1      36.070  29.698  29.564  1.00  0.00     0.014 A 
ATOM     34  C   UNL A   1      37.983  29.724  27.528  1.00  0.00     0.010 A 
ATOM     35  C   UNL A   1      37.389  29.352  29.846  1.00  0.00     0.010 A 
ATOM     36  C   UNL A   1      38.359  29.357  28.831  1.00  0.00    -0.014 A 
BRANCH  36  37
ATOM     37  C   UNL A   1      39.758  28.979  29.154  1.00  0.00     0.031 A 
ATOM     38  C   UNL A   1      40.696  29.991  29.754  1.00  0.00     0.074 A 
ATOM     39  C   UNL A   1      40.206  27.748  28.841  1.00  0.00     0.049 A 
ATOM     40  N   UNL A   1      41.971  29.876  30.025  1.00  0.00    -0.248 NA
ATOM     41  C   UNL A   1      40.130  31.313  30.069  1.00  0.00     0.031 C 
ATOM     42  C   UNL A   1      39.408  26.688  28.220  1.00  0.00     0.029 A 
ATOM     43  N   UNL A   1      41.449  27.183  28.987  1.00  0.00    -0.354 N 
ATOM     44  C   UNL A   1      42.365  31.112  30.524  1.00  0.00     0.074 A 
ATOM     45  C   UNL A   1      41.204  31.974  30.478  1.00  0.00     0.031 C 
ATOM     46  C   UNL A   1      40.177  25.603  28.045  1.00  0.00     0.029 A 
ATOM     47  C   UNL A   1      41.531  25.898  28.505  1.00  0.00     0.049 A 
ATOM     48  H   UNL A   1      42.210  27.654  29.397  1.00  0.00     0.167 HD
ATOM     49  C   UNL A   1      43.578  31.492  30.995  1.00  0.00     0.031 A 
ATOM     50  C   UNL A   1      42.579  25.056  28.425  1.00  0.00     0.031 A 
ATOM     51  C   UNL A   1      44.730  30.630  31.042  1.00  0.00     0.049 A 
ATOM     52  C   UNL A   1      43.919  25.499  28.941  1.00  0.00     0.074 A 
ATOM     53  C   UNL A   1      45.990  30.904  31.546  1.00  0.00     0.029 A 
ATOM     54  N   UNL A   1      44.766  29.330  30.562  1.00  0.00    -0.354 N 
ATOM     55  N   UNL A   1      44.257  26.652  29.469  1.00  0.00    -0.248 NA
ATOM     56  C   UNL A   1      45.019  24.527  28.858  1.00  0.00     0.031 C 
ATOM     57  C   UNL A   1      46.799  29.784  31.330  1.00  0.00     0.029 A 
ATOM     58  C   UNL A   1      46.030  28.794  30.735  1.00  0.00     0.049 A 
ATOM     59  H   UNL A   1      44.004  28.856  30.156  1.00  0.00     0.167 HD
ATOM     60  C   UNL A   1      45.603  26.540  29.794  1.00  0.00     0.074 A 
ATOM     61  C   UNL A   1      46.014  25.201  29.420  1.00  0.00     0.031 C 
ATOM     62  C   UNL A   1      46.426  27.463  30.350  1.00  0.00     0.031 A 
BRANCH  49  63
ATOM     63  C   UNL A   1      43.713  32.908  31.487  1.00  0.00    -0.014 A 
ATOM     64  C   UNL A   1      43.478  33.232  32.836  1.00  0.00     0.010 A 
ATOM     65  C   UNL A   1      44.093  33.928  30.596  1.00  0.00     0.010 A 
ATOM     66  C   UNL A   1      43.562  34.558  33.271  1.00  0.00     0.020 A 
ATOM     67  C   UNL A   1      44.205  35.251  31.033  1.00  0.00     0.020 A 
ATOM     68  C   UNL A   1      43.915  35.560  32.365  1.00  0.00     0.054 A 
BRANCH  68  69
ATOM     69  S   UNL A   1      44.008  37.274  32.953  1.00  0.00     0.124 S 
ATOM     70  O   UNL A   1      43.899  38.026  31.706  1.00  0.00    -0.237 OA
ATOM     71  O   UNL A   1      42.856  37.371  33.847  1.00  0.00    -0.237 OA
ATOM     72  O   UNL A   1      45.310  37.343  33.612  1.00  0.00    -0.744 OA
ENDBRANCH  68  69
ENDBRANCH  49  63
BRANCH  50  73
ATOM     73  C   UNL A   1      42.393  23.706  27.826  1.00  0.00    -0.014 A 
ATOM     74  C   UNL A   1      42.666  23.484  26.465  1.00  0.00     0.010 A 
ATOM     75  C   UNL A   1      41.981  22.626  28.627  1.00  0.00     0.010 A 
ATOM     76  C   UNL A   1      42.527  22.208  25.915  1.00  0.00     0.020 A 
ATOM     77  C   UNL A   1      41.864  21.342  28.086  1.00  0.00     0.020 A 
ATOM     78  C   UNL A   1      42.130  21.142  26.730  1.00  0.00     0.054 A 
BRANCH  78  79
ATOM     79  S   UNL A   1      42.031  19.479  26.013  1.00  0.00     0.124 S 
ATOM     80  O   UNL A   1      42.865  19.611  24.822  1.00  0.00    -0.237 OA
ATOM     81  O   UNL A   1      42.577  18.640  27.078  1.00  0.00    -0.237 OA
ATOM     82  O   UNL A   1      40.603  19.300  25.762  1.00  0.00    -0.744 OA
ENDBRANCH  78  79
ENDBRANCH  50  73
BRANCH  62  83
ATOM     83  C   UNL A   1      47.853  27.058  30.601  1.00  0.00    -0.014 A 
ATOM     84  C   UNL A   1      48.877  27.428  29.711  1.00  0.00     0.010 A 
ATOM     85  C   UNL A   1      48.182  26.356  31.775  1.00  0.00     0.010 A 
ATOM     86  C   UNL A   1      50.205  27.088  29.983  1.00  0.00     0.020 A 
ATOM     87  C   UNL A   1      49.512  26.033  32.061  1.00  0.00     0.020 A 
ATOM     88  C   UNL A   1      50.514  26.394  31.158  1.00  0.00     0.054 A 
BRANCH  88  89
ATOM     89  S   UNL A   1      52.252  26.015  31.517  1.00  0.00     0.124 S 
ATOM     90  O   UNL A   1      52.848  26.027  30.184  1.00  0.00    -0.237 OA
ATOM     91  O   UNL A   1      52.647  27.117  32.392  1.00  0.00    -0.237 OA
ATOM     92  O   UNL A   1      52.194  24.706  32.163  1.00  0.00    -0.744 OA
ENDBRANCH  88  89
ENDBRANCH  62  83
ENDBRANCH  36  37
ENDBRANCH  28  31
ENDBRANCH  26  27
ENDBRANCH  25  26
ENDBRANCH   1  25
TORSDOF 18
ENDMDL
MODEL 3
REMARK VINA RESULT:     -10.3      1.257      2.140
REMARK SMILES C[C@H](CNc1cccc(F)c1C(=O)NCCCNC(=O)c1ccc(-c2c3nc(c(-c4ccc(S(=O)(=O)[O-])cc4)c4ccc([nH]4)c(-c4ccc(S(=O)(=O)[O-])cc4)c4nc(c(-c5ccc(S(=O)(=O)[O-])cc5)c5ccc2[nH]5)C=C4)C=C3)cc1)C[NH+]1CCCC1
REMARK SMILES IDX 15 1 14 2 12 3 13 4 11 6 5 7 6 8 7 9 9 10 8 11 10 12 4 13
REMARK SMILES IDX 3 15 2 16 1 17 81 18 82 19 83 20 86 21 84 23 85 24 16 25
REMARK SMILES IDX 17 26 18 27 19 28 20 30 21 31 22 32 80 33 23 34 79 35 24 36
REMARK SMILES IDX 25 37 26 38 73 39 27 40 78 41 72 42 74 43 28 44 77 45 71 46
REMARK SMILES IDX 70 47 29 49 59 50 40 51 58 52 41 53 44 54 57 55 75 56 42 57
REMARK SMILES IDX 43 58 56 60 76 61 45 62 30 63 31 64 39 65 32 66 38 67 33 68
REMARK SMILES IDX 34 69 35 70 36 71 37 72 60 73 61 74 69 75 62 76 68 77 63 78
REMARK SMILES IDX 64 79 65 80 66 81 67 82 46 83 47 84 55 85 48 86 54 87 49 88
REMARK SMILES IDX 50 89 51 90 52 91 53 92
REMARK H PARENT 14 5 4 14 82 22 18 29 74 48 44 59
REMARK Flexibility Score: inf
ROOT
ATOM      1  C   UNL A   1      33.839  26.814  24.643  1.00  0.00     0.118 C 
ENDROOT
BRANCH   1   2
ATOM      2  N   UNL A   1      32.986  26.413  23.540  1.00  0.00    -0.352 N 
ATOM      3  C   UNL A   1      32.021  25.447  23.425  1.00  0.00     0.256 C 
ATOM      4  O   UNL A   1      31.615  25.193  22.288  1.00  0.00    -0.269 OA
ATOM      5  H   UNL A   1      33.129  26.933  22.716  1.00  0.00     0.163 HD
BRANCH   3   6
ATOM      6  C   UNL A   1      31.334  24.839  24.593  1.00  0.00     0.098 A 
ATOM      7  C   UNL A   1      31.624  23.482  24.900  1.00  0.00     0.050 A 
ATOM      8  C   UNL A   1      30.933  22.878  25.960  1.00  0.00     0.027 A 
ATOM      9  C   UNL A   1      30.022  23.600  26.737  1.00  0.00     0.005 A 
ATOM     10  C   UNL A   1      30.452  25.556  25.402  1.00  0.00     0.138 A 
ATOM     11  C   UNL A   1      29.790  24.942  26.462  1.00  0.00     0.040 A 
ATOM     12  F   UNL A   1      30.230  26.862  25.209  1.00  0.00    -0.206 F 
BRANCH   7  13
ATOM     13  N   UNL A   1      32.569  22.773  24.167  1.00  0.00    -0.384 N 
ATOM     14  H   UNL A   1      33.141  23.295  23.559  1.00  0.00     0.160 HD
BRANCH  13  15
ATOM     15  C   UNL A   1      32.792  21.340  24.209  1.00  0.00     0.122 C 
BRANCH  15  16
ATOM     16  C   UNL A   1      34.191  20.986  24.747  1.00  0.00     0.060 C 
ATOM     17  C   UNL A   1      34.385  21.511  26.182  1.00  0.00     0.015 C 
BRANCH  16  18
ATOM     18  C   UNL A   1      34.461  19.459  24.776  1.00  0.00     0.267 C 
BRANCH  18  19
ATOM     19  N   UNL A   1      33.419  18.504  24.404  1.00  0.00    -0.335 N 
ATOM     20  C   UNL A   1      32.649  17.927  25.498  1.00  0.00     0.262 C 
ATOM     21  C   UNL A   1      33.813  17.442  23.487  1.00  0.00     0.262 C 
ATOM     22  H   UNL A   1      32.806  19.142  23.895  1.00  0.00     0.348 HD
ATOM     23  C   UNL A   1      33.119  16.492  25.605  1.00  0.00     0.067 C 
ATOM     24  C   UNL A   1      33.516  16.122  24.187  1.00  0.00     0.067 C 
ENDBRANCH  18  19
ENDBRANCH  16  18
ENDBRANCH  15  16
ENDBRANCH  13  15
ENDBRANCH   7  13
ENDBRANCH   3   6
ENDBRANCH   1   2
BRANCH   1  25
ATOM     25  C   UNL A   1      33.293  28.096  25.270  1.00  0.00     0.042 C 
BRANCH  25  26
ATOM     26  C   UNL A   1      33.817  28.339  26.684  1.00  0.00     0.118 C 
BRANCH  26  27
ATOM     27  N   UNL A   1      33.644  29.724  27.097  1.00  0.00    -0.352 N 
ATOM     28  C   UNL A   1      34.471  30.496  27.871  1.00  0.00     0.251 C 
ATOM     29  H   UNL A   1      32.823  30.165  26.780  1.00  0.00     0.163 HD
ATOM     30  O   UNL A   1      34.064  31.572  28.316  1.00  0.00    -0.269 OA
BRANCH  28  31
ATOM     31  C   UNL A   1      35.842  30.037  28.184  1.00  0.00     0.039 A 
ATOM     32  C   UNL A   1      36.824  30.107  27.192  1.00  0.00     0.014 A 
ATOM     33  C   UNL A   1      36.154  29.523  29.447  1.00  0.00     0.014 A 
ATOM     34  C   UNL A   1      38.132  29.711  27.483  1.00  0.00     0.010 A 
ATOM     35  C   UNL A   1      37.470  29.186  29.752  1.00  0.00     0.010 A 
ATOM     36  C   UNL A   1      38.473  29.271  28.773  1.00  0.00    -0.014 A 
BRANCH  36  37
ATOM     37  C   UNL A   1      39.868  28.900  29.120  1.00  0.00     0.031 A 
ATOM     38  C   UNL A   1      40.789  29.916  29.739  1.00  0.00     0.074 A 
ATOM     39  C   UNL A   1      40.328  27.672  28.812  1.00  0.00     0.049 A 
ATOM     40  N   UNL A   1      42.060  29.807  30.032  1.00  0.00    -0.248 NA
ATOM     41  C   UNL A   1      40.211  31.234  30.047  1.00  0.00     0.031 C 
ATOM     42  C   UNL A   1      39.547  26.610  28.174  1.00  0.00     0.029 A 
ATOM     43  N   UNL A   1      41.572  27.114  28.978  1.00  0.00    -0.354 N 
ATOM     44  C   UNL A   1      42.438  31.044  30.542  1.00  0.00     0.074 A 
ATOM     45  C   UNL A   1      41.273  31.900  30.477  1.00  0.00     0.031 C 
ATOM     46  C   UNL A   1      40.326  25.529  28.010  1.00  0.00     0.029 A 
ATOM     47  C   UNL A   1      41.670  25.831  28.495  1.00  0.00     0.049 A 
ATOM     48  H   UNL A   1      42.323  27.589  29.403  1.00  0.00     0.167 HD
ATOM     49  C   UNL A   1      43.640  31.429  31.034  1.00  0.00     0.031 A 
ATOM     50  C   UNL A   1      42.723  24.995  28.431  1.00  0.00     0.031 A 
ATOM     51  C   UNL A   1      44.796  30.574  31.100  1.00  0.00     0.049 A 
ATOM     52  C   UNL A   1      44.052  25.444  28.971  1.00  0.00     0.074 A 
ATOM     53  C   UNL A   1      46.045  30.854  31.626  1.00  0.00     0.029 A 
ATOM     54  N   UNL A   1      44.848  29.275  30.617  1.00  0.00    -0.354 N 
ATOM     55  N   UNL A   1      44.373  26.597  29.509  1.00  0.00    -0.248 NA
ATOM     56  C   UNL A   1      45.158  24.479  28.906  1.00  0.00     0.031 C 
ATOM     57  C   UNL A   1      46.865  29.739  31.422  1.00  0.00     0.029 A 
ATOM     58  C   UNL A   1      46.112  28.747  30.812  1.00  0.00     0.049 A 
ATOM     59  H   UNL A   1      44.096  28.799  30.197  1.00  0.00     0.167 HD
ATOM     60  C   UNL A   1      45.715  26.492  29.857  1.00  0.00     0.074 A 
ATOM     61  C   UNL A   1      46.140  25.156  29.488  1.00  0.00     0.031 C 
ATOM     62  C   UNL A   1      46.522  27.419  30.430  1.00  0.00     0.031 A 
BRANCH  49  63
ATOM     63  C   UNL A   1      43.759  32.845  31.532  1.00  0.00    -0.014 A 
ATOM     64  C   UNL A   1      43.469  33.169  32.871  1.00  0.00     0.010 A 
ATOM     65  C   UNL A   1      44.177  33.865  30.658  1.00  0.00     0.010 A 
ATOM     66  C   UNL A   1      43.539  34.495  33.309  1.00  0.00     0.020 A 
ATOM     67  C   UNL A   1      44.274  35.187  31.101  1.00  0.00     0.020 A 
ATOM     68  C   UNL A   1      43.931  35.497  32.419  1.00  0.00     0.054 A 
BRANCH  68  69
ATOM     69  S   UNL A   1      44.005  37.209  33.012  1.00  0.00     0.124 S 
ATOM     70  O   UNL A   1      45.302  37.240  33.683  1.00  0.00    -0.237 OA
ATOM     71  O   UNL A   1      43.920  37.983  31.775  1.00  0.00    -0.237 OA
ATOM     72  O   UNL A   1      42.844  37.321  33.892  1.00  0.00    -0.744 OA
ENDBRANCH  68  69
ENDBRANCH  49  63
BRANCH  50  73
ATOM     73  C   UNL A   1      42.555  23.646  27.826  1.00  0.00    -0.014 A 
ATOM     74  C   UNL A   1      42.789  23.444  26.454  1.00  0.00     0.010 A 
ATOM     75  C   UNL A   1      42.202  22.547  28.629  1.00  0.00     0.010 A 
ATOM     76  C   UNL A   1      42.667  22.168  25.897  1.00  0.00     0.020 A 
ATOM     77  C   UNL A   1      42.103  21.265  28.080  1.00  0.00     0.020 A 
ATOM     78  C   UNL A   1      42.329  21.085  26.714  1.00  0.00     0.054 A 
BRANCH  78  79
ATOM     79  S   UNL A   1      42.252  19.426  25.984  1.00  0.00     0.124 S 
ATOM     80  O   UNL A   1      40.829  19.286  25.696  1.00  0.00    -0.237 OA
ATOM     81  O   UNL A   1      43.124  19.551  24.818  1.00  0.00    -0.237 OA
ATOM     82  O   UNL A   1      42.766  18.562  27.045  1.00  0.00    -0.744 OA
ENDBRANCH  78  79
ENDBRANCH  50  73
BRANCH  62  83
ATOM     83  C   UNL A   1      47.947  27.021  30.705  1.00  0.00    -0.014 A 
ATOM     84  C   UNL A   1      48.976  27.349  29.805  1.00  0.00     0.010 A 
ATOM     85  C   UNL A   1      48.268  26.369  31.910  1.00  0.00     0.010 A 
ATOM     86  C   UNL A   1      50.301  27.017  30.098  1.00  0.00     0.020 A 
ATOM     87  C   UNL A   1      49.595  26.056  32.216  1.00  0.00     0.020 A 
ATOM     88  C   UNL A   1      50.603  26.374  31.303  1.00  0.00     0.054 A 
BRANCH  88  89
ATOM     89  S   UNL A   1      52.338  26.006  31.687  1.00  0.00     0.124 S 
ATOM     90  O   UNL A   1      52.675  27.073  32.625  1.00  0.00    -0.237 OA
ATOM     91  O   UNL A   1      52.263  24.664  32.259  1.00  0.00    -0.237 OA
ATOM     92  O   UNL A   1      53.004  26.086  30.388  1.00  0.00    -0.744 OA
ENDBRANCH  88  89
ENDBRANCH  62  83
ENDBRANCH  36  37
ENDBRANCH  28  31
ENDBRANCH  26  27
ENDBRANCH  25  26
ENDBRANCH   1  25
TORSDOF 18
ENDMDL
