MODEL 1
REMARK VINA RESULT:     -10.8      0.000      0.000
REMARK SMILES COc1ccc(Br)c([C@H]2[NH2+][C@H](C(=O)NCCCNC(=O)c3ccc(-c4c5nc(c(-c6ccc(S(=O)(=O)[O-])cc6)c6ccc([nH]6)c(-c6ccc(S(=O)(=O)[O-])cc6)c6nc(c(-c7ccc(S(=O)(=O)[O-])cc7)c7ccc4[nH]7)C=C6)C=C5)cc3)CS2)c1O
REMARK SMILES IDX 16 1 15 2 14 3 12 4 13 5 11 7 9 8 10 9 82 10 81 13 8 14 3 15
REMARK SMILES IDX 4 16 83 17 5 18 6 19 7 20 2 21 1 22 84 23 17 25 18 26 19 27
REMARK SMILES IDX 20 29 21 30 22 31 80 32 23 33 79 34 24 35 25 36 26 37 73 38
REMARK SMILES IDX 27 39 78 40 72 41 74 42 28 43 77 44 71 45 70 46 29 48 59 49
REMARK SMILES IDX 40 50 58 51 41 52 44 53 57 54 75 55 42 56 43 57 56 59 76 60
REMARK SMILES IDX 45 61 30 62 31 63 39 64 32 65 38 66 33 67 34 68 35 69 36 70
REMARK SMILES IDX 37 71 60 72 61 73 69 74 62 75 68 76 63 77 64 78 65 79 66 80
REMARK SMILES IDX 67 81 46 82 47 83 55 84 48 85 54 86 49 87 50 88 51 89 52 90
REMARK SMILES IDX 53 91
REMARK H PARENT 14 6 10 11 10 12 84 24 18 28 74 47 44 58
REMARK Flexibility Score: inf
ROOT
ATOM      1  C   UNL A   1      34.045  28.274  24.936  1.00  0.00     0.042 C 
ENDROOT
BRANCH   1   2
ATOM      2  C   UNL A   1      33.620  26.968  24.273  1.00  0.00     0.118 C 
BRANCH   2   3
ATOM      3  N   UNL A   1      32.359  27.085  23.570  1.00  0.00    -0.351 N 
ATOM      4  C   UNL A   1      31.188  26.400  23.663  1.00  0.00     0.279 C 
ATOM      5  O   UNL A   1      30.282  26.768  22.903  1.00  0.00    -0.268 OA
ATOM      6  H   UNL A   1      32.346  27.802  22.893  1.00  0.00     0.163 HD
BRANCH   4   7
ATOM      7  C   UNL A   1      30.927  25.250  24.652  1.00  0.00     0.283 C 
ATOM      8  C   UNL A   1      32.710  23.689  25.202  1.00  0.00     0.279 C 
ATOM      9  N   UNL A   1      31.622  23.999  24.267  1.00  0.00    -0.320 N 
ATOM     10  S   UNL A   1      32.045  24.236  26.808  1.00  0.00    -0.087 SA
ATOM     11  H   UNL A   1      30.951  23.230  24.270  1.00  0.00     0.348 HD
ATOM     12  H   UNL A   1      32.020  24.123  23.336  1.00  0.00     0.348 HD
ATOM     13  C   UNL A   1      31.101  25.604  26.118  1.00  0.00     0.151 C 
BRANCH   8  14
ATOM     14  C   UNL A   1      33.252  22.262  25.054  1.00  0.00     0.080 A 
ATOM     15  C   UNL A   1      32.973  19.806  25.096  1.00  0.00     0.161 A 
ATOM     16  C   UNL A   1      34.325  19.591  24.906  1.00  0.00     0.051 A 
ATOM     17  C   UNL A   1      32.458  21.109  25.230  1.00  0.00     0.169 A 
ATOM     18  C   UNL A   1      35.162  20.693  24.811  1.00  0.00     0.020 A 
ATOM     19  C   UNL A   1      34.644  22.003  24.887  1.00  0.00     0.032 A 
ATOM     20  Br  UNL A   1      36.001  23.349  24.844  1.00  0.00    -0.050 Br
BRANCH  15  21
ATOM     21  O   UNL A   1      32.154  18.715  25.243  1.00  0.00    -0.493 OA
ATOM     22  C   UNL A   1      32.552  17.666  24.354  1.00  0.00     0.278 C 
ENDBRANCH  15  21
BRANCH  17  23
ATOM     23  O   UNL A   1      31.150  21.195  25.628  1.00  0.00    -0.504 OA
ATOM     24  H   UNL A   1      30.940  21.532  26.477  1.00  0.00     0.293 HD
ENDBRANCH  17  23
ENDBRANCH   8  14
ENDBRANCH   4   7
ENDBRANCH   2   3
ENDBRANCH   1   2
BRANCH   1  25
ATOM     25  C   UNL A   1      33.938  28.275  26.458  1.00  0.00     0.118 C 
BRANCH  25  26
ATOM     26  N   UNL A   1      33.713  29.610  26.991  1.00  0.00    -0.352 N 
ATOM     27  C   UNL A   1      34.475  30.379  27.830  1.00  0.00     0.251 C 
ATOM     28  H   UNL A   1      32.871  30.030  26.701  1.00  0.00     0.163 HD
ATOM     29  O   UNL A   1      33.972  31.400  28.304  1.00  0.00    -0.269 OA
BRANCH  27  30
ATOM     30  C   UNL A   1      35.870  30.017  28.181  1.00  0.00     0.039 A 
ATOM     31  C   UNL A   1      36.854  30.156  27.196  1.00  0.00     0.014 A 
ATOM     32  C   UNL A   1      36.211  29.473  29.423  1.00  0.00     0.014 A 
ATOM     33  C   UNL A   1      38.174  29.783  27.464  1.00  0.00     0.010 A 
ATOM     34  C   UNL A   1      37.544  29.165  29.714  1.00  0.00     0.010 A 
ATOM     35  C   UNL A   1      38.535  29.302  28.733  1.00  0.00    -0.014 A 
BRANCH  35  36
ATOM     36  C   UNL A   1      39.945  28.927  29.022  1.00  0.00     0.031 A 
ATOM     37  C   UNL A   1      40.875  29.901  29.698  1.00  0.00     0.074 A 
ATOM     38  C   UNL A   1      40.389  27.703  28.672  1.00  0.00     0.049 A 
ATOM     39  N   UNL A   1      42.124  29.734  30.054  1.00  0.00    -0.248 NA
ATOM     40  C   UNL A   1      40.342  31.239  29.998  1.00  0.00     0.031 C 
ATOM     41  C   UNL A   1      39.602  26.685  27.970  1.00  0.00     0.029 A 
ATOM     42  N   UNL A   1      41.608  27.103  28.867  1.00  0.00    -0.354 N 
ATOM     43  C   UNL A   1      42.524  30.939  30.622  1.00  0.00     0.074 A 
ATOM     44  C   UNL A   1      41.403  31.847  30.512  1.00  0.00     0.031 C 
ATOM     45  C   UNL A   1      40.348  25.577  27.821  1.00  0.00     0.029 A 
ATOM     46  C   UNL A   1      41.669  25.813  28.394  1.00  0.00     0.049 A 
ATOM     47  H   UNL A   1      42.366  27.553  29.304  1.00  0.00     0.167 HD
ATOM     48  C   UNL A   1      43.704  31.256  31.205  1.00  0.00     0.031 A 
ATOM     49  C   UNL A   1      42.674  24.917  28.423  1.00  0.00     0.031 A 
ATOM     50  C   UNL A   1      44.819  30.353  31.319  1.00  0.00     0.049 A 
ATOM     51  C   UNL A   1      43.970  25.289  29.090  1.00  0.00     0.074 A 
ATOM     52  C   UNL A   1      46.052  30.575  31.911  1.00  0.00     0.029 A 
ATOM     53  N   UNL A   1      44.834  29.051  30.844  1.00  0.00    -0.354 N 
ATOM     54  N   UNL A   1      44.308  26.421  29.660  1.00  0.00    -0.248 NA
ATOM     55  C   UNL A   1      45.012  24.255  29.134  1.00  0.00     0.031 C 
ATOM     56  C   UNL A   1      46.823  29.415  31.767  1.00  0.00     0.029 A 
ATOM     57  C   UNL A   1      46.054  28.457  31.125  1.00  0.00     0.049 A 
ATOM     58  H   UNL A   1      44.088  28.611  30.376  1.00  0.00     0.167 HD
ATOM     59  C   UNL A   1      45.595  26.227  30.148  1.00  0.00     0.074 A 
ATOM     60  C   UNL A   1      45.962  24.863  29.829  1.00  0.00     0.031 C 
ATOM     61  C   UNL A   1      46.404  27.101  30.798  1.00  0.00     0.031 A 
BRANCH  48  62
ATOM     62  C   UNL A   1      43.846  32.638  31.784  1.00  0.00    -0.014 A 
ATOM     63  C   UNL A   1      44.244  33.717  30.971  1.00  0.00     0.010 A 
ATOM     64  C   UNL A   1      43.525  32.879  33.131  1.00  0.00     0.010 A 
ATOM     65  C   UNL A   1      44.345  35.004  31.503  1.00  0.00     0.020 A 
ATOM     66  C   UNL A   1      43.603  34.171  33.662  1.00  0.00     0.020 A 
ATOM     67  C   UNL A   1      44.025  35.224  32.847  1.00  0.00     0.054 A 
BRANCH  67  68
ATOM     68  S   UNL A   1      44.127  36.914  33.499  1.00  0.00     0.124 S 
ATOM     69  O   UNL A   1      45.111  36.766  34.567  1.00  0.00    -0.237 OA
ATOM     70  O   UNL A   1      44.572  37.680  32.338  1.00  0.00    -0.237 OA
ATOM     71  O   UNL A   1      42.764  37.197  33.941  1.00  0.00    -0.744 OA
ENDBRANCH  67  68
ENDBRANCH  48  62
BRANCH  49  72
ATOM     72  C   UNL A   1      42.494  23.571  27.815  1.00  0.00    -0.014 A 
ATOM     73  C   UNL A   1      41.961  22.509  28.567  1.00  0.00     0.010 A 
ATOM     74  C   UNL A   1      42.876  23.340  26.481  1.00  0.00     0.010 A 
ATOM     75  C   UNL A   1      41.848  21.233  28.009  1.00  0.00     0.020 A 
ATOM     76  C   UNL A   1      42.739  22.073  25.911  1.00  0.00     0.020 A 
ATOM     77  C   UNL A   1      42.244  21.021  26.685  1.00  0.00     0.054 A 
BRANCH  77  78
ATOM     78  S   UNL A   1      42.071  19.364  25.967  1.00  0.00     0.124 S 
ATOM     79  O   UNL A   1      42.928  19.454  24.790  1.00  0.00    -0.237 OA
ATOM     80  O   UNL A   1      42.556  18.498  27.039  1.00  0.00    -0.237 OA
ATOM     81  O   UNL A   1      40.639  19.260  25.695  1.00  0.00    -0.744 OA
ENDBRANCH  77  78
ENDBRANCH  49  72
BRANCH  61  82
ATOM     82  C   UNL A   1      47.753  26.591  31.226  1.00  0.00    -0.014 A 
ATOM     83  C   UNL A   1      47.939  25.999  32.488  1.00  0.00     0.010 A 
ATOM     84  C   UNL A   1      48.848  26.698  30.349  1.00  0.00     0.010 A 
ATOM     85  C   UNL A   1      49.207  25.568  32.885  1.00  0.00     0.020 A 
ATOM     86  C   UNL A   1      50.112  26.246  30.732  1.00  0.00     0.020 A 
ATOM     87  C   UNL A   1      50.287  25.703  32.007  1.00  0.00     0.054 A 
BRANCH  87  88
ATOM     88  S   UNL A   1      51.925  25.131  32.540  1.00  0.00     0.124 S 
ATOM     89  O   UNL A   1      51.742  23.683  32.574  1.00  0.00    -0.237 OA
ATOM     90  O   UNL A   1      52.802  25.629  31.484  1.00  0.00    -0.237 OA
ATOM     91  O   UNL A   1      52.104  25.768  33.842  1.00  0.00    -0.744 OA
ENDBRANCH  87  88
ENDBRANCH  61  82
ENDBRANCH  35  36
ENDBRANCH  27  30
ENDBRANCH  25  26
ENDBRANCH   1  25
TORSDOF 16
ENDMDL
MODEL 2
REMARK VINA RESULT:     -10.7      3.278      9.776
REMARK SMILES COc1ccc(Br)c([C@H]2[NH2+][C@H](C(=O)NCCCNC(=O)c3ccc(-c4c5nc(c(-c6ccc(S(=O)(=O)[O-])cc6)c6ccc([nH]6)c(-c6ccc(S(=O)(=O)[O-])cc6)c6nc(c(-c7ccc(S(=O)(=O)[O-])cc7)c7ccc4[nH]7)C=C6)C=C5)cc3)CS2)c1O
REMARK SMILES IDX 16 1 15 2 14 3 12 4 13 5 11 7 9 8 10 9 82 10 81 13 8 14 3 15
REMARK SMILES IDX 4 16 83 17 5 18 6 19 7 20 2 21 1 22 84 23 17 25 18 26 19 27
REMARK SMILES IDX 20 29 21 30 22 31 80 32 23 33 79 34 24 35 25 36 26 37 73 38
REMARK SMILES IDX 27 39 78 40 72 41 74 42 28 43 77 44 71 45 70 46 29 48 59 49
REMARK SMILES IDX 40 50 58 51 41 52 44 53 57 54 75 55 42 56 43 57 56 59 76 60
REMARK SMILES IDX 45 61 30 62 31 63 39 64 32 65 38 66 33 67 34 68 35 69 36 70
REMARK SMILES IDX 37 71 60 72 61 73 69 74 62 75 68 76 63 77 64 78 65 79 66 80
REMARK SMILES IDX 67 81 46 82 47 83 55 84 48 85 54 86 49 87 50 88 51 89 52 90
REMARK SMILES IDX 53 91
REMARK H PARENT 14 6 10 11 10 12 84 24 18 28 74 47 44 58
REMARK Flexibility Score: inf
ROOT
ATOM      1  C   UNL A   1      35.763  23.468  24.375  1.00  0.00     0.042 C 
ENDROOT
BRANCH   1   2
ATOM      2  C   UNL A   1      34.539  24.356  24.173  1.00  0.00     0.118 C 
BRANCH   2   3
ATOM      3  N   UNL A   1      34.073  24.357  22.800  1.00  0.00    -0.351 N 
ATOM      4  C   UNL A   1      33.531  25.325  22.015  1.00  0.00     0.279 C 
ATOM      5  O   UNL A   1      33.242  24.988  20.859  1.00  0.00    -0.268 OA
ATOM      6  H   UNL A   1      34.168  23.487  22.348  1.00  0.00     0.163 HD
BRANCH   4   7
ATOM      7  C   UNL A   1      33.293  26.779  22.463  1.00  0.00     0.283 C 
ATOM      8  C   UNL A   1      31.057  27.516  23.073  1.00  0.00     0.279 C 
ATOM      9  N   UNL A   1      32.007  27.324  21.970  1.00  0.00    -0.320 N 
ATOM     10  S   UNL A   1      32.125  28.045  24.452  1.00  0.00    -0.087 SA
ATOM     11  H   UNL A   1      32.176  28.222  21.517  1.00  0.00     0.348 HD
ATOM     12  H   UNL A   1      31.605  26.659  21.309  1.00  0.00     0.348 HD
ATOM     13  C   UNL A   1      33.533  27.050  23.937  1.00  0.00     0.151 C 
BRANCH   8  14
ATOM     14  C   UNL A   1      29.841  28.368  22.688  1.00  0.00     0.080 A 
ATOM     15  C   UNL A   1      28.815  30.369  21.664  1.00  0.00     0.161 A 
ATOM     16  C   UNL A   1      27.552  30.016  22.097  1.00  0.00     0.051 A 
ATOM     17  C   UNL A   1      29.942  29.598  22.004  1.00  0.00     0.169 A 
ATOM     18  C   UNL A   1      27.411  28.857  22.847  1.00  0.00     0.020 A 
ATOM     19  C   UNL A   1      28.528  28.047  23.143  1.00  0.00     0.032 A 
ATOM     20  Br  UNL A   1      28.103  26.570  24.279  1.00  0.00    -0.050 Br
BRANCH  15  21
ATOM     21  O   UNL A   1      28.960  31.544  20.969  1.00  0.00    -0.493 OA
ATOM     22  C   UNL A   1      28.000  32.509  21.411  1.00  0.00     0.278 C 
ENDBRANCH  15  21
BRANCH  17  23
ATOM     23  O   UNL A   1      31.157  30.154  21.708  1.00  0.00    -0.504 OA
ATOM     24  H   UNL A   1      31.761  29.695  21.157  1.00  0.00     0.293 HD
ENDBRANCH  17  23
ENDBRANCH   8  14
ENDBRANCH   4   7
ENDBRANCH   2   3
ENDBRANCH   1   2
BRANCH   1  25
ATOM     25  C   UNL A   1      36.479  23.670  25.706  1.00  0.00     0.118 C 
BRANCH  25  26
ATOM     26  N   UNL A   1      37.595  22.752  25.875  1.00  0.00    -0.352 N 
ATOM     27  C   UNL A   1      38.864  22.963  26.344  1.00  0.00     0.251 C 
ATOM     28  H   UNL A   1      37.406  21.824  25.605  1.00  0.00     0.163 HD
ATOM     29  O   UNL A   1      39.697  22.065  26.199  1.00  0.00    -0.269 OA
BRANCH  27  30
ATOM     30  C   UNL A   1      39.258  24.228  27.010  1.00  0.00     0.039 A 
ATOM     31  C   UNL A   1      40.037  25.137  26.286  1.00  0.00     0.014 A 
ATOM     32  C   UNL A   1      38.948  24.499  28.346  1.00  0.00     0.014 A 
ATOM     33  C   UNL A   1      40.473  26.322  26.886  1.00  0.00     0.010 A 
ATOM     34  C   UNL A   1      39.325  25.715  28.924  1.00  0.00     0.010 A 
ATOM     35  C   UNL A   1      40.105  26.631  28.205  1.00  0.00    -0.014 A 
BRANCH  35  36
ATOM     36  C   UNL A   1      40.552  27.903  28.833  1.00  0.00     0.031 A 
ATOM     37  C   UNL A   1      41.964  28.055  29.337  1.00  0.00     0.074 A 
ATOM     38  C   UNL A   1      39.681  28.925  28.949  1.00  0.00     0.049 A 
ATOM     39  N   UNL A   1      42.535  29.099  29.883  1.00  0.00    -0.248 NA
ATOM     40  C   UNL A   1      42.843  26.880  29.232  1.00  0.00     0.031 C 
ATOM     41  C   UNL A   1      38.273  28.889  28.543  1.00  0.00     0.029 A 
ATOM     42  N   UNL A   1      39.852  30.197  29.435  1.00  0.00    -0.354 N 
ATOM     43  C   UNL A   1      43.836  28.710  30.181  1.00  0.00     0.074 A 
ATOM     44  C   UNL A   1      43.954  27.317  29.809  1.00  0.00     0.031 C 
ATOM     45  C   UNL A   1      37.719  30.093  28.768  1.00  0.00     0.029 A 
ATOM     46  C   UNL A   1      38.722  30.976  29.355  1.00  0.00     0.049 A 
ATOM     47  H   UNL A   1      40.705  30.521  29.806  1.00  0.00     0.167 HD
ATOM     48  C   UNL A   1      44.849  29.449  30.694  1.00  0.00     0.031 A 
ATOM     49  C   UNL A   1      38.516  32.259  29.708  1.00  0.00     0.031 A 
ATOM     50  C   UNL A   1      44.735  30.836  31.062  1.00  0.00     0.049 A 
ATOM     51  C   UNL A   1      39.662  33.061  30.261  1.00  0.00     0.074 A 
ATOM     52  C   UNL A   1      45.711  31.676  31.571  1.00  0.00     0.029 A 
ATOM     53  N   UNL A   1      43.579  31.592  30.947  1.00  0.00    -0.354 N 
ATOM     54  N   UNL A   1      40.897  32.683  30.492  1.00  0.00    -0.248 NA
ATOM     55  C   UNL A   1      39.391  34.469  30.582  1.00  0.00     0.031 C 
ATOM     56  C   UNL A   1      45.136  32.933  31.793  1.00  0.00     0.029 A 
ATOM     57  C   UNL A   1      43.814  32.887  31.379  1.00  0.00     0.049 A 
ATOM     58  H   UNL A   1      42.717  31.258  30.609  1.00  0.00     0.167 HD
ATOM     59  C   UNL A   1      41.554  33.813  30.966  1.00  0.00     0.074 A 
ATOM     60  C   UNL A   1      40.587  34.891  30.964  1.00  0.00     0.031 C 
ATOM     61  C   UNL A   1      42.840  33.946  31.373  1.00  0.00     0.031 A 
BRANCH  48  62
ATOM     62  C   UNL A   1      46.183  28.773  30.872  1.00  0.00    -0.014 A 
ATOM     63  C   UNL A   1      47.151  28.823  29.851  1.00  0.00     0.010 A 
ATOM     64  C   UNL A   1      46.498  28.134  32.084  1.00  0.00     0.010 A 
ATOM     65  C   UNL A   1      48.399  28.221  30.029  1.00  0.00     0.020 A 
ATOM     66  C   UNL A   1      47.756  27.551  32.275  1.00  0.00     0.020 A 
ATOM     67  C   UNL A   1      48.694  27.588  31.241  1.00  0.00     0.054 A 
BRANCH  67  68
ATOM     68  S   UNL A   1      50.338  26.851  31.458  1.00  0.00     0.124 S 
ATOM     69  O   UNL A   1      50.097  25.887  32.528  1.00  0.00    -0.237 OA
ATOM     70  O   UNL A   1      50.608  26.274  30.143  1.00  0.00    -0.237 OA
ATOM     71  O   UNL A   1      51.181  27.987  31.820  1.00  0.00    -0.744 OA
ENDBRANCH  67  68
ENDBRANCH  48  62
BRANCH  49  72
ATOM     72  C   UNL A   1      37.173  32.876  29.535  1.00  0.00    -0.014 A 
ATOM     73  C   UNL A   1      36.768  33.376  28.285  1.00  0.00     0.010 A 
ATOM     74  C   UNL A   1      36.299  32.985  30.631  1.00  0.00     0.010 A 
ATOM     75  C   UNL A   1      35.528  34.006  28.142  1.00  0.00     0.020 A 
ATOM     76  C   UNL A   1      35.048  33.590  30.487  1.00  0.00     0.020 A 
ATOM     77  C   UNL A   1      34.678  34.114  29.247  1.00  0.00     0.054 A 
BRANCH  77  78
ATOM     78  S   UNL A   1      33.063  34.916  29.042  1.00  0.00     0.124 S 
ATOM     79  O   UNL A   1      32.402  34.026  28.094  1.00  0.00    -0.237 OA
ATOM     80  O   UNL A   1      32.526  34.907  30.401  1.00  0.00    -0.237 OA
ATOM     81  O   UNL A   1      33.406  36.240  28.526  1.00  0.00    -0.744 OA
ENDBRANCH  77  78
ENDBRANCH  49  72
BRANCH  61  82
ATOM     82  C   UNL A   1      43.275  35.314  31.823  1.00  0.00    -0.014 A 
ATOM     83  C   UNL A   1      43.157  35.707  33.168  1.00  0.00     0.010 A 
ATOM     84  C   UNL A   1      43.819  36.213  30.889  1.00  0.00     0.010 A 
ATOM     85  C   UNL A   1      43.528  36.995  33.561  1.00  0.00     0.020 A 
ATOM     86  C   UNL A   1      44.216  37.493  31.283  1.00  0.00     0.020 A 
ATOM     87  C   UNL A   1      44.047  37.883  32.613  1.00  0.00     0.054 A 
BRANCH  87  88
ATOM     88  S   UNL A   1      44.530  39.549  33.145  1.00  0.00     0.124 S 
ATOM     89  O   UNL A   1      44.142  40.359  31.994  1.00  0.00    -0.237 OA
ATOM     90  O   UNL A   1      43.731  39.748  34.352  1.00  0.00    -0.237 OA
ATOM     91  O   UNL A   1      45.969  39.434  33.371  1.00  0.00    -0.744 OA
ENDBRANCH  87  88
ENDBRANCH  61  82
ENDBRANCH  35  36
ENDBRANCH  27  30
ENDBRANCH  25  26
ENDBRANCH   1  25
TORSDOF 16
ENDMDL
MODEL 3
REMARK VINA RESULT:     -10.6      2.852      3.592
REMARK SMILES COc1ccc(Br)c([C@H]2[NH2+][C@H](C(=O)NCCCNC(=O)c3ccc(-c4c5nc(c(-c6ccc(S(=O)(=O)[O-])cc6)c6ccc([nH]6)c(-c6ccc(S(=O)(=O)[O-])cc6)c6nc(c(-c7ccc(S(=O)(=O)[O-])cc7)c7ccc4[nH]7)C=C6)C=C5)cc3)CS2)c1O
REMARK SMILES IDX 16 1 15 2 14 3 12 4 13 5 11 7 9 8 10 9 82 10 81 13 8 14 3 15
REMARK SMILES IDX 4 16 83 17 5 18 6 19 7 20 2 21 1 22 84 23 17 25 18 26 19 27
REMARK SMILES IDX 20 29 21 30 22 31 80 32 23 33 79 34 24 35 25 36 26 37 73 38
REMARK SMILES IDX 27 39 78 40 72 41 74 42 28 43 77 44 71 45 70 46 29 48 59 49
REMARK SMILES IDX 40 50 58 51 41 52 44 53 57 54 75 55 42 56 43 57 56 59 76 60
REMARK SMILES IDX 45 61 30 62 31 63 39 64 32 65 38 66 33 67 34 68 35 69 36 70
REMARK SMILES IDX 37 71 60 72 61 73 69 74 62 75 68 76 63 77 64 78 65 79 66 80
REMARK SMILES IDX 67 81 46 82 47 83 55 84 48 85 54 86 49 87 50 88 51 89 52 90
REMARK SMILES IDX 53 91
REMARK H PARENT 14 6 10 11 10 12 84 24 18 28 74 47 44 58
REMARK Flexibility Score: inf
ROOT
ATOM      1  C   UNL A   1      33.129  27.997  26.829  1.00  0.00     0.042 C 
ENDROOT
BRANCH   1   2
ATOM      2  C   UNL A   1      31.656  27.991  26.431  1.00  0.00     0.118 C 
BRANCH   2   3
ATOM      3  N   UNL A   1      31.015  26.718  26.693  1.00  0.00    -0.351 N 
ATOM      4  C   UNL A   1      31.136  25.492  26.117  1.00  0.00     0.279 C 
ATOM      5  O   UNL A   1      30.430  24.594  26.597  1.00  0.00    -0.268 OA
ATOM      6  H   UNL A   1      30.366  26.745  27.434  1.00  0.00     0.163 HD
BRANCH   4   7
ATOM      7  C   UNL A   1      32.094  25.166  24.957  1.00  0.00     0.283 C 
ATOM      8  C   UNL A   1      33.036  22.933  24.748  1.00  0.00     0.279 C 
ATOM      9  N   UNL A   1      33.191  24.257  25.364  1.00  0.00    -0.320 N 
ATOM     10  S   UNL A   1      32.359  23.319  23.101  1.00  0.00    -0.087 SA
ATOM     11  H   UNL A   1      34.083  24.658  25.072  1.00  0.00     0.348 HD
ATOM     12  H   UNL A   1      33.163  24.147  26.377  1.00  0.00     0.348 HD
ATOM     13  C   UNL A   1      31.424  24.752  23.659  1.00  0.00     0.151 C 
BRANCH   8  14
ATOM     14  C   UNL A   1      34.291  22.058  24.863  1.00  0.00     0.080 A 
ATOM     15  C   UNL A   1      36.743  21.755  24.919  1.00  0.00     0.161 A 
ATOM     16  C   UNL A   1      36.631  20.378  24.944  1.00  0.00     0.051 A 
ATOM     17  C   UNL A   1      35.604  22.574  24.817  1.00  0.00     0.169 A 
ATOM     18  C   UNL A   1      35.363  19.818  24.906  1.00  0.00     0.020 A 
ATOM     19  C   UNL A   1      34.213  20.634  24.862  1.00  0.00     0.032 A 
ATOM     20  Br  UNL A   1      32.591  19.636  24.702  1.00  0.00    -0.050 Br
BRANCH  15  21
ATOM     21  O   UNL A   1      38.000  22.307  24.902  1.00  0.00    -0.493 OA
ATOM     22  C   UNL A   1      38.801  21.758  25.954  1.00  0.00     0.278 C 
ENDBRANCH  15  21
BRANCH  17  23
ATOM     23  O   UNL A   1      35.842  23.902  24.583  1.00  0.00    -0.504 OA
ATOM     24  H   UNL A   1      36.442  24.160  23.911  1.00  0.00     0.293 HD
ENDBRANCH  17  23
ENDBRANCH   8  14
ENDBRANCH   4   7
ENDBRANCH   2   3
ENDBRANCH   1   2
BRANCH   1  25
ATOM     25  C   UNL A   1      33.970  29.054  26.120  1.00  0.00     0.118 C 
BRANCH  25  26
ATOM     26  N   UNL A   1      33.662  30.400  26.578  1.00  0.00    -0.352 N 
ATOM     27  C   UNL A   1      34.255  31.176  27.538  1.00  0.00     0.251 C 
ATOM     28  H   UNL A   1      32.898  30.822  26.122  1.00  0.00     0.163 HD
ATOM     29  O   UNL A   1      33.681  32.210  27.889  1.00  0.00    -0.269 OA
BRANCH  27  30
ATOM     30  C   UNL A   1      35.549  30.808  28.160  1.00  0.00     0.039 A 
ATOM     31  C   UNL A   1      35.580  29.695  29.008  1.00  0.00     0.014 A 
ATOM     32  C   UNL A   1      36.705  31.577  27.993  1.00  0.00     0.014 A 
ATOM     33  C   UNL A   1      36.766  29.337  29.655  1.00  0.00     0.010 A 
ATOM     34  C   UNL A   1      37.908  31.178  28.585  1.00  0.00     0.010 A 
ATOM     35  C   UNL A   1      37.946  30.064  29.434  1.00  0.00    -0.014 A 
BRANCH  35  36
ATOM     36  C   UNL A   1      39.211  29.667  30.107  1.00  0.00     0.031 A 
ATOM     37  C   UNL A   1      39.664  30.364  31.364  1.00  0.00     0.074 A 
ATOM     38  C   UNL A   1      39.956  28.673  29.583  1.00  0.00     0.049 A 
ATOM     39  N   UNL A   1      40.721  30.129  32.101  1.00  0.00    -0.248 NA
ATOM     40  C   UNL A   1      38.833  31.477  31.848  1.00  0.00     0.031 C 
ATOM     41  C   UNL A   1      39.653  27.950  28.344  1.00  0.00     0.029 A 
ATOM     42  N   UNL A   1      41.117  28.092  30.028  1.00  0.00    -0.354 N 
ATOM     43  C   UNL A   1      40.681  31.060  33.133  1.00  0.00     0.074 A 
ATOM     44  C   UNL A   1      39.527  31.900  32.897  1.00  0.00     0.031 C 
ATOM     45  C   UNL A   1      40.586  27.003  28.147  1.00  0.00     0.029 A 
ATOM     46  C   UNL A   1      41.564  27.067  29.228  1.00  0.00     0.049 A 
ATOM     47  H   UNL A   1      41.585  28.383  30.843  1.00  0.00     0.167 HD
ATOM     48  C   UNL A   1      41.512  31.190  34.195  1.00  0.00     0.031 A 
ATOM     49  C   UNL A   1      42.638  26.263  29.353  1.00  0.00     0.031 A 
ATOM     50  C   UNL A   1      42.658  30.353  34.434  1.00  0.00     0.049 A 
ATOM     51  C   UNL A   1      43.535  26.419  30.549  1.00  0.00     0.074 A 
ATOM     52  C   UNL A   1      43.550  30.393  35.493  1.00  0.00     0.029 A 
ATOM     53  N   UNL A   1      43.065  29.315  33.610  1.00  0.00    -0.354 N 
ATOM     54  N   UNL A   1      43.451  27.279  31.537  1.00  0.00    -0.248 NA
ATOM     55  C   UNL A   1      44.662  25.483  30.657  1.00  0.00     0.031 C 
ATOM     56  C   UNL A   1      44.514  29.398  35.292  1.00  0.00     0.029 A 
ATOM     57  C   UNL A   1      44.196  28.709  34.133  1.00  0.00     0.049 A 
ATOM     58  H   UNL A   1      42.616  29.047  32.775  1.00  0.00     0.167 HD
ATOM     59  C   UNL A   1      44.502  26.972  32.393  1.00  0.00     0.074 A 
ATOM     60  C   UNL A   1      45.190  25.833  31.821  1.00  0.00     0.031 C 
ATOM     61  C   UNL A   1      44.869  27.581  33.548  1.00  0.00     0.031 A 
BRANCH  48  62
ATOM     62  C   UNL A   1      41.199  32.271  35.195  1.00  0.00    -0.014 A 
ATOM     63  C   UNL A   1      41.732  33.565  35.039  1.00  0.00     0.010 A 
ATOM     64  C   UNL A   1      40.324  32.016  36.265  1.00  0.00     0.010 A 
ATOM     65  C   UNL A   1      41.417  34.574  35.951  1.00  0.00     0.020 A 
ATOM     66  C   UNL A   1      39.986  33.030  37.167  1.00  0.00     0.020 A 
ATOM     67  C   UNL A   1      40.546  34.301  37.011  1.00  0.00     0.054 A 
BRANCH  67  68
ATOM     68  S   UNL A   1      40.123  35.644  38.156  1.00  0.00     0.124 S 
ATOM     69  O   UNL A   1      39.872  36.753  37.240  1.00  0.00    -0.237 OA
ATOM     70  O   UNL A   1      38.945  35.120  38.844  1.00  0.00    -0.237 OA
ATOM     71  O   UNL A   1      41.316  35.778  38.987  1.00  0.00    -0.744 OA
ENDBRANCH  67  68
ENDBRANCH  48  62
BRANCH  49  72
ATOM     72  C   UNL A   1      42.918  25.225  28.325  1.00  0.00    -0.014 A 
ATOM     73  C   UNL A   1      42.460  23.906  28.493  1.00  0.00     0.010 A 
ATOM     74  C   UNL A   1      43.665  25.549  27.178  1.00  0.00     0.010 A 
ATOM     75  C   UNL A   1      42.775  22.922  27.552  1.00  0.00     0.020 A 
ATOM     76  C   UNL A   1      43.960  24.574  26.223  1.00  0.00     0.020 A 
ATOM     77  C   UNL A   1      43.530  23.261  26.425  1.00  0.00     0.054 A 
BRANCH  77  78
ATOM     78  S   UNL A   1      43.914  21.977  25.201  1.00  0.00     0.124 S 
ATOM     79  O   UNL A   1      43.822  22.717  23.948  1.00  0.00    -0.237 OA
ATOM     80  O   UNL A   1      45.257  21.555  25.591  1.00  0.00    -0.237 OA
ATOM     81  O   UNL A   1      42.869  20.979  25.420  1.00  0.00    -0.744 OA
ENDBRANCH  77  78
ENDBRANCH  49  72
BRANCH  61  82
ATOM     82  C   UNL A   1      46.054  27.005  34.275  1.00  0.00    -0.014 A 
ATOM     83  C   UNL A   1      45.895  25.987  35.232  1.00  0.00     0.010 A 
ATOM     84  C   UNL A   1      47.346  27.484  33.989  1.00  0.00     0.010 A 
ATOM     85  C   UNL A   1      47.001  25.493  35.927  1.00  0.00     0.020 A 
ATOM     86  C   UNL A   1      48.457  26.974  34.663  1.00  0.00     0.020 A 
ATOM     87  C   UNL A   1      48.275  25.997  35.644  1.00  0.00     0.054 A 
BRANCH  87  88
ATOM     88  S   UNL A   1      49.699  25.336  36.553  1.00  0.00     0.124 S 
ATOM     89  O   UNL A   1      50.556  24.862  35.470  1.00  0.00    -0.237 OA
ATOM     90  O   UNL A   1      50.192  26.503  37.279  1.00  0.00    -0.237 OA
ATOM     91  O   UNL A   1      49.117  24.290  37.391  1.00  0.00    -0.744 OA
ENDBRANCH  87  88
ENDBRANCH  61  82
ENDBRANCH  35  36
ENDBRANCH  27  30
ENDBRANCH  25  26
ENDBRANCH   1  25
TORSDOF 16
ENDMDL
