MODEL 1
REMARK VINA RESULT:     -11.1      0.000      0.000
REMARK SMILES O=C(NCCCNC(=O)[C@@H](Cc1ccncc1)c1ccc(Cl)cc1)c1ccc(-c2c3nc(c(-c4ccc(S(=O)(=O)[O-])cc4)c4ccc([nH]4)c(-c4ccc(S(=O)(=O)[O-])cc4)c4nc(c(-c5ccc(S(=O)(=O)[O-])cc5)c5ccc2[nH]5)C=C4)C=C3)cc1
REMARK SMILES IDX 4 1 3 2 1 3 2 4 25 6 26 7 84 8 27 9 83 10 28 11 29 12 30 13
REMARK SMILES IDX 77 14 31 15 82 16 76 17 78 18 32 19 81 20 75 21 74 22 33 24
REMARK SMILES IDX 63 25 44 26 62 27 45 28 48 29 61 30 79 31 46 32 47 33 60 35
REMARK SMILES IDX 80 36 49 37 34 38 35 39 43 40 36 41 42 42 37 43 38 44 39 45
REMARK SMILES IDX 40 46 41 47 64 48 65 49 73 50 66 51 72 52 67 53 68 54 69 55
REMARK SMILES IDX 70 56 71 57 50 58 51 59 59 60 52 61 58 62 53 63 54 64 55 65
REMARK SMILES IDX 56 66 57 67 5 68 6 69 7 70 8 71 9 73 10 74 11 75 12 76 13 77
REMARK SMILES IDX 17 78 14 79 16 80 15 81 18 82 19 83 24 84 20 85 23 86 21 87
REMARK SMILES IDX 22 88
REMARK H PARENT 3 5 78 23 48 34 7 72
REMARK Flexibility Score: inf
ROOT
ATOM      1  C   UNL A   1      33.637  28.421  26.855  1.00  0.00     0.118 C 
ENDROOT
BRANCH   1   2
ATOM      2  N   UNL A   1      33.614  29.800  27.335  1.00  0.00    -0.352 N 
ATOM      3  O   UNL A   1      34.114  31.587  28.590  1.00  0.00    -0.269 OA
ATOM      4  C   UNL A   1      34.504  30.520  28.093  1.00  0.00     0.251 C 
ATOM      5  H   UNL A   1      32.813  30.305  27.066  1.00  0.00     0.163 HD
BRANCH   4   6
ATOM      6  C   UNL A   1      35.893  30.065  28.340  1.00  0.00     0.039 A 
ATOM      7  C   UNL A   1      36.880  30.200  27.371  1.00  0.00     0.014 A 
ATOM      8  C   UNL A   1      36.253  29.575  29.604  1.00  0.00     0.014 A 
ATOM      9  C   UNL A   1      38.152  29.687  27.579  1.00  0.00     0.010 A 
ATOM     10  C   UNL A   1      37.580  29.206  29.869  1.00  0.00     0.010 A 
ATOM     11  C   UNL A   1      38.541  29.242  28.849  1.00  0.00    -0.014 A 
BRANCH  11  12
ATOM     12  C   UNL A   1      39.981  28.946  29.079  1.00  0.00     0.031 A 
ATOM     13  C   UNL A   1      40.594  27.638  28.666  1.00  0.00     0.074 A 
ATOM     14  C   UNL A   1      40.752  29.914  29.623  1.00  0.00     0.049 A 
ATOM     15  N   UNL A   1      41.844  27.258  28.750  1.00  0.00    -0.248 NA
ATOM     16  C   UNL A   1      39.696  26.622  28.094  1.00  0.00     0.031 C 
ATOM     17  C   UNL A   1      40.268  31.224  30.076  1.00  0.00     0.029 A 
ATOM     18  N   UNL A   1      42.104  29.974  29.850  1.00  0.00    -0.354 N 
ATOM     19  C   UNL A   1      41.881  25.954  28.270  1.00  0.00     0.074 A 
ATOM     20  C   UNL A   1      40.523  25.600  27.914  1.00  0.00     0.031 C 
ATOM     21  C   UNL A   1      41.310  31.983  30.439  1.00  0.00     0.029 A 
ATOM     22  C   UNL A   1      42.525  31.187  30.344  1.00  0.00     0.049 A 
ATOM     23  H   UNL A   1      42.714  29.221  29.676  1.00  0.00     0.167 HD
ATOM     24  C   UNL A   1      42.950  25.131  28.139  1.00  0.00     0.031 A 
ATOM     25  C   UNL A   1      43.748  31.616  30.707  1.00  0.00     0.031 A 
ATOM     26  C   UNL A   1      44.297  25.495  28.497  1.00  0.00     0.049 A 
ATOM     27  C   UNL A   1      44.907  30.673  30.578  1.00  0.00     0.074 A 
ATOM     28  C   UNL A   1      45.452  24.740  28.379  1.00  0.00     0.029 A 
ATOM     29  N   UNL A   1      44.672  26.712  29.047  1.00  0.00    -0.354 N 
ATOM     30  N   UNL A   1      44.920  29.451  30.102  1.00  0.00    -0.248 NA
ATOM     31  C   UNL A   1      46.210  31.160  31.045  1.00  0.00     0.031 C 
ATOM     32  C   UNL A   1      46.515  25.479  28.911  1.00  0.00     0.029 A 
ATOM     33  C   UNL A   1      46.035  26.720  29.300  1.00  0.00     0.049 A 
ATOM     34  H   UNL A   1      44.061  27.462  29.231  1.00  0.00     0.167 HD
ATOM     35  C   UNL A   1      46.237  29.024  30.200  1.00  0.00     0.074 A 
ATOM     36  C   UNL A   1      46.994  30.129  30.757  1.00  0.00     0.031 C 
ATOM     37  C   UNL A   1      46.770  27.824  29.865  1.00  0.00     0.031 A 
BRANCH  24  38
ATOM     38  C   UNL A   1      42.700  23.737  27.618  1.00  0.00    -0.014 A 
ATOM     39  C   UNL A   1      42.787  23.440  26.246  1.00  0.00     0.010 A 
ATOM     40  C   UNL A   1      42.416  22.698  28.524  1.00  0.00     0.010 A 
ATOM     41  C   UNL A   1      42.556  22.140  25.786  1.00  0.00     0.020 A 
ATOM     42  C   UNL A   1      42.211  21.391  28.071  1.00  0.00     0.020 A 
ATOM     43  C   UNL A   1      42.266  21.123  26.702  1.00  0.00     0.054 A 
BRANCH  43  44
ATOM     44  S   UNL A   1      41.989  19.442  26.079  1.00  0.00     0.124 S 
ATOM     45  O   UNL A   1      42.449  18.625  27.199  1.00  0.00    -0.237 OA
ATOM     46  O   UNL A   1      40.550  19.423  25.837  1.00  0.00    -0.237 OA
ATOM     47  O   UNL A   1      42.821  19.376  24.879  1.00  0.00    -0.744 OA
ENDBRANCH  43  44
ENDBRANCH  24  38
BRANCH  25  48
ATOM     48  C   UNL A   1      43.919  32.989  31.255  1.00  0.00    -0.014 A 
ATOM     49  C   UNL A   1      44.215  34.072  30.411  1.00  0.00     0.010 A 
ATOM     50  C   UNL A   1      43.748  33.225  32.633  1.00  0.00     0.010 A 
ATOM     51  C   UNL A   1      44.348  35.363  30.935  1.00  0.00     0.020 A 
ATOM     52  C   UNL A   1      43.845  34.516  33.155  1.00  0.00     0.020 A 
ATOM     53  C   UNL A   1      44.156  35.576  32.303  1.00  0.00     0.054 A 
BRANCH  53  54
ATOM     54  S   UNL A   1      44.272  37.267  32.951  1.00  0.00     0.124 S 
ATOM     55  O   UNL A   1      44.324  38.058  31.727  1.00  0.00    -0.237 OA
ATOM     56  O   UNL A   1      43.045  37.390  33.735  1.00  0.00    -0.237 OA
ATOM     57  O   UNL A   1      45.504  37.247  33.738  1.00  0.00    -0.744 OA
ENDBRANCH  53  54
ENDBRANCH  25  48
BRANCH  37  58
ATOM     58  C   UNL A   1      48.251  27.655  30.071  1.00  0.00    -0.014 A 
ATOM     59  C   UNL A   1      49.171  28.005  29.068  1.00  0.00     0.010 A 
ATOM     60  C   UNL A   1      48.728  27.171  31.303  1.00  0.00     0.010 A 
ATOM     61  C   UNL A   1      50.543  27.842  29.280  1.00  0.00     0.020 A 
ATOM     62  C   UNL A   1      50.099  27.035  31.531  1.00  0.00     0.020 A 
ATOM     63  C   UNL A   1      50.997  27.357  30.511  1.00  0.00     0.054 A 
BRANCH  63  64
ATOM     64  S   UNL A   1      52.783  27.191  30.777  1.00  0.00     0.124 S 
ATOM     65  O   UNL A   1      52.919  25.762  31.043  1.00  0.00    -0.237 OA
ATOM     66  O   UNL A   1      53.340  27.649  29.506  1.00  0.00    -0.237 OA
ATOM     67  O   UNL A   1      53.047  28.065  31.918  1.00  0.00    -0.744 OA
ENDBRANCH  63  64
ENDBRANCH  37  58
ENDBRANCH  11  12
ENDBRANCH   4   6
ENDBRANCH   1   2
BRANCH   1  68
ATOM     68  C   UNL A   1      33.495  28.349  25.348  1.00  0.00     0.042 C 
BRANCH  68  69
ATOM     69  C   UNL A   1      33.115  26.958  24.881  1.00  0.00     0.117 C 
BRANCH  69  70
ATOM     70  N   UNL A   1      33.432  26.731  23.491  1.00  0.00    -0.355 N 
ATOM     71  C   UNL A   1      33.615  25.570  22.815  1.00  0.00     0.227 C 
ATOM     72  H   UNL A   1      33.532  27.547  22.950  1.00  0.00     0.163 HD
ATOM     73  O   UNL A   1      33.793  25.677  21.593  1.00  0.00    -0.274 OA
BRANCH  71  74
ATOM     74  C   UNL A   1      33.624  24.180  23.468  1.00  0.00     0.113 C 
BRANCH  74  75
ATOM     75  C   UNL A   1      32.649  23.124  22.873  1.00  0.00     0.054 C 
BRANCH  75  76
ATOM     76  C   UNL A   1      32.505  21.735  23.445  1.00  0.00    -0.044 A 
ATOM     77  C   UNL A   1      32.262  20.641  22.603  1.00  0.00     0.024 A 
ATOM     78  C   UNL A   1      32.543  21.494  24.820  1.00  0.00     0.024 A 
ATOM     79  C   UNL A   1      32.169  19.371  23.156  1.00  0.00     0.111 A 
ATOM     80  C   UNL A   1      32.472  20.186  25.277  1.00  0.00     0.111 A 
ATOM     81  N   UNL A   1      32.308  19.119  24.473  1.00  0.00    -0.265 NA
ENDBRANCH  75  76
ENDBRANCH  74  75
BRANCH  74  82
ATOM     82  C   UNL A   1      34.964  23.731  24.062  1.00  0.00    -0.035 A 
ATOM     83  C   UNL A   1      35.924  22.970  23.380  1.00  0.00     0.006 A 
ATOM     84  C   UNL A   1      35.267  24.094  25.390  1.00  0.00     0.006 A 
ATOM     85  C   UNL A   1      37.097  22.531  24.004  1.00  0.00     0.021 A 
ATOM     86  C   UNL A   1      36.444  23.670  26.017  1.00  0.00     0.021 A 
ATOM     87  C   UNL A   1      37.349  22.875  25.325  1.00  0.00     0.041 A 
ATOM     88  Cl  UNL A   1      38.774  22.308  26.102  1.00  0.00    -0.084 Cl
ENDBRANCH  74  82
ENDBRANCH  71  74
ENDBRANCH  69  70
ENDBRANCH  68  69
ENDBRANCH   1  68
TORSDOF 16
ENDMDL
MODEL 2
REMARK VINA RESULT:     -11.1      3.082      8.325
REMARK SMILES O=C(NCCCNC(=O)[C@@H](Cc1ccncc1)c1ccc(Cl)cc1)c1ccc(-c2c3nc(c(-c4ccc(S(=O)(=O)[O-])cc4)c4ccc([nH]4)c(-c4ccc(S(=O)(=O)[O-])cc4)c4nc(c(-c5ccc(S(=O)(=O)[O-])cc5)c5ccc2[nH]5)C=C4)C=C3)cc1
REMARK SMILES IDX 4 1 3 2 1 3 2 4 25 6 26 7 84 8 27 9 83 10 28 11 29 12 30 13
REMARK SMILES IDX 77 14 31 15 82 16 76 17 78 18 32 19 81 20 75 21 74 22 33 24
REMARK SMILES IDX 63 25 44 26 62 27 45 28 48 29 61 30 79 31 46 32 47 33 60 35
REMARK SMILES IDX 80 36 49 37 34 38 35 39 43 40 36 41 42 42 37 43 38 44 39 45
REMARK SMILES IDX 40 46 41 47 64 48 65 49 73 50 66 51 72 52 67 53 68 54 69 55
REMARK SMILES IDX 70 56 71 57 50 58 51 59 59 60 52 61 58 62 53 63 54 64 55 65
REMARK SMILES IDX 56 66 57 67 5 68 6 69 7 70 8 71 9 73 10 74 11 75 12 76 13 77
REMARK SMILES IDX 17 78 14 79 16 80 15 81 18 82 19 83 24 84 20 85 23 86 21 87
REMARK SMILES IDX 22 88
REMARK H PARENT 3 5 78 23 48 34 7 72
REMARK Flexibility Score: inf
ROOT
ATOM      1  C   UNL A   1      36.690  23.690  25.176  1.00  0.00     0.118 C 
ENDROOT
BRANCH   1   2
ATOM      2  N   UNL A   1      37.753  22.757  25.540  1.00  0.00    -0.352 N 
ATOM      3  O   UNL A   1      39.802  22.023  26.066  1.00  0.00    -0.269 OA
ATOM      4  C   UNL A   1      38.982  22.951  26.120  1.00  0.00     0.251 C 
ATOM      5  H   UNL A   1      37.550  21.816  25.331  1.00  0.00     0.163 HD
BRANCH   4   6
ATOM      6  C   UNL A   1      39.358  24.219  26.787  1.00  0.00     0.039 A 
ATOM      7  C   UNL A   1      39.044  24.455  28.121  1.00  0.00     0.014 A 
ATOM      8  C   UNL A   1      40.129  25.169  26.101  1.00  0.00     0.014 A 
ATOM      9  C   UNL A   1      39.318  25.681  28.708  1.00  0.00     0.010 A 
ATOM     10  C   UNL A   1      40.549  26.342  26.745  1.00  0.00     0.010 A 
ATOM     11  C   UNL A   1      40.130  26.617  28.054  1.00  0.00    -0.014 A 
BRANCH  11  12
ATOM     12  C   UNL A   1      40.604  27.798  28.828  1.00  0.00     0.031 A 
ATOM     13  C   UNL A   1      42.011  27.886  29.347  1.00  0.00     0.074 A 
ATOM     14  C   UNL A   1      39.749  28.828  29.007  1.00  0.00     0.049 A 
ATOM     15  N   UNL A   1      42.584  28.874  29.988  1.00  0.00    -0.248 NA
ATOM     16  C   UNL A   1      42.886  26.724  29.130  1.00  0.00     0.031 C 
ATOM     17  C   UNL A   1      38.351  28.853  28.558  1.00  0.00     0.029 A 
ATOM     18  N   UNL A   1      39.928  30.066  29.570  1.00  0.00    -0.354 N 
ATOM     19  C   UNL A   1      43.875  28.444  30.276  1.00  0.00     0.074 A 
ATOM     20  C   UNL A   1      43.994  27.099  29.757  1.00  0.00     0.031 C 
ATOM     21  C   UNL A   1      37.833  30.067  28.781  1.00  0.00     0.029 A 
ATOM     22  C   UNL A   1      38.821  30.878  29.478  1.00  0.00     0.049 A 
ATOM     23  H   UNL A   1      40.769  30.347  29.999  1.00  0.00     0.167 HD
ATOM     24  C   UNL A   1      44.866  29.114  30.914  1.00  0.00     0.031 A 
ATOM     25  C   UNL A   1      38.604  32.128  29.924  1.00  0.00     0.031 A 
ATOM     26  C   UNL A   1      44.735  30.454  31.427  1.00  0.00     0.049 A 
ATOM     27  C   UNL A   1      39.709  32.833  30.652  1.00  0.00     0.074 A 
ATOM     28  C   UNL A   1      45.689  31.227  32.067  1.00  0.00     0.029 A 
ATOM     29  N   UNL A   1      43.579  31.219  31.364  1.00  0.00    -0.354 N 
ATOM     30  N   UNL A   1      40.928  32.414  30.894  1.00  0.00    -0.248 NA
ATOM     31  C   UNL A   1      39.409  34.170  31.177  1.00  0.00     0.031 C 
ATOM     32  C   UNL A   1      45.092  32.436  32.442  1.00  0.00     0.029 A 
ATOM     33  C   UNL A   1      43.786  32.445  31.978  1.00  0.00     0.049 A 
ATOM     34  H   UNL A   1      42.735  30.935  30.945  1.00  0.00     0.167 HD
ATOM     35  C   UNL A   1      41.547  33.443  31.592  1.00  0.00     0.074 A 
ATOM     36  C   UNL A   1      40.575  34.512  31.708  1.00  0.00     0.031 C 
ATOM     37  C   UNL A   1      42.805  33.494  32.095  1.00  0.00     0.031 A 
BRANCH  24  38
ATOM     38  C   UNL A   1      46.173  28.392  31.128  1.00  0.00    -0.014 A 
ATOM     39  C   UNL A   1      47.256  28.557  30.245  1.00  0.00     0.010 A 
ATOM     40  C   UNL A   1      46.334  27.567  32.257  1.00  0.00     0.010 A 
ATOM     41  C   UNL A   1      48.459  27.880  30.466  1.00  0.00     0.020 A 
ATOM     42  C   UNL A   1      47.545  26.910  32.496  1.00  0.00     0.020 A 
ATOM     43  C   UNL A   1      48.596  27.057  31.589  1.00  0.00     0.054 A 
BRANCH  43  44
ATOM     44  S   UNL A   1      50.175  26.207  31.860  1.00  0.00     0.124 S 
ATOM     45  O   UNL A   1      51.098  27.032  31.086  1.00  0.00    -0.237 OA
ATOM     46  O   UNL A   1      50.333  26.279  33.310  1.00  0.00    -0.237 OA
ATOM     47  O   UNL A   1      49.944  24.866  31.327  1.00  0.00    -0.744 OA
ENDBRANCH  43  44
ENDBRANCH  24  38
BRANCH  25  48
ATOM     48  C   UNL A   1      37.275  32.768  29.719  1.00  0.00    -0.014 A 
ATOM     49  C   UNL A   1      36.252  32.630  30.672  1.00  0.00     0.010 A 
ATOM     50  C   UNL A   1      37.041  33.555  28.575  1.00  0.00     0.010 A 
ATOM     51  C   UNL A   1      35.017  33.258  30.481  1.00  0.00     0.020 A 
ATOM     52  C   UNL A   1      35.821  34.212  28.397  1.00  0.00     0.020 A 
ATOM     53  C   UNL A   1      34.813  34.050  29.346  1.00  0.00     0.054 A 
BRANCH  53  54
ATOM     54  S   UNL A   1      33.224  34.905  29.149  1.00  0.00     0.124 S 
ATOM     55  O   UNL A   1      32.538  34.050  28.187  1.00  0.00    -0.237 OA
ATOM     56  O   UNL A   1      32.687  34.891  30.508  1.00  0.00    -0.237 OA
ATOM     57  O   UNL A   1      33.607  36.226  28.654  1.00  0.00    -0.744 OA
ENDBRANCH  53  54
ENDBRANCH  25  48
BRANCH  37  58
ATOM     58  C   UNL A   1      43.206  34.763  32.797  1.00  0.00    -0.014 A 
ATOM     59  C   UNL A   1      43.753  35.846  32.088  1.00  0.00     0.010 A 
ATOM     60  C   UNL A   1      42.998  34.883  34.182  1.00  0.00     0.010 A 
ATOM     61  C   UNL A   1      44.118  37.016  32.759  1.00  0.00     0.020 A 
ATOM     62  C   UNL A   1      43.333  36.061  34.852  1.00  0.00     0.020 A 
ATOM     63  C   UNL A   1      43.906  37.115  34.137  1.00  0.00     0.054 A 
BRANCH  63  64
ATOM     64  S   UNL A   1      44.351  38.658  34.979  1.00  0.00     0.124 S 
ATOM     65  O   UNL A   1      43.501  39.631  34.299  1.00  0.00    -0.237 OA
ATOM     66  O   UNL A   1      43.997  38.379  36.369  1.00  0.00    -0.237 OA
ATOM     67  O   UNL A   1      45.782  38.794  34.721  1.00  0.00    -0.744 OA
ENDBRANCH  63  64
ENDBRANCH  37  58
ENDBRANCH  11  12
ENDBRANCH   4   6
ENDBRANCH   1   2
BRANCH   1  68
ATOM     68  C   UNL A   1      35.533  23.632  26.154  1.00  0.00     0.042 C 
BRANCH  68  69
ATOM     69  C   UNL A   1      34.214  23.371  25.455  1.00  0.00     0.117 C 
BRANCH  69  70
ATOM     70  N   UNL A   1      33.089  23.402  26.358  1.00  0.00    -0.355 N 
ATOM     71  C   UNL A   1      32.031  24.249  26.408  1.00  0.00     0.227 C 
ATOM     72  H   UNL A   1      33.090  22.698  27.047  1.00  0.00     0.163 HD
ATOM     73  O   UNL A   1      31.160  23.979  27.247  1.00  0.00    -0.274 OA
BRANCH  71  74
ATOM     74  C   UNL A   1      31.871  25.488  25.516  1.00  0.00     0.113 C 
BRANCH  74  75
ATOM     75  C   UNL A   1      30.693  25.471  24.501  1.00  0.00     0.054 C 
BRANCH  75  76
ATOM     76  C   UNL A   1      30.271  26.690  23.719  1.00  0.00    -0.044 A 
ATOM     77  C   UNL A   1      31.213  27.428  22.990  1.00  0.00     0.024 A 
ATOM     78  C   UNL A   1      28.958  27.164  23.740  1.00  0.00     0.024 A 
ATOM     79  C   UNL A   1      30.789  28.525  22.253  1.00  0.00     0.111 A 
ATOM     80  C   UNL A   1      28.621  28.251  22.946  1.00  0.00     0.111 A 
ATOM     81  N   UNL A   1      29.504  28.926  22.186  1.00  0.00    -0.265 NA
ENDBRANCH  75  76
ENDBRANCH  74  75
BRANCH  74  82
ATOM     82  C   UNL A   1      32.327  26.816  26.132  1.00  0.00    -0.035 A 
ATOM     83  C   UNL A   1      31.514  27.657  26.906  1.00  0.00     0.006 A 
ATOM     84  C   UNL A   1      33.652  27.242  25.908  1.00  0.00     0.006 A 
ATOM     85  C   UNL A   1      31.970  28.893  27.379  1.00  0.00     0.021 A 
ATOM     86  C   UNL A   1      34.119  28.471  26.390  1.00  0.00     0.021 A 
ATOM     87  C   UNL A   1      33.269  29.300  27.111  1.00  0.00     0.041 A 
ATOM     88  Cl  UNL A   1      33.818  30.833  27.664  1.00  0.00    -0.084 Cl
ENDBRANCH  74  82
ENDBRANCH  71  74
ENDBRANCH  69  70
ENDBRANCH  68  69
ENDBRANCH   1  68
TORSDOF 16
ENDMDL
MODEL 3
REMARK VINA RESULT:     -11.1      1.116      8.384
REMARK SMILES O=C(NCCCNC(=O)[C@@H](Cc1ccncc1)c1ccc(Cl)cc1)c1ccc(-c2c3nc(c(-c4ccc(S(=O)(=O)[O-])cc4)c4ccc([nH]4)c(-c4ccc(S(=O)(=O)[O-])cc4)c4nc(c(-c5ccc(S(=O)(=O)[O-])cc5)c5ccc2[nH]5)C=C4)C=C3)cc1
REMARK SMILES IDX 4 1 3 2 1 3 2 4 25 6 26 7 84 8 27 9 83 10 28 11 29 12 30 13
REMARK SMILES IDX 77 14 31 15 82 16 76 17 78 18 32 19 81 20 75 21 74 22 33 24
REMARK SMILES IDX 63 25 44 26 62 27 45 28 48 29 61 30 79 31 46 32 47 33 60 35
REMARK SMILES IDX 80 36 49 37 34 38 35 39 43 40 36 41 42 42 37 43 38 44 39 45
REMARK SMILES IDX 40 46 41 47 64 48 65 49 73 50 66 51 72 52 67 53 68 54 69 55
REMARK SMILES IDX 70 56 71 57 50 58 51 59 59 60 52 61 58 62 53 63 54 64 55 65
REMARK SMILES IDX 56 66 57 67 5 68 6 69 7 70 8 71 9 73 10 74 11 75 12 76 13 77
REMARK SMILES IDX 17 78 14 79 16 80 15 81 18 82 19 83 24 84 20 85 23 86 21 87
REMARK SMILES IDX 22 88
REMARK H PARENT 3 5 78 23 48 34 7 72
REMARK Flexibility Score: inf
ROOT
ATOM      1  C   UNL A   1      33.972  28.723  25.576  1.00  0.00     0.118 C 
ENDROOT
BRANCH   1   2
ATOM      2  N   UNL A   1      33.771  29.943  26.354  1.00  0.00    -0.352 N 
ATOM      3  O   UNL A   1      33.907  31.377  28.070  1.00  0.00    -0.269 OA
ATOM      4  C   UNL A   1      34.451  30.469  27.424  1.00  0.00     0.251 C 
ATOM      5  H   UNL A   1      33.007  30.488  26.055  1.00  0.00     0.163 HD
BRANCH   4   6
ATOM      6  C   UNL A   1      35.791  29.986  27.833  1.00  0.00     0.039 A 
ATOM      7  C   UNL A   1      36.901  30.154  27.012  1.00  0.00     0.014 A 
ATOM      8  C   UNL A   1      35.976  29.432  29.108  1.00  0.00     0.014 A 
ATOM      9  C   UNL A   1      38.130  29.616  27.364  1.00  0.00     0.010 A 
ATOM     10  C   UNL A   1      37.252  29.034  29.531  1.00  0.00     0.010 A 
ATOM     11  C   UNL A   1      38.342  29.107  28.652  1.00  0.00    -0.014 A 
BRANCH  11  12
ATOM     12  C   UNL A   1      39.737  28.783  29.059  1.00  0.00     0.031 A 
ATOM     13  C   UNL A   1      40.553  29.727  29.896  1.00  0.00     0.074 A 
ATOM     14  C   UNL A   1      40.243  27.582  28.703  1.00  0.00     0.049 A 
ATOM     15  N   UNL A   1      41.760  29.558  30.374  1.00  0.00    -0.248 NA
ATOM     16  C   UNL A   1      39.948  31.024  30.236  1.00  0.00     0.031 C 
ATOM     17  C   UNL A   1      39.548  26.583  27.879  1.00  0.00     0.029 A 
ATOM     18  N   UNL A   1      41.430  26.971  29.017  1.00  0.00    -0.354 N 
ATOM     19  C   UNL A   1      42.072  30.735  31.046  1.00  0.00     0.074 A 
ATOM     20  C   UNL A   1      40.934  31.617  30.897  1.00  0.00     0.031 C 
ATOM     21  C   UNL A   1      40.278  25.462  27.829  1.00  0.00     0.029 A 
ATOM     22  C   UNL A   1      41.535  25.688  28.527  1.00  0.00     0.049 A 
ATOM     23  H   UNL A   1      42.139  27.407  29.542  1.00  0.00     0.167 HD
ATOM     24  C   UNL A   1      43.204  31.047  31.725  1.00  0.00     0.031 A 
ATOM     25  C   UNL A   1      42.536  24.793  28.604  1.00  0.00     0.031 A 
ATOM     26  C   UNL A   1      44.330  30.160  31.866  1.00  0.00     0.049 A 
ATOM     27  C   UNL A   1      43.788  25.178  29.336  1.00  0.00     0.074 A 
ATOM     28  C   UNL A   1      45.513  30.374  32.554  1.00  0.00     0.029 A 
ATOM     29  N   UNL A   1      44.419  28.893  31.307  1.00  0.00    -0.354 N 
ATOM     30  N   UNL A   1      44.051  26.288  29.981  1.00  0.00    -0.248 NA
ATOM     31  C   UNL A   1      44.879  24.196  29.341  1.00  0.00     0.031 C 
ATOM     32  C   UNL A   1      46.339  29.261  32.362  1.00  0.00     0.029 A 
ATOM     33  C   UNL A   1      45.647  28.325  31.610  1.00  0.00     0.049 A 
ATOM     34  H   UNL A   1      43.715  28.460  30.773  1.00  0.00     0.167 HD
ATOM     35  C   UNL A   1      45.338  26.136  30.481  1.00  0.00     0.074 A 
ATOM     36  C   UNL A   1      45.786  24.816  30.085  1.00  0.00     0.031 C 
ATOM     37  C   UNL A   1      46.082  27.014  31.198  1.00  0.00     0.031 A 
BRANCH  24  38
ATOM     38  C   UNL A   1      43.296  32.422  32.337  1.00  0.00    -0.014 A 
ATOM     39  C   UNL A   1      43.003  32.643  33.695  1.00  0.00     0.010 A 
ATOM     40  C   UNL A   1      43.725  33.506  31.548  1.00  0.00     0.010 A 
ATOM     41  C   UNL A   1      43.100  33.926  34.242  1.00  0.00     0.020 A 
ATOM     42  C   UNL A   1      43.850  34.786  32.098  1.00  0.00     0.020 A 
ATOM     43  C   UNL A   1      43.520  34.991  33.438  1.00  0.00     0.054 A 
BRANCH  43  44
ATOM     44  S   UNL A   1      43.654  36.641  34.179  1.00  0.00     0.124 S 
ATOM     45  O   UNL A   1      44.277  37.406  33.102  1.00  0.00    -0.237 OA
ATOM     46  O   UNL A   1      42.263  36.979  34.465  1.00  0.00    -0.237 OA
ATOM     47  O   UNL A   1      44.494  36.426  35.356  1.00  0.00    -0.744 OA
ENDBRANCH  43  44
ENDBRANCH  24  38
BRANCH  25  48
ATOM     48  C   UNL A   1      42.399  23.468  27.940  1.00  0.00    -0.014 A 
ATOM     49  C   UNL A   1      42.899  23.255  26.644  1.00  0.00     0.010 A 
ATOM     50  C   UNL A   1      41.794  22.396  28.624  1.00  0.00     0.010 A 
ATOM     51  C   UNL A   1      42.787  21.998  26.041  1.00  0.00     0.020 A 
ATOM     52  C   UNL A   1      41.712  21.131  28.039  1.00  0.00     0.020 A 
ATOM     53  C   UNL A   1      42.199  20.943  26.745  1.00  0.00     0.054 A 
BRANCH  53  54
ATOM     54  S   UNL A   1      42.120  19.305  25.967  1.00  0.00     0.124 S 
ATOM     55  O   UNL A   1      42.665  18.446  27.011  1.00  0.00    -0.237 OA
ATOM     56  O   UNL A   1      40.693  19.152  25.697  1.00  0.00    -0.237 OA
ATOM     57  O   UNL A   1      42.957  19.453  24.777  1.00  0.00    -0.744 OA
ENDBRANCH  53  54
ENDBRANCH  25  48
BRANCH  37  58
ATOM     58  C   UNL A   1      47.452  26.558  31.620  1.00  0.00    -0.014 A 
ATOM     59  C   UNL A   1      47.657  25.903  32.847  1.00  0.00     0.010 A 
ATOM     60  C   UNL A   1      48.545  26.758  30.758  1.00  0.00     0.010 A 
ATOM     61  C   UNL A   1      48.938  25.487  33.220  1.00  0.00     0.020 A 
ATOM     62  C   UNL A   1      49.821  26.317  31.112  1.00  0.00     0.020 A 
ATOM     63  C   UNL A   1      50.011  25.698  32.349  1.00  0.00     0.054 A 
BRANCH  63  64
ATOM     64  S   UNL A   1      51.657  25.113  32.837  1.00  0.00     0.124 S 
ATOM     65  O   UNL A   1      51.678  23.764  32.280  1.00  0.00    -0.237 OA
ATOM     66  O   UNL A   1      52.545  26.075  32.188  1.00  0.00    -0.237 OA
ATOM     67  O   UNL A   1      51.631  25.183  34.297  1.00  0.00    -0.744 OA
ENDBRANCH  63  64
ENDBRANCH  37  58
ENDBRANCH  11  12
ENDBRANCH   4   6
ENDBRANCH   1   2
BRANCH   1  68
ATOM     68  C   UNL A   1      33.142  27.574  26.112  1.00  0.00     0.042 C 
BRANCH  68  69
ATOM     69  C   UNL A   1      32.290  26.939  25.031  1.00  0.00     0.117 C 
BRANCH  69  70
ATOM     70  N   UNL A   1      32.969  26.860  23.761  1.00  0.00    -0.355 N 
ATOM     71  C   UNL A   1      33.471  25.785  23.103  1.00  0.00     0.227 C 
ATOM     72  H   UNL A   1      33.087  27.721  23.298  1.00  0.00     0.163 HD
ATOM     73  O   UNL A   1      33.929  26.007  21.974  1.00  0.00    -0.274 OA
BRANCH  71  74
ATOM     74  C   UNL A   1      33.509  24.360  23.676  1.00  0.00     0.113 C 
BRANCH  74  75
ATOM     75  C   UNL A   1      32.495  23.342  23.079  1.00  0.00     0.054 C 
BRANCH  75  76
ATOM     76  C   UNL A   1      32.406  21.911  23.549  1.00  0.00    -0.044 A 
ATOM     77  C   UNL A   1      32.196  20.873  22.631  1.00  0.00     0.024 A 
ATOM     78  C   UNL A   1      32.465  21.572  24.902  1.00  0.00     0.024 A 
ATOM     79  C   UNL A   1      32.154  19.563  23.090  1.00  0.00     0.111 A 
ATOM     80  C   UNL A   1      32.446  20.232  25.263  1.00  0.00     0.111 A 
ATOM     81  N   UNL A   1      32.313  19.221  24.384  1.00  0.00    -0.265 NA
ENDBRANCH  75  76
ENDBRANCH  74  75
BRANCH  74  82
ATOM     82  C   UNL A   1      34.878  23.875  24.167  1.00  0.00    -0.035 A 
ATOM     83  C   UNL A   1      35.753  23.072  23.422  1.00  0.00     0.006 A 
ATOM     84  C   UNL A   1      35.300  24.248  25.459  1.00  0.00     0.006 A 
ATOM     85  C   UNL A   1      36.958  22.602  23.957  1.00  0.00     0.021 A 
ATOM     86  C   UNL A   1      36.510  23.792  25.995  1.00  0.00     0.021 A 
ATOM     87  C   UNL A   1      37.328  22.957  25.246  1.00  0.00     0.041 A 
ATOM     88  Cl  UNL A   1      38.793  22.353  25.914  1.00  0.00    -0.084 Cl
ENDBRANCH  74  82
ENDBRANCH  71  74
ENDBRANCH  69  70
ENDBRANCH  68  69
ENDBRANCH   1  68
TORSDOF 16
ENDMDL
