MODEL 1
REMARK VINA RESULT:     -12.5      0.000      0.000
REMARK SMILES Cc1nc(-c2ccccc2)sc1C(=O)N[C@@H](CC1=c2ccccc2=NC1)C(=O)NCCCNC(=O)c1ccc(-c2c3nc(c(-c4ccc(S(=O)(=O)[O-])cc4)c4ccc([nH]4)c(-c4ccc(S(=O)(=O)[O-])cc4)c4nc(c(-c5ccc(S(=O)(=O)[O-])cc5)c5ccc2[nH]5)C=C4)C=C3)cc1
REMARK SMILES IDX 31 1 30 2 29 3 27 4 28 5 16 7 15 8 13 9 14 10 12 12 1 13
REMARK SMILES IDX 2 14 3 15 4 16 11 17 5 18 6 19 10 20 7 21 9 22 8 23 17 24
REMARK SMILES IDX 18 25 19 26 26 27 20 28 24 29 25 30 21 31 23 32 22 33 32 34
REMARK SMILES IDX 33 35 34 36 35 38 36 39 37 40 95 41 38 42 94 43 39 44 40 45
REMARK SMILES IDX 41 46 88 47 42 48 93 49 87 50 89 51 43 52 92 53 86 54 85 55
REMARK SMILES IDX 44 57 74 58 55 59 73 60 56 61 59 62 72 63 90 64 57 65 58 66
REMARK SMILES IDX 71 68 91 69 60 70 45 71 46 72 54 73 47 74 53 75 48 76 49 77
REMARK SMILES IDX 50 78 51 79 52 80 75 81 76 82 84 83 77 84 83 85 78 86 79 87
REMARK SMILES IDX 80 88 81 89 82 90 61 91 62 92 70 93 63 94 69 95 64 96 65 97
REMARK SMILES IDX 66 98 67 99 68 100
REMARK H PARENT 29 6 15 11 33 37 89 56 59 67
REMARK Flexibility Score: inf
ROOT
ATOM      1  C   UNL A   1      35.705  23.907  25.466  1.00  0.00     0.042 C 
ENDROOT
BRANCH   1   2
ATOM      2  C   UNL A   1      34.537  24.418  24.666  1.00  0.00     0.117 C 
BRANCH   2   3
ATOM      3  N   UNL A   1      34.547  24.056  23.273  1.00  0.00    -0.354 N 
ATOM      4  C   UNL A   1      33.510  23.621  22.515  1.00  0.00     0.242 C 
ATOM      5  O   UNL A   1      33.645  23.682  21.288  1.00  0.00    -0.273 OA
ATOM      6  H   UNL A   1      35.414  24.134  22.814  1.00  0.00     0.163 HD
BRANCH   4   7
ATOM      7  C   UNL A   1      32.187  23.105  23.119  1.00  0.00     0.175 C 
BRANCH   7   8
ATOM      8  N   UNL A   1      31.039  23.968  22.920  1.00  0.00    -0.339 N 
ATOM      9  C   UNL A   1      30.507  25.002  23.643  1.00  0.00     0.263 C 
ATOM     10  O   UNL A   1      29.440  25.402  23.157  1.00  0.00    -0.268 OA
ATOM     11  H   UNL A   1      30.540  23.770  22.094  1.00  0.00     0.164 HD
BRANCH   9  12
ATOM     12  C   UNL A   1      31.095  25.610  24.839  1.00  0.00     0.115 A 
ATOM     13  C   UNL A   1      31.416  23.997  26.930  1.00  0.00     0.068 C 
ATOM     14  C   UNL A   1      31.489  25.248  26.132  1.00  0.00     0.062 A 
ATOM     15  N   UNL A   1      32.090  26.255  26.865  1.00  0.00    -0.241 NA
ATOM     16  C   UNL A   1      32.095  27.389  26.218  1.00  0.00     0.124 A 
ATOM     17  S   UNL A   1      31.416  27.339  24.670  1.00  0.00    -0.108 S 
BRANCH  16  18
ATOM     18  C   UNL A   1      32.665  28.592  26.805  1.00  0.00     0.010 A 
ATOM     19  C   UNL A   1      31.898  29.767  26.790  1.00  0.00     0.011 A 
ATOM     20  C   UNL A   1      34.008  28.649  27.192  1.00  0.00     0.011 A 
ATOM     21  C   UNL A   1      32.471  30.988  27.133  1.00  0.00     0.001 A 
ATOM     22  C   UNL A   1      34.582  29.876  27.528  1.00  0.00     0.001 A 
ATOM     23  C   UNL A   1      33.817  31.043  27.489  1.00  0.00     0.000 A 
ENDBRANCH  16  18
ENDBRANCH   9  12
ENDBRANCH   7   8
BRANCH   7  24
ATOM     24  C   UNL A   1      31.861  21.596  22.946  1.00  0.00     0.068 C 
BRANCH  24  25
ATOM     25  C   UNL A   1      32.538  20.597  23.836  1.00  0.00    -0.037 C 
ATOM     26  C   UNL A   1      32.756  19.295  23.643  1.00  0.00     0.001 A 
ATOM     27  C   UNL A   1      33.187  21.047  25.114  1.00  0.00     0.174 C 
ATOM     28  C   UNL A   1      32.411  18.345  22.634  1.00  0.00     0.010 A 
ATOM     29  C   UNL A   1      33.774  18.992  24.669  1.00  0.00     0.065 A 
ATOM     30  N   UNL A   1      34.040  19.916  25.540  1.00  0.00    -0.280 NA
ATOM     31  C   UNL A   1      33.105  17.196  22.563  1.00  0.00     0.001 A 
ATOM     32  C   UNL A   1      34.491  17.707  24.525  1.00  0.00     0.028 A 
ATOM     33  C   UNL A   1      34.176  16.900  23.498  1.00  0.00     0.002 A 
ENDBRANCH  24  25
ENDBRANCH   7  24
ENDBRANCH   4   7
ENDBRANCH   2   3
ENDBRANCH   1   2
BRANCH   1  34
ATOM     34  C   UNL A   1      36.948  23.683  24.633  1.00  0.00     0.118 C 
BRANCH  34  35
ATOM     35  N   UNL A   1      37.857  22.689  25.196  1.00  0.00    -0.352 N 
ATOM     36  C   UNL A   1      38.907  22.824  26.079  1.00  0.00     0.251 C 
ATOM     37  H   UNL A   1      37.692  21.766  24.895  1.00  0.00     0.163 HD
ATOM     38  O   UNL A   1      39.628  21.872  26.321  1.00  0.00    -0.269 OA
BRANCH  36  39
ATOM     39  C   UNL A   1      39.172  24.141  26.696  1.00  0.00     0.039 A 
ATOM     40  C   UNL A   1      38.710  24.393  27.989  1.00  0.00     0.014 A 
ATOM     41  C   UNL A   1      39.916  25.104  26.020  1.00  0.00     0.014 A 
ATOM     42  C   UNL A   1      39.083  25.575  28.629  1.00  0.00     0.010 A 
ATOM     43  C   UNL A   1      40.420  26.193  26.711  1.00  0.00     0.010 A 
ATOM     44  C   UNL A   1      39.989  26.458  28.016  1.00  0.00    -0.014 A 
BRANCH  44  45
ATOM     45  C   UNL A   1      40.484  27.669  28.713  1.00  0.00     0.031 A 
ATOM     46  C   UNL A   1      41.896  27.712  29.240  1.00  0.00     0.074 A 
ATOM     47  C   UNL A   1      39.644  28.704  28.922  1.00  0.00     0.049 A 
ATOM     48  N   UNL A   1      42.504  28.674  29.883  1.00  0.00    -0.248 NA
ATOM     49  C   UNL A   1      42.722  26.504  29.058  1.00  0.00     0.031 C 
ATOM     50  C   UNL A   1      38.230  28.743  28.534  1.00  0.00     0.029 A 
ATOM     51  N   UNL A   1      39.859  29.925  29.504  1.00  0.00    -0.354 N 
ATOM     52  C   UNL A   1      43.764  28.179  30.199  1.00  0.00     0.074 A 
ATOM     53  C   UNL A   1      43.808  26.808  29.749  1.00  0.00     0.031 C 
ATOM     54  C   UNL A   1      37.725  29.950  28.833  1.00  0.00     0.029 A 
ATOM     55  C   UNL A   1      38.762  30.754  29.469  1.00  0.00     0.049 A 
ATOM     56  H   UNL A   1      40.718  30.186  29.910  1.00  0.00     0.167 HD
ATOM     57  C   UNL A   1      44.808  28.817  30.779  1.00  0.00     0.031 A 
ATOM     58  C   UNL A   1      38.612  32.023  29.891  1.00  0.00     0.031 A 
ATOM     59  C   UNL A   1      44.767  30.191  31.195  1.00  0.00     0.049 A 
ATOM     60  C   UNL A   1      39.795  32.725  30.498  1.00  0.00     0.074 A 
ATOM     61  C   UNL A   1      45.785  30.962  31.725  1.00  0.00     0.029 A 
ATOM     62  N   UNL A   1      43.644  31.003  31.123  1.00  0.00    -0.354 N 
ATOM     63  N   UNL A   1      41.006  32.266  30.709  1.00  0.00    -0.248 NA
ATOM     64  C   UNL A   1      39.596  34.121  30.905  1.00  0.00     0.031 C 
ATOM     65  C   UNL A   1      45.264  32.226  32.021  1.00  0.00     0.029 A 
ATOM     66  C   UNL A   1      43.937  32.260  31.621  1.00  0.00     0.049 A 
ATOM     67  H   UNL A   1      42.767  30.725  30.770  1.00  0.00     0.167 HD
ATOM     68  C   UNL A   1      41.719  33.323  31.263  1.00  0.00     0.074 A 
ATOM     69  C   UNL A   1      40.810  34.451  31.322  1.00  0.00     0.031 C 
ATOM     70  C   UNL A   1      43.008  33.359  31.686  1.00  0.00     0.031 A 
BRANCH  57  71
ATOM     71  C   UNL A   1      46.078  28.031  30.982  1.00  0.00    -0.014 A 
ATOM     72  C   UNL A   1      47.104  28.043  30.017  1.00  0.00     0.010 A 
ATOM     73  C   UNL A   1      46.258  27.282  32.158  1.00  0.00     0.010 A 
ATOM     74  C   UNL A   1      48.262  27.286  30.203  1.00  0.00     0.020 A 
ATOM     75  C   UNL A   1      47.430  26.548  32.363  1.00  0.00     0.020 A 
ATOM     76  C   UNL A   1      48.417  26.540  31.374  1.00  0.00     0.054 A 
BRANCH  76  77
ATOM     77  S   UNL A   1      49.943  25.585  31.600  1.00  0.00     0.124 S 
ATOM     78  O   UNL A   1      50.905  26.631  31.936  1.00  0.00    -0.237 OA
ATOM     79  O   UNL A   1      49.594  24.678  32.690  1.00  0.00    -0.237 OA
ATOM     80  O   UNL A   1      50.147  24.946  30.302  1.00  0.00    -0.744 OA
ENDBRANCH  76  77
ENDBRANCH  57  71
BRANCH  58  81
ATOM     81  C   UNL A   1      37.308  32.718  29.715  1.00  0.00    -0.014 A 
ATOM     82  C   UNL A   1      36.383  32.781  30.773  1.00  0.00     0.010 A 
ATOM     83  C   UNL A   1      36.990  33.343  28.495  1.00  0.00     0.010 A 
ATOM     84  C   UNL A   1      35.161  33.441  30.610  1.00  0.00     0.020 A 
ATOM     85  C   UNL A   1      35.783  34.029  28.338  1.00  0.00     0.020 A 
ATOM     86  C   UNL A   1      34.870  34.064  29.393  1.00  0.00     0.054 A 
BRANCH  86  87
ATOM     87  S   UNL A   1      33.305  34.967  29.224  1.00  0.00     0.124 S 
ATOM     88  O   UNL A   1      32.605  34.176  28.217  1.00  0.00    -0.237 OA
ATOM     89  O   UNL A   1      32.755  34.901  30.576  1.00  0.00    -0.237 OA
ATOM     90  O   UNL A   1      33.725  36.299  28.796  1.00  0.00    -0.744 OA
ENDBRANCH  86  87
ENDBRANCH  58  81
BRANCH  70  91
ATOM     91  C   UNL A   1      43.504  34.666  32.240  1.00  0.00    -0.014 A 
ATOM     92  C   UNL A   1      43.404  34.958  33.613  1.00  0.00     0.010 A 
ATOM     93  C   UNL A   1      44.100  35.605  31.379  1.00  0.00     0.010 A 
ATOM     94  C   UNL A   1      43.844  36.189  34.105  1.00  0.00     0.020 A 
ATOM     95  C   UNL A   1      44.572  36.822  31.873  1.00  0.00     0.020 A 
ATOM     96  C   UNL A   1      44.420  37.115  33.230  1.00  0.00     0.054 A 
BRANCH  96  97
ATOM     97  S   UNL A   1      44.993  38.701  33.895  1.00  0.00     0.124 S 
ATOM     98  O   UNL A   1      46.444  38.548  33.832  1.00  0.00    -0.237 OA
ATOM     99  O   UNL A   1      44.421  39.668  32.961  1.00  0.00    -0.237 OA
ATOM    100  O   UNL A   1      44.427  38.736  35.242  1.00  0.00    -0.744 OA
ENDBRANCH  96  97
ENDBRANCH  70  91
ENDBRANCH  44  45
ENDBRANCH  36  39
ENDBRANCH  34  35
ENDBRANCH   1  34
TORSDOF 18
ENDMDL
MODEL 2
REMARK VINA RESULT:     -12.5      2.745      9.530
REMARK SMILES Cc1nc(-c2ccccc2)sc1C(=O)N[C@@H](CC1=c2ccccc2=NC1)C(=O)NCCCNC(=O)c1ccc(-c2c3nc(c(-c4ccc(S(=O)(=O)[O-])cc4)c4ccc([nH]4)c(-c4ccc(S(=O)(=O)[O-])cc4)c4nc(c(-c5ccc(S(=O)(=O)[O-])cc5)c5ccc2[nH]5)C=C4)C=C3)cc1
REMARK SMILES IDX 31 1 30 2 29 3 27 4 28 5 16 7 15 8 13 9 14 10 12 12 1 13
REMARK SMILES IDX 2 14 3 15 4 16 11 17 5 18 6 19 10 20 7 21 9 22 8 23 17 24
REMARK SMILES IDX 18 25 19 26 26 27 20 28 24 29 25 30 21 31 23 32 22 33 32 34
REMARK SMILES IDX 33 35 34 36 35 38 36 39 37 40 95 41 38 42 94 43 39 44 40 45
REMARK SMILES IDX 41 46 88 47 42 48 93 49 87 50 89 51 43 52 92 53 86 54 85 55
REMARK SMILES IDX 44 57 74 58 55 59 73 60 56 61 59 62 72 63 90 64 57 65 58 66
REMARK SMILES IDX 71 68 91 69 60 70 45 71 46 72 54 73 47 74 53 75 48 76 49 77
REMARK SMILES IDX 50 78 51 79 52 80 75 81 76 82 84 83 77 84 83 85 78 86 79 87
REMARK SMILES IDX 80 88 81 89 82 90 61 91 62 92 70 93 63 94 69 95 64 96 65 97
REMARK SMILES IDX 66 98 67 99 68 100
REMARK H PARENT 29 6 15 11 33 37 89 56 59 67
REMARK Flexibility Score: inf
ROOT
ATOM      1  C   UNL A   1      33.028  28.319  25.938  1.00  0.00     0.042 C 
ENDROOT
BRANCH   1   2
ATOM      2  C   UNL A   1      32.692  26.880  25.650  1.00  0.00     0.117 C 
BRANCH   2   3
ATOM      3  N   UNL A   1      31.558  26.364  26.370  1.00  0.00    -0.354 N 
ATOM      4  C   UNL A   1      30.505  25.664  25.879  1.00  0.00     0.242 C 
ATOM      5  O   UNL A   1      29.819  25.035  26.692  1.00  0.00    -0.273 OA
ATOM      6  H   UNL A   1      31.545  26.539  27.338  1.00  0.00     0.163 HD
BRANCH   4   7
ATOM      7  C   UNL A   1      30.168  25.597  24.374  1.00  0.00     0.175 C 
BRANCH   7   8
ATOM      8  N   UNL A   1      30.192  24.268  23.795  1.00  0.00    -0.339 N 
ATOM      9  C   UNL A   1      31.196  23.478  23.301  1.00  0.00     0.263 C 
ATOM     10  O   UNL A   1      30.755  22.437  22.795  1.00  0.00    -0.268 OA
ATOM     11  H   UNL A   1      29.303  23.847  23.748  1.00  0.00     0.164 HD
BRANCH   9  12
ATOM     12  C   UNL A   1      32.630  23.773  23.353  1.00  0.00     0.115 A 
ATOM     13  C   UNL A   1      33.431  25.915  21.994  1.00  0.00     0.068 C 
ATOM     14  C   UNL A   1      33.537  24.727  22.878  1.00  0.00     0.062 A 
ATOM     15  N   UNL A   1      34.840  24.561  23.312  1.00  0.00    -0.241 NA
ATOM     16  C   UNL A   1      34.980  23.478  24.026  1.00  0.00     0.124 A 
ATOM     17  S   UNL A   1      33.564  22.586  24.268  1.00  0.00    -0.108 S 
BRANCH  16  18
ATOM     18  C   UNL A   1      36.272  23.095  24.575  1.00  0.00     0.010 A 
ATOM     19  C   UNL A   1      36.742  21.797  24.327  1.00  0.00     0.011 A 
ATOM     20  C   UNL A   1      36.945  23.909  25.492  1.00  0.00     0.011 A 
ATOM     21  C   UNL A   1      37.855  21.308  25.004  1.00  0.00     0.001 A 
ATOM     22  C   UNL A   1      38.056  23.413  26.176  1.00  0.00     0.001 A 
ATOM     23  C   UNL A   1      38.503  22.113  25.939  1.00  0.00     0.000 A 
ENDBRANCH  16  18
ENDBRANCH   9  12
ENDBRANCH   7   8
BRANCH   7  24
ATOM     24  C   UNL A   1      28.991  26.472  23.863  1.00  0.00     0.068 C 
BRANCH  24  25
ATOM     25  C   UNL A   1      29.293  27.716  23.083  1.00  0.00    -0.037 C 
ATOM     26  C   UNL A   1      28.605  28.857  23.001  1.00  0.00     0.001 A 
ATOM     27  C   UNL A   1      30.584  27.833  22.323  1.00  0.00     0.174 C 
ATOM     28  C   UNL A   1      27.359  29.332  23.511  1.00  0.00     0.010 A 
ATOM     29  C   UNL A   1      29.598  29.779  22.414  1.00  0.00     0.065 A 
ATOM     30  N   UNL A   1      30.712  29.269  21.988  1.00  0.00    -0.280 NA
ATOM     31  C   UNL A   1      27.138  30.657  23.547  1.00  0.00     0.001 A 
ATOM     32  C   UNL A   1      29.280  31.222  22.488  1.00  0.00     0.028 A 
ATOM     33  C   UNL A   1      28.127  31.604  23.063  1.00  0.00     0.002 A 
ENDBRANCH  24  25
ENDBRANCH   7  24
ENDBRANCH   4   7
ENDBRANCH   2   3
ENDBRANCH   1   2
BRANCH   1  34
ATOM     34  C   UNL A   1      33.486  28.553  27.361  1.00  0.00     0.118 C 
BRANCH  34  35
ATOM     35  N   UNL A   1      33.535  29.963  27.734  1.00  0.00    -0.352 N 
ATOM     36  C   UNL A   1      34.557  30.720  28.269  1.00  0.00     0.251 C 
ATOM     37  H   UNL A   1      32.699  30.458  27.578  1.00  0.00     0.163 HD
ATOM     38  O   UNL A   1      34.345  31.863  28.633  1.00  0.00    -0.269 OA
BRANCH  36  39
ATOM     39  C   UNL A   1      35.898  30.118  28.431  1.00  0.00     0.039 A 
ATOM     40  C   UNL A   1      36.787  30.135  27.356  1.00  0.00     0.014 A 
ATOM     41  C   UNL A   1      36.291  29.585  29.656  1.00  0.00     0.014 A 
ATOM     42  C   UNL A   1      38.100  29.703  27.549  1.00  0.00     0.010 A 
ATOM     43  C   UNL A   1      37.630  29.314  29.889  1.00  0.00     0.010 A 
ATOM     44  C   UNL A   1      38.547  29.344  28.833  1.00  0.00    -0.014 A 
BRANCH  44  45
ATOM     45  C   UNL A   1      39.961  28.980  29.088  1.00  0.00     0.031 A 
ATOM     46  C   UNL A   1      40.893  29.978  29.727  1.00  0.00     0.074 A 
ATOM     47  C   UNL A   1      40.418  27.775  28.691  1.00  0.00     0.049 A 
ATOM     48  N   UNL A   1      42.161  29.849  30.019  1.00  0.00    -0.248 NA
ATOM     49  C   UNL A   1      40.343  31.309  30.043  1.00  0.00     0.031 C 
ATOM     50  C   UNL A   1      39.631  26.758  27.984  1.00  0.00     0.029 A 
ATOM     51  N   UNL A   1      41.652  27.196  28.832  1.00  0.00    -0.354 N 
ATOM     52  C   UNL A   1      42.558  31.081  30.526  1.00  0.00     0.074 A 
ATOM     53  C   UNL A   1      41.423  31.967  30.431  1.00  0.00     0.031 C 
ATOM     54  C   UNL A   1      40.385  25.661  27.811  1.00  0.00     0.029 A 
ATOM     55  C   UNL A   1      41.715  25.908  28.354  1.00  0.00     0.049 A 
ATOM     56  H   UNL A   1      42.422  27.659  29.237  1.00  0.00     0.167 HD
ATOM     57  C   UNL A   1      43.750  31.436  31.061  1.00  0.00     0.031 A 
ATOM     58  C   UNL A   1      42.728  25.021  28.364  1.00  0.00     0.031 A 
ATOM     59  C   UNL A   1      44.865  30.538  31.182  1.00  0.00     0.049 A 
ATOM     60  C   UNL A   1      44.032  25.424  28.996  1.00  0.00     0.074 A 
ATOM     61  C   UNL A   1      46.095  30.765  31.771  1.00  0.00     0.029 A 
ATOM     62  N   UNL A   1      44.883  29.235  30.705  1.00  0.00    -0.354 N 
ATOM     63  N   UNL A   1      44.360  26.567  29.549  1.00  0.00    -0.248 NA
ATOM     64  C   UNL A   1      45.093  24.411  29.020  1.00  0.00     0.031 C 
ATOM     65  C   UNL A   1      46.875  29.616  31.607  1.00  0.00     0.029 A 
ATOM     66  C   UNL A   1      46.111  28.653  30.966  1.00  0.00     0.049 A 
ATOM     67  H   UNL A   1      44.133  28.791  30.248  1.00  0.00     0.167 HD
ATOM     68  C   UNL A   1      45.665  26.407  30.002  1.00  0.00     0.074 A 
ATOM     69  C   UNL A   1      46.050  25.046  29.684  1.00  0.00     0.031 C 
ATOM     70  C   UNL A   1      46.474  27.303  30.621  1.00  0.00     0.031 A 
BRANCH  57  71
ATOM     71  C   UNL A   1      43.895  32.850  31.560  1.00  0.00    -0.014 A 
ATOM     72  C   UNL A   1      43.683  33.170  32.915  1.00  0.00     0.010 A 
ATOM     73  C   UNL A   1      44.264  33.874  30.669  1.00  0.00     0.010 A 
ATOM     74  C   UNL A   1      43.791  34.489  33.358  1.00  0.00     0.020 A 
ATOM     75  C   UNL A   1      44.403  35.191  31.115  1.00  0.00     0.020 A 
ATOM     76  C   UNL A   1      44.148  35.493  32.455  1.00  0.00     0.054 A 
BRANCH  76  77
ATOM     77  S   UNL A   1      44.302  37.195  33.064  1.00  0.00     0.124 S 
ATOM     78  O   UNL A   1      44.405  37.951  31.818  1.00  0.00    -0.237 OA
ATOM     79  O   UNL A   1      43.062  37.381  33.811  1.00  0.00    -0.237 OA
ATOM     80  O   UNL A   1      45.517  37.165  33.875  1.00  0.00    -0.744 OA
ENDBRANCH  76  77
ENDBRANCH  57  71
BRANCH  58  81
ATOM     81  C   UNL A   1      42.532  23.660  27.795  1.00  0.00    -0.014 A 
ATOM     82  C   UNL A   1      42.829  23.400  26.445  1.00  0.00     0.010 A 
ATOM     83  C   UNL A   1      42.071  22.607  28.606  1.00  0.00     0.010 A 
ATOM     84  C   UNL A   1      42.653  22.119  25.914  1.00  0.00     0.020 A 
ATOM     85  C   UNL A   1      41.922  21.319  28.086  1.00  0.00     0.020 A 
ATOM     86  C   UNL A   1      42.203  21.085  26.739  1.00  0.00     0.054 A 
BRANCH  86  87
ATOM     87  S   UNL A   1      42.041  19.417  26.043  1.00  0.00     0.124 S 
ATOM     88  O   UNL A   1      40.602  19.322  25.813  1.00  0.00    -0.237 OA
ATOM     89  O   UNL A   1      42.870  19.494  24.843  1.00  0.00    -0.237 OA
ATOM     90  O   UNL A   1      42.566  18.555  27.098  1.00  0.00    -0.744 OA
ENDBRANCH  86  87
ENDBRANCH  58  81
BRANCH  70  91
ATOM     91  C   UNL A   1      47.849  26.826  31.001  1.00  0.00    -0.014 A 
ATOM     92  C   UNL A   1      48.075  26.153  32.215  1.00  0.00     0.010 A 
ATOM     93  C   UNL A   1      48.925  27.032  30.119  1.00  0.00     0.010 A 
ATOM     94  C   UNL A   1      49.363  25.743  32.565  1.00  0.00     0.020 A 
ATOM     95  C   UNL A   1      50.208  26.594  30.449  1.00  0.00     0.020 A 
ATOM     96  C   UNL A   1      50.422  25.972  31.681  1.00  0.00     0.054 A 
BRANCH  96  97
ATOM     97  S   UNL A   1      52.084  25.421  32.152  1.00  0.00     0.124 S 
ATOM     98  O   UNL A   1      52.332  26.206  33.358  1.00  0.00    -0.237 OA
ATOM     99  O   UNL A   1      51.900  23.986  32.363  1.00  0.00    -0.237 OA
ATOM    100  O   UNL A   1      52.907  25.774  30.997  1.00  0.00    -0.744 OA
ENDBRANCH  96  97
ENDBRANCH  70  91
ENDBRANCH  44  45
ENDBRANCH  36  39
ENDBRANCH  34  35
ENDBRANCH   1  34
TORSDOF 18
ENDMDL
MODEL 3
REMARK VINA RESULT:     -12.3      1.277      4.988
REMARK SMILES Cc1nc(-c2ccccc2)sc1C(=O)N[C@@H](CC1=c2ccccc2=NC1)C(=O)NCCCNC(=O)c1ccc(-c2c3nc(c(-c4ccc(S(=O)(=O)[O-])cc4)c4ccc([nH]4)c(-c4ccc(S(=O)(=O)[O-])cc4)c4nc(c(-c5ccc(S(=O)(=O)[O-])cc5)c5ccc2[nH]5)C=C4)C=C3)cc1
REMARK SMILES IDX 31 1 30 2 29 3 27 4 28 5 16 7 15 8 13 9 14 10 12 12 1 13
REMARK SMILES IDX 2 14 3 15 4 16 11 17 5 18 6 19 10 20 7 21 9 22 8 23 17 24
REMARK SMILES IDX 18 25 19 26 26 27 20 28 24 29 25 30 21 31 23 32 22 33 32 34
REMARK SMILES IDX 33 35 34 36 35 38 36 39 37 40 95 41 38 42 94 43 39 44 40 45
REMARK SMILES IDX 41 46 88 47 42 48 93 49 87 50 89 51 43 52 92 53 86 54 85 55
REMARK SMILES IDX 44 57 74 58 55 59 73 60 56 61 59 62 72 63 90 64 57 65 58 66
REMARK SMILES IDX 71 68 91 69 60 70 45 71 46 72 54 73 47 74 53 75 48 76 49 77
REMARK SMILES IDX 50 78 51 79 52 80 75 81 76 82 84 83 77 84 83 85 78 86 79 87
REMARK SMILES IDX 80 88 81 89 82 90 61 91 62 92 70 93 63 94 69 95 64 96 65 97
REMARK SMILES IDX 66 98 67 99 68 100
REMARK H PARENT 29 6 15 11 33 37 89 56 59 67
REMARK Flexibility Score: inf
ROOT
ATOM      1  C   UNL A   1      36.555  23.079  23.848  1.00  0.00     0.042 C 
ENDROOT
BRANCH   1   2
ATOM      2  C   UNL A   1      35.143  23.592  23.747  1.00  0.00     0.117 C 
BRANCH   2   3
ATOM      3  N   UNL A   1      34.645  24.242  24.930  1.00  0.00    -0.354 N 
ATOM      4  C   UNL A   1      33.621  25.126  25.030  1.00  0.00     0.242 C 
ATOM      5  O   UNL A   1      33.143  25.309  26.155  1.00  0.00    -0.273 OA
ATOM      6  H   UNL A   1      35.104  24.017  25.771  1.00  0.00     0.163 HD
BRANCH   4   7
ATOM      7  C   UNL A   1      33.023  25.860  23.811  1.00  0.00     0.175 C 
BRANCH   7   8
ATOM      8  N   UNL A   1      31.642  25.537  23.512  1.00  0.00    -0.339 N 
ATOM      9  C   UNL A   1      30.915  24.378  23.576  1.00  0.00     0.263 C 
ATOM     10  O   UNL A   1      29.773  24.526  23.120  1.00  0.00    -0.268 OA
ATOM     11  H   UNL A   1      31.119  26.311  23.200  1.00  0.00     0.164 HD
BRANCH   9  12
ATOM     12  C   UNL A   1      31.377  23.100  24.123  1.00  0.00     0.115 A 
ATOM     13  C   UNL A   1      30.927  22.707  26.715  1.00  0.00     0.068 C 
ATOM     14  C   UNL A   1      31.379  22.399  25.334  1.00  0.00     0.062 A 
ATOM     15  N   UNL A   1      31.913  21.125  25.271  1.00  0.00    -0.241 NA
ATOM     16  C   UNL A   1      32.393  20.857  24.088  1.00  0.00     0.124 A 
ATOM     17  S   UNL A   1      32.215  22.088  22.942  1.00  0.00    -0.108 S 
BRANCH  16  18
ATOM     18  C   UNL A   1      33.017  19.575  23.797  1.00  0.00     0.010 A 
ATOM     19  C   UNL A   1      32.411  18.741  22.845  1.00  0.00     0.011 A 
ATOM     20  C   UNL A   1      34.069  19.083  24.577  1.00  0.00     0.011 A 
ATOM     21  C   UNL A   1      32.834  17.425  22.690  1.00  0.00     0.001 A 
ATOM     22  C   UNL A   1      34.486  17.759  24.424  1.00  0.00     0.001 A 
ATOM     23  C   UNL A   1      33.863  16.931  23.489  1.00  0.00     0.000 A 
ENDBRANCH  16  18
ENDBRANCH   9  12
ENDBRANCH   7   8
BRANCH   7  24
ATOM     24  C   UNL A   1      33.353  27.370  23.651  1.00  0.00     0.068 C 
BRANCH  24  25
ATOM     25  C   UNL A   1      32.771  28.350  24.624  1.00  0.00    -0.037 C 
ATOM     26  C   UNL A   1      33.275  28.812  25.771  1.00  0.00     0.001 A 
ATOM     27  C   UNL A   1      31.475  29.043  24.310  1.00  0.00     0.174 C 
ATOM     28  C   UNL A   1      34.446  28.553  26.544  1.00  0.00     0.010 A 
ATOM     29  C   UNL A   1      32.425  29.992  26.031  1.00  0.00     0.065 A 
ATOM     30  N   UNL A   1      31.387  30.164  25.272  1.00  0.00    -0.280 NA
ATOM     31  C   UNL A   1      34.831  29.460  27.458  1.00  0.00     0.001 A 
ATOM     32  C   UNL A   1      32.915  30.942  27.054  1.00  0.00     0.028 A 
ATOM     33  C   UNL A   1      34.074  30.679  27.682  1.00  0.00     0.002 A 
ENDBRANCH  24  25
ENDBRANCH   7  24
ENDBRANCH   4   7
ENDBRANCH   2   3
ENDBRANCH   1   2
BRANCH   1  34
ATOM     34  C   UNL A   1      37.308  23.631  25.038  1.00  0.00     0.118 C 
BRANCH  34  35
ATOM     35  N   UNL A   1      38.327  22.723  25.556  1.00  0.00    -0.352 N 
ATOM     36  C   UNL A   1      39.402  22.954  26.389  1.00  0.00     0.251 C 
ATOM     37  H   UNL A   1      38.233  21.789  25.260  1.00  0.00     0.163 HD
ATOM     38  O   UNL A   1      40.216  22.072  26.596  1.00  0.00    -0.269 OA
BRANCH  36  39
ATOM     39  C   UNL A   1      39.574  24.291  26.997  1.00  0.00     0.039 A 
ATOM     40  C   UNL A   1      39.042  24.538  28.263  1.00  0.00     0.014 A 
ATOM     41  C   UNL A   1      40.303  25.279  26.340  1.00  0.00     0.014 A 
ATOM     42  C   UNL A   1      39.329  25.746  28.901  1.00  0.00     0.010 A 
ATOM     43  C   UNL A   1      40.722  26.401  27.036  1.00  0.00     0.010 A 
ATOM     44  C   UNL A   1      40.220  26.662  28.316  1.00  0.00    -0.014 A 
BRANCH  44  45
ATOM     45  C   UNL A   1      40.624  27.905  29.015  1.00  0.00     0.031 A 
ATOM     46  C   UNL A   1      42.002  28.019  29.616  1.00  0.00     0.074 A 
ATOM     47  C   UNL A   1      39.731  28.906  29.159  1.00  0.00     0.049 A 
ATOM     48  N   UNL A   1      42.533  29.017  30.272  1.00  0.00    -0.248 NA
ATOM     49  C   UNL A   1      42.887  26.845  29.502  1.00  0.00     0.031 C 
ATOM     50  C   UNL A   1      38.339  28.877  28.695  1.00  0.00     0.029 A 
ATOM     51  N   UNL A   1      39.861  30.145  29.729  1.00  0.00    -0.354 N 
ATOM     52  C   UNL A   1      43.793  28.581  30.665  1.00  0.00     0.074 A 
ATOM     53  C   UNL A   1      43.920  27.206  30.244  1.00  0.00     0.031 C 
ATOM     54  C   UNL A   1      37.768  30.065  28.944  1.00  0.00     0.029 A 
ATOM     55  C   UNL A   1      38.734  30.924  29.619  1.00  0.00     0.049 A 
ATOM     56  H   UNL A   1      40.685  30.450  30.175  1.00  0.00     0.167 HD
ATOM     57  C   UNL A   1      44.776  29.274  31.288  1.00  0.00     0.031 A 
ATOM     58  C   UNL A   1      38.507  32.193  30.009  1.00  0.00     0.031 A 
ATOM     59  C   UNL A   1      44.654  30.652  31.675  1.00  0.00     0.049 A 
ATOM     60  C   UNL A   1      39.624  32.956  30.664  1.00  0.00     0.074 A 
ATOM     61  C   UNL A   1      45.608  31.475  32.244  1.00  0.00     0.029 A 
ATOM     62  N   UNL A   1      43.503  31.413  31.528  1.00  0.00    -0.354 N 
ATOM     63  N   UNL A   1      40.840  32.553  30.949  1.00  0.00    -0.248 NA
ATOM     64  C   UNL A   1      39.344  34.348  31.034  1.00  0.00     0.031 C 
ATOM     65  C   UNL A   1      45.019  32.720  32.487  1.00  0.00     0.029 A 
ATOM     66  C   UNL A   1      43.715  32.689  32.017  1.00  0.00     0.049 A 
ATOM     67  H   UNL A   1      42.660  31.091  31.134  1.00  0.00     0.167 HD
ATOM     68  C   UNL A   1      41.477  33.649  31.520  1.00  0.00     0.074 A 
ATOM     69  C   UNL A   1      40.519  34.737  31.509  1.00  0.00     0.031 C 
ATOM     70  C   UNL A   1      42.738  33.748  32.011  1.00  0.00     0.031 A 
BRANCH  57  71
ATOM     71  C   UNL A   1      46.065  28.548  31.573  1.00  0.00    -0.014 A 
ATOM     72  C   UNL A   1      47.108  28.513  30.626  1.00  0.00     0.010 A 
ATOM     73  C   UNL A   1      46.248  27.903  32.810  1.00  0.00     0.010 A 
ATOM     74  C   UNL A   1      48.284  27.811  30.891  1.00  0.00     0.020 A 
ATOM     75  C   UNL A   1      47.438  27.225  33.091  1.00  0.00     0.020 A 
ATOM     76  C   UNL A   1      48.442  27.168  32.122  1.00  0.00     0.054 A 
BRANCH  76  77
ATOM     77  S   UNL A   1      49.991  26.282  32.447  1.00  0.00     0.124 S 
ATOM     78  O   UNL A   1      49.614  24.902  32.154  1.00  0.00    -0.237 OA
ATOM     79  O   UNL A   1      50.916  26.897  31.499  1.00  0.00    -0.237 OA
ATOM     80  O   UNL A   1      50.264  26.566  33.854  1.00  0.00    -0.744 OA
ENDBRANCH  76  77
ENDBRANCH  57  71
BRANCH  58  81
ATOM     81  C   UNL A   1      37.186  32.827  29.750  1.00  0.00    -0.014 A 
ATOM     82  C   UNL A   1      36.221  32.912  30.770  1.00  0.00     0.010 A 
ATOM     83  C   UNL A   1      36.891  33.373  28.487  1.00  0.00     0.010 A 
ATOM     84  C   UNL A   1      34.984  33.516  30.529  1.00  0.00     0.020 A 
ATOM     85  C   UNL A   1      35.666  34.004  28.251  1.00  0.00     0.020 A 
ATOM     86  C   UNL A   1      34.715  34.061  29.271  1.00  0.00     0.054 A 
BRANCH  86  87
ATOM     87  S   UNL A   1      33.126  34.893  28.998  1.00  0.00     0.124 S 
ATOM     88  O   UNL A   1      32.562  34.921  30.345  1.00  0.00    -0.237 OA
ATOM     89  O   UNL A   1      33.535  36.186  28.456  1.00  0.00    -0.237 OA
ATOM     90  O   UNL A   1      32.441  34.018  28.049  1.00  0.00    -0.744 OA
ENDBRANCH  86  87
ENDBRANCH  58  81
BRANCH  70  91
ATOM     91  C   UNL A   1      43.147  35.085  32.566  1.00  0.00    -0.014 A 
ATOM     92  C   UNL A   1      42.924  35.409  33.916  1.00  0.00     0.010 A 
ATOM     93  C   UNL A   1      43.786  36.018  31.731  1.00  0.00     0.010 A 
ATOM     94  C   UNL A   1      43.285  36.666  34.408  1.00  0.00     0.020 A 
ATOM     95  C   UNL A   1      44.179  37.263  32.226  1.00  0.00     0.020 A 
ATOM     96  C   UNL A   1      43.905  37.586  33.557  1.00  0.00     0.054 A 
BRANCH  96  97
ATOM     97  S   UNL A   1      44.373  39.207  34.220  1.00  0.00     0.124 S 
ATOM     98  O   UNL A   1      43.272  40.051  33.762  1.00  0.00    -0.237 OA
ATOM     99  O   UNL A   1      44.422  38.964  35.660  1.00  0.00    -0.237 OA
ATOM    100  O   UNL A   1      45.667  39.476  33.596  1.00  0.00    -0.744 OA
ENDBRANCH  96  97
ENDBRANCH  70  91
ENDBRANCH  44  45
ENDBRANCH  36  39
ENDBRANCH  34  35
ENDBRANCH   1  34
TORSDOF 18
ENDMDL
