MODEL 1
REMARK VINA RESULT:     -10.5      0.000      0.000
REMARK SMILES CC(C)(C)c1cc2c(cc1Cl)C=C(C(=O)NCCCNC(=O)c1ccc(-c3c4nc(c(-c5ccc(S(=O)(=O)[O-])cc5)c5ccc([nH]5)c(-c5ccc(S(=O)(=O)[O-])cc5)c5nc(c(-c6ccc(S(=O)(=O)[O-])cc6)c6ccc3[nH]6)C=C5)C=C4)cc1)[C@@H](C(F)(F)F)O2
REMARK SMILES IDX 19 1 18 2 17 3 16 4 14 5 15 6 13 8 5 9 6 10 10 11 7 12 9 13
REMARK SMILES IDX 11 14 8 15 88 16 12 17 83 18 2 19 1 20 3 21 4 22 84 23 85 24
REMARK SMILES IDX 86 25 87 26 20 27 21 28 22 30 23 31 24 32 82 33 25 34 81 35
REMARK SMILES IDX 26 36 27 37 28 38 75 39 29 40 80 41 74 42 76 43 30 44 79 45
REMARK SMILES IDX 73 46 72 47 31 49 61 50 42 51 60 52 43 53 46 54 59 55 77 56
REMARK SMILES IDX 44 57 45 58 58 60 78 61 47 62 32 63 33 64 41 65 34 66 40 67
REMARK SMILES IDX 35 68 36 69 37 70 38 71 39 72 62 73 63 74 71 75 64 76 70 77
REMARK SMILES IDX 65 78 66 79 67 80 68 81 69 82 48 83 49 84 57 85 50 86 56 87
REMARK SMILES IDX 51 88 52 89 53 90 54 91 55 92
REMARK H PARENT 16 7 20 29 76 48 46 59
REMARK Flexibility Score: inf
ROOT
ATOM      1  C   UNL A   1      34.806  32.972  29.209  1.00  0.00     0.118 C 
ENDROOT
BRANCH   1   2
ATOM      2  C   UNL A   1      34.735  32.864  30.728  1.00  0.00     0.042 C 
BRANCH   2   3
ATOM      3  C   UNL A   1      35.267  34.108  31.425  1.00  0.00     0.118 C 
BRANCH   3   4
ATOM      4  N   UNL A   1      36.702  34.267  31.237  1.00  0.00    -0.352 N 
ATOM      5  C   UNL A   1      37.818  34.197  31.998  1.00  0.00     0.251 C 
ATOM      6  O   UNL A   1      38.876  34.410  31.397  1.00  0.00    -0.270 OA
ATOM      7  H   UNL A   1      36.919  34.484  30.302  1.00  0.00     0.163 HD
BRANCH   5   8
ATOM      8  C   UNL A   1      37.849  33.886  33.456  1.00  0.00     0.067 C 
ATOM      9  C   UNL A   1      38.742  33.948  38.468  1.00  0.00    -0.020 A 
ATOM     10  C   UNL A   1      37.815  33.319  37.598  1.00  0.00     0.053 A 
ATOM     11  C   UNL A   1      39.614  34.880  37.862  1.00  0.00     0.045 A 
ATOM     12  C   UNL A   1      37.795  33.551  36.224  1.00  0.00     0.128 A 
ATOM     13  C   UNL A   1      39.571  35.126  36.472  1.00  0.00     0.032 A 
ATOM     14  Cl  UNL A   1      40.784  35.841  38.695  1.00  0.00    -0.084 Cl
ATOM     15  C   UNL A   1      38.667  34.459  35.649  1.00  0.00     0.019 A 
ATOM     16  O   UNL A   1      36.855  32.874  35.501  1.00  0.00    -0.475 OA
ATOM     17  C   UNL A   1      38.580  34.721  34.218  1.00  0.00     0.025 C 
ATOM     18  C   UNL A   1      37.156  32.710  34.087  1.00  0.00     0.314 C 
BRANCH   9  19
ATOM     19  C   UNL A   1      38.642  33.575  39.969  1.00  0.00    -0.012 C 
ATOM     20  C   UNL A   1      39.905  33.006  40.647  1.00  0.00     0.016 C 
ATOM     21  C   UNL A   1      37.551  32.487  40.184  1.00  0.00     0.016 C 
ATOM     22  C   UNL A   1      38.237  34.844  40.752  1.00  0.00     0.016 C 
ENDBRANCH   9  19
BRANCH  18  23
ATOM     23  C   UNL A   1      37.929  31.393  33.878  1.00  0.00     0.429 C 
ATOM     24  F   UNL A   1      39.260  31.632  33.782  1.00  0.00    -0.167 F 
ATOM     25  F   UNL A   1      37.769  30.526  34.908  1.00  0.00    -0.167 F 
ATOM     26  F   UNL A   1      37.554  30.735  32.758  1.00  0.00    -0.167 F 
ENDBRANCH  18  23
ENDBRANCH   5   8
ENDBRANCH   3   4
ENDBRANCH   2   3
ENDBRANCH   1   2
BRANCH   1  27
ATOM     27  N   UNL A   1      34.003  31.946  28.547  1.00  0.00    -0.352 N 
ATOM     28  C   UNL A   1      34.372  30.740  27.998  1.00  0.00     0.251 C 
ATOM     29  H   UNL A   1      33.042  32.151  28.484  1.00  0.00     0.163 HD
ATOM     30  O   UNL A   1      33.582  30.135  27.279  1.00  0.00    -0.269 OA
BRANCH  28  31
ATOM     31  C   UNL A   1      35.717  30.186  28.258  1.00  0.00     0.039 A 
ATOM     32  C   UNL A   1      36.002  29.575  29.478  1.00  0.00     0.014 A 
ATOM     33  C   UNL A   1      36.704  30.272  27.272  1.00  0.00     0.014 A 
ATOM     34  C   UNL A   1      37.311  29.233  29.787  1.00  0.00     0.010 A 
ATOM     35  C   UNL A   1      38.000  29.824  27.546  1.00  0.00     0.010 A 
ATOM     36  C   UNL A   1      38.326  29.347  28.825  1.00  0.00    -0.014 A 
BRANCH  36  37
ATOM     37  C   UNL A   1      39.711  28.951  29.190  1.00  0.00     0.031 A 
ATOM     38  C   UNL A   1      40.545  29.816  30.098  1.00  0.00     0.074 A 
ATOM     39  C   UNL A   1      40.182  27.761  28.768  1.00  0.00     0.049 A 
ATOM     40  N   UNL A   1      41.751  29.597  30.554  1.00  0.00    -0.248 NA
ATOM     41  C   UNL A   1      39.958  31.087  30.554  1.00  0.00     0.031 C 
ATOM     42  C   UNL A   1      39.450  26.828  27.907  1.00  0.00     0.029 A 
ATOM     43  N   UNL A   1      41.356  27.106  29.040  1.00  0.00    -0.354 N 
ATOM     44  C   UNL A   1      42.075  30.704  31.330  1.00  0.00     0.074 A 
ATOM     45  C   UNL A   1      40.949  31.609  31.264  1.00  0.00     0.031 C 
ATOM     46  C   UNL A   1      40.149  25.691  27.795  1.00  0.00     0.029 A 
ATOM     47  C   UNL A   1      41.417  25.842  28.502  1.00  0.00     0.049 A 
ATOM     48  H   UNL A   1      42.085  27.503  29.569  1.00  0.00     0.167 HD
ATOM     49  C   UNL A   1      43.203  30.937  32.040  1.00  0.00     0.031 A 
ATOM     50  C   UNL A   1      42.383  24.904  28.560  1.00  0.00     0.031 A 
ATOM     51  C   UNL A   1      44.309  30.019  32.116  1.00  0.00     0.049 A 
ATOM     52  C   UNL A   1      43.640  25.202  29.321  1.00  0.00     0.074 A 
ATOM     53  C   UNL A   1      45.496  30.167  32.812  1.00  0.00     0.029 A 
ATOM     54  N   UNL A   1      44.365  28.784  31.488  1.00  0.00    -0.354 N 
ATOM     55  N   UNL A   1      43.935  26.267  30.027  1.00  0.00    -0.248 NA
ATOM     56  C   UNL A   1      44.701  24.187  29.285  1.00  0.00     0.031 C 
ATOM     57  C   UNL A   1      46.290  29.046  32.562  1.00  0.00     0.029 A 
ATOM     58  C   UNL A   1      45.574  28.170  31.762  1.00  0.00     0.049 A 
ATOM     59  H   UNL A   1      43.650  28.401  30.929  1.00  0.00     0.167 HD
ATOM     60  C   UNL A   1      45.215  26.052  30.520  1.00  0.00     0.074 A 
ATOM     61  C   UNL A   1      45.629  24.745  30.053  1.00  0.00     0.031 C 
ATOM     62  C   UNL A   1      45.978  26.871  31.282  1.00  0.00     0.031 A 
BRANCH  49  63
ATOM     63  C   UNL A   1      43.318  32.234  32.797  1.00  0.00    -0.014 A 
ATOM     64  C   UNL A   1      42.735  32.350  34.073  1.00  0.00     0.010 A 
ATOM     65  C   UNL A   1      43.898  33.371  32.204  1.00  0.00     0.010 A 
ATOM     66  C   UNL A   1      42.705  33.581  34.732  1.00  0.00     0.020 A 
ATOM     67  C   UNL A   1      43.891  34.600  32.872  1.00  0.00     0.020 A 
ATOM     68  C   UNL A   1      43.275  34.702  34.122  1.00  0.00     0.054 A 
BRANCH  68  69
ATOM     69  S   UNL A   1      43.213  36.299  34.983  1.00  0.00     0.124 S 
ATOM     70  O   UNL A   1      43.388  35.904  36.377  1.00  0.00    -0.237 OA
ATOM     71  O   UNL A   1      44.331  37.027  34.387  1.00  0.00    -0.237 OA
ATOM     72  O   UNL A   1      41.891  36.818  34.640  1.00  0.00    -0.744 OA
ENDBRANCH  68  69
ENDBRANCH  49  63
BRANCH  50  73
ATOM     73  C   UNL A   1      42.166  23.600  27.873  1.00  0.00    -0.014 A 
ATOM     74  C   UNL A   1      41.631  22.507  28.580  1.00  0.00     0.010 A 
ATOM     75  C   UNL A   1      42.595  23.414  26.548  1.00  0.00     0.010 A 
ATOM     76  C   UNL A   1      41.593  21.237  28.000  1.00  0.00     0.020 A 
ATOM     77  C   UNL A   1      42.529  22.149  25.954  1.00  0.00     0.020 A 
ATOM     78  C   UNL A   1      42.060  21.063  26.697  1.00  0.00     0.054 A 
BRANCH  78  79
ATOM     79  S   UNL A   1      42.065  19.394  25.985  1.00  0.00     0.124 S 
ATOM     80  O   UNL A   1      40.654  19.205  25.660  1.00  0.00    -0.237 OA
ATOM     81  O   UNL A   1      42.961  19.536  24.840  1.00  0.00    -0.237 OA
ATOM     82  O   UNL A   1      42.575  18.562  27.071  1.00  0.00    -0.744 OA
ENDBRANCH  78  79
ENDBRANCH  50  73
BRANCH  62  83
ATOM     83  C   UNL A   1      47.354  26.401  31.664  1.00  0.00    -0.014 A 
ATOM     84  C   UNL A   1      48.428  26.587  30.774  1.00  0.00     0.010 A 
ATOM     85  C   UNL A   1      47.555  25.654  32.838  1.00  0.00     0.010 A 
ATOM     86  C   UNL A   1      49.670  26.004  31.032  1.00  0.00     0.020 A 
ATOM     87  C   UNL A   1      48.803  25.091  33.113  1.00  0.00     0.020 A 
ATOM     88  C   UNL A   1      49.845  25.247  32.194  1.00  0.00     0.054 A 
BRANCH  88  89
ATOM     89  S   UNL A   1      51.452  24.462  32.494  1.00  0.00     0.124 S 
ATOM     90  O   UNL A   1      52.323  25.181  31.569  1.00  0.00    -0.237 OA
ATOM     91  O   UNL A   1      51.682  24.730  33.913  1.00  0.00    -0.237 OA
ATOM     92  O   UNL A   1      51.213  23.059  32.166  1.00  0.00    -0.744 OA
ENDBRANCH  88  89
ENDBRANCH  62  83
ENDBRANCH  36  37
ENDBRANCH  28  31
ENDBRANCH   1  27
TORSDOF 15
ENDMDL
MODEL 2
REMARK VINA RESULT:     -10.4      5.368      9.309
REMARK SMILES CC(C)(C)c1cc2c(cc1Cl)C=C(C(=O)NCCCNC(=O)c1ccc(-c3c4nc(c(-c5ccc(S(=O)(=O)[O-])cc5)c5ccc([nH]5)c(-c5ccc(S(=O)(=O)[O-])cc5)c5nc(c(-c6ccc(S(=O)(=O)[O-])cc6)c6ccc3[nH]6)C=C5)C=C4)cc1)[C@@H](C(F)(F)F)O2
REMARK SMILES IDX 19 1 18 2 17 3 16 4 14 5 15 6 13 8 5 9 6 10 10 11 7 12 9 13
REMARK SMILES IDX 11 14 8 15 88 16 12 17 83 18 2 19 1 20 3 21 4 22 84 23 85 24
REMARK SMILES IDX 86 25 87 26 20 27 21 28 22 30 23 31 24 32 82 33 25 34 81 35
REMARK SMILES IDX 26 36 27 37 28 38 75 39 29 40 80 41 74 42 76 43 30 44 79 45
REMARK SMILES IDX 73 46 72 47 31 49 61 50 42 51 60 52 43 53 46 54 59 55 77 56
REMARK SMILES IDX 44 57 45 58 58 60 78 61 47 62 32 63 33 64 41 65 34 66 40 67
REMARK SMILES IDX 35 68 36 69 37 70 38 71 39 72 62 73 63 74 71 75 64 76 70 77
REMARK SMILES IDX 65 78 66 79 67 80 68 81 69 82 48 83 49 84 57 85 50 86 56 87
REMARK SMILES IDX 51 88 52 89 53 90 54 91 55 92
REMARK H PARENT 16 7 20 29 76 48 46 59
REMARK Flexibility Score: inf
ROOT
ATOM      1  C   UNL A   1      33.522  28.576  27.068  1.00  0.00     0.118 C 
ENDROOT
BRANCH   1   2
ATOM      2  C   UNL A   1      32.799  28.304  25.755  1.00  0.00     0.042 C 
BRANCH   2   3
ATOM      3  C   UNL A   1      33.007  26.880  25.260  1.00  0.00     0.118 C 
BRANCH   3   4
ATOM      4  N   UNL A   1      31.980  26.477  24.310  1.00  0.00    -0.352 N 
ATOM      5  C   UNL A   1      31.511  25.322  23.784  1.00  0.00     0.251 C 
ATOM      6  O   UNL A   1      30.584  25.452  22.978  1.00  0.00    -0.270 OA
ATOM      7  H   UNL A   1      31.495  27.255  23.955  1.00  0.00     0.163 HD
BRANCH   5   8
ATOM      8  C   UNL A   1      32.020  23.958  24.107  1.00  0.00     0.067 C 
ATOM      9  C   UNL A   1      33.320  19.038  23.937  1.00  0.00    -0.020 A 
ATOM     10  C   UNL A   1      33.643  20.157  24.746  1.00  0.00     0.053 A 
ATOM     11  C   UNL A   1      32.499  19.307  22.819  1.00  0.00     0.045 A 
ATOM     12  C   UNL A   1      33.142  21.434  24.499  1.00  0.00     0.128 A 
ATOM     13  C   UNL A   1      32.015  20.610  22.563  1.00  0.00     0.032 A 
ATOM     14  Cl  UNL A   1      32.018  18.148  21.631  1.00  0.00    -0.084 Cl
ATOM     15  C   UNL A   1      32.329  21.674  23.404  1.00  0.00     0.019 A 
ATOM     16  O   UNL A   1      33.526  22.422  25.359  1.00  0.00    -0.475 OA
ATOM     17  C   UNL A   1      31.870  23.032  23.141  1.00  0.00     0.025 C 
ATOM     18  C   UNL A   1      32.639  23.574  25.423  1.00  0.00     0.314 C 
BRANCH   9  19
ATOM     19  C   UNL A   1      33.948  17.683  24.352  1.00  0.00    -0.012 C 
ATOM     20  C   UNL A   1      33.963  16.553  23.303  1.00  0.00     0.016 C 
ATOM     21  C   UNL A   1      33.186  17.084  25.569  1.00  0.00     0.016 C 
ATOM     22  C   UNL A   1      35.414  17.943  24.764  1.00  0.00     0.016 C 
ENDBRANCH   9  19
BRANCH  18  23
ATOM     23  C   UNL A   1      31.584  23.346  26.523  1.00  0.00     0.429 C 
ATOM     24  F   UNL A   1      32.149  22.770  27.613  1.00  0.00    -0.167 F 
ATOM     25  F   UNL A   1      31.018  24.501  26.949  1.00  0.00    -0.167 F 
ATOM     26  F   UNL A   1      30.572  22.544  26.122  1.00  0.00    -0.167 F 
ENDBRANCH  18  23
ENDBRANCH   5   8
ENDBRANCH   3   4
ENDBRANCH   2   3
ENDBRANCH   1   2
BRANCH   1  27
ATOM     27  N   UNL A   1      33.552  30.000  27.395  1.00  0.00    -0.352 N 
ATOM     28  C   UNL A   1      34.499  30.744  28.059  1.00  0.00     0.251 C 
ATOM     29  H   UNL A   1      32.766  30.510  27.091  1.00  0.00     0.163 HD
ATOM     30  O   UNL A   1      34.222  31.879  28.437  1.00  0.00    -0.269 OA
BRANCH  28  31
ATOM     31  C   UNL A   1      35.835  30.174  28.330  1.00  0.00     0.039 A 
ATOM     32  C   UNL A   1      36.124  29.622  29.577  1.00  0.00     0.014 A 
ATOM     33  C   UNL A   1      36.809  30.184  27.327  1.00  0.00     0.014 A 
ATOM     34  C   UNL A   1      37.429  29.267  29.886  1.00  0.00     0.010 A 
ATOM     35  C   UNL A   1      38.099  29.721  27.608  1.00  0.00     0.010 A 
ATOM     36  C   UNL A   1      38.433  29.306  28.905  1.00  0.00    -0.014 A 
BRANCH  36  37
ATOM     37  C   UNL A   1      39.814  28.898  29.273  1.00  0.00     0.031 A 
ATOM     38  C   UNL A   1      40.645  29.744  30.200  1.00  0.00     0.074 A 
ATOM     39  C   UNL A   1      40.282  27.713  28.833  1.00  0.00     0.049 A 
ATOM     40  N   UNL A   1      41.848  29.511  30.660  1.00  0.00    -0.248 NA
ATOM     41  C   UNL A   1      40.060  31.009  30.674  1.00  0.00     0.031 C 
ATOM     42  C   UNL A   1      39.551  26.797  27.952  1.00  0.00     0.029 A 
ATOM     43  N   UNL A   1      41.452  27.048  29.102  1.00  0.00    -0.354 N 
ATOM     44  C   UNL A   1      42.171  30.604  31.457  1.00  0.00     0.074 A 
ATOM     45  C   UNL A   1      41.049  31.514  31.400  1.00  0.00     0.031 C 
ATOM     46  C   UNL A   1      40.247  25.660  27.825  1.00  0.00     0.029 A 
ATOM     47  C   UNL A   1      41.510  25.793  28.542  1.00  0.00     0.049 A 
ATOM     48  H   UNL A   1      42.179  27.433  29.642  1.00  0.00     0.167 HD
ATOM     49  C   UNL A   1      43.295  30.820  32.178  1.00  0.00     0.031 A 
ATOM     50  C   UNL A   1      42.472  24.850  28.590  1.00  0.00     0.031 A 
ATOM     51  C   UNL A   1      44.397  29.896  32.246  1.00  0.00     0.049 A 
ATOM     52  C   UNL A   1      43.726  25.130  29.365  1.00  0.00     0.074 A 
ATOM     53  C   UNL A   1      45.580  30.027  32.952  1.00  0.00     0.029 A 
ATOM     54  N   UNL A   1      44.452  28.671  31.597  1.00  0.00    -0.354 N 
ATOM     55  N   UNL A   1      44.020  26.181  30.091  1.00  0.00    -0.248 NA
ATOM     56  C   UNL A   1      44.782  24.111  29.318  1.00  0.00     0.031 C 
ATOM     57  C   UNL A   1      46.371  28.906  32.688  1.00  0.00     0.029 A 
ATOM     58  C   UNL A   1      45.657  28.047  31.868  1.00  0.00     0.049 A 
ATOM     59  H   UNL A   1      43.738  28.301  31.028  1.00  0.00     0.167 HD
ATOM     60  C   UNL A   1      45.296  25.952  30.588  1.00  0.00     0.074 A 
ATOM     61  C   UNL A   1      45.708  24.652  30.102  1.00  0.00     0.031 C 
ATOM     62  C   UNL A   1      46.058  26.755  31.369  1.00  0.00     0.031 A 
BRANCH  49  63
ATOM     63  C   UNL A   1      43.411  32.103  32.958  1.00  0.00    -0.014 A 
ATOM     64  C   UNL A   1      44.036  33.220  32.373  1.00  0.00     0.010 A 
ATOM     65  C   UNL A   1      43.008  32.171  34.304  1.00  0.00     0.010 A 
ATOM     66  C   UNL A   1      44.282  34.372  33.124  1.00  0.00     0.020 A 
ATOM     67  C   UNL A   1      43.230  33.332  35.053  1.00  0.00     0.020 A 
ATOM     68  C   UNL A   1      43.886  34.417  34.463  1.00  0.00     0.054 A 
BRANCH  68  69
ATOM     69  S   UNL A   1      44.226  35.914  35.432  1.00  0.00     0.124 S 
ATOM     70  O   UNL A   1      45.567  36.273  34.981  1.00  0.00    -0.237 OA
ATOM     71  O   UNL A   1      43.156  36.816  35.013  1.00  0.00    -0.237 OA
ATOM     72  O   UNL A   1      44.133  35.452  36.815  1.00  0.00    -0.744 OA
ENDBRANCH  68  69
ENDBRANCH  49  63
BRANCH  50  73
ATOM     73  C   UNL A   1      42.255  23.559  27.880  1.00  0.00    -0.014 A 
ATOM     74  C   UNL A   1      41.558  22.511  28.512  1.00  0.00     0.010 A 
ATOM     75  C   UNL A   1      42.835  23.333  26.621  1.00  0.00     0.010 A 
ATOM     76  C   UNL A   1      41.506  21.243  27.930  1.00  0.00     0.020 A 
ATOM     77  C   UNL A   1      42.757  22.072  26.021  1.00  0.00     0.020 A 
ATOM     78  C   UNL A   1      42.123  21.026  26.697  1.00  0.00     0.054 A 
BRANCH  78  79
ATOM     79  S   UNL A   1      42.102  19.356  25.991  1.00  0.00     0.124 S 
ATOM     80  O   UNL A   1      42.976  19.513  24.830  1.00  0.00    -0.237 OA
ATOM     81  O   UNL A   1      42.640  18.540  27.077  1.00  0.00    -0.237 OA
ATOM     82  O   UNL A   1      40.692  19.131  25.687  1.00  0.00    -0.744 OA
ENDBRANCH  78  79
ENDBRANCH  50  73
BRANCH  62  83
ATOM     83  C   UNL A   1      47.430  26.272  31.751  1.00  0.00    -0.014 A 
ATOM     84  C   UNL A   1      48.506  26.450  30.862  1.00  0.00     0.010 A 
ATOM     85  C   UNL A   1      47.623  25.524  32.926  1.00  0.00     0.010 A 
ATOM     86  C   UNL A   1      49.742  25.855  31.121  1.00  0.00     0.020 A 
ATOM     87  C   UNL A   1      48.866  24.949  33.201  1.00  0.00     0.020 A 
ATOM     88  C   UNL A   1      49.910  25.096  32.283  1.00  0.00     0.054 A 
BRANCH  88  89
ATOM     89  S   UNL A   1      51.509  24.297  32.583  1.00  0.00     0.124 S 
ATOM     90  O   UNL A   1      52.399  25.050  31.705  1.00  0.00    -0.237 OA
ATOM     91  O   UNL A   1      51.711  24.508  34.015  1.00  0.00    -0.237 OA
ATOM     92  O   UNL A   1      51.276  22.908  32.195  1.00  0.00    -0.744 OA
ENDBRANCH  88  89
ENDBRANCH  62  83
ENDBRANCH  36  37
ENDBRANCH  28  31
ENDBRANCH   1  27
TORSDOF 15
ENDMDL
MODEL 3
REMARK VINA RESULT:     -10.4      6.314     12.295
REMARK SMILES CC(C)(C)c1cc2c(cc1Cl)C=C(C(=O)NCCCNC(=O)c1ccc(-c3c4nc(c(-c5ccc(S(=O)(=O)[O-])cc5)c5ccc([nH]5)c(-c5ccc(S(=O)(=O)[O-])cc5)c5nc(c(-c6ccc(S(=O)(=O)[O-])cc6)c6ccc3[nH]6)C=C5)C=C4)cc1)[C@@H](C(F)(F)F)O2
REMARK SMILES IDX 19 1 18 2 17 3 16 4 14 5 15 6 13 8 5 9 6 10 10 11 7 12 9 13
REMARK SMILES IDX 11 14 8 15 88 16 12 17 83 18 2 19 1 20 3 21 4 22 84 23 85 24
REMARK SMILES IDX 86 25 87 26 20 27 21 28 22 30 23 31 24 32 82 33 25 34 81 35
REMARK SMILES IDX 26 36 27 37 28 38 75 39 29 40 80 41 74 42 76 43 30 44 79 45
REMARK SMILES IDX 73 46 72 47 31 49 61 50 42 51 60 52 43 53 46 54 59 55 77 56
REMARK SMILES IDX 44 57 45 58 58 60 78 61 47 62 32 63 33 64 41 65 34 66 40 67
REMARK SMILES IDX 35 68 36 69 37 70 38 71 39 72 62 73 63 74 71 75 64 76 70 77
REMARK SMILES IDX 65 78 66 79 67 80 68 81 69 82 48 83 49 84 57 85 50 86 56 87
REMARK SMILES IDX 51 88 52 89 53 90 54 91 55 92
REMARK H PARENT 16 7 20 29 76 48 46 59
REMARK Flexibility Score: inf
ROOT
ATOM      1  C   UNL A   1      39.235  20.264  25.747  1.00  0.00     0.118 C 
ENDROOT
BRANCH   1   2
ATOM      2  C   UNL A   1      37.943  19.758  25.117  1.00  0.00     0.042 C 
BRANCH   2   3
ATOM      3  C   UNL A   1      36.934  20.872  24.882  1.00  0.00     0.118 C 
BRANCH   3   4
ATOM      4  N   UNL A   1      35.571  20.443  25.161  1.00  0.00    -0.352 N 
ATOM      5  C   UNL A   1      34.335  20.991  25.150  1.00  0.00     0.251 C 
ATOM      6  O   UNL A   1      33.420  20.225  25.468  1.00  0.00    -0.270 OA
ATOM      7  H   UNL A   1      35.541  19.497  25.429  1.00  0.00     0.163 HD
BRANCH   5   8
ATOM      8  C   UNL A   1      34.021  22.403  24.788  1.00  0.00     0.067 C 
ATOM      9  C   UNL A   1      32.679  27.314  24.895  1.00  0.00    -0.020 A 
ATOM     10  C   UNL A   1      33.367  26.457  23.998  1.00  0.00     0.053 A 
ATOM     11  C   UNL A   1      32.325  26.741  26.138  1.00  0.00     0.045 A 
ATOM     12  C   UNL A   1      33.630  25.119  24.287  1.00  0.00     0.128 A 
ATOM     13  C   UNL A   1      32.617  25.391  26.431  1.00  0.00     0.032 A 
ATOM     14  Cl  UNL A   1      31.553  27.577  27.438  1.00  0.00    -0.084 Cl
ATOM     15  C   UNL A   1      33.263  24.576  25.506  1.00  0.00     0.019 A 
ATOM     16  O   UNL A   1      34.295  24.403  23.334  1.00  0.00    -0.475 OA
ATOM     17  C   UNL A   1      33.605  23.190  25.800  1.00  0.00     0.025 C 
ATOM     18  C   UNL A   1      34.112  22.962  23.395  1.00  0.00     0.314 C 
BRANCH   9  19
ATOM     19  C   UNL A   1      32.455  28.772  24.420  1.00  0.00    -0.012 C 
ATOM     20  C   UNL A   1      32.841  29.906  25.391  1.00  0.00     0.016 C 
ATOM     21  C   UNL A   1      30.949  29.013  24.109  1.00  0.00     0.016 C 
ATOM     22  C   UNL A   1      33.269  28.983  23.124  1.00  0.00     0.016 C 
ENDBRANCH   9  19
BRANCH  18  23
ATOM     23  C   UNL A   1      32.905  22.562  22.523  1.00  0.00     0.429 C 
ATOM     24  F   UNL A   1      32.742  21.216  22.523  1.00  0.00    -0.167 F 
ATOM     25  F   UNL A   1      31.740  23.089  22.974  1.00  0.00    -0.167 F 
ATOM     26  F   UNL A   1      33.034  22.954  21.236  1.00  0.00    -0.167 F 
ENDBRANCH  18  23
ENDBRANCH   5   8
ENDBRANCH   3   4
ENDBRANCH   2   3
ENDBRANCH   1   2
BRANCH   1  27
ATOM     27  N   UNL A   1      40.204  19.190  25.955  1.00  0.00    -0.352 N 
ATOM     28  C   UNL A   1      41.568  19.239  26.125  1.00  0.00     0.251 C 
ATOM     29  H   UNL A   1      39.818  18.285  25.977  1.00  0.00     0.163 HD
ATOM     30  O   UNL A   1      42.225  18.205  26.047  1.00  0.00    -0.269 OA
BRANCH  28  31
ATOM     31  C   UNL A   1      42.238  20.531  26.382  1.00  0.00     0.039 A 
ATOM     32  C   UNL A   1      42.298  21.046  27.676  1.00  0.00     0.014 A 
ATOM     33  C   UNL A   1      42.818  21.233  25.322  1.00  0.00     0.014 A 
ATOM     34  C   UNL A   1      42.754  22.341  27.880  1.00  0.00     0.010 A 
ATOM     35  C   UNL A   1      43.380  22.494  25.549  1.00  0.00     0.010 A 
ATOM     36  C   UNL A   1      43.306  23.080  26.822  1.00  0.00    -0.014 A 
BRANCH  36  37
ATOM     37  C   UNL A   1      43.802  24.456  27.087  1.00  0.00     0.031 A 
ATOM     38  C   UNL A   1      45.242  24.817  26.837  1.00  0.00     0.074 A 
ATOM     39  C   UNL A   1      42.922  25.402  27.473  1.00  0.00     0.049 A 
ATOM     40  N   UNL A   1      45.827  25.979  26.970  1.00  0.00    -0.248 NA
ATOM     41  C   UNL A   1      46.142  23.745  26.381  1.00  0.00     0.031 C 
ATOM     42  C   UNL A   1      41.496  25.171  27.718  1.00  0.00     0.029 A 
ATOM     43  N   UNL A   1      43.078  26.750  27.677  1.00  0.00    -0.354 N 
ATOM     44  C   UNL A   1      47.161  25.776  26.635  1.00  0.00     0.074 A 
ATOM     45  C   UNL A   1      47.308  24.374  26.318  1.00  0.00     0.031 C 
ATOM     46  C   UNL A   1      40.894  26.345  27.952  1.00  0.00     0.029 A 
ATOM     47  C   UNL A   1      41.900  27.401  27.958  1.00  0.00     0.049 A 
ATOM     48  H   UNL A   1      43.948  27.206  27.627  1.00  0.00     0.167 HD
ATOM     49  C   UNL A   1      48.167  26.681  26.588  1.00  0.00     0.031 A 
ATOM     50  C   UNL A   1      41.648  28.703  28.202  1.00  0.00     0.031 A 
ATOM     51  C   UNL A   1      48.005  28.080  26.885  1.00  0.00     0.049 A 
ATOM     52  C   UNL A   1      42.786  29.679  28.182  1.00  0.00     0.074 A 
ATOM     53  C   UNL A   1      48.966  29.076  26.863  1.00  0.00     0.029 A 
ATOM     54  N   UNL A   1      46.810  28.685  27.248  1.00  0.00    -0.354 N 
ATOM     55  N   UNL A   1      44.045  29.460  27.888  1.00  0.00    -0.248 NA
ATOM     56  C   UNL A   1      42.481  31.071  28.539  1.00  0.00     0.031 C 
ATOM     57  C   UNL A   1      48.364  30.271  27.263  1.00  0.00     0.029 A 
ATOM     58  C   UNL A   1      47.015  30.035  27.473  1.00  0.00     0.049 A 
ATOM     59  H   UNL A   1      45.945  28.222  27.332  1.00  0.00     0.167 HD
ATOM     60  C   UNL A   1      44.684  30.686  28.024  1.00  0.00     0.074 A 
ATOM     61  C   UNL A   1      43.670  31.647  28.402  1.00  0.00     0.031 C 
ATOM     62  C   UNL A   1      45.996  30.980  27.859  1.00  0.00     0.031 A 
BRANCH  49  63
ATOM     63  C   UNL A   1      49.542  26.203  26.204  1.00  0.00    -0.014 A 
ATOM     64  C   UNL A   1      50.384  25.643  27.183  1.00  0.00     0.010 A 
ATOM     65  C   UNL A   1      50.047  26.413  24.908  1.00  0.00     0.010 A 
ATOM     66  C   UNL A   1      51.711  25.325  26.884  1.00  0.00     0.020 A 
ATOM     67  C   UNL A   1      51.368  26.072  24.597  1.00  0.00     0.020 A 
ATOM     68  C   UNL A   1      52.198  25.551  25.594  1.00  0.00     0.054 A 
BRANCH  68  69
ATOM     69  S   UNL A   1      53.928  25.149  25.223  1.00  0.00     0.124 S 
ATOM     70  O   UNL A   1      54.185  25.959  24.037  1.00  0.00    -0.237 OA
ATOM     71  O   UNL A   1      54.622  25.569  26.438  1.00  0.00    -0.237 OA
ATOM     72  O   UNL A   1      53.901  23.704  25.002  1.00  0.00    -0.744 OA
ENDBRANCH  68  69
ENDBRANCH  49  63
BRANCH  50  73
ATOM     73  C   UNL A   1      40.248  29.129  28.476  1.00  0.00    -0.014 A 
ATOM     74  C   UNL A   1      39.347  29.329  27.413  1.00  0.00     0.010 A 
ATOM     75  C   UNL A   1      39.842  29.444  29.785  1.00  0.00     0.010 A 
ATOM     76  C   UNL A   1      38.093  29.899  27.644  1.00  0.00     0.020 A 
ATOM     77  C   UNL A   1      38.575  29.986  30.022  1.00  0.00     0.020 A 
ATOM     78  C   UNL A   1      37.723  30.243  28.945  1.00  0.00     0.054 A 
BRANCH  78  79
ATOM     79  S   UNL A   1      36.119  31.045  29.215  1.00  0.00     0.124 S 
ATOM     80  O   UNL A   1      36.364  32.385  28.688  1.00  0.00    -0.237 OA
ATOM     81  O   UNL A   1      35.209  30.217  28.426  1.00  0.00    -0.237 OA
ATOM     82  O   UNL A   1      35.935  30.963  30.660  1.00  0.00    -0.744 OA
ENDBRANCH  78  79
ENDBRANCH  50  73
BRANCH  62  83
ATOM     83  C   UNL A   1      46.436  32.398  28.094  1.00  0.00    -0.014 A 
ATOM     84  C   UNL A   1      46.511  33.295  27.012  1.00  0.00     0.010 A 
ATOM     85  C   UNL A   1      46.906  32.802  29.356  1.00  0.00     0.010 A 
ATOM     86  C   UNL A   1      47.081  34.559  27.179  1.00  0.00     0.020 A 
ATOM     87  C   UNL A   1      47.454  34.075  29.533  1.00  0.00     0.020 A 
ATOM     88  C   UNL A   1      47.562  34.935  28.436  1.00  0.00     0.054 A 
BRANCH  88  89
ATOM     89  S   UNL A   1      48.338  36.562  28.626  1.00  0.00     0.124 S 
ATOM     90  O   UNL A   1      49.267  36.333  29.729  1.00  0.00    -0.237 OA
ATOM     91  O   UNL A   1      48.953  36.781  27.319  1.00  0.00    -0.237 OA
ATOM     92  O   UNL A   1      47.213  37.444  28.930  1.00  0.00    -0.744 OA
ENDBRANCH  88  89
ENDBRANCH  62  83
ENDBRANCH  36  37
ENDBRANCH  28  31
ENDBRANCH   1  27
TORSDOF 15
ENDMDL
