MODEL 1
REMARK VINA RESULT:     -12.0      0.000      0.000
REMARK SMILES Cc1noc(-c2cc(=O)n(CC(=O)NCCCNC(=O)c3ccc(-c4c5nc(c(-c6ccc(S(=O)(=O)[O-])cc6)c6ccc([nH]6)c(-c6ccc(S(=O)(=O)[O-])cc6)c6nc(c(-c7ccc(S(=O)(=O)[O-])cc7)c7ccc4[nH]7)C=C6)C=C5)cc3)c3ccccc23)n1
REMARK SMILES IDX 16 1 15 2 14 3 12 4 13 5 11 7 10 8 6 9 7 10 86 11 8 12 81 13
REMARK SMILES IDX 85 14 9 15 82 16 84 17 83 18 5 19 1 20 2 21 3 22 87 23 4 24
REMARK SMILES IDX 17 25 18 26 19 27 20 29 21 30 22 31 80 32 23 33 79 34 24 35
REMARK SMILES IDX 25 36 26 37 73 38 27 39 78 40 72 41 74 42 28 43 77 44 71 45
REMARK SMILES IDX 70 46 29 48 59 49 40 50 58 51 41 52 44 53 57 54 75 55 42 56
REMARK SMILES IDX 43 57 56 59 76 60 45 61 30 62 31 63 39 64 32 65 38 66 33 67
REMARK SMILES IDX 34 68 35 69 36 70 37 71 60 72 61 73 69 74 62 75 68 76 63 77
REMARK SMILES IDX 64 78 65 79 66 80 67 81 46 82 47 83 55 84 48 85 54 86 49 87
REMARK SMILES IDX 50 88 51 89 52 90 53 91
REMARK H PARENT 14 6 18 28 74 47 44 58
REMARK Flexibility Score: inf
ROOT
ATOM      1  C   UNL A   1      33.981  28.357  25.689  1.00  0.00     0.042 C 
ENDROOT
BRANCH   1   2
ATOM      2  C   UNL A   1      32.944  27.680  24.801  1.00  0.00     0.117 C 
BRANCH   2   3
ATOM      3  N   UNL A   1      33.541  26.829  23.790  1.00  0.00    -0.354 N 
ATOM      4  C   UNL A   1      33.810  25.495  23.824  1.00  0.00     0.240 C 
ATOM      5  O   UNL A   1      34.169  24.959  22.770  1.00  0.00    -0.273 OA
ATOM      6  H   UNL A   1      33.787  27.284  22.952  1.00  0.00     0.163 HD
BRANCH   4   7
ATOM      7  C   UNL A   1      33.579  24.654  25.087  1.00  0.00     0.225 C 
BRANCH   7   8
ATOM      8  N   UNL A   1      33.586  23.199  24.910  1.00  0.00    -0.299 N 
ATOM      9  C   UNL A   1      33.483  20.361  24.623  1.00  0.00     0.055 A 
ATOM     10  C   UNL A   1      32.382  21.115  24.478  1.00  0.00     0.086 A 
ATOM     11  C   UNL A   1      34.769  21.051  24.872  1.00  0.00     0.011 A 
ATOM     12  C   UNL A   1      32.386  22.582  24.604  1.00  0.00     0.252 A 
ATOM     13  C   UNL A   1      34.807  22.455  24.996  1.00  0.00     0.053 A 
ATOM     14  C   UNL A   1      35.971  20.323  24.955  1.00  0.00     0.011 A 
ATOM     15  O   UNL A   1      31.320  23.177  24.453  1.00  0.00    -0.269 OA
ATOM     16  C   UNL A   1      36.050  23.085  25.185  1.00  0.00     0.027 A 
ATOM     17  C   UNL A   1      37.192  20.964  25.161  1.00  0.00     0.001 A 
ATOM     18  C   UNL A   1      37.230  22.344  25.271  1.00  0.00     0.002 A 
BRANCH   9  19
ATOM     19  C   UNL A   1      33.291  18.943  24.535  1.00  0.00     0.258 A 
ATOM     20  C   UNL A   1      32.527  15.682  25.674  1.00  0.00     0.093 C 
ATOM     21  C   UNL A   1      32.896  16.899  24.930  1.00  0.00     0.169 A 
ATOM     22  N   UNL A   1      33.142  16.905  23.618  1.00  0.00    -0.062 NA
ATOM     23  N   UNL A   1      32.993  18.125  25.532  1.00  0.00    -0.192 NA
ATOM     24  O   UNL A   1      33.391  18.244  23.346  1.00  0.00    -0.334 OA
ENDBRANCH   9  19
ENDBRANCH   7   8
ENDBRANCH   4   7
ENDBRANCH   2   3
ENDBRANCH   1   2
BRANCH   1  25
ATOM     25  C   UNL A   1      33.551  28.531  27.144  1.00  0.00     0.118 C 
BRANCH  25  26
ATOM     26  N   UNL A   1      33.553  29.920  27.587  1.00  0.00    -0.352 N 
ATOM     27  C   UNL A   1      34.536  30.656  28.204  1.00  0.00     0.251 C 
ATOM     28  H   UNL A   1      32.715  30.409  27.416  1.00  0.00     0.163 HD
ATOM     29  O   UNL A   1      34.277  31.787  28.611  1.00  0.00    -0.269 OA
BRANCH  27  30
ATOM     30  C   UNL A   1      35.887  30.088  28.412  1.00  0.00     0.039 A 
ATOM     31  C   UNL A   1      36.240  29.490  29.623  1.00  0.00     0.014 A 
ATOM     32  C   UNL A   1      36.820  30.157  27.373  1.00  0.00     0.014 A 
ATOM     33  C   UNL A   1      37.565  29.129  29.856  1.00  0.00     0.010 A 
ATOM     34  C   UNL A   1      38.132  29.718  27.580  1.00  0.00     0.010 A 
ATOM     35  C   UNL A   1      38.530  29.250  28.842  1.00  0.00    -0.014 A 
BRANCH  35  36
ATOM     36  C   UNL A   1      39.948  28.907  29.133  1.00  0.00     0.031 A 
ATOM     37  C   UNL A   1      40.504  27.559  28.754  1.00  0.00     0.074 A 
ATOM     38  C   UNL A   1      40.757  29.838  29.677  1.00  0.00     0.049 A 
ATOM     39  N   UNL A   1      41.726  27.109  28.888  1.00  0.00    -0.248 NA
ATOM     40  C   UNL A   1      39.576  26.591  28.144  1.00  0.00     0.031 C 
ATOM     41  C   UNL A   1      40.343  31.188  30.065  1.00  0.00     0.029 A 
ATOM     42  N   UNL A   1      42.101  29.809  29.962  1.00  0.00    -0.354 N 
ATOM     43  C   UNL A   1      41.712  25.809  28.394  1.00  0.00     0.074 A 
ATOM     44  C   UNL A   1      40.353  25.527  27.986  1.00  0.00     0.031 C 
ATOM     45  C   UNL A   1      41.419  31.876  30.473  1.00  0.00     0.029 A 
ATOM     46  C   UNL A   1      42.589  31.003  30.437  1.00  0.00     0.049 A 
ATOM     47  H   UNL A   1      42.660  29.008  29.838  1.00  0.00     0.167 HD
ATOM     48  C   UNL A   1      42.740  24.937  28.273  1.00  0.00     0.031 A 
ATOM     49  C   UNL A   1      43.836  31.365  30.804  1.00  0.00     0.031 A 
ATOM     50  C   UNL A   1      44.098  25.229  28.654  1.00  0.00     0.049 A 
ATOM     51  C   UNL A   1      44.951  30.364  30.702  1.00  0.00     0.074 A 
ATOM     52  C   UNL A   1      45.209  24.411  28.547  1.00  0.00     0.029 A 
ATOM     53  N   UNL A   1      44.532  26.427  29.201  1.00  0.00    -0.354 N 
ATOM     54  N   UNL A   1      44.914  29.139  30.234  1.00  0.00    -0.248 NA
ATOM     55  C   UNL A   1      46.274  30.787  31.181  1.00  0.00     0.031 C 
ATOM     56  C   UNL A   1      46.305  25.093  29.079  1.00  0.00     0.029 A 
ATOM     57  C   UNL A   1      45.890  26.360  29.458  1.00  0.00     0.049 A 
ATOM     58  H   UNL A   1      43.960  27.208  29.380  1.00  0.00     0.167 HD
ATOM     59  C   UNL A   1      46.209  28.649  30.352  1.00  0.00     0.074 A 
ATOM     60  C   UNL A   1      47.011  29.714  30.917  1.00  0.00     0.031 C 
ATOM     61  C   UNL A   1      46.683  27.424  30.023  1.00  0.00     0.031 A 
BRANCH  48  62
ATOM     62  C   UNL A   1      42.464  23.580  27.684  1.00  0.00    -0.014 A 
ATOM     63  C   UNL A   1      42.196  22.486  28.529  1.00  0.00     0.010 A 
ATOM     64  C   UNL A   1      42.597  23.360  26.302  1.00  0.00     0.010 A 
ATOM     65  C   UNL A   1      42.093  21.195  28.004  1.00  0.00     0.020 A 
ATOM     66  C   UNL A   1      42.466  22.074  25.770  1.00  0.00     0.020 A 
ATOM     67  C   UNL A   1      42.240  20.996  26.629  1.00  0.00     0.054 A 
BRANCH  67  68
ATOM     68  S   UNL A   1      42.131  19.310  25.969  1.00  0.00     0.124 S 
ATOM     69  O   UNL A   1      42.983  19.389  24.786  1.00  0.00    -0.237 OA
ATOM     70  O   UNL A   1      42.649  18.501  27.069  1.00  0.00    -0.237 OA
ATOM     71  O   UNL A   1      40.704  19.141  25.702  1.00  0.00    -0.744 OA
ENDBRANCH  67  68
ENDBRANCH  48  62
BRANCH  49  72
ATOM     72  C   UNL A   1      44.077  32.756  31.274  1.00  0.00    -0.014 A 
ATOM     73  C   UNL A   1      43.857  33.101  32.622  1.00  0.00     0.010 A 
ATOM     74  C   UNL A   1      44.438  33.762  30.361  1.00  0.00     0.010 A 
ATOM     75  C   UNL A   1      43.931  34.433  33.034  1.00  0.00     0.020 A 
ATOM     76  C   UNL A   1      44.543  35.093  30.778  1.00  0.00     0.020 A 
ATOM     77  C   UNL A   1      44.256  35.423  32.105  1.00  0.00     0.054 A 
BRANCH  77  78
ATOM     78  S   UNL A   1      44.288  37.154  32.649  1.00  0.00     0.124 S 
ATOM     79  O   UNL A   1      43.195  37.181  33.617  1.00  0.00    -0.237 OA
ATOM     80  O   UNL A   1      45.630  37.290  33.209  1.00  0.00    -0.237 OA
ATOM     81  O   UNL A   1      44.052  37.902  31.417  1.00  0.00    -0.744 OA
ENDBRANCH  77  78
ENDBRANCH  49  72
BRANCH  61  82
ATOM     82  C   UNL A   1      48.141  27.137  30.260  1.00  0.00    -0.014 A 
ATOM     83  C   UNL A   1      48.558  26.617  31.500  1.00  0.00     0.010 A 
ATOM     84  C   UNL A   1      49.109  27.515  29.314  1.00  0.00     0.010 A 
ATOM     85  C   UNL A   1      49.917  26.517  31.805  1.00  0.00     0.020 A 
ATOM     86  C   UNL A   1      50.470  27.391  29.606  1.00  0.00     0.020 A 
ATOM     87  C   UNL A   1      50.865  26.918  30.860  1.00  0.00     0.054 A 
BRANCH  87  88
ATOM     88  S   UNL A   1      52.624  26.822  31.289  1.00  0.00     0.124 S 
ATOM     89  O   UNL A   1      53.204  26.243  30.082  1.00  0.00    -0.237 OA
ATOM     90  O   UNL A   1      52.970  28.219  31.547  1.00  0.00    -0.237 OA
ATOM     91  O   UNL A   1      52.641  25.957  32.468  1.00  0.00    -0.744 OA
ENDBRANCH  87  88
ENDBRANCH  61  82
ENDBRANCH  35  36
ENDBRANCH  27  30
ENDBRANCH  25  26
ENDBRANCH   1  25
TORSDOF 15
ENDMDL
MODEL 2
REMARK VINA RESULT:     -12.0      0.718      8.147
REMARK SMILES Cc1noc(-c2cc(=O)n(CC(=O)NCCCNC(=O)c3ccc(-c4c5nc(c(-c6ccc(S(=O)(=O)[O-])cc6)c6ccc([nH]6)c(-c6ccc(S(=O)(=O)[O-])cc6)c6nc(c(-c7ccc(S(=O)(=O)[O-])cc7)c7ccc4[nH]7)C=C6)C=C5)cc3)c3ccccc23)n1
REMARK SMILES IDX 16 1 15 2 14 3 12 4 13 5 11 7 10 8 6 9 7 10 86 11 8 12 81 13
REMARK SMILES IDX 85 14 9 15 82 16 84 17 83 18 5 19 1 20 2 21 3 22 87 23 4 24
REMARK SMILES IDX 17 25 18 26 19 27 20 29 21 30 22 31 80 32 23 33 79 34 24 35
REMARK SMILES IDX 25 36 26 37 73 38 27 39 78 40 72 41 74 42 28 43 77 44 71 45
REMARK SMILES IDX 70 46 29 48 59 49 40 50 58 51 41 52 44 53 57 54 75 55 42 56
REMARK SMILES IDX 43 57 56 59 76 60 45 61 30 62 31 63 39 64 32 65 38 66 33 67
REMARK SMILES IDX 34 68 35 69 36 70 37 71 60 72 61 73 69 74 62 75 68 76 63 77
REMARK SMILES IDX 64 78 65 79 66 80 67 81 46 82 47 83 55 84 48 85 54 86 49 87
REMARK SMILES IDX 50 88 51 89 52 90 53 91
REMARK H PARENT 14 6 18 28 74 47 44 58
REMARK Flexibility Score: inf
ROOT
ATOM      1  C   UNL A   1      33.714  28.063  25.840  1.00  0.00     0.042 C 
ENDROOT
BRANCH   1   2
ATOM      2  C   UNL A   1      32.810  27.032  25.177  1.00  0.00     0.117 C 
BRANCH   2   3
ATOM      3  N   UNL A   1      33.481  26.288  24.129  1.00  0.00    -0.354 N 
ATOM      4  C   UNL A   1      33.919  24.999  24.122  1.00  0.00     0.240 C 
ATOM      5  O   UNL A   1      34.314  24.536  23.046  1.00  0.00    -0.273 OA
ATOM      6  H   UNL A   1      33.645  26.789  23.298  1.00  0.00     0.163 HD
BRANCH   4   7
ATOM      7  C   UNL A   1      33.832  24.106  25.367  1.00  0.00     0.225 C 
BRANCH   7   8
ATOM      8  N   UNL A   1      33.863  22.659  25.135  1.00  0.00    -0.299 N 
ATOM      9  C   UNL A   1      33.814  19.832  24.751  1.00  0.00     0.055 A 
ATOM     10  C   UNL A   1      32.683  20.553  24.743  1.00  0.00     0.086 A 
ATOM     11  C   UNL A   1      35.098  20.554  24.899  1.00  0.00     0.011 A 
ATOM     12  C   UNL A   1      32.657  22.015  24.924  1.00  0.00     0.252 A 
ATOM     13  C   UNL A   1      35.107  21.953  25.073  1.00  0.00     0.053 A 
ATOM     14  C   UNL A   1      36.323  19.863  24.837  1.00  0.00     0.011 A 
ATOM     15  O   UNL A   1      31.564  22.580  24.900  1.00  0.00    -0.269 OA
ATOM     16  C   UNL A   1      36.344  22.616  25.164  1.00  0.00     0.027 A 
ATOM     17  C   UNL A   1      37.539  20.535  24.947  1.00  0.00     0.001 A 
ATOM     18  C   UNL A   1      37.548  21.911  25.107  1.00  0.00     0.002 A 
BRANCH   9  19
ATOM     19  C   UNL A   1      33.655  18.412  24.628  1.00  0.00     0.258 A 
ATOM     20  C   UNL A   1      32.571  15.165  25.522  1.00  0.00     0.093 C 
ATOM     21  C   UNL A   1      33.154  16.373  24.910  1.00  0.00     0.169 A 
ATOM     22  N   UNL A   1      33.791  16.361  23.737  1.00  0.00    -0.062 NA
ATOM     23  N   UNL A   1      33.065  17.607  25.496  1.00  0.00    -0.192 NA
ATOM     24  O   UNL A   1      34.114  17.697  23.536  1.00  0.00    -0.334 OA
ENDBRANCH   9  19
ENDBRANCH   7   8
ENDBRANCH   4   7
ENDBRANCH   2   3
ENDBRANCH   1   2
BRANCH   1  25
ATOM     25  C   UNL A   1      33.352  28.384  27.288  1.00  0.00     0.118 C 
BRANCH  25  26
ATOM     26  N   UNL A   1      33.400  29.809  27.596  1.00  0.00    -0.352 N 
ATOM     27  C   UNL A   1      34.429  30.580  28.082  1.00  0.00     0.251 C 
ATOM     28  H   UNL A   1      32.561  30.296  27.428  1.00  0.00     0.163 HD
ATOM     29  O   UNL A   1      34.211  31.749  28.394  1.00  0.00    -0.269 OA
BRANCH  27  30
ATOM     30  C   UNL A   1      35.782  30.007  28.265  1.00  0.00     0.039 A 
ATOM     31  C   UNL A   1      36.164  29.433  29.478  1.00  0.00     0.014 A 
ATOM     32  C   UNL A   1      36.686  30.046  27.199  1.00  0.00     0.014 A 
ATOM     33  C   UNL A   1      37.493  29.068  29.682  1.00  0.00     0.010 A 
ATOM     34  C   UNL A   1      38.000  29.601  27.379  1.00  0.00     0.010 A 
ATOM     35  C   UNL A   1      38.430  29.160  28.640  1.00  0.00    -0.014 A 
BRANCH  35  36
ATOM     36  C   UNL A   1      39.853  28.813  28.898  1.00  0.00     0.031 A 
ATOM     37  C   UNL A   1      40.743  29.753  29.671  1.00  0.00     0.074 A 
ATOM     38  C   UNL A   1      40.328  27.616  28.498  1.00  0.00     0.049 A 
ATOM     39  N   UNL A   1      41.992  29.591  30.028  1.00  0.00    -0.248 NA
ATOM     40  C   UNL A   1      40.162  31.036  30.100  1.00  0.00     0.031 C 
ATOM     41  C   UNL A   1      39.557  26.610  27.764  1.00  0.00     0.029 A 
ATOM     42  N   UNL A   1      41.554  27.025  28.683  1.00  0.00    -0.354 N 
ATOM     43  C   UNL A   1      42.349  30.749  30.710  1.00  0.00     0.074 A 
ATOM     44  C   UNL A   1      41.197  31.623  30.689  1.00  0.00     0.031 C 
ATOM     45  C   UNL A   1      40.303  25.506  27.621  1.00  0.00     0.029 A 
ATOM     46  C   UNL A   1      41.625  25.742  28.194  1.00  0.00     0.049 A 
ATOM     47  H   UNL A   1      42.309  27.478  29.123  1.00  0.00     0.167 HD
ATOM     48  C   UNL A   1      43.522  31.049  31.315  1.00  0.00     0.031 A 
ATOM     49  C   UNL A   1      42.636  24.849  28.201  1.00  0.00     0.031 A 
ATOM     50  C   UNL A   1      44.659  30.167  31.358  1.00  0.00     0.049 A 
ATOM     51  C   UNL A   1      43.943  25.224  28.839  1.00  0.00     0.074 A 
ATOM     52  C   UNL A   1      45.883  30.382  31.967  1.00  0.00     0.029 A 
ATOM     53  N   UNL A   1      44.712  28.906  30.784  1.00  0.00    -0.354 N 
ATOM     54  N   UNL A   1      44.258  26.326  29.476  1.00  0.00    -0.248 NA
ATOM     55  C   UNL A   1      45.033  24.241  28.758  1.00  0.00     0.031 C 
ATOM     56  C   UNL A   1      46.695  29.274  31.716  1.00  0.00     0.029 A 
ATOM     57  C   UNL A   1      45.956  28.341  31.006  1.00  0.00     0.049 A 
ATOM     58  H   UNL A   1      43.975  28.477  30.292  1.00  0.00     0.167 HD
ATOM     59  C   UNL A   1      45.578  26.166  29.880  1.00  0.00     0.074 A 
ATOM     60  C   UNL A   1      45.998  24.854  29.434  1.00  0.00     0.031 C 
ATOM     61  C   UNL A   1      46.368  27.035  30.556  1.00  0.00     0.031 A 
BRANCH  48  62
ATOM     62  C   UNL A   1      43.651  32.380  32.008  1.00  0.00    -0.014 A 
ATOM     63  C   UNL A   1      44.168  33.489  31.313  1.00  0.00     0.010 A 
ATOM     64  C   UNL A   1      43.383  32.498  33.382  1.00  0.00     0.010 A 
ATOM     65  C   UNL A   1      44.438  34.684  31.986  1.00  0.00     0.020 A 
ATOM     66  C   UNL A   1      43.626  33.700  34.053  1.00  0.00     0.020 A 
ATOM     67  C   UNL A   1      44.175  34.777  33.355  1.00  0.00     0.054 A 
BRANCH  67  68
ATOM     68  S   UNL A   1      44.559  36.325  34.220  1.00  0.00     0.124 S 
ATOM     69  O   UNL A   1      44.085  36.047  35.572  1.00  0.00    -0.237 OA
ATOM     70  O   UNL A   1      46.007  36.429  34.064  1.00  0.00    -0.237 OA
ATOM     71  O   UNL A   1      43.789  37.325  33.480  1.00  0.00    -0.744 OA
ENDBRANCH  67  68
ENDBRANCH  48  62
BRANCH  49  72
ATOM     72  C   UNL A   1      42.420  23.505  27.601  1.00  0.00    -0.014 A 
ATOM     73  C   UNL A   1      41.892  22.454  28.376  1.00  0.00     0.010 A 
ATOM     74  C   UNL A   1      42.825  23.244  26.280  1.00  0.00     0.010 A 
ATOM     75  C   UNL A   1      41.833  21.156  27.864  1.00  0.00     0.020 A 
ATOM     76  C   UNL A   1      42.738  21.951  25.754  1.00  0.00     0.020 A 
ATOM     77  C   UNL A   1      42.273  20.909  26.562  1.00  0.00     0.054 A 
BRANCH  77  78
ATOM     78  S   UNL A   1      42.244  19.206  25.939  1.00  0.00     0.124 S 
ATOM     79  O   UNL A   1      42.809  18.467  27.065  1.00  0.00    -0.237 OA
ATOM     80  O   UNL A   1      40.823  18.980  25.687  1.00  0.00    -0.237 OA
ATOM     81  O   UNL A   1      43.083  19.265  24.745  1.00  0.00    -0.744 OA
ENDBRANCH  77  78
ENDBRANCH  49  72
BRANCH  61  82
ATOM     82  C   UNL A   1      47.780  26.619  30.869  1.00  0.00    -0.014 A 
ATOM     83  C   UNL A   1      48.075  26.032  32.114  1.00  0.00     0.010 A 
ATOM     84  C   UNL A   1      48.832  26.939  29.995  1.00  0.00     0.010 A 
ATOM     85  C   UNL A   1      49.399  25.808  32.495  1.00  0.00     0.020 A 
ATOM     86  C   UNL A   1      50.158  26.692  30.363  1.00  0.00     0.020 A 
ATOM     87  C   UNL A   1      50.434  26.153  31.621  1.00  0.00     0.054 A 
BRANCH  87  88
ATOM     88  S   UNL A   1      52.149  25.895  32.151  1.00  0.00     0.124 S 
ATOM     89  O   UNL A   1      52.232  26.732  33.344  1.00  0.00    -0.237 OA
ATOM     90  O   UNL A   1      52.201  24.454  32.388  1.00  0.00    -0.237 OA
ATOM     91  O   UNL A   1      52.933  26.358  31.007  1.00  0.00    -0.744 OA
ENDBRANCH  87  88
ENDBRANCH  61  82
ENDBRANCH  35  36
ENDBRANCH  27  30
ENDBRANCH  25  26
ENDBRANCH   1  25
TORSDOF 15
ENDMDL
MODEL 3
REMARK VINA RESULT:     -11.6      3.045      9.049
REMARK SMILES Cc1noc(-c2cc(=O)n(CC(=O)NCCCNC(=O)c3ccc(-c4c5nc(c(-c6ccc(S(=O)(=O)[O-])cc6)c6ccc([nH]6)c(-c6ccc(S(=O)(=O)[O-])cc6)c6nc(c(-c7ccc(S(=O)(=O)[O-])cc7)c7ccc4[nH]7)C=C6)C=C5)cc3)c3ccccc23)n1
REMARK SMILES IDX 16 1 15 2 14 3 12 4 13 5 11 7 10 8 6 9 7 10 86 11 8 12 81 13
REMARK SMILES IDX 85 14 9 15 82 16 84 17 83 18 5 19 1 20 2 21 3 22 87 23 4 24
REMARK SMILES IDX 17 25 18 26 19 27 20 29 21 30 22 31 80 32 23 33 79 34 24 35
REMARK SMILES IDX 25 36 26 37 73 38 27 39 78 40 72 41 74 42 28 43 77 44 71 45
REMARK SMILES IDX 70 46 29 48 59 49 40 50 58 51 41 52 44 53 57 54 75 55 42 56
REMARK SMILES IDX 43 57 56 59 76 60 45 61 30 62 31 63 39 64 32 65 38 66 33 67
REMARK SMILES IDX 34 68 35 69 36 70 37 71 60 72 61 73 69 74 62 75 68 76 63 77
REMARK SMILES IDX 64 78 65 79 66 80 67 81 46 82 47 83 55 84 48 85 54 86 49 87
REMARK SMILES IDX 50 88 51 89 52 90 53 91
REMARK H PARENT 14 6 18 28 74 47 44 58
REMARK Flexibility Score: inf
ROOT
ATOM      1  C   UNL A   1      35.569  22.541  25.556  1.00  0.00     0.042 C 
ENDROOT
BRANCH   1   2
ATOM      2  C   UNL A   1      34.362  23.125  24.833  1.00  0.00     0.117 C 
BRANCH   2   3
ATOM      3  N   UNL A   1      33.380  23.684  25.741  1.00  0.00    -0.354 N 
ATOM      4  C   UNL A   1      32.840  24.934  25.777  1.00  0.00     0.240 C 
ATOM      5  O   UNL A   1      31.891  25.124  26.546  1.00  0.00    -0.273 OA
ATOM      6  H   UNL A   1      33.053  23.068  26.436  1.00  0.00     0.163 HD
BRANCH   4   7
ATOM      7  C   UNL A   1      33.309  26.046  24.829  1.00  0.00     0.225 C 
BRANCH   7   8
ATOM      8  N   UNL A   1      32.303  27.040  24.443  1.00  0.00    -0.299 N 
ATOM      9  C   UNL A   1      30.359  28.937  23.568  1.00  0.00     0.055 A 
ATOM     10  C   UNL A   1      30.450  27.724  23.000  1.00  0.00     0.086 A 
ATOM     11  C   UNL A   1      31.253  29.240  24.707  1.00  0.00     0.011 A 
ATOM     12  C   UNL A   1      31.427  26.706  23.424  1.00  0.00     0.252 A 
ATOM     13  C   UNL A   1      32.198  28.287  25.139  1.00  0.00     0.053 A 
ATOM     14  C   UNL A   1      31.152  30.465  25.395  1.00  0.00     0.011 A 
ATOM     15  O   UNL A   1      31.427  25.626  22.837  1.00  0.00    -0.269 OA
ATOM     16  C   UNL A   1      33.001  28.586  26.253  1.00  0.00     0.027 A 
ATOM     17  C   UNL A   1      31.969  30.751  26.487  1.00  0.00     0.001 A 
ATOM     18  C   UNL A   1      32.890  29.809  26.917  1.00  0.00     0.002 A 
BRANCH   9  19
ATOM     19  C   UNL A   1      29.398  29.830  22.990  1.00  0.00     0.258 A 
ATOM     20  C   UNL A   1      28.030  32.027  20.577  1.00  0.00     0.093 C 
ATOM     21  C   UNL A   1      28.342  31.177  21.740  1.00  0.00     0.169 A 
ATOM     22  N   UNL A   1      27.496  30.990  22.755  1.00  0.00    -0.062 NA
ATOM     23  N   UNL A   1      29.525  30.498  21.854  1.00  0.00    -0.192 NA
ATOM     24  O   UNL A   1      28.174  30.098  23.576  1.00  0.00    -0.334 OA
ENDBRANCH   9  19
ENDBRANCH   7   8
ENDBRANCH   4   7
ENDBRANCH   2   3
ENDBRANCH   1   2
BRANCH   1  25
ATOM     25  C   UNL A   1      36.890  23.244  25.253  1.00  0.00     0.118 C 
BRANCH  25  26
ATOM     26  N   UNL A   1      38.060  22.410  25.498  1.00  0.00    -0.352 N 
ATOM     27  C   UNL A   1      39.264  22.716  26.088  1.00  0.00     0.251 C 
ATOM     28  H   UNL A   1      37.975  21.478  25.191  1.00  0.00     0.163 HD
ATOM     29  O   UNL A   1      40.170  21.886  26.076  1.00  0.00    -0.269 OA
BRANCH  27  30
ATOM     30  C   UNL A   1      39.487  24.043  26.704  1.00  0.00     0.039 A 
ATOM     31  C   UNL A   1      40.126  25.067  26.002  1.00  0.00     0.014 A 
ATOM     32  C   UNL A   1      39.049  24.267  28.013  1.00  0.00     0.014 A 
ATOM     33  C   UNL A   1      40.484  26.239  26.662  1.00  0.00     0.010 A 
ATOM     34  C   UNL A   1      39.336  25.478  28.650  1.00  0.00     0.010 A 
ATOM     35  C   UNL A   1      40.106  26.454  27.998  1.00  0.00    -0.014 A 
BRANCH  35  36
ATOM     36  C   UNL A   1      40.547  27.692  28.696  1.00  0.00     0.031 A 
ATOM     37  C   UNL A   1      41.980  27.857  29.133  1.00  0.00     0.074 A 
ATOM     38  C   UNL A   1      39.670  28.700  28.875  1.00  0.00     0.049 A 
ATOM     39  N   UNL A   1      42.548  28.886  29.710  1.00  0.00    -0.248 NA
ATOM     40  C   UNL A   1      42.896  26.729  28.892  1.00  0.00     0.031 C 
ATOM     41  C   UNL A   1      38.263  28.670  28.473  1.00  0.00     0.029 A 
ATOM     42  N   UNL A   1      39.839  29.958  29.402  1.00  0.00    -0.354 N 
ATOM     43  C   UNL A   1      43.876  28.527  29.911  1.00  0.00     0.074 A 
ATOM     44  C   UNL A   1      44.026  27.173  29.426  1.00  0.00     0.031 C 
ATOM     45  C   UNL A   1      37.715  29.872  28.706  1.00  0.00     0.029 A 
ATOM     46  C   UNL A   1      38.710  30.740  29.330  1.00  0.00     0.049 A 
ATOM     47  H   UNL A   1      40.687  30.268  29.794  1.00  0.00     0.167 HD
ATOM     48  C   UNL A   1      44.884  29.265  30.434  1.00  0.00     0.031 A 
ATOM     49  C   UNL A   1      38.491  32.012  29.720  1.00  0.00     0.031 A 
ATOM     50  C   UNL A   1      44.739  30.623  30.892  1.00  0.00     0.049 A 
ATOM     51  C   UNL A   1      39.613  32.795  30.339  1.00  0.00     0.074 A 
ATOM     52  C   UNL A   1      45.712  31.454  31.417  1.00  0.00     0.029 A 
ATOM     53  N   UNL A   1      43.559  31.350  30.868  1.00  0.00    -0.354 N 
ATOM     54  N   UNL A   1      40.861  32.434  30.522  1.00  0.00    -0.248 NA
ATOM     55  C   UNL A   1      39.302  34.152  30.810  1.00  0.00     0.031 C 
ATOM     56  C   UNL A   1      45.110  32.666  31.763  1.00  0.00     0.029 A 
ATOM     57  C   UNL A   1      43.775  32.612  31.393  1.00  0.00     0.049 A 
ATOM     58  H   UNL A   1      42.695  31.018  30.530  1.00  0.00     0.167 HD
ATOM     59  C   UNL A   1      41.486  33.522  31.118  1.00  0.00     0.074 A 
ATOM     60  C   UNL A   1      40.486  34.562  31.250  1.00  0.00     0.031 C 
ATOM     61  C   UNL A   1      42.774  33.642  31.523  1.00  0.00     0.031 A 
BRANCH  48  62
ATOM     62  C   UNL A   1      46.252  28.645  30.528  1.00  0.00    -0.014 A 
ATOM     63  C   UNL A   1      47.125  28.692  29.425  1.00  0.00     0.010 A 
ATOM     64  C   UNL A   1      46.624  27.904  31.663  1.00  0.00     0.010 A 
ATOM     65  C   UNL A   1      48.331  27.987  29.446  1.00  0.00     0.020 A 
ATOM     66  C   UNL A   1      47.842  27.221  31.699  1.00  0.00     0.020 A 
ATOM     67  C   UNL A   1      48.677  27.247  30.580  1.00  0.00     0.054 A 
BRANCH  67  68
ATOM     68  S   UNL A   1      50.234  26.315  30.580  1.00  0.00     0.124 S 
ATOM     69  O   UNL A   1      50.578  26.295  29.162  1.00  0.00    -0.237 OA
ATOM     70  O   UNL A   1      51.095  27.131  31.430  1.00  0.00    -0.237 OA
ATOM     71  O   UNL A   1      49.854  25.023  31.151  1.00  0.00    -0.744 OA
ENDBRANCH  67  68
ENDBRANCH  48  62
BRANCH  49  72
ATOM     72  C   UNL A   1      37.148  32.616  29.501  1.00  0.00    -0.014 A 
ATOM     73  C   UNL A   1      36.931  33.502  28.429  1.00  0.00     0.010 A 
ATOM     74  C   UNL A   1      36.107  32.382  30.416  1.00  0.00     0.010 A 
ATOM     75  C   UNL A   1      35.722  34.189  28.310  1.00  0.00     0.020 A 
ATOM     76  C   UNL A   1      34.883  33.046  30.282  1.00  0.00     0.020 A 
ATOM     77  C   UNL A   1      34.711  33.971  29.249  1.00  0.00     0.054 A 
BRANCH  77  78
ATOM     78  S   UNL A   1      33.171  34.918  29.111  1.00  0.00     0.124 S 
ATOM     79  O   UNL A   1      32.692  34.910  30.491  1.00  0.00    -0.237 OA
ATOM     80  O   UNL A   1      33.632  36.211  28.612  1.00  0.00    -0.237 OA
ATOM     81  O   UNL A   1      32.374  34.139  28.168  1.00  0.00    -0.744 OA
ENDBRANCH  77  78
ENDBRANCH  49  72
BRANCH  61  82
ATOM     82  C   UNL A   1      43.205  34.938  32.156  1.00  0.00    -0.014 A 
ATOM     83  C   UNL A   1      42.672  35.315  33.403  1.00  0.00     0.010 A 
ATOM     84  C   UNL A   1      44.019  35.842  31.454  1.00  0.00     0.010 A 
ATOM     85  C   UNL A   1      42.915  36.590  33.920  1.00  0.00     0.020 A 
ATOM     86  C   UNL A   1      44.285  37.109  31.981  1.00  0.00     0.020 A 
ATOM     87  C   UNL A   1      43.710  37.484  33.198  1.00  0.00     0.054 A 
BRANCH  87  88
ATOM     88  S   UNL A   1      43.979  39.150  33.863  1.00  0.00     0.124 S 
ATOM     89  O   UNL A   1      42.664  39.761  33.702  1.00  0.00    -0.237 OA
ATOM     90  O   UNL A   1      44.386  38.885  35.241  1.00  0.00    -0.237 OA
ATOM     91  O   UNL A   1      45.031  39.694  33.006  1.00  0.00    -0.744 OA
ENDBRANCH  87  88
ENDBRANCH  61  82
ENDBRANCH  35  36
ENDBRANCH  27  30
ENDBRANCH  25  26
ENDBRANCH   1  25
TORSDOF 15
ENDMDL
