MODEL 1
REMARK VINA RESULT:     -11.8      0.000      0.000
REMARK SMILES COc1ccc(CCNC(=O)c2cccnc2C(=O)NCCCNC(=O)c2ccc(-c3c4nc(c(-c5ccc(S(=O)(=O)[O-])cc5)c5ccc([nH]5)c(-c5ccc(S(=O)(=O)[O-])cc5)c5nc(c(-c6ccc(S(=O)(=O)[O-])cc6)c6ccc3[nH]6)C=C5)C=C4)cc2)cc1OC
REMARK SMILES IDX 21 1 20 2 18 3 19 4 17 6 12 7 13 8 14 9 16 10 15 11 10 12
REMARK SMILES IDX 9 13 11 15 8 16 7 17 6 18 3 19 4 20 88 21 5 22 87 23 2 24
REMARK SMILES IDX 1 25 89 26 90 27 22 28 23 29 24 30 25 31 26 33 27 34 28 35
REMARK SMILES IDX 86 36 29 37 85 38 30 39 31 40 32 41 79 42 33 43 84 44 78 45
REMARK SMILES IDX 80 46 34 47 83 48 77 49 76 50 35 52 65 53 46 54 64 55 47 56
REMARK SMILES IDX 50 57 63 58 81 59 48 60 49 61 62 63 82 64 51 65 36 66 37 67
REMARK SMILES IDX 45 68 38 69 44 70 39 71 40 72 41 73 42 74 43 75 66 76 67 77
REMARK SMILES IDX 75 78 68 79 74 80 69 81 70 82 71 83 72 84 73 85 52 86 53 87
REMARK SMILES IDX 61 88 54 89 60 90 55 91 56 92 57 93 58 94 59 95
REMARK H PARENT 20 5 9 14 24 32 80 51 50 62
REMARK Flexibility Score: inf
ROOT
ATOM      1  C   UNL A   1      32.901  28.290  26.522  1.00  0.00     0.118 C 
ENDROOT
BRANCH   1   2
ATOM      2  N   UNL A   1      33.412  27.756  25.288  1.00  0.00    -0.351 N 
ATOM      3  C   UNL A   1      32.796  27.448  24.096  1.00  0.00     0.270 C 
ATOM      4  O   UNL A   1      33.581  27.102  23.201  1.00  0.00    -0.267 OA
ATOM      5  H   UNL A   1      34.381  27.578  25.299  1.00  0.00     0.163 HD
BRANCH   3   6
ATOM      6  C   UNL A   1      31.302  27.411  23.797  1.00  0.00     0.140 A 
ATOM      7  C   UNL A   1      30.298  26.557  24.260  1.00  0.00     0.071 A 
ATOM      8  C   UNL A   1      28.959  26.839  23.916  1.00  0.00     0.018 A 
ATOM      9  C   UNL A   1      28.647  27.917  23.098  1.00  0.00     0.021 A 
ATOM     10  N   UNL A   1      30.976  28.461  22.965  1.00  0.00    -0.250 NA
ATOM     11  C   UNL A   1      29.688  28.694  22.646  1.00  0.00     0.112 A 
BRANCH   7  12
ATOM     12  C   UNL A   1      30.452  25.474  25.232  1.00  0.00     0.253 C 
ATOM     13  N   UNL A   1      30.689  24.179  24.820  1.00  0.00    -0.352 N 
ATOM     14  H   UNL A   1      30.730  23.519  25.549  1.00  0.00     0.163 HD
ATOM     15  O   UNL A   1      30.352  25.741  26.436  1.00  0.00    -0.269 OA
BRANCH  13  16
ATOM     16  C   UNL A   1      30.889  23.618  23.476  1.00  0.00     0.121 C 
BRANCH  16  17
ATOM     17  C   UNL A   1      32.288  23.850  22.862  1.00  0.00     0.057 C 
BRANCH  17  18
ATOM     18  C   UNL A   1      33.422  23.029  23.441  1.00  0.00    -0.042 A 
ATOM     19  C   UNL A   1      35.493  21.480  24.617  1.00  0.00     0.160 A 
ATOM     20  C   UNL A   1      35.759  22.726  24.037  1.00  0.00     0.051 A 
ATOM     21  C   UNL A   1      34.189  20.978  24.584  1.00  0.00     0.160 A 
ATOM     22  C   UNL A   1      34.738  23.492  23.457  1.00  0.00     0.008 A 
ATOM     23  C   UNL A   1      33.177  21.753  23.977  1.00  0.00     0.054 A 
BRANCH  19  24
ATOM     24  O   UNL A   1      36.498  20.935  25.371  1.00  0.00    -0.493 OA
ATOM     25  C   UNL A   1      37.767  21.561  25.198  1.00  0.00     0.278 C 
ENDBRANCH  19  24
BRANCH  21  26
ATOM     26  O   UNL A   1      33.696  19.811  25.090  1.00  0.00    -0.493 OA
ATOM     27  C   UNL A   1      34.064  18.570  24.512  1.00  0.00     0.278 C 
ENDBRANCH  21  26
ENDBRANCH  17  18
ENDBRANCH  16  17
ENDBRANCH  13  16
ENDBRANCH   7  12
ENDBRANCH   3   6
ENDBRANCH   1   2
BRANCH   1  28
ATOM     28  C   UNL A   1      33.547  29.573  27.002  1.00  0.00     0.042 C 
BRANCH  28  29
ATOM     29  C   UNL A   1      34.973  29.450  27.503  1.00  0.00     0.118 C 
BRANCH  29  30
ATOM     30  N   UNL A   1      35.201  30.070  28.807  1.00  0.00    -0.352 N 
ATOM     31  C   UNL A   1      36.300  30.145  29.630  1.00  0.00     0.251 C 
ATOM     32  H   UNL A   1      34.407  30.526  29.169  1.00  0.00     0.163 HD
ATOM     33  O   UNL A   1      36.164  30.654  30.746  1.00  0.00    -0.269 OA
BRANCH  31  34
ATOM     34  C   UNL A   1      37.619  29.588  29.247  1.00  0.00     0.039 A 
ATOM     35  C   UNL A   1      38.066  29.756  27.929  1.00  0.00     0.014 A 
ATOM     36  C   UNL A   1      38.420  28.887  30.146  1.00  0.00     0.014 A 
ATOM     37  C   UNL A   1      39.354  29.347  27.567  1.00  0.00     0.010 A 
ATOM     38  C   UNL A   1      39.736  28.570  29.818  1.00  0.00     0.010 A 
ATOM     39  C   UNL A   1      40.220  28.810  28.529  1.00  0.00    -0.014 A 
BRANCH  39  40
ATOM     40  C   UNL A   1      41.633  28.500  28.202  1.00  0.00     0.031 A 
ATOM     41  C   UNL A   1      42.707  29.525  28.411  1.00  0.00     0.074 A 
ATOM     42  C   UNL A   1      41.934  27.321  27.623  1.00  0.00     0.049 A 
ATOM     43  N   UNL A   1      43.987  29.426  28.169  1.00  0.00    -0.248 NA
ATOM     44  C   UNL A   1      42.280  30.852  28.880  1.00  0.00     0.031 C 
ATOM     45  C   UNL A   1      40.954  26.321  27.206  1.00  0.00     0.029 A 
ATOM     46  N   UNL A   1      43.142  26.750  27.306  1.00  0.00    -0.354 N 
ATOM     47  C   UNL A   1      44.506  30.699  28.370  1.00  0.00     0.074 A 
ATOM     48  C   UNL A   1      43.401  31.547  28.763  1.00  0.00     0.031 C 
ATOM     49  C   UNL A   1      41.602  25.212  26.809  1.00  0.00     0.029 A 
ATOM     50  C   UNL A   1      43.037  25.431  26.918  1.00  0.00     0.049 A 
ATOM     51  H   UNL A   1      43.999  27.233  27.352  1.00  0.00     0.167 HD
ATOM     52  C   UNL A   1      45.781  31.121  28.208  1.00  0.00     0.031 A 
ATOM     53  C   UNL A   1      43.994  24.501  26.721  1.00  0.00     0.031 A 
ATOM     54  C   UNL A   1      46.868  30.262  27.823  1.00  0.00     0.049 A 
ATOM     55  C   UNL A   1      45.432  24.944  26.761  1.00  0.00     0.074 A 
ATOM     56  C   UNL A   1      48.205  30.582  27.665  1.00  0.00     0.029 A 
ATOM     57  N   UNL A   1      46.747  28.909  27.539  1.00  0.00    -0.354 N 
ATOM     58  N   UNL A   1      45.918  26.134  27.026  1.00  0.00    -0.248 NA
ATOM     59  C   UNL A   1      46.447  23.937  26.425  1.00  0.00     0.031 C 
ATOM     60  C   UNL A   1      48.883  29.435  27.237  1.00  0.00     0.029 A 
ATOM     61  C   UNL A   1      47.980  28.385  27.190  1.00  0.00     0.049 A 
ATOM     62  H   UNL A   1      45.907  28.397  27.580  1.00  0.00     0.167 HD
ATOM     63  C   UNL A   1      47.289  26.029  26.835  1.00  0.00     0.074 A 
ATOM     64  C   UNL A   1      47.566  24.642  26.525  1.00  0.00     0.031 C 
ATOM     65  C   UNL A   1      48.230  27.005  26.859  1.00  0.00     0.031 A 
BRANCH  52  66
ATOM     66  C   UNL A   1      46.053  32.589  28.396  1.00  0.00    -0.014 A 
ATOM     67  C   UNL A   1      46.118  33.167  29.676  1.00  0.00     0.010 A 
ATOM     68  C   UNL A   1      46.271  33.401  27.268  1.00  0.00     0.010 A 
ATOM     69  C   UNL A   1      46.354  34.536  29.823  1.00  0.00     0.020 A 
ATOM     70  C   UNL A   1      46.540  34.764  27.410  1.00  0.00     0.020 A 
ATOM     71  C   UNL A   1      46.563  35.326  28.688  1.00  0.00     0.054 A 
BRANCH  71  72
ATOM     72  S   UNL A   1      46.896  37.094  28.912  1.00  0.00     0.124 S 
ATOM     73  O   UNL A   1      46.300  37.666  27.706  1.00  0.00    -0.237 OA
ATOM     74  O   UNL A   1      46.199  37.394  30.160  1.00  0.00    -0.237 OA
ATOM     75  O   UNL A   1      48.354  37.167  28.981  1.00  0.00    -0.744 OA
ENDBRANCH  71  72
ENDBRANCH  52  66
BRANCH  53  76
ATOM     76  C   UNL A   1      43.654  23.061  26.526  1.00  0.00    -0.014 A 
ATOM     77  C   UNL A   1      42.776  22.428  27.428  1.00  0.00     0.010 A 
ATOM     78  C   UNL A   1      44.185  22.310  25.464  1.00  0.00     0.010 A 
ATOM     79  C   UNL A   1      42.451  21.077  27.285  1.00  0.00     0.020 A 
ATOM     80  C   UNL A   1      43.832  20.965  25.293  1.00  0.00     0.020 A 
ATOM     81  C   UNL A   1      42.977  20.354  26.213  1.00  0.00     0.054 A 
BRANCH  81  82
ATOM     82  S   UNL A   1      42.447  18.634  25.973  1.00  0.00     0.124 S 
ATOM     83  O   UNL A   1      43.305  18.203  24.875  1.00  0.00    -0.237 OA
ATOM     84  O   UNL A   1      42.734  18.033  27.274  1.00  0.00    -0.237 OA
ATOM     85  O   UNL A   1      41.027  18.755  25.654  1.00  0.00    -0.744 OA
ENDBRANCH  81  82
ENDBRANCH  53  76
BRANCH  65  86
ATOM     86  C   UNL A   1      49.632  26.610  26.488  1.00  0.00    -0.014 A 
ATOM     87  C   UNL A   1      50.480  26.011  27.438  1.00  0.00     0.010 A 
ATOM     88  C   UNL A   1      50.093  26.790  25.172  1.00  0.00     0.010 A 
ATOM     89  C   UNL A   1      51.775  25.626  27.087  1.00  0.00     0.020 A 
ATOM     90  C   UNL A   1      51.378  26.380  24.810  1.00  0.00     0.020 A 
ATOM     91  C   UNL A   1      52.215  25.812  25.774  1.00  0.00     0.054 A 
BRANCH  91  92
ATOM     92  S   UNL A   1      53.886  25.263  25.334  1.00  0.00     0.124 S 
ATOM     93  O   UNL A   1      53.985  25.678  23.938  1.00  0.00    -0.237 OA
ATOM     94  O   UNL A   1      54.724  26.006  26.273  1.00  0.00    -0.237 OA
ATOM     95  O   UNL A   1      53.845  23.818  25.554  1.00  0.00    -0.744 OA
ENDBRANCH  91  92
ENDBRANCH  65  86
ENDBRANCH  39  40
ENDBRANCH  31  34
ENDBRANCH  29  30
ENDBRANCH  28  29
ENDBRANCH   1  28
TORSDOF 19
ENDMDL
MODEL 2
REMARK VINA RESULT:     -11.6      5.139      9.350
REMARK SMILES COc1ccc(CCNC(=O)c2cccnc2C(=O)NCCCNC(=O)c2ccc(-c3c4nc(c(-c5ccc(S(=O)(=O)[O-])cc5)c5ccc([nH]5)c(-c5ccc(S(=O)(=O)[O-])cc5)c5nc(c(-c6ccc(S(=O)(=O)[O-])cc6)c6ccc3[nH]6)C=C5)C=C4)cc2)cc1OC
REMARK SMILES IDX 21 1 20 2 18 3 19 4 17 6 12 7 13 8 14 9 16 10 15 11 10 12
REMARK SMILES IDX 9 13 11 15 8 16 7 17 6 18 3 19 4 20 88 21 5 22 87 23 2 24
REMARK SMILES IDX 1 25 89 26 90 27 22 28 23 29 24 30 25 31 26 33 27 34 28 35
REMARK SMILES IDX 86 36 29 37 85 38 30 39 31 40 32 41 79 42 33 43 84 44 78 45
REMARK SMILES IDX 80 46 34 47 83 48 77 49 76 50 35 52 65 53 46 54 64 55 47 56
REMARK SMILES IDX 50 57 63 58 81 59 48 60 49 61 62 63 82 64 51 65 36 66 37 67
REMARK SMILES IDX 45 68 38 69 44 70 39 71 40 72 41 73 42 74 43 75 66 76 67 77
REMARK SMILES IDX 75 78 68 79 74 80 69 81 70 82 71 83 72 84 73 85 52 86 53 87
REMARK SMILES IDX 61 88 54 89 60 90 55 91 56 92 57 93 58 94 59 95
REMARK H PARENT 20 5 9 14 24 32 80 51 50 62
REMARK Flexibility Score: inf
ROOT
ATOM      1  C   UNL A   1      33.265  27.017  26.452  1.00  0.00     0.118 C 
ENDROOT
BRANCH   1   2
ATOM      2  N   UNL A   1      33.655  26.658  25.116  1.00  0.00    -0.351 N 
ATOM      3  C   UNL A   1      32.971  26.688  23.921  1.00  0.00     0.270 C 
ATOM      4  O   UNL A   1      33.669  26.401  22.937  1.00  0.00    -0.267 OA
ATOM      5  H   UNL A   1      34.580  26.330  25.042  1.00  0.00     0.163 HD
BRANCH   3   6
ATOM      6  C   UNL A   1      31.486  26.946  23.700  1.00  0.00     0.140 A 
ATOM      7  C   UNL A   1      30.358  26.306  24.222  1.00  0.00     0.071 A 
ATOM      8  C   UNL A   1      29.085  26.847  23.944  1.00  0.00     0.018 A 
ATOM      9  C   UNL A   1      28.949  27.964  23.132  1.00  0.00     0.021 A 
ATOM     10  N   UNL A   1      31.329  28.040  22.875  1.00  0.00    -0.250 NA
ATOM     11  C   UNL A   1      30.097  28.522  22.620  1.00  0.00     0.112 A 
BRANCH   7  12
ATOM     12  C   UNL A   1      30.347  25.214  25.196  1.00  0.00     0.253 C 
ATOM     13  N   UNL A   1      30.605  23.916  24.809  1.00  0.00    -0.352 N 
ATOM     14  H   UNL A   1      30.528  23.250  25.530  1.00  0.00     0.163 HD
ATOM     15  O   UNL A   1      30.087  25.477  26.377  1.00  0.00    -0.269 OA
BRANCH  13  16
ATOM     16  C   UNL A   1      30.977  23.356  23.501  1.00  0.00     0.121 C 
BRANCH  16  17
ATOM     17  C   UNL A   1      32.485  23.091  23.297  1.00  0.00     0.057 C 
BRANCH  17  18
ATOM     18  C   UNL A   1      32.996  21.736  23.744  1.00  0.00    -0.042 A 
ATOM     19  C   UNL A   1      34.045  19.216  24.530  1.00  0.00     0.160 A 
ATOM     20  C   UNL A   1      32.804  19.317  23.888  1.00  0.00     0.051 A 
ATOM     21  C   UNL A   1      34.760  20.381  24.818  1.00  0.00     0.160 A 
ATOM     22  C   UNL A   1      32.286  20.560  23.498  1.00  0.00     0.008 A 
ATOM     23  C   UNL A   1      34.213  21.626  24.438  1.00  0.00     0.054 A 
BRANCH  19  24
ATOM     24  O   UNL A   1      34.570  17.955  24.638  1.00  0.00    -0.493 OA
ATOM     25  C   UNL A   1      34.123  17.045  23.637  1.00  0.00     0.278 C 
ENDBRANCH  19  24
BRANCH  21  26
ATOM     26  O   UNL A   1      35.978  20.526  25.415  1.00  0.00    -0.493 OA
ATOM     27  C   UNL A   1      36.620  21.790  25.431  1.00  0.00     0.278 C 
ENDBRANCH  21  26
ENDBRANCH  17  18
ENDBRANCH  16  17
ENDBRANCH  13  16
ENDBRANCH   7  12
ENDBRANCH   3   6
ENDBRANCH   1   2
BRANCH   1  28
ATOM     28  C   UNL A   1      32.756  28.433  26.632  1.00  0.00     0.042 C 
BRANCH  28  29
ATOM     29  C   UNL A   1      33.626  29.529  26.048  1.00  0.00     0.118 C 
BRANCH  29  30
ATOM     30  N   UNL A   1      33.451  30.832  26.685  1.00  0.00    -0.352 N 
ATOM     31  C   UNL A   1      34.184  31.526  27.619  1.00  0.00     0.251 C 
ATOM     32  H   UNL A   1      32.644  31.310  26.385  1.00  0.00     0.163 HD
ATOM     33  O   UNL A   1      33.724  32.583  28.059  1.00  0.00    -0.269 OA
BRANCH  31  34
ATOM     34  C   UNL A   1      35.471  31.021  28.153  1.00  0.00     0.039 A 
ATOM     35  C   UNL A   1      36.590  31.864  28.125  1.00  0.00     0.014 A 
ATOM     36  C   UNL A   1      35.611  29.732  28.663  1.00  0.00     0.014 A 
ATOM     37  C   UNL A   1      37.787  31.462  28.728  1.00  0.00     0.010 A 
ATOM     38  C   UNL A   1      36.766  29.368  29.351  1.00  0.00     0.010 A 
ATOM     39  C   UNL A   1      37.861  30.235  29.402  1.00  0.00    -0.014 A 
BRANCH  39  40
ATOM     40  C   UNL A   1      39.072  29.851  30.166  1.00  0.00     0.031 A 
ATOM     41  C   UNL A   1      40.048  28.862  29.602  1.00  0.00     0.074 A 
ATOM     42  C   UNL A   1      39.243  30.324  31.416  1.00  0.00     0.049 A 
ATOM     43  N   UNL A   1      41.150  28.407  30.138  1.00  0.00    -0.248 NA
ATOM     44  C   UNL A   1      39.707  28.252  28.308  1.00  0.00     0.031 C 
ATOM     45  C   UNL A   1      38.274  31.146  32.137  1.00  0.00     0.029 A 
ATOM     46  N   UNL A   1      40.293  30.207  32.293  1.00  0.00    -0.354 N 
ATOM     47  C   UNL A   1      41.587  27.395  29.293  1.00  0.00     0.074 A 
ATOM     48  C   UNL A   1      40.635  27.313  28.205  1.00  0.00     0.031 C 
ATOM     49  C   UNL A   1      38.827  31.563  33.289  1.00  0.00     0.029 A 
ATOM     50  C   UNL A   1      40.173  31.021  33.400  1.00  0.00     0.049 A 
ATOM     51  H   UNL A   1      41.057  29.604  32.147  1.00  0.00     0.167 HD
ATOM     52  C   UNL A   1      42.665  26.591  29.433  1.00  0.00     0.031 A 
ATOM     53  C   UNL A   1      41.069  31.322  34.362  1.00  0.00     0.031 A 
ATOM     54  C   UNL A   1      43.605  26.691  30.518  1.00  0.00     0.049 A 
ATOM     55  C   UNL A   1      42.370  30.567  34.380  1.00  0.00     0.074 A 
ATOM     56  C   UNL A   1      44.752  25.947  30.736  1.00  0.00     0.029 A 
ATOM     57  N   UNL A   1      43.511  27.595  31.567  1.00  0.00    -0.354 N 
ATOM     58  N   UNL A   1      42.809  29.665  33.534  1.00  0.00    -0.248 NA
ATOM     59  C   UNL A   1      43.276  30.830  35.507  1.00  0.00     0.031 C 
ATOM     60  C   UNL A   1      45.324  26.367  31.942  1.00  0.00     0.029 A 
ATOM     61  C   UNL A   1      44.569  27.416  32.443  1.00  0.00     0.049 A 
ATOM     62  H   UNL A   1      42.798  28.265  31.673  1.00  0.00     0.167 HD
ATOM     63  C   UNL A   1      44.014  29.216  34.057  1.00  0.00     0.074 A 
ATOM     64  C   UNL A   1      44.281  30.009  35.239  1.00  0.00     0.031 C 
ATOM     65  C   UNL A   1      44.802  28.199  33.629  1.00  0.00     0.031 A 
BRANCH  52  66
ATOM     66  C   UNL A   1      42.853  25.498  28.416  1.00  0.00    -0.014 A 
ATOM     67  C   UNL A   1      43.446  25.752  27.166  1.00  0.00     0.010 A 
ATOM     68  C   UNL A   1      42.445  24.188  28.726  1.00  0.00     0.010 A 
ATOM     69  C   UNL A   1      43.592  24.724  26.232  1.00  0.00     0.020 A 
ATOM     70  C   UNL A   1      42.619  23.150  27.807  1.00  0.00     0.020 A 
ATOM     71  C   UNL A   1      43.176  23.429  26.558  1.00  0.00     0.054 A 
BRANCH  71  72
ATOM     72  S   UNL A   1      43.405  22.110  25.336  1.00  0.00     0.124 S 
ATOM     73  O   UNL A   1      43.418  22.862  24.082  1.00  0.00    -0.237 OA
ATOM     74  O   UNL A   1      44.684  21.527  25.731  1.00  0.00    -0.237 OA
ATOM     75  O   UNL A   1      42.241  21.248  25.532  1.00  0.00    -0.744 OA
ENDBRANCH  71  72
ENDBRANCH  52  66
BRANCH  53  76
ATOM     76  C   UNL A   1      40.814  32.409  35.352  1.00  0.00    -0.014 A 
ATOM     77  C   UNL A   1      40.336  32.078  36.636  1.00  0.00     0.010 A 
ATOM     78  C   UNL A   1      41.034  33.762  35.044  1.00  0.00     0.010 A 
ATOM     79  C   UNL A   1      40.069  33.072  37.582  1.00  0.00     0.020 A 
ATOM     80  C   UNL A   1      40.805  34.759  36.000  1.00  0.00     0.020 A 
ATOM     81  C   UNL A   1      40.312  34.409  37.259  1.00  0.00     0.054 A 
BRANCH  81  82
ATOM     82  S   UNL A   1      40.076  35.674  38.539  1.00  0.00     0.124 S 
ATOM     83  O   UNL A   1      41.351  35.632  39.246  1.00  0.00    -0.237 OA
ATOM     84  O   UNL A   1      39.830  36.879  37.749  1.00  0.00    -0.237 OA
ATOM     85  O   UNL A   1      38.922  35.188  39.291  1.00  0.00    -0.744 OA
ENDBRANCH  81  82
ENDBRANCH  53  76
BRANCH  65  86
ATOM     86  C   UNL A   1      45.995  27.858  34.478  1.00  0.00    -0.014 A 
ATOM     87  C   UNL A   1      45.896  26.885  35.490  1.00  0.00     0.010 A 
ATOM     88  C   UNL A   1      47.236  28.472  34.233  1.00  0.00     0.010 A 
ATOM     89  C   UNL A   1      47.010  26.553  36.263  1.00  0.00     0.020 A 
ATOM     90  C   UNL A   1      48.360  28.122  34.987  1.00  0.00     0.020 A 
ATOM     91  C   UNL A   1      48.235  27.175  36.005  1.00  0.00     0.054 A 
BRANCH  91  92
ATOM     92  S   UNL A   1      49.676  26.694  36.996  1.00  0.00     0.124 S 
ATOM     93  O   UNL A   1      49.467  25.258  37.158  1.00  0.00    -0.237 OA
ATOM     94  O   UNL A   1      50.795  27.074  36.138  1.00  0.00    -0.237 OA
ATOM     95  O   UNL A   1      49.536  27.485  38.217  1.00  0.00    -0.744 OA
ENDBRANCH  91  92
ENDBRANCH  65  86
ENDBRANCH  39  40
ENDBRANCH  31  34
ENDBRANCH  29  30
ENDBRANCH  28  29
ENDBRANCH   1  28
TORSDOF 19
ENDMDL
MODEL 3
REMARK VINA RESULT:     -11.5      0.744      8.126
REMARK SMILES COc1ccc(CCNC(=O)c2cccnc2C(=O)NCCCNC(=O)c2ccc(-c3c4nc(c(-c5ccc(S(=O)(=O)[O-])cc5)c5ccc([nH]5)c(-c5ccc(S(=O)(=O)[O-])cc5)c5nc(c(-c6ccc(S(=O)(=O)[O-])cc6)c6ccc3[nH]6)C=C5)C=C4)cc2)cc1OC
REMARK SMILES IDX 21 1 20 2 18 3 19 4 17 6 12 7 13 8 14 9 16 10 15 11 10 12
REMARK SMILES IDX 9 13 11 15 8 16 7 17 6 18 3 19 4 20 88 21 5 22 87 23 2 24
REMARK SMILES IDX 1 25 89 26 90 27 22 28 23 29 24 30 25 31 26 33 27 34 28 35
REMARK SMILES IDX 86 36 29 37 85 38 30 39 31 40 32 41 79 42 33 43 84 44 78 45
REMARK SMILES IDX 80 46 34 47 83 48 77 49 76 50 35 52 65 53 46 54 64 55 47 56
REMARK SMILES IDX 50 57 63 58 81 59 48 60 49 61 62 63 82 64 51 65 36 66 37 67
REMARK SMILES IDX 45 68 38 69 44 70 39 71 40 72 41 73 42 74 43 75 66 76 67 77
REMARK SMILES IDX 75 78 68 79 74 80 69 81 70 82 71 83 72 84 73 85 52 86 53 87
REMARK SMILES IDX 61 88 54 89 60 90 55 91 56 92 57 93 58 94 59 95
REMARK H PARENT 20 5 9 14 24 32 80 51 50 62
REMARK Flexibility Score: inf
ROOT
ATOM      1  C   UNL A   1      33.001  28.504  27.088  1.00  0.00     0.118 C 
ENDROOT
BRANCH   1   2
ATOM      2  N   UNL A   1      33.572  27.542  26.185  1.00  0.00    -0.351 N 
ATOM      3  C   UNL A   1      33.137  27.047  24.976  1.00  0.00     0.270 C 
ATOM      4  O   UNL A   1      33.953  26.298  24.419  1.00  0.00    -0.267 OA
ATOM      5  H   UNL A   1      34.432  27.169  26.487  1.00  0.00     0.163 HD
BRANCH   3   6
ATOM      6  C   UNL A   1      31.779  27.251  24.316  1.00  0.00     0.140 A 
ATOM      7  C   UNL A   1      30.599  26.508  24.404  1.00  0.00     0.071 A 
ATOM      8  C   UNL A   1      29.438  27.009  23.779  1.00  0.00     0.018 A 
ATOM      9  C   UNL A   1      29.474  28.191  23.052  1.00  0.00     0.021 A 
ATOM     10  N   UNL A   1      31.803  28.409  23.568  1.00  0.00    -0.250 NA
ATOM     11  C   UNL A   1      30.678  28.851  22.973  1.00  0.00     0.112 A 
BRANCH   7  12
ATOM     12  C   UNL A   1      30.370  25.329  25.240  1.00  0.00     0.253 C 
ATOM     13  N   UNL A   1      30.445  24.058  24.709  1.00  0.00    -0.352 N 
ATOM     14  H   UNL A   1      30.229  23.336  25.343  1.00  0.00     0.163 HD
ATOM     15  O   UNL A   1      30.093  25.495  26.434  1.00  0.00    -0.269 OA
BRANCH  13  16
ATOM     16  C   UNL A   1      30.793  23.598  23.356  1.00  0.00     0.121 C 
BRANCH  16  17
ATOM     17  C   UNL A   1      32.291  23.304  23.121  1.00  0.00     0.057 C 
BRANCH  17  18
ATOM     18  C   UNL A   1      32.796  21.959  23.602  1.00  0.00    -0.042 A 
ATOM     19  C   UNL A   1      33.839  19.462  24.467  1.00  0.00     0.160 A 
ATOM     20  C   UNL A   1      32.697  19.530  23.660  1.00  0.00     0.051 A 
ATOM     21  C   UNL A   1      34.454  20.647  24.879  1.00  0.00     0.160 A 
ATOM     22  C   UNL A   1      32.181  20.762  23.232  1.00  0.00     0.008 A 
ATOM     23  C   UNL A   1      33.909  21.879  24.457  1.00  0.00     0.054 A 
BRANCH  19  24
ATOM     24  O   UNL A   1      34.401  18.222  24.617  1.00  0.00    -0.493 OA
ATOM     25  C   UNL A   1      33.821  17.211  23.797  1.00  0.00     0.278 C 
ENDBRANCH  19  24
BRANCH  21  26
ATOM     26  O   UNL A   1      35.570  20.824  25.644  1.00  0.00    -0.493 OA
ATOM     27  C   UNL A   1      36.841  20.964  25.030  1.00  0.00     0.278 C 
ENDBRANCH  21  26
ENDBRANCH  17  18
ENDBRANCH  16  17
ENDBRANCH  13  16
ENDBRANCH   7  12
ENDBRANCH   3   6
ENDBRANCH   1   2
BRANCH   1  28
ATOM     28  C   UNL A   1      33.736  29.824  27.196  1.00  0.00     0.042 C 
BRANCH  28  29
ATOM     29  C   UNL A   1      35.174  29.745  27.672  1.00  0.00     0.118 C 
BRANCH  29  30
ATOM     30  N   UNL A   1      35.340  29.972  29.106  1.00  0.00    -0.352 N 
ATOM     31  C   UNL A   1      36.389  29.773  29.972  1.00  0.00     0.251 C 
ATOM     32  H   UNL A   1      34.537  30.344  29.540  1.00  0.00     0.163 HD
ATOM     33  O   UNL A   1      36.199  29.961  31.177  1.00  0.00    -0.269 OA
BRANCH  31  34
ATOM     34  C   UNL A   1      37.714  29.289  29.517  1.00  0.00     0.039 A 
ATOM     35  C   UNL A   1      38.159  29.646  28.237  1.00  0.00     0.014 A 
ATOM     36  C   UNL A   1      38.521  28.476  30.310  1.00  0.00     0.014 A 
ATOM     37  C   UNL A   1      39.452  29.305  27.824  1.00  0.00     0.010 A 
ATOM     38  C   UNL A   1      39.841  28.221  29.943  1.00  0.00     0.010 A 
ATOM     39  C   UNL A   1      40.323  28.646  28.702  1.00  0.00    -0.014 A 
BRANCH  39  40
ATOM     40  C   UNL A   1      41.739  28.399  28.337  1.00  0.00     0.031 A 
ATOM     41  C   UNL A   1      42.159  27.085  27.752  1.00  0.00     0.074 A 
ATOM     42  C   UNL A   1      42.668  29.333  28.625  1.00  0.00     0.049 A 
ATOM     43  N   UNL A   1      43.353  26.698  27.387  1.00  0.00    -0.248 NA
ATOM     44  C   UNL A   1      41.123  26.048  27.630  1.00  0.00     0.031 C 
ATOM     45  C   UNL A   1      42.409  30.572  29.355  1.00  0.00     0.029 A 
ATOM     46  N   UNL A   1      44.005  29.403  28.321  1.00  0.00    -0.354 N 
ATOM     47  C   UNL A   1      43.231  25.349  27.078  1.00  0.00     0.074 A 
ATOM     48  C   UNL A   1      41.844  24.991  27.288  1.00  0.00     0.031 C 
ATOM     49  C   UNL A   1      43.516  31.333  29.331  1.00  0.00     0.029 A 
ATOM     50  C   UNL A   1      44.566  30.630  28.609  1.00  0.00     0.049 A 
ATOM     51  H   UNL A   1      44.514  28.654  27.936  1.00  0.00     0.167 HD
ATOM     52  C   UNL A   1      44.196  24.487  26.685  1.00  0.00     0.031 A 
ATOM     53  C   UNL A   1      45.774  31.134  28.282  1.00  0.00     0.031 A 
ATOM     54  C   UNL A   1      45.569  24.862  26.473  1.00  0.00     0.049 A 
ATOM     55  C   UNL A   1      46.776  30.214  27.640  1.00  0.00     0.074 A 
ATOM     56  C   UNL A   1      46.621  24.073  26.042  1.00  0.00     0.029 A 
ATOM     57  N   UNL A   1      46.082  26.136  26.673  1.00  0.00    -0.354 N 
ATOM     58  N   UNL A   1      46.629  28.961  27.281  1.00  0.00    -0.248 NA
ATOM     59  C   UNL A   1      48.121  30.757  27.405  1.00  0.00     0.031 C 
ATOM     60  C   UNL A   1      47.780  24.857  26.029  1.00  0.00     0.029 A 
ATOM     61  C   UNL A   1      47.438  26.150  26.390  1.00  0.00     0.049 A 
ATOM     62  H   UNL A   1      45.560  26.915  26.972  1.00  0.00     0.167 HD
ATOM     63  C   UNL A   1      47.876  28.552  26.829  1.00  0.00     0.074 A 
ATOM     64  C   UNL A   1      48.740  29.713  26.871  1.00  0.00     0.031 C 
ATOM     65  C   UNL A   1      48.287  27.312  26.465  1.00  0.00     0.031 A 
BRANCH  52  66
ATOM     66  C   UNL A   1      43.809  23.044  26.512  1.00  0.00    -0.014 A 
ATOM     67  C   UNL A   1      44.128  22.331  25.343  1.00  0.00     0.010 A 
ATOM     68  C   UNL A   1      43.129  22.381  27.551  1.00  0.00     0.010 A 
ATOM     69  C   UNL A   1      43.741  20.997  25.200  1.00  0.00     0.020 A 
ATOM     70  C   UNL A   1      42.768  21.038  27.426  1.00  0.00     0.020 A 
ATOM     71  C   UNL A   1      43.062  20.359  26.242  1.00  0.00     0.054 A 
BRANCH  71  72
ATOM     72  S   UNL A   1      42.598  18.618  26.039  1.00  0.00     0.124 S 
ATOM     73  O   UNL A   1      41.184  18.724  25.685  1.00  0.00    -0.237 OA
ATOM     74  O   UNL A   1      43.482  18.176  24.963  1.00  0.00    -0.237 OA
ATOM     75  O   UNL A   1      42.869  18.030  27.348  1.00  0.00    -0.744 OA
ENDBRANCH  71  72
ENDBRANCH  52  66
BRANCH  53  76
ATOM     76  C   UNL A   1      46.100  32.575  28.494  1.00  0.00    -0.014 A 
ATOM     77  C   UNL A   1      45.773  33.514  27.495  1.00  0.00     0.010 A 
ATOM     78  C   UNL A   1      46.727  33.030  29.666  1.00  0.00     0.010 A 
ATOM     79  C   UNL A   1      46.081  34.867  27.652  1.00  0.00     0.020 A 
ATOM     80  C   UNL A   1      47.003  34.392  29.847  1.00  0.00     0.020 A 
ATOM     81  C   UNL A   1      46.689  35.300  28.832  1.00  0.00     0.054 A 
BRANCH  81  82
ATOM     82  S   UNL A   1      46.970  37.077  29.071  1.00  0.00     0.124 S 
ATOM     83  O   UNL A   1      48.315  37.247  28.533  1.00  0.00    -0.237 OA
ATOM     84  O   UNL A   1      45.894  37.675  28.284  1.00  0.00    -0.237 OA
ATOM     85  O   UNL A   1      46.843  37.253  30.516  1.00  0.00    -0.744 OA
ENDBRANCH  81  82
ENDBRANCH  53  76
BRANCH  65  86
ATOM     86  C   UNL A   1      49.744  27.145  26.137  1.00  0.00    -0.014 A 
ATOM     87  C   UNL A   1      50.206  27.334  24.821  1.00  0.00     0.010 A 
ATOM     88  C   UNL A   1      50.668  26.847  27.153  1.00  0.00     0.010 A 
ATOM     89  C   UNL A   1      51.563  27.199  24.521  1.00  0.00     0.020 A 
ATOM     90  C   UNL A   1      52.031  26.738  26.862  1.00  0.00     0.020 A 
ATOM     91  C   UNL A   1      52.466  26.902  25.546  1.00  0.00     0.054 A 
BRANCH  91  92
ATOM     92  S   UNL A   1      54.228  26.775  25.136  1.00  0.00     0.124 S 
ATOM     93  O   UNL A   1      54.813  27.810  25.983  1.00  0.00    -0.237 OA
ATOM     94  O   UNL A   1      54.545  25.399  25.513  1.00  0.00    -0.237 OA
ATOM     95  O   UNL A   1      54.270  27.047  23.701  1.00  0.00    -0.744 OA
ENDBRANCH  91  92
ENDBRANCH  65  86
ENDBRANCH  39  40
ENDBRANCH  31  34
ENDBRANCH  29  30
ENDBRANCH  28  29
ENDBRANCH   1  28
TORSDOF 19
ENDMDL
