MODEL 1
REMARK VINA RESULT:     -11.1      0.000      0.000
REMARK SMILES CC(C)(C[NH2+]Cc1ccc2c(c1)OCO2)C(=O)NCCCNC(=O)c1ccc(-c2c3nc(c(-c4ccc(S(=O)(=O)[O-])cc4)c4ccc([nH]4)c(-c4ccc(S(=O)(=O)[O-])cc4)c4nc(c(-c5ccc(S(=O)(=O)[O-])cc5)c5ccc2[nH]5)C=C4)C=C3)cc1
REMARK SMILES IDX 19 1 18 2 16 3 17 4 2 6 1 7 3 8 4 9 5 10 6 13 7 14 8 15
REMARK SMILES IDX 12 16 9 17 11 18 10 19 13 20 15 21 14 22 20 23 21 24 22 25
REMARK SMILES IDX 23 26 24 28 25 29 26 30 84 31 27 32 83 33 28 34 29 35 30 36
REMARK SMILES IDX 77 37 31 38 82 39 76 40 78 41 32 42 81 43 75 44 74 45 33 47
REMARK SMILES IDX 63 48 44 49 62 50 45 51 48 52 61 53 79 54 46 55 47 56 60 58
REMARK SMILES IDX 80 59 49 60 34 61 35 62 43 63 36 64 42 65 37 66 38 67 39 68
REMARK SMILES IDX 40 69 41 70 64 71 65 72 73 73 66 74 72 75 67 76 68 77 69 78
REMARK SMILES IDX 70 79 71 80 50 81 51 82 59 83 52 84 58 85 53 86 54 87 55 88
REMARK SMILES IDX 56 89 57 90
REMARK H PARENT 18 5 5 11 5 12 22 27 78 46 48 57
REMARK Flexibility Score: inf
ROOT
ATOM      1  C   UNL A   1      33.772  29.926  26.918  1.00  0.00     0.117 C 
ENDROOT
BRANCH   1   2
ATOM      2  N   UNL A   1      32.723  29.239  27.648  1.00  0.00    -0.355 N 
ATOM      3  C   UNL A   1      31.895  28.210  27.324  1.00  0.00     0.231 C 
ATOM      4  O   UNL A   1      31.117  27.847  28.214  1.00  0.00    -0.274 OA
ATOM      5  H   UNL A   1      32.582  29.586  28.558  1.00  0.00     0.163 HD
BRANCH   3   6
ATOM      6  C   UNL A   1      31.949  27.483  25.967  1.00  0.00     0.092 C 
ATOM      7  C   UNL A   1      33.398  26.985  25.726  1.00  0.00     0.027 C 
ATOM      8  C   UNL A   1      31.656  28.480  24.827  1.00  0.00     0.027 C 
BRANCH   6   9
ATOM      9  C   UNL A   1      30.983  26.274  25.899  1.00  0.00     0.277 C 
BRANCH   9  10
ATOM     10  N   UNL A   1      31.298  25.190  26.842  1.00  0.00    -0.342 N 
ATOM     11  H   UNL A   1      30.855  25.399  27.736  1.00  0.00     0.346 HD
ATOM     12  H   UNL A   1      32.314  25.142  26.919  1.00  0.00     0.346 HD
BRANCH  10  13
ATOM     13  C   UNL A   1      30.833  23.871  26.387  1.00  0.00     0.297 C 
BRANCH  13  14
ATOM     14  C   UNL A   1      31.967  22.912  26.106  1.00  0.00     0.010 A 
ATOM     15  C   UNL A   1      31.718  21.732  25.365  1.00  0.00     0.013 A 
ATOM     16  C   UNL A   1      33.283  23.246  26.463  1.00  0.00     0.060 A 
ATOM     17  C   UNL A   1      32.768  20.914  24.942  1.00  0.00     0.051 A 
ATOM     18  C   UNL A   1      34.298  22.424  26.022  1.00  0.00     0.166 A 
ATOM     19  C   UNL A   1      34.048  21.297  25.275  1.00  0.00     0.165 A 
ATOM     20  O   UNL A   1      35.627  22.631  26.221  1.00  0.00    -0.454 OA
ATOM     21  O   UNL A   1      35.189  20.656  24.907  1.00  0.00    -0.454 OA
ATOM     22  C   UNL A   1      36.184  21.508  25.508  1.00  0.00     0.468 C 
ENDBRANCH  13  14
ENDBRANCH  10  13
ENDBRANCH   9  10
ENDBRANCH   6   9
ENDBRANCH   3   6
ENDBRANCH   1   2
BRANCH   1  23
ATOM     23  C   UNL A   1      34.158  31.254  27.557  1.00  0.00     0.042 C 
BRANCH  23  24
ATOM     24  C   UNL A   1      35.529  31.245  28.220  1.00  0.00     0.118 C 
BRANCH  24  25
ATOM     25  N   UNL A   1      35.451  31.071  29.666  1.00  0.00    -0.352 N 
ATOM     26  C   UNL A   1      36.350  30.532  30.548  1.00  0.00     0.251 C 
ATOM     27  H   UNL A   1      34.615  31.394  30.075  1.00  0.00     0.163 HD
ATOM     28  O   UNL A   1      35.989  30.288  31.702  1.00  0.00    -0.269 OA
BRANCH  26  29
ATOM     29  C   UNL A   1      37.735  30.231  30.130  1.00  0.00     0.039 A 
ATOM     30  C   UNL A   1      38.700  29.981  31.110  1.00  0.00     0.014 A 
ATOM     31  C   UNL A   1      38.095  30.223  28.781  1.00  0.00     0.014 A 
ATOM     32  C   UNL A   1      40.006  29.658  30.732  1.00  0.00     0.010 A 
ATOM     33  C   UNL A   1      39.371  29.812  28.403  1.00  0.00     0.010 A 
ATOM     34  C   UNL A   1      40.342  29.534  29.375  1.00  0.00    -0.014 A 
BRANCH  34  35
ATOM     35  C   UNL A   1      41.702  29.112  28.951  1.00  0.00     0.031 A 
ATOM     36  C   UNL A   1      42.824  30.114  28.888  1.00  0.00     0.074 A 
ATOM     37  C   UNL A   1      41.909  27.842  28.551  1.00  0.00     0.049 A 
ATOM     38  N   UNL A   1      44.060  29.944  28.493  1.00  0.00    -0.248 NA
ATOM     39  C   UNL A   1      42.509  31.493  29.294  1.00  0.00     0.031 C 
ATOM     40  C   UNL A   1      40.891  26.790  28.513  1.00  0.00     0.029 A 
ATOM     41  N   UNL A   1      43.043  27.222  28.089  1.00  0.00    -0.354 N 
ATOM     42  C   UNL A   1      44.661  31.194  28.579  1.00  0.00     0.074 A 
ATOM     43  C   UNL A   1      43.640  32.123  29.015  1.00  0.00     0.031 C 
ATOM     44  C   UNL A   1      41.451  25.650  28.080  1.00  0.00     0.029 A 
ATOM     45  C   UNL A   1      42.855  25.899  27.767  1.00  0.00     0.049 A 
ATOM     46  H   UNL A   1      43.909  27.681  27.997  1.00  0.00     0.167 HD
ATOM     47  C   UNL A   1      45.949  31.538  28.336  1.00  0.00     0.031 A 
ATOM     48  C   UNL A   1      43.711  24.987  27.267  1.00  0.00     0.031 A 
ATOM     49  C   UNL A   1      46.961  30.608  27.909  1.00  0.00     0.049 A 
ATOM     50  C   UNL A   1      45.137  25.385  27.009  1.00  0.00     0.074 A 
ATOM     51  C   UNL A   1      48.309  30.839  27.703  1.00  0.00     0.029 A 
ATOM     52  N   UNL A   1      46.734  29.272  27.611  1.00  0.00    -0.354 N 
ATOM     53  N   UNL A   1      45.708  26.554  27.176  1.00  0.00    -0.248 NA
ATOM     54  C   UNL A   1      46.038  24.338  26.510  1.00  0.00     0.031 C 
ATOM     55  C   UNL A   1      48.886  29.658  27.222  1.00  0.00     0.029 A 
ATOM     56  C   UNL A   1      47.912  28.673  27.194  1.00  0.00     0.049 A 
ATOM     57  H   UNL A   1      45.866  28.816  27.688  1.00  0.00     0.167 HD
ATOM     58  C   UNL A   1      47.040  26.380  26.822  1.00  0.00     0.074 A 
ATOM     59  C   UNL A   1      47.193  24.987  26.449  1.00  0.00     0.031 C 
ATOM     60  C   UNL A   1      48.047  27.289  26.811  1.00  0.00     0.031 A 
BRANCH  47  61
ATOM     61  C   UNL A   1      46.324  32.988  28.508  1.00  0.00    -0.014 A 
ATOM     62  C   UNL A   1      46.227  33.901  27.440  1.00  0.00     0.010 A 
ATOM     63  C   UNL A   1      46.769  33.450  29.760  1.00  0.00     0.010 A 
ATOM     64  C   UNL A   1      46.627  35.231  27.605  1.00  0.00     0.020 A 
ATOM     65  C   UNL A   1      47.137  34.786  29.939  1.00  0.00     0.020 A 
ATOM     66  C   UNL A   1      47.087  35.662  28.853  1.00  0.00     0.054 A 
BRANCH  66  67
ATOM     67  S   UNL A   1      47.605  37.391  29.038  1.00  0.00     0.124 S 
ATOM     68  O   UNL A   1      46.438  38.109  28.531  1.00  0.00    -0.237 OA
ATOM     69  O   UNL A   1      47.834  37.504  30.476  1.00  0.00    -0.237 OA
ATOM     70  O   UNL A   1      48.803  37.486  28.208  1.00  0.00    -0.744 OA
ENDBRANCH  66  67
ENDBRANCH  47  61
BRANCH  48  71
ATOM     71  C   UNL A   1      43.233  23.602  27.003  1.00  0.00    -0.014 A 
ATOM     72  C   UNL A   1      42.958  23.178  25.692  1.00  0.00     0.010 A 
ATOM     73  C   UNL A   1      43.103  22.683  28.062  1.00  0.00     0.010 A 
ATOM     74  C   UNL A   1      42.562  21.860  25.444  1.00  0.00     0.020 A 
ATOM     75  C   UNL A   1      42.734  21.359  27.813  1.00  0.00     0.020 A 
ATOM     76  C   UNL A   1      42.461  20.956  26.505  1.00  0.00     0.054 A 
BRANCH  76  77
ATOM     77  S   UNL A   1      42.033  19.229  26.145  1.00  0.00     0.124 S 
ATOM     78  O   UNL A   1      40.600  19.318  25.891  1.00  0.00    -0.237 OA
ATOM     79  O   UNL A   1      42.867  18.935  24.983  1.00  0.00    -0.237 OA
ATOM     80  O   UNL A   1      42.412  18.522  27.367  1.00  0.00    -0.744 OA
ENDBRANCH  76  77
ENDBRANCH  48  71
BRANCH  60  81
ATOM     81  C   UNL A   1      49.414  26.804  26.403  1.00  0.00    -0.014 A 
ATOM     82  C   UNL A   1      50.236  26.100  27.300  1.00  0.00     0.010 A 
ATOM     83  C   UNL A   1      49.858  27.011  25.084  1.00  0.00     0.010 A 
ATOM     84  C   UNL A   1      51.493  25.642  26.895  1.00  0.00     0.020 A 
ATOM     85  C   UNL A   1      51.100  26.528  24.667  1.00  0.00     0.020 A 
ATOM     86  C   UNL A   1      51.917  25.858  25.580  1.00  0.00     0.054 A 
BRANCH  86  87
ATOM     87  S   UNL A   1      53.534  25.218  25.067  1.00  0.00     0.124 S 
ATOM     88  O   UNL A   1      53.394  23.790  25.334  1.00  0.00    -0.237 OA
ATOM     89  O   UNL A   1      53.592  25.590  23.654  1.00  0.00    -0.237 OA
ATOM     90  O   UNL A   1      54.478  25.924  25.930  1.00  0.00    -0.744 OA
ENDBRANCH  86  87
ENDBRANCH  60  81
ENDBRANCH  34  35
ENDBRANCH  26  29
ENDBRANCH  24  25
ENDBRANCH  23  24
ENDBRANCH   1  23
TORSDOF 17
ENDMDL
MODEL 2
REMARK VINA RESULT:     -11.0      4.482      7.139
REMARK SMILES CC(C)(C[NH2+]Cc1ccc2c(c1)OCO2)C(=O)NCCCNC(=O)c1ccc(-c2c3nc(c(-c4ccc(S(=O)(=O)[O-])cc4)c4ccc([nH]4)c(-c4ccc(S(=O)(=O)[O-])cc4)c4nc(c(-c5ccc(S(=O)(=O)[O-])cc5)c5ccc2[nH]5)C=C4)C=C3)cc1
REMARK SMILES IDX 19 1 18 2 16 3 17 4 2 6 1 7 3 8 4 9 5 10 6 13 7 14 8 15
REMARK SMILES IDX 12 16 9 17 11 18 10 19 13 20 15 21 14 22 20 23 21 24 22 25
REMARK SMILES IDX 23 26 24 28 25 29 26 30 84 31 27 32 83 33 28 34 29 35 30 36
REMARK SMILES IDX 77 37 31 38 82 39 76 40 78 41 32 42 81 43 75 44 74 45 33 47
REMARK SMILES IDX 63 48 44 49 62 50 45 51 48 52 61 53 79 54 46 55 47 56 60 58
REMARK SMILES IDX 80 59 49 60 34 61 35 62 43 63 36 64 42 65 37 66 38 67 39 68
REMARK SMILES IDX 40 69 41 70 64 71 65 72 73 73 66 74 72 75 67 76 68 77 69 78
REMARK SMILES IDX 70 79 71 80 50 81 51 82 59 83 52 84 58 85 53 86 54 87 55 88
REMARK SMILES IDX 56 89 57 90
REMARK H PARENT 18 5 5 11 5 12 22 27 78 46 48 57
REMARK Flexibility Score: inf
ROOT
ATOM      1  C   UNL A   1      35.815  34.175  30.291  1.00  0.00     0.117 C 
ENDROOT
BRANCH   1   2
ATOM      2  N   UNL A   1      35.516  34.782  31.574  1.00  0.00    -0.355 N 
ATOM      3  C   UNL A   1      36.040  34.617  32.819  1.00  0.00     0.231 C 
ATOM      4  O   UNL A   1      35.554  35.332  33.703  1.00  0.00    -0.274 OA
ATOM      5  H   UNL A   1      34.790  35.446  31.537  1.00  0.00     0.163 HD
BRANCH   3   6
ATOM      6  C   UNL A   1      37.207  33.657  33.118  1.00  0.00     0.092 C 
ATOM      7  C   UNL A   1      38.467  34.154  32.362  1.00  0.00     0.027 C 
ATOM      8  C   UNL A   1      36.897  32.261  32.541  1.00  0.00     0.027 C 
BRANCH   6   9
ATOM      9  C   UNL A   1      37.530  33.566  34.630  1.00  0.00     0.277 C 
BRANCH   9  10
ATOM     10  N   UNL A   1      37.891  32.218  35.095  1.00  0.00    -0.342 N 
ATOM     11  H   UNL A   1      37.821  31.574  34.306  1.00  0.00     0.346 HD
ATOM     12  H   UNL A   1      37.247  31.975  35.847  1.00  0.00     0.346 HD
BRANCH  10  13
ATOM     13  C   UNL A   1      39.253  32.138  35.644  1.00  0.00     0.297 C 
BRANCH  13  14
ATOM     14  C   UNL A   1      39.993  30.897  35.202  1.00  0.00     0.010 A 
ATOM     15  C   UNL A   1      39.496  30.135  34.117  1.00  0.00     0.013 A 
ATOM     16  C   UNL A   1      41.233  30.568  35.774  1.00  0.00     0.060 A 
ATOM     17  C   UNL A   1      40.242  29.086  33.574  1.00  0.00     0.051 A 
ATOM     18  C   UNL A   1      41.949  29.534  35.209  1.00  0.00     0.166 A 
ATOM     19  C   UNL A   1      41.472  28.821  34.134  1.00  0.00     0.165 A 
ATOM     20  O   UNL A   1      43.188  29.126  35.595  1.00  0.00    -0.454 OA
ATOM     21  O   UNL A   1      42.352  27.878  33.706  1.00  0.00    -0.454 OA
ATOM     22  C   UNL A   1      43.436  28.078  34.634  1.00  0.00     0.468 C 
ENDBRANCH  13  14
ENDBRANCH  10  13
ENDBRANCH   9  10
ENDBRANCH   6   9
ENDBRANCH   3   6
ENDBRANCH   1   2
BRANCH   1  23
ATOM     23  C   UNL A   1      34.574  33.634  29.594  1.00  0.00     0.042 C 
BRANCH  23  24
ATOM     24  C   UNL A   1      34.839  33.092  28.195  1.00  0.00     0.118 C 
BRANCH  24  25
ATOM     25  N   UNL A   1      33.997  31.946  27.871  1.00  0.00    -0.352 N 
ATOM     26  C   UNL A   1      34.316  30.621  27.721  1.00  0.00     0.251 C 
ATOM     27  H   UNL A   1      33.045  32.157  27.738  1.00  0.00     0.163 HD
ATOM     28  O   UNL A   1      33.484  29.853  27.233  1.00  0.00    -0.269 OA
BRANCH  26  29
ATOM     29  C   UNL A   1      35.643  30.111  28.123  1.00  0.00     0.039 A 
ATOM     30  C   UNL A   1      36.669  30.066  27.174  1.00  0.00     0.014 A 
ATOM     31  C   UNL A   1      35.875  29.648  29.420  1.00  0.00     0.014 A 
ATOM     32  C   UNL A   1      37.940  29.621  27.546  1.00  0.00     0.010 A 
ATOM     33  C   UNL A   1      37.163  29.293  29.813  1.00  0.00     0.010 A 
ATOM     34  C   UNL A   1      38.207  29.267  28.878  1.00  0.00    -0.014 A 
BRANCH  34  35
ATOM     35  C   UNL A   1      39.571  28.870  29.314  1.00  0.00     0.031 A 
ATOM     36  C   UNL A   1      40.433  29.832  30.085  1.00  0.00     0.074 A 
ATOM     37  C   UNL A   1      40.060  27.667  28.951  1.00  0.00     0.049 A 
ATOM     38  N   UNL A   1      41.664  29.683  30.504  1.00  0.00    -0.248 NA
ATOM     39  C   UNL A   1      39.847  31.145  30.401  1.00  0.00     0.031 C 
ATOM     40  C   UNL A   1      39.344  26.666  28.157  1.00  0.00     0.029 A 
ATOM     41  N   UNL A   1      41.280  27.087  29.193  1.00  0.00    -0.354 N 
ATOM     42  C   UNL A   1      42.007  30.887  31.109  1.00  0.00     0.074 A 
ATOM     43  C   UNL A   1      40.872  31.773  30.958  1.00  0.00     0.031 C 
ATOM     44  C   UNL A   1      40.125  25.587  28.002  1.00  0.00     0.029 A 
ATOM     45  C   UNL A   1      41.412  25.834  28.644  1.00  0.00     0.049 A 
ATOM     46  H   UNL A   1      41.992  27.527  29.711  1.00  0.00     0.167 HD
ATOM     47  C   UNL A   1      43.153  31.221  31.749  1.00  0.00     0.031 A 
ATOM     48  C   UNL A   1      42.454  24.979  28.648  1.00  0.00     0.031 A 
ATOM     49  C   UNL A   1      44.275  30.334  31.901  1.00  0.00     0.049 A 
ATOM     50  C   UNL A   1      43.715  25.365  29.367  1.00  0.00     0.074 A 
ATOM     51  C   UNL A   1      45.455  30.549  32.591  1.00  0.00     0.029 A 
ATOM     52  N   UNL A   1      44.363  29.065  31.346  1.00  0.00    -0.354 N 
ATOM     53  N   UNL A   1      43.991  26.478  30.006  1.00  0.00    -0.248 NA
ATOM     54  C   UNL A   1      44.801  24.377  29.380  1.00  0.00     0.031 C 
ATOM     55  C   UNL A   1      46.281  29.436  32.403  1.00  0.00     0.029 A 
ATOM     56  C   UNL A   1      45.590  28.498  31.652  1.00  0.00     0.049 A 
ATOM     57  H   UNL A   1      43.658  28.631  30.815  1.00  0.00     0.167 HD
ATOM     58  C   UNL A   1      45.274  26.315  30.515  1.00  0.00     0.074 A 
ATOM     59  C   UNL A   1      45.712  24.990  30.124  1.00  0.00     0.031 C 
ATOM     60  C   UNL A   1      46.020  27.183  31.243  1.00  0.00     0.031 A 
BRANCH  47  61
ATOM     61  C   UNL A   1      43.252  32.617  32.312  1.00  0.00    -0.014 A 
ATOM     62  C   UNL A   1      42.846  32.906  33.628  1.00  0.00     0.010 A 
ATOM     63  C   UNL A   1      43.771  33.654  31.516  1.00  0.00     0.010 A 
ATOM     64  C   UNL A   1      42.899  34.216  34.115  1.00  0.00     0.020 A 
ATOM     65  C   UNL A   1      43.858  34.959  32.010  1.00  0.00     0.020 A 
ATOM     66  C   UNL A   1      43.397  35.235  33.299  1.00  0.00     0.054 A 
BRANCH  66  67
ATOM     67  S   UNL A   1      43.449  36.927  33.954  1.00  0.00     0.124 S 
ATOM     68  O   UNL A   1      43.595  37.715  32.733  1.00  0.00    -0.237 OA
ATOM     69  O   UNL A   1      42.160  37.048  34.628  1.00  0.00    -0.237 OA
ATOM     70  O   UNL A   1      44.614  36.922  34.836  1.00  0.00    -0.744 OA
ENDBRANCH  66  67
ENDBRANCH  47  61
BRANCH  48  71
ATOM     71  C   UNL A   1      42.325  23.666  27.960  1.00  0.00    -0.014 A 
ATOM     72  C   UNL A   1      43.063  23.393  26.795  1.00  0.00     0.010 A 
ATOM     73  C   UNL A   1      41.501  22.660  28.499  1.00  0.00     0.010 A 
ATOM     74  C   UNL A   1      42.981  22.138  26.184  1.00  0.00     0.020 A 
ATOM     75  C   UNL A   1      41.438  21.397  27.906  1.00  0.00     0.020 A 
ATOM     76  C   UNL A   1      42.175  21.145  26.748  1.00  0.00     0.054 A 
BRANCH  76  77
ATOM     77  S   UNL A   1      42.155  19.498  25.986  1.00  0.00     0.124 S 
ATOM     78  O   UNL A   1      43.032  19.684  24.836  1.00  0.00    -0.237 OA
ATOM     79  O   UNL A   1      42.680  18.651  27.054  1.00  0.00    -0.237 OA
ATOM     80  O   UNL A   1      40.743  19.284  25.672  1.00  0.00    -0.744 OA
ENDBRANCH  76  77
ENDBRANCH  48  71
BRANCH  60  81
ATOM     81  C   UNL A   1      47.382  26.721  31.688  1.00  0.00    -0.014 A 
ATOM     82  C   UNL A   1      47.551  25.971  32.866  1.00  0.00     0.010 A 
ATOM     83  C   UNL A   1      48.504  26.995  30.885  1.00  0.00     0.010 A 
ATOM     84  C   UNL A   1      48.823  25.535  33.250  1.00  0.00     0.020 A 
ATOM     85  C   UNL A   1      49.772  26.535  31.249  1.00  0.00     0.020 A 
ATOM     86  C   UNL A   1      49.925  25.820  32.438  1.00  0.00     0.054 A 
BRANCH  86  87
ATOM     87  S   UNL A   1      51.558  25.208  32.936  1.00  0.00     0.124 S 
ATOM     88  O   UNL A   1      51.230  23.913  33.525  1.00  0.00    -0.237 OA
ATOM     89  O   UNL A   1      52.281  25.156  31.667  1.00  0.00    -0.237 OA
ATOM     90  O   UNL A   1      52.035  26.218  33.878  1.00  0.00    -0.744 OA
ENDBRANCH  86  87
ENDBRANCH  60  81
ENDBRANCH  34  35
ENDBRANCH  26  29
ENDBRANCH  24  25
ENDBRANCH  23  24
ENDBRANCH   1  23
TORSDOF 17
ENDMDL
MODEL 3
REMARK VINA RESULT:     -10.9      3.044      3.850
REMARK SMILES CC(C)(C[NH2+]Cc1ccc2c(c1)OCO2)C(=O)NCCCNC(=O)c1ccc(-c2c3nc(c(-c4ccc(S(=O)(=O)[O-])cc4)c4ccc([nH]4)c(-c4ccc(S(=O)(=O)[O-])cc4)c4nc(c(-c5ccc(S(=O)(=O)[O-])cc5)c5ccc2[nH]5)C=C4)C=C3)cc1
REMARK SMILES IDX 19 1 18 2 16 3 17 4 2 6 1 7 3 8 4 9 5 10 6 13 7 14 8 15
REMARK SMILES IDX 12 16 9 17 11 18 10 19 13 20 15 21 14 22 20 23 21 24 22 25
REMARK SMILES IDX 23 26 24 28 25 29 26 30 84 31 27 32 83 33 28 34 29 35 30 36
REMARK SMILES IDX 77 37 31 38 82 39 76 40 78 41 32 42 81 43 75 44 74 45 33 47
REMARK SMILES IDX 63 48 44 49 62 50 45 51 48 52 61 53 79 54 46 55 47 56 60 58
REMARK SMILES IDX 80 59 49 60 34 61 35 62 43 63 36 64 42 65 37 66 38 67 39 68
REMARK SMILES IDX 40 69 41 70 64 71 65 72 73 73 66 74 72 75 67 76 68 77 69 78
REMARK SMILES IDX 70 79 71 80 50 81 51 82 59 83 52 84 58 85 53 86 54 87 55 88
REMARK SMILES IDX 56 89 57 90
REMARK H PARENT 18 5 5 11 5 12 22 27 78 46 48 57
REMARK Flexibility Score: inf
ROOT
ATOM      1  C   UNL A   1      31.718  27.696  26.430  1.00  0.00     0.117 C 
ENDROOT
BRANCH   1   2
ATOM      2  N   UNL A   1      31.109  26.385  26.561  1.00  0.00    -0.355 N 
ATOM      3  C   UNL A   1      30.625  25.498  25.651  1.00  0.00     0.231 C 
ATOM      4  O   UNL A   1      30.190  24.438  26.116  1.00  0.00    -0.274 OA
ATOM      5  H   UNL A   1      31.032  26.076  27.492  1.00  0.00     0.163 HD
BRANCH   3   6
ATOM      6  C   UNL A   1      30.666  25.745  24.131  1.00  0.00     0.092 C 
ATOM      7  C   UNL A   1      32.089  26.226  23.744  1.00  0.00     0.027 C 
ATOM      8  C   UNL A   1      29.718  26.906  23.764  1.00  0.00     0.027 C 
BRANCH   6   9
ATOM      9  C   UNL A   1      30.322  24.477  23.311  1.00  0.00     0.277 C 
BRANCH   9  10
ATOM     10  N   UNL A   1      31.493  23.758  22.784  1.00  0.00    -0.342 N 
ATOM     11  H   UNL A   1      32.286  24.399  22.768  1.00  0.00     0.346 HD
ATOM     12  H   UNL A   1      31.248  23.425  21.852  1.00  0.00     0.346 HD
BRANCH  10  13
ATOM     13  C   UNL A   1      31.860  22.581  23.585  1.00  0.00     0.297 C 
BRANCH  13  14
ATOM     14  C   UNL A   1      33.204  22.725  24.260  1.00  0.00     0.010 A 
ATOM     15  C   UNL A   1      33.268  22.902  25.663  1.00  0.00     0.013 A 
ATOM     16  C   UNL A   1      34.389  22.557  23.525  1.00  0.00     0.060 A 
ATOM     17  C   UNL A   1      34.490  22.867  26.337  1.00  0.00     0.051 A 
ATOM     18  C   UNL A   1      35.579  22.516  24.220  1.00  0.00     0.166 A 
ATOM     19  C   UNL A   1      35.626  22.657  25.588  1.00  0.00     0.165 A 
ATOM     20  O   UNL A   1      36.806  22.299  23.678  1.00  0.00    -0.454 OA
ATOM     21  O   UNL A   1      36.890  22.542  26.077  1.00  0.00    -0.454 OA
ATOM     22  C   UNL A   1      37.630  22.313  24.862  1.00  0.00     0.468 C 
ENDBRANCH  13  14
ENDBRANCH  10  13
ENDBRANCH   9  10
ENDBRANCH   6   9
ENDBRANCH   3   6
ENDBRANCH   1   2
BRANCH   1  23
ATOM     23  C   UNL A   1      33.184  27.706  26.843  1.00  0.00     0.042 C 
BRANCH  23  24
ATOM     24  C   UNL A   1      33.992  28.839  26.224  1.00  0.00     0.118 C 
BRANCH  24  25
ATOM     25  N   UNL A   1      33.824  30.100  26.938  1.00  0.00    -0.352 N 
ATOM     26  C   UNL A   1      34.598  30.683  27.908  1.00  0.00     0.251 C 
ATOM     27  H   UNL A   1      33.026  30.616  26.682  1.00  0.00     0.163 HD
ATOM     28  O   UNL A   1      34.154  31.652  28.529  1.00  0.00    -0.269 OA
BRANCH  26  29
ATOM     29  C   UNL A   1      35.943  30.159  28.222  1.00  0.00     0.039 A 
ATOM     30  C   UNL A   1      36.941  30.223  27.244  1.00  0.00     0.014 A 
ATOM     31  C   UNL A   1      36.220  29.578  29.461  1.00  0.00     0.014 A 
ATOM     32  C   UNL A   1      38.229  29.766  27.536  1.00  0.00     0.010 A 
ATOM     33  C   UNL A   1      37.523  29.208  29.781  1.00  0.00     0.010 A 
ATOM     34  C   UNL A   1      38.539  29.289  28.819  1.00  0.00    -0.014 A 
BRANCH  34  35
ATOM     35  C   UNL A   1      39.921  28.875  29.177  1.00  0.00     0.031 A 
ATOM     36  C   UNL A   1      40.853  29.842  29.855  1.00  0.00     0.074 A 
ATOM     37  C   UNL A   1      40.359  27.650  28.824  1.00  0.00     0.049 A 
ATOM     38  N   UNL A   1      42.106  29.678  30.196  1.00  0.00    -0.248 NA
ATOM     39  C   UNL A   1      40.318  31.178  30.165  1.00  0.00     0.031 C 
ATOM     40  C   UNL A   1      39.569  26.641  28.114  1.00  0.00     0.029 A 
ATOM     41  N   UNL A   1      41.579  27.050  29.004  1.00  0.00    -0.354 N 
ATOM     42  C   UNL A   1      42.514  30.892  30.735  1.00  0.00     0.074 A 
ATOM     43  C   UNL A   1      41.391  31.799  30.629  1.00  0.00     0.031 C 
ATOM     44  C   UNL A   1      40.316  25.539  27.944  1.00  0.00     0.029 A 
ATOM     45  C   UNL A   1      41.648  25.777  28.490  1.00  0.00     0.049 A 
ATOM     46  H   UNL A   1      42.335  27.490  29.457  1.00  0.00     0.167 HD
ATOM     47  C   UNL A   1      43.708  31.220  31.285  1.00  0.00     0.031 A 
ATOM     48  C   UNL A   1      42.669  24.898  28.453  1.00  0.00     0.031 A 
ATOM     49  C   UNL A   1      44.819  30.312  31.392  1.00  0.00     0.049 A 
ATOM     50  C   UNL A   1      43.985  25.278  29.074  1.00  0.00     0.074 A 
ATOM     51  C   UNL A   1      46.047  30.523  31.994  1.00  0.00     0.029 A 
ATOM     52  N   UNL A   1      44.842  29.024  30.877  1.00  0.00    -0.354 N 
ATOM     53  N   UNL A   1      44.326  26.404  29.654  1.00  0.00    -0.248 NA
ATOM     54  C   UNL A   1      45.047  24.265  29.047  1.00  0.00     0.031 C 
ATOM     55  C   UNL A   1      46.835  29.384  31.790  1.00  0.00     0.029 A 
ATOM     56  C   UNL A   1      46.074  28.439  31.119  1.00  0.00     0.049 A 
ATOM     57  H   UNL A   1      44.094  28.590  30.409  1.00  0.00     0.167 HD
ATOM     58  C   UNL A   1      45.636  26.228  30.081  1.00  0.00     0.074 A 
ATOM     59  C   UNL A   1      46.019  24.881  29.707  1.00  0.00     0.031 C 
ATOM     60  C   UNL A   1      46.448  27.102  30.728  1.00  0.00     0.031 A 
BRANCH  47  61
ATOM     61  C   UNL A   1      43.874  32.631  31.792  1.00  0.00    -0.014 A 
ATOM     62  C   UNL A   1      44.373  33.654  30.962  1.00  0.00     0.010 A 
ATOM     63  C   UNL A   1      43.514  32.943  33.115  1.00  0.00     0.010 A 
ATOM     64  C   UNL A   1      44.566  34.944  31.464  1.00  0.00     0.020 A 
ATOM     65  C   UNL A   1      43.674  34.240  33.612  1.00  0.00     0.020 A 
ATOM     66  C   UNL A   1      44.222  35.226  32.790  1.00  0.00     0.054 A 
BRANCH  66  67
ATOM     67  S   UNL A   1      44.489  36.907  33.418  1.00  0.00     0.124 S 
ATOM     68  O   UNL A   1      43.119  37.384  33.587  1.00  0.00    -0.237 OA
ATOM     69  O   UNL A   1      45.229  36.673  34.655  1.00  0.00    -0.237 OA
ATOM     70  O   UNL A   1      45.249  37.559  32.354  1.00  0.00    -0.744 OA
ENDBRANCH  66  67
ENDBRANCH  47  61
BRANCH  48  71
ATOM     71  C   UNL A   1      42.467  23.567  27.821  1.00  0.00    -0.014 A 
ATOM     72  C   UNL A   1      42.974  23.299  26.537  1.00  0.00     0.010 A 
ATOM     73  C   UNL A   1      41.809  22.540  28.525  1.00  0.00     0.010 A 
ATOM     74  C   UNL A   1      42.829  22.030  25.970  1.00  0.00     0.020 A 
ATOM     75  C   UNL A   1      41.687  21.263  27.971  1.00  0.00     0.020 A 
ATOM     76  C   UNL A   1      42.194  21.016  26.695  1.00  0.00     0.054 A 
BRANCH  76  77
ATOM     77  S   UNL A   1      42.098  19.354  25.973  1.00  0.00     0.124 S 
ATOM     78  O   UNL A   1      42.614  18.522  27.054  1.00  0.00    -0.237 OA
ATOM     79  O   UNL A   1      40.672  19.216  25.691  1.00  0.00    -0.237 OA
ATOM     80  O   UNL A   1      42.951  19.446  24.789  1.00  0.00    -0.744 OA
ENDBRANCH  76  77
ENDBRANCH  48  71
BRANCH  60  81
ATOM     81  C   UNL A   1      47.827  26.622  31.097  1.00  0.00    -0.014 A 
ATOM     82  C   UNL A   1      48.930  26.850  30.254  1.00  0.00     0.010 A 
ATOM     83  C   UNL A   1      48.032  25.982  32.333  1.00  0.00     0.010 A 
ATOM     84  C   UNL A   1      50.205  26.414  30.625  1.00  0.00     0.020 A 
ATOM     85  C   UNL A   1      49.309  25.573  32.721  1.00  0.00     0.020 A 
ATOM     86  C   UNL A   1      50.386  25.778  31.857  1.00  0.00     0.054 A 
BRANCH  86  87
ATOM     87  S   UNL A   1      52.057  25.259  32.334  1.00  0.00     0.124 S 
ATOM     88  O   UNL A   1      52.839  25.636  31.161  1.00  0.00    -0.237 OA
ATOM     89  O   UNL A   1      52.307  26.051  33.537  1.00  0.00    -0.237 OA
ATOM     90  O   UNL A   1      51.924  23.821  32.558  1.00  0.00    -0.744 OA
ENDBRANCH  86  87
ENDBRANCH  60  81
ENDBRANCH  34  35
ENDBRANCH  26  29
ENDBRANCH  24  25
ENDBRANCH  23  24
ENDBRANCH   1  23
TORSDOF 17
ENDMDL
