MODEL 1
REMARK VINA RESULT:     -11.8      0.000      0.000
REMARK SMILES CC(=O)N[C@@H](CS[C@H]1CC(=O)N(c2ccc(Cl)cc2Cl)C1=O)C(=O)NCCCNC(=O)c1ccc(-c2c3nc(c(-c4ccc(S(=O)(=O)[O-])cc4)c4ccc([nH]4)c(-c4ccc(S(=O)(=O)[O-])cc4)c4nc(c(-c5ccc(S(=O)(=O)[O-])cc5)c5ccc2[nH]5)C=C4)C=C3)cc1
REMARK SMILES IDX 26 1 25 2 23 3 24 4 5 6 4 7 1 8 2 9 3 10 6 12 7 13 8 14 9 15
REMARK SMILES IDX 21 16 10 17 12 18 22 19 11 20 13 21 14 22 19 23 15 24 18 25
REMARK SMILES IDX 20 26 16 27 17 28 27 29 28 30 29 31 30 32 31 34 32 35 33 36
REMARK SMILES IDX 91 37 34 38 90 39 35 40 36 41 37 42 84 43 38 44 89 45 83 46
REMARK SMILES IDX 85 47 39 48 88 49 82 50 81 51 40 53 70 54 51 55 69 56 52 57
REMARK SMILES IDX 55 58 68 59 86 60 53 61 54 62 67 64 87 65 56 66 41 67 42 68
REMARK SMILES IDX 50 69 43 70 49 71 44 72 45 73 46 74 47 75 48 76 71 77 72 78
REMARK SMILES IDX 80 79 73 80 79 81 74 82 75 83 76 84 77 85 78 86 57 87 58 88
REMARK SMILES IDX 66 89 59 90 65 91 60 92 61 93 62 94 63 95 64 96
REMARK H PARENT 25 5 4 11 29 33 85 52 55 63
REMARK Flexibility Score: inf
ROOT
ATOM      1  C   UNL A   1      36.543  20.962  25.401  1.00  0.00     0.117 C 
ENDROOT
BRANCH   1   2
ATOM      2  N   UNL A   1      35.690  21.467  26.490  1.00  0.00    -0.354 N 
ATOM      3  C   UNL A   1      34.371  21.448  26.813  1.00  0.00     0.243 C 
ATOM      4  O   UNL A   1      34.096  21.890  27.936  1.00  0.00    -0.273 OA
ATOM      5  H   UNL A   1      36.219  21.947  27.167  1.00  0.00     0.163 HD
BRANCH   3   6
ATOM      6  C   UNL A   1      33.228  20.977  25.899  1.00  0.00     0.181 C 
BRANCH   6   7
ATOM      7  N   UNL A   1      33.059  19.541  26.120  1.00  0.00    -0.344 N 
ATOM      8  C   UNL A   1      32.494  19.016  23.764  1.00  0.00     0.114 C 
ATOM      9  C   UNL A   1      32.958  18.593  25.136  1.00  0.00     0.217 C 
ATOM     10  O   UNL A   1      33.193  17.418  25.406  1.00  0.00    -0.275 OA
ATOM     11  H   UNL A   1      33.016  19.229  27.052  1.00  0.00     0.164 HD
ENDBRANCH   6   7
BRANCH   6  12
ATOM     12  C   UNL A   1      31.921  21.777  25.795  1.00  0.00     0.105 C 
BRANCH  12  13
ATOM     13  S   UNL A   1      31.840  23.208  24.695  1.00  0.00    -0.145 SA
BRANCH  13  14
ATOM     14  C   UNL A   1      32.357  24.595  25.809  1.00  0.00     0.146 C 
ATOM     15  C   UNL A   1      33.606  25.196  25.206  1.00  0.00     0.125 C 
ATOM     16  C   UNL A   1      31.426  25.798  25.780  1.00  0.00     0.247 C 
ATOM     17  C   UNL A   1      32.973  26.110  24.207  1.00  0.00     0.235 C 
ATOM     18  N   UNL A   1      31.871  26.658  24.800  1.00  0.00    -0.248 N 
ATOM     19  O   UNL A   1      30.421  25.874  26.472  1.00  0.00    -0.273 OA
ATOM     20  O   UNL A   1      33.376  26.210  23.070  1.00  0.00    -0.274 OA
BRANCH  18  21
ATOM     21  C   UNL A   1      31.132  27.772  24.322  1.00  0.00     0.070 A 
ATOM     22  C   UNL A   1      30.090  27.598  23.406  1.00  0.00     0.030 A 
ATOM     23  C   UNL A   1      31.407  29.084  24.740  1.00  0.00     0.066 A 
ATOM     24  C   UNL A   1      29.250  28.652  23.031  1.00  0.00     0.023 A 
ATOM     25  C   UNL A   1      30.624  30.162  24.299  1.00  0.00     0.043 A 
ATOM     26  Cl  UNL A   1      32.817  29.451  25.675  1.00  0.00    -0.082 Cl
ATOM     27  C   UNL A   1      29.528  29.936  23.472  1.00  0.00     0.042 A 
ATOM     28  Cl  UNL A   1      28.538  31.245  22.961  1.00  0.00    -0.084 Cl
ENDBRANCH  18  21
ENDBRANCH  13  14
ENDBRANCH  12  13
ENDBRANCH   6  12
ENDBRANCH   3   6
ENDBRANCH   1   2
BRANCH   1  29
ATOM     29  C   UNL A   1      37.797  21.841  25.223  1.00  0.00     0.042 C 
BRANCH  29  30
ATOM     30  C   UNL A   1      39.047  21.701  26.132  1.00  0.00     0.118 C 
BRANCH  30  31
ATOM     31  N   UNL A   1      39.746  20.428  26.234  1.00  0.00    -0.352 N 
ATOM     32  C   UNL A   1      41.110  20.196  26.202  1.00  0.00     0.251 C 
ATOM     33  H   UNL A   1      39.176  19.632  26.339  1.00  0.00     0.163 HD
ATOM     34  O   UNL A   1      41.615  19.096  26.015  1.00  0.00    -0.269 OA
BRANCH  32  35
ATOM     35  C   UNL A   1      42.000  21.329  26.414  1.00  0.00     0.039 A 
ATOM     36  C   UNL A   1      42.423  22.072  25.317  1.00  0.00     0.014 A 
ATOM     37  C   UNL A   1      42.326  21.681  27.722  1.00  0.00     0.014 A 
ATOM     38  C   UNL A   1      43.095  23.263  25.547  1.00  0.00     0.010 A 
ATOM     39  C   UNL A   1      42.924  22.904  27.953  1.00  0.00     0.010 A 
ATOM     40  C   UNL A   1      43.285  23.710  26.865  1.00  0.00    -0.014 A 
BRANCH  40  41
ATOM     41  C   UNL A   1      43.809  25.061  27.129  1.00  0.00     0.031 A 
ATOM     42  C   UNL A   1      45.265  25.339  26.929  1.00  0.00     0.074 A 
ATOM     43  C   UNL A   1      42.966  25.980  27.639  1.00  0.00     0.049 A 
ATOM     44  N   UNL A   1      45.929  26.437  27.165  1.00  0.00    -0.248 NA
ATOM     45  C   UNL A   1      46.094  24.224  26.435  1.00  0.00     0.031 C 
ATOM     46  C   UNL A   1      41.545  25.754  27.936  1.00  0.00     0.029 A 
ATOM     47  N   UNL A   1      43.174  27.282  28.001  1.00  0.00    -0.354 N 
ATOM     48  C   UNL A   1      47.254  26.140  26.873  1.00  0.00     0.074 A 
ATOM     49  C   UNL A   1      47.309  24.745  26.498  1.00  0.00     0.031 C 
ATOM     50  C   UNL A   1      41.004  26.893  28.398  1.00  0.00     0.029 A 
ATOM     51  C   UNL A   1      42.041  27.913  28.462  1.00  0.00     0.049 A 
ATOM     52  H   UNL A   1      44.050  27.726  27.939  1.00  0.00     0.167 HD
ATOM     53  C   UNL A   1      48.321  26.971  26.892  1.00  0.00     0.031 A 
ATOM     54  C   UNL A   1      41.868  29.181  28.878  1.00  0.00     0.031 A 
ATOM     55  C   UNL A   1      48.223  28.359  27.251  1.00  0.00     0.049 A 
ATOM     56  C   UNL A   1      43.058  30.098  28.839  1.00  0.00     0.074 A 
ATOM     57  C   UNL A   1      49.212  29.324  27.255  1.00  0.00     0.029 A 
ATOM     58  N   UNL A   1      47.050  28.980  27.665  1.00  0.00    -0.354 N 
ATOM     59  N   UNL A   1      44.293  29.824  28.487  1.00  0.00    -0.248 NA
ATOM     60  C   UNL A   1      42.831  31.493  29.228  1.00  0.00     0.031 C 
ATOM     61  C   UNL A   1      48.644  30.521  27.704  1.00  0.00     0.029 A 
ATOM     62  C   UNL A   1      47.291  30.315  27.932  1.00  0.00     0.049 A 
ATOM     63  H   UNL A   1      46.177  28.535  27.754  1.00  0.00     0.167 HD
ATOM     64  C   UNL A   1      44.990  31.020  28.590  1.00  0.00     0.074 A 
ATOM     65  C   UNL A   1      44.031  32.021  29.019  1.00  0.00     0.031 C 
ATOM     66  C   UNL A   1      46.302  31.275  28.357  1.00  0.00     0.031 A 
BRANCH  53  67
ATOM     67  C   UNL A   1      49.658  26.393  26.510  1.00  0.00    -0.014 A 
ATOM     68  C   UNL A   1      50.472  25.758  27.467  1.00  0.00     0.010 A 
ATOM     69  C   UNL A   1      50.111  26.482  25.182  1.00  0.00     0.010 A 
ATOM     70  C   UNL A   1      51.733  25.268  27.116  1.00  0.00     0.020 A 
ATOM     71  C   UNL A   1      51.359  25.966  24.819  1.00  0.00     0.020 A 
ATOM     72  C   UNL A   1      52.171  25.379  25.793  1.00  0.00     0.054 A 
BRANCH  72  73
ATOM     73  S   UNL A   1      53.804  24.719  25.361  1.00  0.00     0.124 S 
ATOM     74  O   UNL A   1      53.486  23.339  25.001  1.00  0.00    -0.237 OA
ATOM     75  O   UNL A   1      54.212  25.577  24.250  1.00  0.00    -0.237 OA
ATOM     76  O   UNL A   1      54.580  24.882  26.587  1.00  0.00    -0.744 OA
ENDBRANCH  72  73
ENDBRANCH  53  67
BRANCH  54  77
ATOM     77  C   UNL A   1      40.523  29.650  29.308  1.00  0.00    -0.014 A 
ATOM     78  C   UNL A   1      39.547  29.983  28.352  1.00  0.00     0.010 A 
ATOM     79  C   UNL A   1      40.193  29.732  30.673  1.00  0.00     0.010 A 
ATOM     80  C   UNL A   1      38.275  30.406  28.751  1.00  0.00     0.020 A 
ATOM     81  C   UNL A   1      38.913  30.130  31.077  1.00  0.00     0.020 A 
ATOM     82  C   UNL A   1      37.966  30.476  30.112  1.00  0.00     0.054 A 
BRANCH  82  83
ATOM     83  S   UNL A   1      36.292  30.977  30.605  1.00  0.00     0.124 S 
ATOM     84  O   UNL A   1      36.053  30.130  31.769  1.00  0.00    -0.237 OA
ATOM     85  O   UNL A   1      36.459  32.402  30.883  1.00  0.00    -0.237 OA
ATOM     86  O   UNL A   1      35.483  30.671  29.428  1.00  0.00    -0.744 OA
ENDBRANCH  82  83
ENDBRANCH  54  77
BRANCH  66  87
ATOM     87  C   UNL A   1      46.759  32.694  28.534  1.00  0.00    -0.014 A 
ATOM     88  C   UNL A   1      47.284  33.136  29.761  1.00  0.00     0.010 A 
ATOM     89  C   UNL A   1      46.718  33.574  27.439  1.00  0.00     0.010 A 
ATOM     90  C   UNL A   1      47.734  34.449  29.897  1.00  0.00     0.020 A 
ATOM     91  C   UNL A   1      47.195  34.879  27.563  1.00  0.00     0.020 A 
ATOM     92  C   UNL A   1      47.688  35.312  28.796  1.00  0.00     0.054 A 
BRANCH  92  93
ATOM     93  S   UNL A   1      48.325  36.998  28.984  1.00  0.00     0.124 S 
ATOM     94  O   UNL A   1      47.989  37.295  30.373  1.00  0.00    -0.237 OA
ATOM     95  O   UNL A   1      49.750  36.835  28.701  1.00  0.00    -0.237 OA
ATOM     96  O   UNL A   1      47.582  37.762  27.985  1.00  0.00    -0.744 OA
ENDBRANCH  92  93
ENDBRANCH  66  87
ENDBRANCH  40  41
ENDBRANCH  32  35
ENDBRANCH  30  31
ENDBRANCH  29  30
ENDBRANCH   1  29
TORSDOF 18
ENDMDL
MODEL 2
REMARK VINA RESULT:     -11.6      1.270      8.141
REMARK SMILES CC(=O)N[C@@H](CS[C@H]1CC(=O)N(c2ccc(Cl)cc2Cl)C1=O)C(=O)NCCCNC(=O)c1ccc(-c2c3nc(c(-c4ccc(S(=O)(=O)[O-])cc4)c4ccc([nH]4)c(-c4ccc(S(=O)(=O)[O-])cc4)c4nc(c(-c5ccc(S(=O)(=O)[O-])cc5)c5ccc2[nH]5)C=C4)C=C3)cc1
REMARK SMILES IDX 26 1 25 2 23 3 24 4 5 6 4 7 1 8 2 9 3 10 6 12 7 13 8 14 9 15
REMARK SMILES IDX 21 16 10 17 12 18 22 19 11 20 13 21 14 22 19 23 15 24 18 25
REMARK SMILES IDX 20 26 16 27 17 28 27 29 28 30 29 31 30 32 31 34 32 35 33 36
REMARK SMILES IDX 91 37 34 38 90 39 35 40 36 41 37 42 84 43 38 44 89 45 83 46
REMARK SMILES IDX 85 47 39 48 88 49 82 50 81 51 40 53 70 54 51 55 69 56 52 57
REMARK SMILES IDX 55 58 68 59 86 60 53 61 54 62 67 64 87 65 56 66 41 67 42 68
REMARK SMILES IDX 50 69 43 70 49 71 44 72 45 73 46 74 47 75 48 76 71 77 72 78
REMARK SMILES IDX 80 79 73 80 79 81 74 82 75 83 76 84 77 85 78 86 57 87 58 88
REMARK SMILES IDX 66 89 59 90 65 91 60 92 61 93 62 94 63 95 64 96
REMARK H PARENT 25 5 4 11 29 33 85 52 55 63
REMARK Flexibility Score: inf
ROOT
ATOM      1  C   UNL A   1      36.632  20.984  25.139  1.00  0.00     0.117 C 
ENDROOT
BRANCH   1   2
ATOM      2  N   UNL A   1      35.763  21.392  26.256  1.00  0.00    -0.354 N 
ATOM      3  C   UNL A   1      34.431  21.462  26.507  1.00  0.00     0.243 C 
ATOM      4  O   UNL A   1      34.127  21.741  27.674  1.00  0.00    -0.273 OA
ATOM      5  H   UNL A   1      36.291  21.695  27.029  1.00  0.00     0.163 HD
BRANCH   3   6
ATOM      6  C   UNL A   1      33.309  21.272  25.472  1.00  0.00     0.181 C 
BRANCH   6   7
ATOM      7  N   UNL A   1      32.556  20.081  25.862  1.00  0.00    -0.344 N 
ATOM      8  C   UNL A   1      33.550  18.609  24.133  1.00  0.00     0.114 C 
ATOM      9  C   UNL A   1      32.809  18.804  25.433  1.00  0.00     0.217 C 
ATOM     10  O   UNL A   1      32.383  17.854  26.084  1.00  0.00    -0.275 OA
ATOM     11  H   UNL A   1      31.804  20.205  26.486  1.00  0.00     0.164 HD
ENDBRANCH   6   7
BRANCH   6  12
ATOM     12  C   UNL A   1      32.453  22.460  25.011  1.00  0.00     0.105 C 
BRANCH  12  13
ATOM     13  S   UNL A   1      32.196  22.737  23.244  1.00  0.00    -0.145 SA
BRANCH  13  14
ATOM     14  C   UNL A   1      33.562  23.916  22.823  1.00  0.00     0.146 C 
ATOM     15  C   UNL A   1      33.100  24.707  21.621  1.00  0.00     0.125 C 
ATOM     16  C   UNL A   1      33.753  25.035  23.837  1.00  0.00     0.247 C 
ATOM     17  C   UNL A   1      32.287  25.750  22.319  1.00  0.00     0.235 C 
ATOM     18  N   UNL A   1      32.962  26.096  23.456  1.00  0.00    -0.248 N 
ATOM     19  O   UNL A   1      34.435  24.907  24.844  1.00  0.00    -0.273 OA
ATOM     20  O   UNL A   1      31.195  26.095  21.926  1.00  0.00    -0.274 OA
BRANCH  18  21
ATOM     21  C   UNL A   1      32.697  27.227  24.272  1.00  0.00     0.070 A 
ATOM     22  C   UNL A   1      31.797  27.143  25.339  1.00  0.00     0.030 A 
ATOM     23  C   UNL A   1      33.318  28.467  24.052  1.00  0.00     0.066 A 
ATOM     24  C   UNL A   1      31.629  28.193  26.249  1.00  0.00     0.023 A 
ATOM     25  C   UNL A   1      33.087  29.554  24.909  1.00  0.00     0.043 A 
ATOM     26  Cl  UNL A   1      34.258  28.759  22.628  1.00  0.00    -0.082 Cl
ATOM     27  C   UNL A   1      32.268  29.401  26.023  1.00  0.00     0.042 A 
ATOM     28  Cl  UNL A   1      32.011  30.715  27.102  1.00  0.00    -0.084 Cl
ENDBRANCH  18  21
ENDBRANCH  13  14
ENDBRANCH  12  13
ENDBRANCH   6  12
ENDBRANCH   3   6
ENDBRANCH   1   2
BRANCH   1  29
ATOM     29  C   UNL A   1      37.924  21.824  25.103  1.00  0.00     0.042 C 
BRANCH  29  30
ATOM     30  C   UNL A   1      39.094  21.594  26.096  1.00  0.00     0.118 C 
BRANCH  30  31
ATOM     31  N   UNL A   1      39.771  20.306  26.153  1.00  0.00    -0.352 N 
ATOM     32  C   UNL A   1      41.131  20.052  26.116  1.00  0.00     0.251 C 
ATOM     33  H   UNL A   1      39.186  19.517  26.227  1.00  0.00     0.163 HD
ATOM     34  O   UNL A   1      41.617  18.951  25.890  1.00  0.00    -0.269 OA
BRANCH  32  35
ATOM     35  C   UNL A   1      42.040  21.160  26.371  1.00  0.00     0.039 A 
ATOM     36  C   UNL A   1      42.506  21.914  25.300  1.00  0.00     0.014 A 
ATOM     37  C   UNL A   1      42.340  21.480  27.693  1.00  0.00     0.014 A 
ATOM     38  C   UNL A   1      43.197  23.085  25.568  1.00  0.00     0.010 A 
ATOM     39  C   UNL A   1      42.959  22.685  27.962  1.00  0.00     0.010 A 
ATOM     40  C   UNL A   1      43.364  23.504  26.900  1.00  0.00    -0.014 A 
BRANCH  40  41
ATOM     41  C   UNL A   1      43.911  24.837  27.202  1.00  0.00     0.031 A 
ATOM     42  C   UNL A   1      42.990  25.927  27.651  1.00  0.00     0.074 A 
ATOM     43  C   UNL A   1      45.220  25.054  26.969  1.00  0.00     0.049 A 
ATOM     44  N   UNL A   1      43.262  27.178  27.903  1.00  0.00    -0.248 NA
ATOM     45  C   UNL A   1      41.565  25.577  27.798  1.00  0.00     0.031 C 
ATOM     46  C   UNL A   1      46.166  24.055  26.452  1.00  0.00     0.029 A 
ATOM     47  N   UNL A   1      45.983  26.178  27.127  1.00  0.00    -0.354 N 
ATOM     48  C   UNL A   1      42.044  27.768  28.215  1.00  0.00     0.074 A 
ATOM     49  C   UNL A   1      41.025  26.755  28.063  1.00  0.00     0.031 C 
ATOM     50  C   UNL A   1      47.388  24.603  26.377  1.00  0.00     0.029 A 
ATOM     51  C   UNL A   1      47.307  25.993  26.802  1.00  0.00     0.049 A 
ATOM     52  H   UNL A   1      45.620  27.036  27.444  1.00  0.00     0.167 HD
ATOM     53  C   UNL A   1      41.810  29.038  28.618  1.00  0.00     0.031 A 
ATOM     54  C   UNL A   1      48.337  26.858  26.856  1.00  0.00     0.031 A 
ATOM     55  C   UNL A   1      42.854  30.013  28.776  1.00  0.00     0.049 A 
ATOM     56  C   UNL A   1      48.059  28.247  27.357  1.00  0.00     0.074 A 
ATOM     57  C   UNL A   1      42.762  31.314  29.232  1.00  0.00     0.029 A 
ATOM     58  N   UNL A   1      44.194  29.780  28.487  1.00  0.00    -0.354 N 
ATOM     59  N   UNL A   1      46.912  28.772  27.722  1.00  0.00    -0.248 NA
ATOM     60  C   UNL A   1      49.207  29.150  27.476  1.00  0.00     0.031 C 
ATOM     61  C   UNL A   1      44.041  31.878  29.185  1.00  0.00     0.029 A 
ATOM     62  C   UNL A   1      44.938  30.914  28.748  1.00  0.00     0.049 A 
ATOM     63  H   UNL A   1      44.558  28.931  28.145  1.00  0.00     0.167 HD
ATOM     64  C   UNL A   1      47.203  30.065  28.137  1.00  0.00     0.074 A 
ATOM     65  C   UNL A   1      48.638  30.231  27.994  1.00  0.00     0.031 C 
ATOM     66  C   UNL A   1      46.368  31.031  28.592  1.00  0.00     0.031 A 
BRANCH  53  67
ATOM     67  C   UNL A   1      40.384  29.421  28.912  1.00  0.00    -0.014 A 
ATOM     68  C   UNL A   1      39.445  29.569  27.873  1.00  0.00     0.010 A 
ATOM     69  C   UNL A   1      39.970  29.635  30.239  1.00  0.00     0.010 A 
ATOM     70  C   UNL A   1      38.136  29.973  28.150  1.00  0.00     0.020 A 
ATOM     71  C   UNL A   1      38.653  30.008  30.523  1.00  0.00     0.020 A 
ATOM     72  C   UNL A   1      37.749  30.194  29.475  1.00  0.00     0.054 A 
BRANCH  72  73
ATOM     73  S   UNL A   1      36.039  30.700  29.806  1.00  0.00     0.124 S 
ATOM     74  O   UNL A   1      35.317  30.063  28.706  1.00  0.00    -0.237 OA
ATOM     75  O   UNL A   1      35.789  30.134  31.130  1.00  0.00    -0.237 OA
ATOM     76  O   UNL A   1      36.092  32.158  29.755  1.00  0.00    -0.744 OA
ENDBRANCH  72  73
ENDBRANCH  53  67
BRANCH  54  77
ATOM     77  C   UNL A   1      49.707  26.414  26.478  1.00  0.00    -0.014 A 
ATOM     78  C   UNL A   1      50.540  25.791  27.423  1.00  0.00     0.010 A 
ATOM     79  C   UNL A   1      50.175  26.576  25.161  1.00  0.00     0.010 A 
ATOM     80  C   UNL A   1      51.819  25.355  27.067  1.00  0.00     0.020 A 
ATOM     81  C   UNL A   1      51.446  26.117  24.793  1.00  0.00     0.020 A 
ATOM     82  C   UNL A   1      52.265  25.520  25.753  1.00  0.00     0.054 A 
BRANCH  82  83
ATOM     83  S   UNL A   1      53.909  24.900  25.301  1.00  0.00     0.124 S 
ATOM     84  O   UNL A   1      53.650  23.479  25.092  1.00  0.00    -0.237 OA
ATOM     85  O   UNL A   1      54.217  25.670  24.098  1.00  0.00    -0.237 OA
ATOM     86  O   UNL A   1      54.730  25.224  26.466  1.00  0.00    -0.744 OA
ENDBRANCH  82  83
ENDBRANCH  54  77
BRANCH  66  87
ATOM     87  C   UNL A   1      46.994  32.336  28.992  1.00  0.00    -0.014 A 
ATOM     88  C   UNL A   1      47.563  32.504  30.266  1.00  0.00     0.010 A 
ATOM     89  C   UNL A   1      47.067  33.382  28.055  1.00  0.00     0.010 A 
ATOM     90  C   UNL A   1      48.170  33.712  30.607  1.00  0.00     0.020 A 
ATOM     91  C   UNL A   1      47.699  34.581  28.384  1.00  0.00     0.020 A 
ATOM     92  C   UNL A   1      48.236  34.743  29.663  1.00  0.00     0.054 A 
BRANCH  92  93
ATOM     93  S   UNL A   1      49.074  36.284  30.115  1.00  0.00     0.124 S 
ATOM     94  O   UNL A   1      48.058  36.957  30.918  1.00  0.00    -0.237 OA
ATOM     95  O   UNL A   1      50.245  35.809  30.848  1.00  0.00    -0.237 OA
ATOM     96  O   UNL A   1      49.366  36.909  28.826  1.00  0.00    -0.744 OA
ENDBRANCH  92  93
ENDBRANCH  66  87
ENDBRANCH  40  41
ENDBRANCH  32  35
ENDBRANCH  30  31
ENDBRANCH  29  30
ENDBRANCH   1  29
TORSDOF 18
ENDMDL
MODEL 3
REMARK VINA RESULT:     -11.3      6.029      7.746
REMARK SMILES CC(=O)N[C@@H](CS[C@H]1CC(=O)N(c2ccc(Cl)cc2Cl)C1=O)C(=O)NCCCNC(=O)c1ccc(-c2c3nc(c(-c4ccc(S(=O)(=O)[O-])cc4)c4ccc([nH]4)c(-c4ccc(S(=O)(=O)[O-])cc4)c4nc(c(-c5ccc(S(=O)(=O)[O-])cc5)c5ccc2[nH]5)C=C4)C=C3)cc1
REMARK SMILES IDX 26 1 25 2 23 3 24 4 5 6 4 7 1 8 2 9 3 10 6 12 7 13 8 14 9 15
REMARK SMILES IDX 21 16 10 17 12 18 22 19 11 20 13 21 14 22 19 23 15 24 18 25
REMARK SMILES IDX 20 26 16 27 17 28 27 29 28 30 29 31 30 32 31 34 32 35 33 36
REMARK SMILES IDX 91 37 34 38 90 39 35 40 36 41 37 42 84 43 38 44 89 45 83 46
REMARK SMILES IDX 85 47 39 48 88 49 82 50 81 51 40 53 70 54 51 55 69 56 52 57
REMARK SMILES IDX 55 58 68 59 86 60 53 61 54 62 67 64 87 65 56 66 41 67 42 68
REMARK SMILES IDX 50 69 43 70 49 71 44 72 45 73 46 74 47 75 48 76 71 77 72 78
REMARK SMILES IDX 80 79 73 80 79 81 74 82 75 83 76 84 77 85 78 86 57 87 58 88
REMARK SMILES IDX 66 89 59 90 65 91 60 92 61 93 62 94 63 95 64 96
REMARK H PARENT 25 5 4 11 29 33 85 52 55 63
REMARK Flexibility Score: inf
ROOT
ATOM      1  C   UNL A   1      36.502  22.414  25.810  1.00  0.00     0.117 C 
ENDROOT
BRANCH   1   2
ATOM      2  N   UNL A   1      35.286  22.183  26.608  1.00  0.00    -0.354 N 
ATOM      3  C   UNL A   1      34.193  21.379  26.549  1.00  0.00     0.243 C 
ATOM      4  O   UNL A   1      33.455  21.416  27.542  1.00  0.00    -0.273 OA
ATOM      5  H   UNL A   1      35.258  22.769  27.398  1.00  0.00     0.163 HD
BRANCH   3   6
ATOM      6  C   UNL A   1      33.794  20.491  25.359  1.00  0.00     0.181 C 
BRANCH   6   7
ATOM      7  N   UNL A   1      33.044  19.356  25.896  1.00  0.00    -0.344 N 
ATOM      8  C   UNL A   1      33.509  17.852  23.981  1.00  0.00     0.114 C 
ATOM      9  C   UNL A   1      33.088  18.075  25.413  1.00  0.00     0.217 C 
ATOM     10  O   UNL A   1      32.735  17.146  26.136  1.00  0.00    -0.275 OA
ATOM     11  H   UNL A   1      32.460  19.526  26.670  1.00  0.00     0.164 HD
ENDBRANCH   6   7
BRANCH   6  12
ATOM     12  C   UNL A   1      33.213  21.105  24.077  1.00  0.00     0.105 C 
BRANCH  12  13
ATOM     13  S   UNL A   1      32.367  22.700  24.159  1.00  0.00    -0.145 SA
BRANCH  13  14
ATOM     14  C   UNL A   1      33.673  23.873  23.566  1.00  0.00     0.146 C 
ATOM     15  C   UNL A   1      33.164  24.477  22.277  1.00  0.00     0.125 C 
ATOM     16  C   UNL A   1      33.821  25.124  24.421  1.00  0.00     0.247 C 
ATOM     17  C   UNL A   1      32.310  25.565  22.844  1.00  0.00     0.235 C 
ATOM     18  N   UNL A   1      32.978  26.089  23.915  1.00  0.00    -0.248 N 
ATOM     19  O   UNL A   1      34.518  25.160  25.425  1.00  0.00    -0.273 OA
ATOM     20  O   UNL A   1      31.199  25.806  22.426  1.00  0.00    -0.274 OA
BRANCH  18  21
ATOM     21  C   UNL A   1      32.669  27.305  24.579  1.00  0.00     0.070 A 
ATOM     22  C   UNL A   1      31.809  27.318  25.681  1.00  0.00     0.030 A 
ATOM     23  C   UNL A   1      33.205  28.535  24.168  1.00  0.00     0.066 A 
ATOM     24  C   UNL A   1      31.604  28.472  26.446  1.00  0.00     0.023 A 
ATOM     25  C   UNL A   1      32.933  29.715  24.877  1.00  0.00     0.043 A 
ATOM     26  Cl  UNL A   1      34.081  28.681  22.682  1.00  0.00    -0.082 Cl
ATOM     27  C   UNL A   1      32.159  29.672  26.033  1.00  0.00     0.042 A 
ATOM     28  Cl  UNL A   1      31.855  31.105  26.932  1.00  0.00    -0.084 Cl
ENDBRANCH  18  21
ENDBRANCH  13  14
ENDBRANCH  12  13
ENDBRANCH   6  12
ENDBRANCH   3   6
ENDBRANCH   1   2
BRANCH   1  29
ATOM     29  C   UNL A   1      37.610  23.067  26.660  1.00  0.00     0.042 C 
BRANCH  29  30
ATOM     30  C   UNL A   1      38.613  24.095  26.072  1.00  0.00     0.118 C 
BRANCH  30  31
ATOM     31  N   UNL A   1      40.044  23.828  26.102  1.00  0.00    -0.352 N 
ATOM     32  C   UNL A   1      41.057  24.642  26.583  1.00  0.00     0.251 C 
ATOM     33  H   UNL A   1      40.328  22.959  25.735  1.00  0.00     0.163 HD
ATOM     34  O   UNL A   1      42.244  24.482  26.329  1.00  0.00    -0.269 OA
BRANCH  32  35
ATOM     35  C   UNL A   1      40.687  25.750  27.451  1.00  0.00     0.039 A 
ATOM     36  C   UNL A   1      39.771  25.532  28.476  1.00  0.00     0.014 A 
ATOM     37  C   UNL A   1      41.332  26.972  27.278  1.00  0.00     0.014 A 
ATOM     38  C   UNL A   1      39.586  26.531  29.418  1.00  0.00     0.010 A 
ATOM     39  C   UNL A   1      41.208  27.936  28.258  1.00  0.00     0.010 A 
ATOM     40  C   UNL A   1      40.354  27.706  29.346  1.00  0.00    -0.014 A 
BRANCH  40  41
ATOM     41  C   UNL A   1      40.325  28.688  30.443  1.00  0.00     0.031 A 
ATOM     42  C   UNL A   1      41.258  28.528  31.601  1.00  0.00     0.074 A 
ATOM     43  C   UNL A   1      39.382  29.650  30.407  1.00  0.00     0.049 A 
ATOM     44  N   UNL A   1      41.344  29.244  32.688  1.00  0.00    -0.248 NA
ATOM     45  C   UNL A   1      42.192  27.389  31.551  1.00  0.00     0.031 C 
ATOM     46  C   UNL A   1      38.383  29.819  29.344  1.00  0.00     0.029 A 
ATOM     47  N   UNL A   1      39.103  30.663  31.283  1.00  0.00    -0.354 N 
ATOM     48  C   UNL A   1      42.322  28.631  33.460  1.00  0.00     0.074 A 
ATOM     49  C   UNL A   1      42.758  27.453  32.746  1.00  0.00     0.031 C 
ATOM     50  C   UNL A   1      37.629  30.896  29.613  1.00  0.00     0.029 A 
ATOM     51  C   UNL A   1      38.066  31.470  30.878  1.00  0.00     0.049 A 
ATOM     52  H   UNL A   1      39.598  30.801  32.123  1.00  0.00     0.167 HD
ATOM     53  C   UNL A   1      42.825  29.037  34.649  1.00  0.00     0.031 A 
ATOM     54  C   UNL A   1      37.539  32.559  31.468  1.00  0.00     0.031 A 
ATOM     55  C   UNL A   1      42.377  30.226  35.321  1.00  0.00     0.049 A 
ATOM     56  C   UNL A   1      38.151  33.019  32.761  1.00  0.00     0.074 A 
ATOM     57  C   UNL A   1      42.843  30.782  36.498  1.00  0.00     0.029 A 
ATOM     58  N   UNL A   1      41.358  31.051  34.859  1.00  0.00    -0.354 N 
ATOM     59  N   UNL A   1      39.129  32.472  33.446  1.00  0.00    -0.248 NA
ATOM     60  C   UNL A   1      37.610  34.248  33.349  1.00  0.00     0.031 C 
ATOM     61  C   UNL A   1      42.080  31.924  36.765  1.00  0.00     0.029 A 
ATOM     62  C   UNL A   1      41.174  32.108  35.730  1.00  0.00     0.049 A 
ATOM     63  H   UNL A   1      40.843  30.903  34.033  1.00  0.00     0.167 HD
ATOM     64  C   UNL A   1      39.338  33.303  34.537  1.00  0.00     0.074 A 
ATOM     65  C   UNL A   1      38.395  34.399  34.408  1.00  0.00     0.031 C 
ATOM     66  C   UNL A   1      40.222  33.178  35.558  1.00  0.00     0.031 A 
BRANCH  53  67
ATOM     67  C   UNL A   1      43.902  28.190  35.272  1.00  0.00    -0.014 A 
ATOM     68  C   UNL A   1      45.260  28.412  34.976  1.00  0.00     0.010 A 
ATOM     69  C   UNL A   1      43.560  27.159  36.166  1.00  0.00     0.010 A 
ATOM     70  C   UNL A   1      46.251  27.590  35.519  1.00  0.00     0.020 A 
ATOM     71  C   UNL A   1      44.551  26.354  36.737  1.00  0.00     0.020 A 
ATOM     72  C   UNL A   1      45.889  26.562  36.394  1.00  0.00     0.054 A 
BRANCH  72  73
ATOM     73  S   UNL A   1      47.196  25.521  37.099  1.00  0.00     0.124 S 
ATOM     74  O   UNL A   1      48.362  25.930  36.317  1.00  0.00    -0.237 OA
ATOM     75  O   UNL A   1      47.210  25.930  38.501  1.00  0.00    -0.237 OA
ATOM     76  O   UNL A   1      46.728  24.160  36.854  1.00  0.00    -0.744 OA
ENDBRANCH  72  73
ENDBRANCH  53  67
BRANCH  54  77
ATOM     77  C   UNL A   1      36.423  33.297  30.815  1.00  0.00    -0.014 A 
ATOM     78  C   UNL A   1      35.191  33.452  31.474  1.00  0.00     0.010 A 
ATOM     79  C   UNL A   1      36.595  33.885  29.549  1.00  0.00     0.010 A 
ATOM     80  C   UNL A   1      34.146  34.160  30.873  1.00  0.00     0.020 A 
ATOM     81  C   UNL A   1      35.561  34.618  28.955  1.00  0.00     0.020 A 
ATOM     82  C   UNL A   1      34.338  34.740  29.616  1.00  0.00     0.054 A 
BRANCH  82  83
ATOM     83  S   UNL A   1      32.986  35.701  28.879  1.00  0.00     0.124 S 
ATOM     84  O   UNL A   1      32.225  36.106  30.056  1.00  0.00    -0.237 OA
ATOM     85  O   UNL A   1      33.700  36.771  28.187  1.00  0.00    -0.237 OA
ATOM     86  O   UNL A   1      32.322  34.739  28.002  1.00  0.00    -0.744 OA
ENDBRANCH  82  83
ENDBRANCH  54  77
BRANCH  66  87
ATOM     87  C   UNL A   1      40.225  34.268  36.590  1.00  0.00    -0.014 A 
ATOM     88  C   UNL A   1      39.377  34.205  37.710  1.00  0.00     0.010 A 
ATOM     89  C   UNL A   1      41.133  35.333  36.467  1.00  0.00     0.010 A 
ATOM     90  C   UNL A   1      39.418  35.210  38.676  1.00  0.00     0.020 A 
ATOM     91  C   UNL A   1      41.196  36.325  37.445  1.00  0.00     0.020 A 
ATOM     92  C   UNL A   1      40.328  36.263  38.538  1.00  0.00     0.054 A 
BRANCH  92  93
ATOM     93  S   UNL A   1      40.396  37.530  39.832  1.00  0.00     0.124 S 
ATOM     94  O   UNL A   1      41.649  38.213  39.522  1.00  0.00    -0.237 OA
ATOM     95  O   UNL A   1      39.180  38.303  39.587  1.00  0.00    -0.237 OA
ATOM     96  O   UNL A   1      40.397  36.757  41.073  1.00  0.00    -0.744 OA
ENDBRANCH  92  93
ENDBRANCH  66  87
ENDBRANCH  40  41
ENDBRANCH  32  35
ENDBRANCH  30  31
ENDBRANCH  29  30
ENDBRANCH   1  29
TORSDOF 18
ENDMDL
