MODEL 1
REMARK VINA RESULT:     -10.9      0.000      0.000
REMARK SMILES COC(=O)[C@@H]1CN(C(=O)NC(=O)CCCC(=O)NCCCNC(=O)c2ccc(-c3c4nc(c(-c5ccc(S(=O)(=O)[O-])cc5)c5ccc([nH]5)c(-c5ccc(S(=O)(=O)[O-])cc5)c5nc(c(-c6ccc(S(=O)(=O)[O-])cc6)c6ccc3[nH]6)C=C5)C=C4)cc2)C[C@H]1C
REMARK SMILES IDX 16 1 17 2 18 3 15 5 14 6 13 7 11 8 8 9 9 10 10 11 12 13 7 14
REMARK SMILES IDX 5 15 6 16 86 17 85 18 87 19 3 20 4 21 2 22 1 23 19 24 20 25
REMARK SMILES IDX 21 26 22 27 23 28 24 30 25 31 26 32 84 33 27 34 83 35 28 36
REMARK SMILES IDX 29 37 30 38 77 39 31 40 82 41 76 42 78 43 32 44 81 45 75 46
REMARK SMILES IDX 74 47 33 49 63 50 44 51 62 52 45 53 48 54 61 55 79 56 46 57
REMARK SMILES IDX 47 58 60 60 80 61 49 62 34 63 35 64 43 65 36 66 42 67 37 68
REMARK SMILES IDX 38 69 39 70 40 71 41 72 64 73 65 74 73 75 66 76 72 77 67 78
REMARK SMILES IDX 68 79 69 80 70 81 71 82 50 83 51 84 59 85 52 86 58 87 53 88
REMARK SMILES IDX 54 89 55 90 56 91 57 92
REMARK H PARENT 18 4 10 12 22 29 78 48 48 59
REMARK Flexibility Score: inf
ROOT
ATOM      1  C   UNL A   1      37.753  23.054  26.030  1.00  0.00     0.220 C 
ATOM      2  O   UNL A   1      36.735  23.687  26.403  1.00  0.00    -0.275 OA
ATOM      3  N   UNL A   1      39.517  22.854  26.883  1.00  0.00    -0.356 N 
ATOM      4  H   UNL A   1      39.503  23.262  27.778  1.00  0.00     0.163 HD
ENDROOT
BRANCH   1   5
ATOM      5  C   UNL A   1      37.263  22.369  24.415  1.00  0.00     0.100 C 
BRANCH   5   6
ATOM      6  C   UNL A   1      36.288  22.875  23.291  1.00  0.00     0.020 C 
BRANCH   6   7
ATOM      7  C   UNL A   1      34.746  22.848  23.301  1.00  0.00     0.101 C 
BRANCH   7   8
ATOM      8  C   UNL A   1      33.947  23.663  24.280  1.00  0.00     0.227 C 
ATOM      9  C   UNL A   1      33.842  22.077  26.210  1.00  0.00     0.324 C 
ATOM     10  O   UNL A   1      33.874  22.088  27.443  1.00  0.00    -0.248 OA
ATOM     11  N   UNL A   1      33.781  23.260  25.564  1.00  0.00    -0.278 N 
ATOM     12  H   UNL A   1      33.564  24.007  26.168  1.00  0.00     0.174 HD
ATOM     13  O   UNL A   1      33.373  24.693  23.917  1.00  0.00    -0.275 OA
BRANCH   9  14
ATOM     14  N   UNL A   1      33.821  20.895  25.521  1.00  0.00    -0.323 N 
ATOM     15  C   UNL A   1      34.159  18.249  23.671  1.00  0.00     0.123 C 
ATOM     16  C   UNL A   1      35.083  19.406  25.077  1.00  0.00     0.137 C 
ATOM     17  C   UNL A   1      32.309  19.047  23.365  1.00  0.00     0.021 C 
ATOM     18  C   UNL A   1      32.170  20.678  24.529  1.00  0.00     0.125 C 
ATOM     19  C   UNL A   1      31.980  19.398  21.886  1.00  0.00     0.010 C 
BRANCH  15  20
ATOM     20  C   UNL A   1      34.094  16.727  23.806  1.00  0.00     0.310 C 
ATOM     21  O   UNL A   1      34.325  15.998  22.843  1.00  0.00    -0.252 OA
BRANCH  20  22
ATOM     22  O   UNL A   1      34.011  16.176  25.037  1.00  0.00    -0.469 OA
ATOM     23  C   UNL A   1      32.861  15.520  25.573  1.00  0.00     0.282 C 
ENDBRANCH  20  22
ENDBRANCH  15  20
ENDBRANCH   9  14
ENDBRANCH   7   8
ENDBRANCH   6   7
ENDBRANCH   5   6
ENDBRANCH   1   5
BRANCH   3  24
ATOM     24  C   UNL A   1      41.023  22.218  26.578  1.00  0.00     0.117 C 
BRANCH  24  25
ATOM     25  C   UNL A   1      41.977  22.478  27.754  1.00  0.00     0.042 C 
BRANCH  25  26
ATOM     26  C   UNL A   1      42.636  23.837  27.696  1.00  0.00     0.118 C 
BRANCH  26  27
ATOM     27  N   UNL A   1      42.356  24.494  26.434  1.00  0.00    -0.352 N 
ATOM     28  C   UNL A   1      41.610  25.629  26.209  1.00  0.00     0.251 C 
ATOM     29  H   UNL A   1      42.750  24.074  25.636  1.00  0.00     0.163 HD
ATOM     30  O   UNL A   1      41.196  25.872  25.080  1.00  0.00    -0.269 OA
BRANCH  28  31
ATOM     31  C   UNL A   1      41.284  26.526  27.340  1.00  0.00     0.039 A 
ATOM     32  C   UNL A   1      40.246  26.190  28.211  1.00  0.00     0.014 A 
ATOM     33  C   UNL A   1      42.024  27.691  27.554  1.00  0.00     0.014 A 
ATOM     34  C   UNL A   1      40.005  26.983  29.336  1.00  0.00     0.010 A 
ATOM     35  C   UNL A   1      41.871  28.401  28.736  1.00  0.00     0.010 A 
ATOM     36  C   UNL A   1      40.848  28.068  29.633  1.00  0.00    -0.014 A 
BRANCH  36  37
ATOM     37  C   UNL A   1      40.676  28.883  30.862  1.00  0.00     0.031 A 
ATOM     38  C   UNL A   1      39.618  29.953  30.908  1.00  0.00     0.074 A 
ATOM     39  C   UNL A   1      41.522  28.720  31.898  1.00  0.00     0.049 A 
ATOM     40  N   UNL A   1      39.379  30.837  31.841  1.00  0.00    -0.248 NA
ATOM     41  C   UNL A   1      38.736  30.067  29.734  1.00  0.00     0.031 C 
ATOM     42  C   UNL A   1      42.617  27.749  31.955  1.00  0.00     0.029 A 
ATOM     43  N   UNL A   1      41.604  29.381  33.099  1.00  0.00    -0.354 N 
ATOM     44  C   UNL A   1      38.333  31.619  31.361  1.00  0.00     0.074 A 
ATOM     45  C   UNL A   1      38.035  31.151  30.026  1.00  0.00     0.031 C 
ATOM     46  C   UNL A   1      43.245  27.862  33.136  1.00  0.00     0.029 A 
ATOM     47  C   UNL A   1      42.637  28.948  33.897  1.00  0.00     0.049 A 
ATOM     48  H   UNL A   1      40.980  30.096  33.365  1.00  0.00     0.167 HD
ATOM     49  C   UNL A   1      37.663  32.617  31.983  1.00  0.00     0.031 A 
ATOM     50  C   UNL A   1      43.065  29.391  35.096  1.00  0.00     0.031 A 
ATOM     51  C   UNL A   1      37.970  33.078  33.310  1.00  0.00     0.049 A 
ATOM     52  C   UNL A   1      42.337  30.527  35.756  1.00  0.00     0.074 A 
ATOM     53  C   UNL A   1      37.325  34.048  34.055  1.00  0.00     0.029 A 
ATOM     54  N   UNL A   1      39.022  32.609  34.086  1.00  0.00    -0.354 N 
ATOM     55  N   UNL A   1      41.297  31.199  35.320  1.00  0.00    -0.248 NA
ATOM     56  C   UNL A   1      42.833  30.965  37.067  1.00  0.00     0.031 C 
ATOM     57  C   UNL A   1      38.028  34.215  35.252  1.00  0.00     0.029 A 
ATOM     58  C   UNL A   1      39.069  33.299  35.285  1.00  0.00     0.049 A 
ATOM     59  H   UNL A   1      39.641  31.890  33.822  1.00  0.00     0.167 HD
ATOM     60  C   UNL A   1      41.008  32.133  36.309  1.00  0.00     0.074 A 
ATOM     61  C   UNL A   1      41.967  31.922  37.374  1.00  0.00     0.031 C 
ATOM     62  C   UNL A   1      40.041  33.084  36.329  1.00  0.00     0.031 A 
BRANCH  49  63
ATOM     63  C   UNL A   1      36.545  33.280  31.219  1.00  0.00    -0.014 A 
ATOM     64  C   UNL A   1      36.749  33.788  29.921  1.00  0.00     0.010 A 
ATOM     65  C   UNL A   1      35.270  33.398  31.801  1.00  0.00     0.010 A 
ATOM     66  C   UNL A   1      35.723  34.457  29.251  1.00  0.00     0.020 A 
ATOM     67  C   UNL A   1      34.229  34.034  31.119  1.00  0.00     0.020 A 
ATOM     68  C   UNL A   1      34.470  34.582  29.857  1.00  0.00     0.054 A 
BRANCH  68  69
ATOM     69  S   UNL A   1      33.161  35.466  28.968  1.00  0.00     0.124 S 
ATOM     70  O   UNL A   1      32.336  35.965  30.066  1.00  0.00    -0.237 OA
ATOM     71  O   UNL A   1      33.907  36.484  28.232  1.00  0.00    -0.237 OA
ATOM     72  O   UNL A   1      32.541  34.433  28.142  1.00  0.00    -0.744 OA
ENDBRANCH  68  69
ENDBRANCH  49  63
BRANCH  50  73
ATOM     73  C   UNL A   1      44.259  28.761  35.725  1.00  0.00    -0.014 A 
ATOM     74  C   UNL A   1      44.122  27.682  36.615  1.00  0.00     0.010 A 
ATOM     75  C   UNL A   1      45.551  29.210  35.389  1.00  0.00     0.010 A 
ATOM     76  C   UNL A   1      45.255  27.063  37.156  1.00  0.00     0.020 A 
ATOM     77  C   UNL A   1      46.684  28.574  35.903  1.00  0.00     0.020 A 
ATOM     78  C   UNL A   1      46.528  27.507  36.787  1.00  0.00     0.054 A 
BRANCH  78  79
ATOM     79  S   UNL A   1      47.981  26.632  37.433  1.00  0.00     0.124 S 
ATOM     80  O   UNL A   1      47.717  25.257  37.019  1.00  0.00    -0.237 OA
ATOM     81  O   UNL A   1      49.080  27.301  36.744  1.00  0.00    -0.237 OA
ATOM     82  O   UNL A   1      47.915  26.878  38.871  1.00  0.00    -0.744 OA
ENDBRANCH  78  79
ENDBRANCH  50  73
BRANCH  62  83
ATOM     83  C   UNL A   1      39.965  33.975  37.540  1.00  0.00    -0.014 A 
ATOM     84  C   UNL A   1      40.477  35.284  37.507  1.00  0.00     0.010 A 
ATOM     85  C   UNL A   1      39.289  33.530  38.692  1.00  0.00     0.010 A 
ATOM     86  C   UNL A   1      40.325  36.129  38.608  1.00  0.00     0.020 A 
ATOM     87  C   UNL A   1      39.108  34.383  39.783  1.00  0.00     0.020 A 
ATOM     88  C   UNL A   1      39.631  35.677  39.735  1.00  0.00     0.054 A 
BRANCH  88  89
ATOM     89  S   UNL A   1      39.376  36.825  41.115  1.00  0.00     0.124 S 
ATOM     90  O   UNL A   1      40.743  37.067  41.567  1.00  0.00    -0.237 OA
ATOM     91  O   UNL A   1      38.718  37.957  40.468  1.00  0.00    -0.237 OA
ATOM     92  O   UNL A   1      38.538  36.072  42.045  1.00  0.00    -0.744 OA
ENDBRANCH  88  89
ENDBRANCH  62  83
ENDBRANCH  36  37
ENDBRANCH  28  31
ENDBRANCH  26  27
ENDBRANCH  25  26
ENDBRANCH  24  25
ENDBRANCH   3  24
TORSDOF 19
ENDMDL
MODEL 2
REMARK VINA RESULT:     -10.9      2.763      8.587
REMARK SMILES COC(=O)[C@@H]1CN(C(=O)NC(=O)CCCC(=O)NCCCNC(=O)c2ccc(-c3c4nc(c(-c5ccc(S(=O)(=O)[O-])cc5)c5ccc([nH]5)c(-c5ccc(S(=O)(=O)[O-])cc5)c5nc(c(-c6ccc(S(=O)(=O)[O-])cc6)c6ccc3[nH]6)C=C5)C=C4)cc2)C[C@H]1C
REMARK SMILES IDX 16 1 17 2 18 3 15 5 14 6 13 7 11 8 8 9 9 10 10 11 12 13 7 14
REMARK SMILES IDX 5 15 6 16 86 17 85 18 87 19 3 20 4 21 2 22 1 23 19 24 20 25
REMARK SMILES IDX 21 26 22 27 23 28 24 30 25 31 26 32 84 33 27 34 83 35 28 36
REMARK SMILES IDX 29 37 30 38 77 39 31 40 82 41 76 42 78 43 32 44 81 45 75 46
REMARK SMILES IDX 74 47 33 49 63 50 44 51 62 52 45 53 48 54 61 55 79 56 46 57
REMARK SMILES IDX 47 58 60 60 80 61 49 62 34 63 35 64 43 65 36 66 42 67 37 68
REMARK SMILES IDX 38 69 39 70 40 71 41 72 64 73 65 74 73 75 66 76 72 77 67 78
REMARK SMILES IDX 68 79 69 80 70 81 71 82 50 83 51 84 59 85 52 86 58 87 53 88
REMARK SMILES IDX 54 89 55 90 56 91 57 92
REMARK H PARENT 18 4 10 12 22 29 78 48 48 59
REMARK Flexibility Score: inf
ROOT
ATOM      1  C   UNL A   1      32.477  29.043  23.792  1.00  0.00     0.220 C 
ATOM      2  O   UNL A   1      32.383  28.923  22.547  1.00  0.00    -0.275 OA
ATOM      3  N   UNL A   1      31.649  30.345  25.016  1.00  0.00    -0.356 N 
ATOM      4  H   UNL A   1      31.003  30.901  24.524  1.00  0.00     0.163 HD
ENDROOT
BRANCH   1   5
ATOM      5  C   UNL A   1      33.654  27.734  24.261  1.00  0.00     0.100 C 
BRANCH   5   6
ATOM      6  C   UNL A   1      33.496  26.398  25.073  1.00  0.00     0.020 C 
BRANCH   6   7
ATOM      7  C   UNL A   1      32.648  26.161  26.339  1.00  0.00     0.101 C 
BRANCH   7   8
ATOM      8  C   UNL A   1      31.145  26.130  26.290  1.00  0.00     0.227 C 
ATOM      9  C   UNL A   1      30.726  23.718  26.797  1.00  0.00     0.324 C 
ATOM     10  O   UNL A   1      29.928  23.009  27.415  1.00  0.00    -0.248 OA
ATOM     11  N   UNL A   1      30.449  25.033  26.678  1.00  0.00    -0.278 N 
ATOM     12  H   UNL A   1      29.522  25.247  26.933  1.00  0.00     0.174 HD
ATOM     13  O   UNL A   1      30.513  27.088  25.836  1.00  0.00    -0.275 OA
BRANCH   9  14
ATOM     14  N   UNL A   1      31.835  23.174  26.209  1.00  0.00    -0.323 N 
ATOM     15  C   UNL A   1      34.696  22.262  24.975  1.00  0.00     0.123 C 
ATOM     16  C   UNL A   1      33.725  22.741  26.706  1.00  0.00     0.137 C 
ATOM     17  C   UNL A   1      33.318  22.350  23.476  1.00  0.00     0.021 C 
ATOM     18  C   UNL A   1      31.581  22.924  24.304  1.00  0.00     0.125 C 
ATOM     19  C   UNL A   1      33.696  23.280  22.289  1.00  0.00     0.010 C 
BRANCH  15  20
ATOM     20  C   UNL A   1      35.561  21.006  24.865  1.00  0.00     0.310 C 
ATOM     21  O   UNL A   1      35.060  19.886  24.960  1.00  0.00    -0.252 OA
BRANCH  20  22
ATOM     22  O   UNL A   1      36.836  21.117  24.432  1.00  0.00    -0.469 OA
ATOM     23  C   UNL A   1      37.974  20.520  25.054  1.00  0.00     0.282 C 
ENDBRANCH  20  22
ENDBRANCH  15  20
ENDBRANCH   9  14
ENDBRANCH   7   8
ENDBRANCH   6   7
ENDBRANCH   5   6
ENDBRANCH   1   5
BRANCH   3  24
ATOM     24  C   UNL A   1      31.689  30.807  26.613  1.00  0.00     0.117 C 
BRANCH  24  25
ATOM     25  C   UNL A   1      32.993  30.352  27.284  1.00  0.00     0.042 C 
BRANCH  25  26
ATOM     26  C   UNL A   1      34.039  31.441  27.351  1.00  0.00     0.118 C 
BRANCH  26  27
ATOM     27  N   UNL A   1      33.436  32.717  27.684  1.00  0.00    -0.352 N 
ATOM     28  C   UNL A   1      33.649  33.497  28.798  1.00  0.00     0.251 C 
ATOM     29  H   UNL A   1      32.792  33.070  27.030  1.00  0.00     0.163 HD
ATOM     30  O   UNL A   1      32.838  34.370  29.094  1.00  0.00    -0.269 OA
BRANCH  28  31
ATOM     31  C   UNL A   1      34.834  33.251  29.649  1.00  0.00     0.039 A 
ATOM     32  C   UNL A   1      34.750  32.339  30.703  1.00  0.00     0.014 A 
ATOM     33  C   UNL A   1      36.040  33.905  29.387  1.00  0.00     0.014 A 
ATOM     34  C   UNL A   1      35.896  32.031  31.441  1.00  0.00     0.010 A 
ATOM     35  C   UNL A   1      37.200  33.502  30.032  1.00  0.00     0.010 A 
ATOM     36  C   UNL A   1      37.140  32.574  31.079  1.00  0.00    -0.014 A 
BRANCH  36  37
ATOM     37  C   UNL A   1      38.394  32.206  31.785  1.00  0.00     0.031 A 
ATOM     38  C   UNL A   1      39.341  31.216  31.160  1.00  0.00     0.074 A 
ATOM     39  C   UNL A   1      38.636  32.692  33.019  1.00  0.00     0.049 A 
ATOM     40  N   UNL A   1      40.428  30.687  31.659  1.00  0.00    -0.248 NA
ATOM     41  C   UNL A   1      39.002  30.731  29.812  1.00  0.00     0.031 C 
ATOM     42  C   UNL A   1      37.771  33.621  33.750  1.00  0.00     0.029 A 
ATOM     43  N   UNL A   1      39.677  32.459  33.883  1.00  0.00    -0.354 N 
ATOM     44  C   UNL A   1      40.891  29.799  30.694  1.00  0.00     0.074 A 
ATOM     45  C   UNL A   1      39.929  29.806  29.616  1.00  0.00     0.031 C 
ATOM     46  C   UNL A   1      38.327  33.896  34.940  1.00  0.00     0.029 A 
ATOM     47  C   UNL A   1      39.555  33.121  35.083  1.00  0.00     0.049 A 
ATOM     48  H   UNL A   1      40.439  31.874  33.665  1.00  0.00     0.167 HD
ATOM     49  C   UNL A   1      42.027  29.063  30.692  1.00  0.00     0.031 A 
ATOM     50  C   UNL A   1      40.331  33.092  36.184  1.00  0.00     0.031 A 
ATOM     51  C   UNL A   1      42.977  29.058  31.772  1.00  0.00     0.049 A 
ATOM     52  C   UNL A   1      41.568  32.238  36.183  1.00  0.00     0.074 A 
ATOM     53  C   UNL A   1      44.184  28.389  31.853  1.00  0.00     0.029 A 
ATOM     54  N   UNL A   1      42.819  29.748  32.967  1.00  0.00    -0.354 N 
ATOM     55  N   UNL A   1      42.032  31.468  35.227  1.00  0.00    -0.248 NA
ATOM     56  C   UNL A   1      42.387  32.249  37.402  1.00  0.00     0.031 C 
ATOM     57  C   UNL A   1      44.722  28.617  33.123  1.00  0.00     0.029 A 
ATOM     58  C   UNL A   1      43.885  29.487  33.808  1.00  0.00     0.049 A 
ATOM     59  H   UNL A   1      42.059  30.336  33.182  1.00  0.00     0.167 HD
ATOM     60  C   UNL A   1      43.204  30.910  35.726  1.00  0.00     0.074 A 
ATOM     61  C   UNL A   1      43.389  31.451  37.057  1.00  0.00     0.031 C 
ATOM     62  C   UNL A   1      44.046  30.025  35.137  1.00  0.00     0.031 A 
BRANCH  49  63
ATOM     63  C   UNL A   1      42.286  28.194  29.487  1.00  0.00    -0.014 A 
ATOM     64  C   UNL A   1      43.009  28.680  28.379  1.00  0.00     0.010 A 
ATOM     65  C   UNL A   1      41.805  26.873  29.457  1.00  0.00     0.010 A 
ATOM     66  C   UNL A   1      43.185  27.886  27.244  1.00  0.00     0.020 A 
ATOM     67  C   UNL A   1      42.011  26.062  28.337  1.00  0.00     0.020 A 
ATOM     68  C   UNL A   1      42.679  26.584  27.227  1.00  0.00     0.054 A 
BRANCH  68  69
ATOM     69  S   UNL A   1      42.914  25.582  25.734  1.00  0.00     0.124 S 
ATOM     70  O   UNL A   1      44.351  25.717  25.505  1.00  0.00    -0.237 OA
ATOM     71  O   UNL A   1      42.470  24.259  26.165  1.00  0.00    -0.237 OA
ATOM     72  O   UNL A   1      42.061  26.230  24.742  1.00  0.00    -0.744 OA
ENDBRANCH  68  69
ENDBRANCH  49  63
BRANCH  50  73
ATOM     73  C   UNL A   1      39.933  33.885  37.381  1.00  0.00    -0.014 A 
ATOM     74  C   UNL A   1      38.976  33.396  38.287  1.00  0.00     0.010 A 
ATOM     75  C   UNL A   1      40.557  35.119  37.646  1.00  0.00     0.010 A 
ATOM     76  C   UNL A   1      38.653  34.126  39.436  1.00  0.00     0.020 A 
ATOM     77  C   UNL A   1      40.260  35.835  38.808  1.00  0.00     0.020 A 
ATOM     78  C   UNL A   1      39.306  35.335  39.694  1.00  0.00     0.054 A 
BRANCH  78  79
ATOM     79  S   UNL A   1      38.934  36.219  41.235  1.00  0.00     0.124 S 
ATOM     80  O   UNL A   1      40.128  35.957  42.032  1.00  0.00    -0.237 OA
ATOM     81  O   UNL A   1      38.768  37.594  40.774  1.00  0.00    -0.237 OA
ATOM     82  O   UNL A   1      37.710  35.577  41.709  1.00  0.00    -0.744 OA
ENDBRANCH  78  79
ENDBRANCH  50  73
BRANCH  62  83
ATOM     83  C   UNL A   1      45.249  29.578  35.925  1.00  0.00    -0.014 A 
ATOM     84  C   UNL A   1      46.470  30.269  35.833  1.00  0.00     0.010 A 
ATOM     85  C   UNL A   1      45.128  28.515  36.839  1.00  0.00     0.010 A 
ATOM     86  C   UNL A   1      47.552  29.897  36.633  1.00  0.00     0.020 A 
ATOM     87  C   UNL A   1      46.199  28.160  37.663  1.00  0.00     0.020 A 
ATOM     88  C   UNL A   1      47.406  28.852  37.551  1.00  0.00     0.054 A 
BRANCH  88  89
ATOM     89  S   UNL A   1      48.803  28.448  38.635  1.00  0.00     0.124 S 
ATOM     90  O   UNL A   1      49.898  29.184  38.009  1.00  0.00    -0.237 OA
ATOM     91  O   UNL A   1      48.359  28.960  39.929  1.00  0.00    -0.237 OA
ATOM     92  O   UNL A   1      48.902  26.993  38.547  1.00  0.00    -0.744 OA
ENDBRANCH  88  89
ENDBRANCH  62  83
ENDBRANCH  36  37
ENDBRANCH  28  31
ENDBRANCH  26  27
ENDBRANCH  25  26
ENDBRANCH  24  25
ENDBRANCH   3  24
TORSDOF 19
ENDMDL
MODEL 3
REMARK VINA RESULT:     -10.9      3.429      9.177
REMARK SMILES COC(=O)[C@@H]1CN(C(=O)NC(=O)CCCC(=O)NCCCNC(=O)c2ccc(-c3c4nc(c(-c5ccc(S(=O)(=O)[O-])cc5)c5ccc([nH]5)c(-c5ccc(S(=O)(=O)[O-])cc5)c5nc(c(-c6ccc(S(=O)(=O)[O-])cc6)c6ccc3[nH]6)C=C5)C=C4)cc2)C[C@H]1C
REMARK SMILES IDX 16 1 17 2 18 3 15 5 14 6 13 7 11 8 8 9 9 10 10 11 12 13 7 14
REMARK SMILES IDX 5 15 6 16 86 17 85 18 87 19 3 20 4 21 2 22 1 23 19 24 20 25
REMARK SMILES IDX 21 26 22 27 23 28 24 30 25 31 26 32 84 33 27 34 83 35 28 36
REMARK SMILES IDX 29 37 30 38 77 39 31 40 82 41 76 42 78 43 32 44 81 45 75 46
REMARK SMILES IDX 74 47 33 49 63 50 44 51 62 52 45 53 48 54 61 55 79 56 46 57
REMARK SMILES IDX 47 58 60 60 80 61 49 62 34 63 35 64 43 65 36 66 42 67 37 68
REMARK SMILES IDX 38 69 39 70 40 71 41 72 64 73 65 74 73 75 66 76 72 77 67 78
REMARK SMILES IDX 68 79 69 80 70 81 71 82 50 83 51 84 59 85 52 86 58 87 53 88
REMARK SMILES IDX 54 89 55 90 56 91 57 92
REMARK H PARENT 18 4 10 12 22 29 78 48 48 59
REMARK Flexibility Score: inf
ROOT
ATOM      1  C   UNL A   1      32.657  28.852  23.619  1.00  0.00     0.220 C 
ATOM      2  O   UNL A   1      32.590  28.974  22.372  1.00  0.00    -0.275 OA
ATOM      3  N   UNL A   1      31.931  29.989  25.055  1.00  0.00    -0.356 N 
ATOM      4  H   UNL A   1      31.363  30.693  24.667  1.00  0.00     0.163 HD
ENDROOT
BRANCH   1   5
ATOM      5  C   UNL A   1      33.673  27.359  23.850  1.00  0.00     0.100 C 
BRANCH   5   6
ATOM      6  C   UNL A   1      33.480  26.057  24.710  1.00  0.00     0.020 C 
BRANCH   6   7
ATOM      7  C   UNL A   1      32.669  25.902  26.012  1.00  0.00     0.101 C 
BRANCH   7   8
ATOM      8  C   UNL A   1      31.180  26.114  26.047  1.00  0.00     0.227 C 
ATOM      9  C   UNL A   1      30.416  23.832  26.723  1.00  0.00     0.324 C 
ATOM     10  O   UNL A   1      29.556  23.295  27.427  1.00  0.00    -0.248 OA
ATOM     11  N   UNL A   1      30.344  25.167  26.540  1.00  0.00    -0.278 N 
ATOM     12  H   UNL A   1      29.482  25.541  26.831  1.00  0.00     0.174 HD
ATOM     13  O   UNL A   1      30.681  27.136  25.570  1.00  0.00    -0.275 OA
BRANCH   9  14
ATOM     14  N   UNL A   1      31.385  23.085  26.111  1.00  0.00    -0.323 N 
ATOM     15  C   UNL A   1      33.990  21.608  24.857  1.00  0.00     0.123 C 
ATOM     16  C   UNL A   1      33.090  22.160  26.605  1.00  0.00     0.137 C 
ATOM     17  C   UNL A   1      32.741  22.160  23.344  1.00  0.00     0.021 C 
ATOM     18  C   UNL A   1      31.160  23.070  24.186  1.00  0.00     0.125 C 
ATOM     19  C   UNL A   1      33.384  23.067  22.258  1.00  0.00     0.010 C 
BRANCH  15  20
ATOM     20  C   UNL A   1      34.528  20.193  24.648  1.00  0.00     0.310 C 
ATOM     21  O   UNL A   1      35.678  19.901  24.974  1.00  0.00    -0.252 OA
BRANCH  20  22
ATOM     22  O   UNL A   1      33.670  19.201  24.323  1.00  0.00    -0.469 OA
ATOM     23  C   UNL A   1      33.045  18.312  25.249  1.00  0.00     0.282 C 
ENDBRANCH  20  22
ENDBRANCH  15  20
ENDBRANCH   9  14
ENDBRANCH   7   8
ENDBRANCH   6   7
ENDBRANCH   5   6
ENDBRANCH   1   5
BRANCH   3  24
ATOM     24  C   UNL A   1      31.967  30.142  26.710  1.00  0.00     0.117 C 
BRANCH  24  25
ATOM     25  C   UNL A   1      33.127  29.333  27.310  1.00  0.00     0.042 C 
BRANCH  25  26
ATOM     26  C   UNL A   1      34.452  30.058  27.251  1.00  0.00     0.118 C 
BRANCH  26  27
ATOM     27  N   UNL A   1      34.352  31.367  27.866  1.00  0.00    -0.352 N 
ATOM     28  C   UNL A   1      35.082  31.875  28.918  1.00  0.00     0.251 C 
ATOM     29  H   UNL A   1      33.676  31.971  27.482  1.00  0.00     0.163 HD
ATOM     30  O   UNL A   1      34.668  32.855  29.529  1.00  0.00    -0.269 OA
BRANCH  28  31
ATOM     31  C   UNL A   1      36.340  31.210  29.324  1.00  0.00     0.039 A 
ATOM     32  C   UNL A   1      37.564  31.732  28.903  1.00  0.00     0.014 A 
ATOM     33  C   UNL A   1      36.308  30.080  30.144  1.00  0.00     0.014 A 
ATOM     34  C   UNL A   1      38.753  31.164  29.369  1.00  0.00     0.010 A 
ATOM     35  C   UNL A   1      37.481  29.601  30.708  1.00  0.00     0.010 A 
ATOM     36  C   UNL A   1      38.720  30.125  30.314  1.00  0.00    -0.014 A 
BRANCH  36  37
ATOM     37  C   UNL A   1      39.960  29.553  30.897  1.00  0.00     0.031 A 
ATOM     38  C   UNL A   1      40.568  30.179  32.124  1.00  0.00     0.074 A 
ATOM     39  C   UNL A   1      40.583  28.531  30.276  1.00  0.00     0.049 A 
ATOM     40  N   UNL A   1      41.697  29.897  32.720  1.00  0.00    -0.248 NA
ATOM     41  C   UNL A   1      39.827  31.293  32.739  1.00  0.00     0.031 C 
ATOM     42  C   UNL A   1      40.117  27.870  29.055  1.00  0.00     0.029 A 
ATOM     43  N   UNL A   1      41.751  27.878  30.581  1.00  0.00    -0.354 N 
ATOM     44  C   UNL A   1      41.807  30.805  33.768  1.00  0.00     0.074 A 
ATOM     45  C   UNL A   1      40.669  31.692  33.680  1.00  0.00     0.031 C 
ATOM     46  C   UNL A   1      40.978  26.893  28.728  1.00  0.00     0.029 A 
ATOM     47  C   UNL A   1      42.084  26.895  29.679  1.00  0.00     0.049 A 
ATOM     48  H   UNL A   1      42.299  28.093  31.371  1.00  0.00     0.167 HD
ATOM     49  C   UNL A   1      42.753  30.879  34.733  1.00  0.00     0.031 A 
ATOM     50  C   UNL A   1      43.169  26.098  29.610  1.00  0.00     0.031 A 
ATOM     51  C   UNL A   1      43.885  29.995  34.810  1.00  0.00     0.049 A 
ATOM     52  C   UNL A   1      44.232  26.220  30.665  1.00  0.00     0.074 A 
ATOM     53  C   UNL A   1      44.877  29.949  35.772  1.00  0.00     0.029 A 
ATOM     54  N   UNL A   1      44.181  29.008  33.880  1.00  0.00    -0.354 N 
ATOM     55  N   UNL A   1      44.276  27.030  31.696  1.00  0.00    -0.248 NA
ATOM     56  C   UNL A   1      45.388  25.321  30.553  1.00  0.00     0.031 C 
ATOM     57  C   UNL A   1      45.810  28.983  35.387  1.00  0.00     0.029 A 
ATOM     58  C   UNL A   1      45.364  28.376  34.222  1.00  0.00     0.049 A 
ATOM     59  H   UNL A   1      43.630  28.790  33.093  1.00  0.00     0.167 HD
ATOM     60  C   UNL A   1      45.460  26.733  32.362  1.00  0.00     0.074 A 
ATOM     61  C   UNL A   1      46.088  25.651  31.630  1.00  0.00     0.031 C 
ATOM     62  C   UNL A   1      45.982  27.309  33.474  1.00  0.00     0.031 A 
BRANCH  49  63
ATOM     63  C   UNL A   1      42.603  31.967  35.767  1.00  0.00    -0.014 A 
ATOM     64  C   UNL A   1      41.839  31.764  36.933  1.00  0.00     0.010 A 
ATOM     65  C   UNL A   1      43.234  33.209  35.576  1.00  0.00     0.010 A 
ATOM     66  C   UNL A   1      41.655  32.801  37.850  1.00  0.00     0.020 A 
ATOM     67  C   UNL A   1      43.083  34.238  36.510  1.00  0.00     0.020 A 
ATOM     68  C   UNL A   1      42.273  34.034  37.629  1.00  0.00     0.054 A 
BRANCH  68  69
ATOM     69  S   UNL A   1      42.006  35.365  38.832  1.00  0.00     0.124 S 
ATOM     70  O   UNL A   1      42.428  36.542  38.075  1.00  0.00    -0.237 OA
ATOM     71  O   UNL A   1      40.572  35.272  39.097  1.00  0.00    -0.237 OA
ATOM     72  O   UNL A   1      42.870  35.001  39.952  1.00  0.00    -0.744 OA
ENDBRANCH  68  69
ENDBRANCH  49  63
BRANCH  50  73
ATOM     73  C   UNL A   1      43.299  25.135  28.481  1.00  0.00    -0.014 A 
ATOM     74  C   UNL A   1      43.995  25.483  27.311  1.00  0.00     0.010 A 
ATOM     75  C   UNL A   1      42.765  23.837  28.598  1.00  0.00     0.010 A 
ATOM     76  C   UNL A   1      44.158  24.550  26.281  1.00  0.00     0.020 A 
ATOM     77  C   UNL A   1      42.953  22.893  27.585  1.00  0.00     0.020 A 
ATOM     78  C   UNL A   1      43.645  23.258  26.430  1.00  0.00     0.054 A 
BRANCH  78  79
ATOM     79  S   UNL A   1      43.945  22.040  25.119  1.00  0.00     0.124 S 
ATOM     80  O   UNL A   1      45.384  21.821  25.230  1.00  0.00    -0.237 OA
ATOM     81  O   UNL A   1      43.100  20.923  25.531  1.00  0.00    -0.237 OA
ATOM     82  O   UNL A   1      43.507  22.729  23.907  1.00  0.00    -0.744 OA
ENDBRANCH  78  79
ENDBRANCH  50  73
BRANCH  62  83
ATOM     83  C   UNL A   1      47.302  26.785  33.974  1.00  0.00    -0.014 A 
ATOM     84  C   UNL A   1      48.512  27.386  33.585  1.00  0.00     0.010 A 
ATOM     85  C   UNL A   1      47.325  25.742  34.919  1.00  0.00     0.010 A 
ATOM     86  C   UNL A   1      49.723  26.945  34.123  1.00  0.00     0.020 A 
ATOM     87  C   UNL A   1      48.531  25.320  35.482  1.00  0.00     0.020 A 
ATOM     88  C   UNL A   1      49.724  25.922  35.077  1.00  0.00     0.054 A 
BRANCH  88  89
ATOM     89  S   UNL A   1      51.303  25.430  35.819  1.00  0.00     0.124 S 
ATOM     90  O   UNL A   1      51.622  26.585  36.654  1.00  0.00    -0.237 OA
ATOM     91  O   UNL A   1      50.947  24.211  36.542  1.00  0.00    -0.237 OA
ATOM     92  O   UNL A   1      52.181  25.232  34.669  1.00  0.00    -0.744 OA
ENDBRANCH  88  89
ENDBRANCH  62  83
ENDBRANCH  36  37
ENDBRANCH  28  31
ENDBRANCH  26  27
ENDBRANCH  25  26
ENDBRANCH  24  25
ENDBRANCH   3  24
TORSDOF 19
ENDMDL
