MODEL 1
REMARK VINA RESULT:     -13.6      0.000      0.000
REMARK SMILES Cc1ccc(S(=O)(=O)N(CC(=O)NCCCNC(=O)c2ccc(-c3c4nc(c(-c5ccc(S(=O)(=O)[O-])cc5)c5ccc([nH]5)c(-c5ccc(S(=O)(=O)[O-])cc5)c5nc(c(-c6ccc(S(=O)(=O)[O-])cc6)c6ccc3[nH]6)C=C5)C=C4)cc2)c2cc(Cl)cc(Cl)c2)cc1
REMARK SMILES IDX 15 1 14 2 13 3 11 4 12 5 10 7 9 8 6 9 7 10 8 11 5 12 1 13
REMARK SMILES IDX 2 14 3 15 89 16 4 17 88 18 80 19 81 20 87 21 82 22 85 23
REMARK SMILES IDX 83 24 84 25 86 26 16 27 17 28 18 29 19 31 20 32 21 33 79 34
REMARK SMILES IDX 22 35 78 36 23 37 24 38 25 39 72 40 26 41 77 42 71 43 73 44
REMARK SMILES IDX 27 45 76 46 70 47 69 48 28 50 58 51 39 52 57 53 40 54 43 55
REMARK SMILES IDX 56 56 74 57 41 58 42 59 55 61 75 62 44 63 29 64 30 65 38 66
REMARK SMILES IDX 31 67 37 68 32 69 33 70 34 71 35 72 36 73 59 74 60 75 68 76
REMARK SMILES IDX 61 77 67 78 62 79 63 80 64 81 65 82 66 83 45 84 46 85 54 86
REMARK SMILES IDX 47 87 53 88 48 89 49 90 50 91 51 92 52 93
REMARK H PARENT 13 6 17 30 73 49 43 60
REMARK Flexibility Score: inf
ROOT
ATOM      1  C   UNL A   1      33.138  29.829  27.371  1.00  0.00     0.042 C 
ENDROOT
BRANCH   1   2
ATOM      2  C   UNL A   1      32.271  29.440  26.180  1.00  0.00     0.117 C 
BRANCH   2   3
ATOM      3  N   UNL A   1      31.335  28.357  26.441  1.00  0.00    -0.354 N 
ATOM      4  C   UNL A   1      31.487  27.007  26.344  1.00  0.00     0.240 C 
ATOM      5  O   UNL A   1      30.628  26.295  26.876  1.00  0.00    -0.273 OA
ATOM      6  H   UNL A   1      30.442  28.649  26.737  1.00  0.00     0.163 HD
BRANCH   4   7
ATOM      7  C   UNL A   1      32.676  26.347  25.664  1.00  0.00     0.235 C 
BRANCH   7   8
ATOM      8  N   UNL A   1      32.437  25.644  24.365  1.00  0.00    -0.257 N 
BRANCH   8   9
ATOM      9  S   UNL A   1      32.592  26.649  22.961  1.00  0.00     0.264 S 
ATOM     10  O   UNL A   1      32.662  25.772  21.807  1.00  0.00    -0.201 OA
ATOM     11  O   UNL A   1      33.665  27.590  23.219  1.00  0.00    -0.201 OA
BRANCH   9  12
ATOM     12  C   UNL A   1      31.110  27.633  22.747  1.00  0.00     0.088 A 
ATOM     13  C   UNL A   1      27.652  30.222  22.681  1.00  0.00     0.044 C 
ATOM     14  C   UNL A   1      28.847  29.313  22.665  1.00  0.00    -0.051 A 
ATOM     15  C   UNL A   1      30.100  29.790  22.264  1.00  0.00     0.005 A 
ATOM     16  C   UNL A   1      28.740  28.001  23.129  1.00  0.00     0.005 A 
ATOM     17  C   UNL A   1      31.224  28.952  22.287  1.00  0.00     0.022 A 
ATOM     18  C   UNL A   1      29.870  27.184  23.215  1.00  0.00     0.022 A 
ENDBRANCH   9  12
ENDBRANCH   8   9
BRANCH   8  19
ATOM     19  C   UNL A   1      33.160  24.346  24.316  1.00  0.00     0.055 A 
ATOM     20  C   UNL A   1      34.562  24.355  24.415  1.00  0.00     0.047 A 
ATOM     21  C   UNL A   1      32.540  23.115  24.053  1.00  0.00     0.047 A 
ATOM     22  C   UNL A   1      35.310  23.193  24.196  1.00  0.00     0.044 A 
ATOM     23  C   UNL A   1      33.297  21.951  23.875  1.00  0.00     0.044 A 
ATOM     24  Cl  UNL A   1      37.029  23.268  24.219  1.00  0.00    -0.084 Cl
ATOM     25  C   UNL A   1      34.683  21.985  23.925  1.00  0.00     0.041 A 
ATOM     26  Cl  UNL A   1      32.500  20.457  23.556  1.00  0.00    -0.084 Cl
ENDBRANCH   8  19
ENDBRANCH   7   8
ENDBRANCH   4   7
ENDBRANCH   2   3
ENDBRANCH   1   2
BRANCH   1  27
ATOM     27  C   UNL A   1      34.630  29.789  27.066  1.00  0.00     0.118 C 
BRANCH  27  28
ATOM     28  N   UNL A   1      35.328  30.986  27.530  1.00  0.00    -0.352 N 
ATOM     29  C   UNL A   1      36.597  31.068  28.084  1.00  0.00     0.251 C 
ATOM     30  H   UNL A   1      34.841  31.837  27.437  1.00  0.00     0.163 HD
ATOM     31  O   UNL A   1      37.060  32.096  28.533  1.00  0.00    -0.269 OA
BRANCH  29  32
ATOM     32  C   UNL A   1      37.403  29.833  28.026  1.00  0.00     0.039 A 
ATOM     33  C   UNL A   1      37.429  29.039  29.176  1.00  0.00     0.014 A 
ATOM     34  C   UNL A   1      38.356  29.703  27.021  1.00  0.00     0.014 A 
ATOM     35  C   UNL A   1      38.539  28.238  29.416  1.00  0.00     0.010 A 
ATOM     36  C   UNL A   1      39.496  28.976  27.304  1.00  0.00     0.010 A 
ATOM     37  C   UNL A   1      39.609  28.295  28.527  1.00  0.00    -0.014 A 
BRANCH  37  38
ATOM     38  C   UNL A   1      40.918  27.721  28.813  1.00  0.00     0.031 A 
ATOM     39  C   UNL A   1      41.158  26.293  28.520  1.00  0.00     0.074 A 
ATOM     40  C   UNL A   1      41.923  28.491  29.288  1.00  0.00     0.049 A 
ATOM     41  N   UNL A   1      42.105  25.586  29.042  1.00  0.00    -0.248 NA
ATOM     42  C   UNL A   1      40.264  25.513  27.668  1.00  0.00     0.031 C 
ATOM     43  C   UNL A   1      43.342  28.141  29.336  1.00  0.00     0.029 A 
ATOM     44  N   UNL A   1      41.837  29.655  30.058  1.00  0.00    -0.354 N 
ATOM     45  C   UNL A   1      42.154  24.399  28.347  1.00  0.00     0.074 A 
ATOM     46  C   UNL A   1      40.907  24.344  27.625  1.00  0.00     0.031 C 
ATOM     47  C   UNL A   1      43.925  28.854  30.312  1.00  0.00     0.029 A 
ATOM     48  C   UNL A   1      42.865  29.558  31.013  1.00  0.00     0.049 A 
ATOM     49  H   UNL A   1      41.192  30.391  29.953  1.00  0.00     0.167 HD
ATOM     50  C   UNL A   1      43.315  23.687  28.327  1.00  0.00     0.031 A 
ATOM     51  C   UNL A   1      42.659  29.515  32.360  1.00  0.00     0.031 A 
ATOM     52  C   UNL A   1      44.267  24.183  29.325  1.00  0.00     0.049 A 
ATOM     53  C   UNL A   1      43.264  28.295  33.025  1.00  0.00     0.074 A 
ATOM     54  C   UNL A   1      45.449  24.902  29.251  1.00  0.00     0.029 A 
ATOM     55  N   UNL A   1      43.897  24.179  30.668  1.00  0.00    -0.354 N 
ATOM     56  N   UNL A   1      43.672  27.233  32.387  1.00  0.00    -0.248 NA
ATOM     57  C   UNL A   1      43.410  28.161  34.469  1.00  0.00     0.031 C 
ATOM     58  C   UNL A   1      45.752  25.387  30.555  1.00  0.00     0.029 A 
ATOM     59  C   UNL A   1      44.772  24.936  31.424  1.00  0.00     0.049 A 
ATOM     60  H   UNL A   1      43.118  23.701  31.031  1.00  0.00     0.167 HD
ATOM     61  C   UNL A   1      44.119  26.290  33.280  1.00  0.00     0.074 A 
ATOM     62  C   UNL A   1      43.948  26.932  34.573  1.00  0.00     0.031 C 
ATOM     63  C   UNL A   1      44.572  25.067  32.867  1.00  0.00     0.031 A 
BRANCH  50  64
ATOM     64  C   UNL A   1      43.689  22.718  27.214  1.00  0.00    -0.014 A 
ATOM     65  C   UNL A   1      42.806  21.673  26.865  1.00  0.00     0.010 A 
ATOM     66  C   UNL A   1      44.931  22.703  26.549  1.00  0.00     0.010 A 
ATOM     67  C   UNL A   1      43.171  20.647  25.970  1.00  0.00     0.020 A 
ATOM     68  C   UNL A   1      45.312  21.690  25.657  1.00  0.00     0.020 A 
ATOM     69  C   UNL A   1      44.435  20.653  25.386  1.00  0.00     0.054 A 
BRANCH  69  70
ATOM     70  S   UNL A   1      44.936  19.300  24.292  1.00  0.00     0.124 S 
ATOM     71  O   UNL A   1      46.380  19.244  24.504  1.00  0.00    -0.237 OA
ATOM     72  O   UNL A   1      44.175  18.170  24.817  1.00  0.00    -0.237 OA
ATOM     73  O   UNL A   1      44.526  19.756  22.964  1.00  0.00    -0.744 OA
ENDBRANCH  69  70
ENDBRANCH  50  64
BRANCH  51  74
ATOM     74  C   UNL A   1      41.430  30.214  32.824  1.00  0.00    -0.014 A 
ATOM     75  C   UNL A   1      40.302  29.419  33.115  1.00  0.00     0.010 A 
ATOM     76  C   UNL A   1      41.505  31.511  33.359  1.00  0.00     0.010 A 
ATOM     77  C   UNL A   1      39.360  29.841  34.055  1.00  0.00     0.020 A 
ATOM     78  C   UNL A   1      40.557  31.940  34.300  1.00  0.00     0.020 A 
ATOM     79  C   UNL A   1      39.531  31.072  34.688  1.00  0.00     0.054 A 
BRANCH  79  80
ATOM     80  S   UNL A   1      38.530  31.406  36.170  1.00  0.00     0.124 S 
ATOM     81  O   UNL A   1      39.468  32.127  37.024  1.00  0.00    -0.237 OA
ATOM     82  O   UNL A   1      37.439  32.209  35.616  1.00  0.00    -0.237 OA
ATOM     83  O   UNL A   1      38.154  30.073  36.628  1.00  0.00    -0.744 OA
ENDBRANCH  79  80
ENDBRANCH  51  74
BRANCH  63  84
ATOM     84  C   UNL A   1      44.925  23.868  33.738  1.00  0.00    -0.014 A 
ATOM     85  C   UNL A   1      44.105  22.753  33.962  1.00  0.00     0.010 A 
ATOM     86  C   UNL A   1      46.219  23.814  34.322  1.00  0.00     0.010 A 
ATOM     87  C   UNL A   1      44.528  21.669  34.751  1.00  0.00     0.020 A 
ATOM     88  C   UNL A   1      46.669  22.723  35.075  1.00  0.00     0.020 A 
ATOM     89  C   UNL A   1      45.807  21.660  35.303  1.00  0.00     0.054 A 
BRANCH  89  90
ATOM     90  S   UNL A   1      46.353  20.224  36.262  1.00  0.00     0.124 S 
ATOM     91  O   UNL A   1      46.022  20.628  37.625  1.00  0.00    -0.237 OA
ATOM     92  O   UNL A   1      45.537  19.143  35.713  1.00  0.00    -0.237 OA
ATOM     93  O   UNL A   1      47.779  20.130  35.964  1.00  0.00    -0.744 OA
ENDBRANCH  89  90
ENDBRANCH  63  84
ENDBRANCH  37  38
ENDBRANCH  29  32
ENDBRANCH  27  28
ENDBRANCH   1  27
TORSDOF 17
ENDMDL
MODEL 2
REMARK VINA RESULT:     -13.3      5.116     11.469
REMARK SMILES Cc1ccc(S(=O)(=O)N(CC(=O)NCCCNC(=O)c2ccc(-c3c4nc(c(-c5ccc(S(=O)(=O)[O-])cc5)c5ccc([nH]5)c(-c5ccc(S(=O)(=O)[O-])cc5)c5nc(c(-c6ccc(S(=O)(=O)[O-])cc6)c6ccc3[nH]6)C=C5)C=C4)cc2)c2cc(Cl)cc(Cl)c2)cc1
REMARK SMILES IDX 15 1 14 2 13 3 11 4 12 5 10 7 9 8 6 9 7 10 8 11 5 12 1 13
REMARK SMILES IDX 2 14 3 15 89 16 4 17 88 18 80 19 81 20 87 21 82 22 85 23
REMARK SMILES IDX 83 24 84 25 86 26 16 27 17 28 18 29 19 31 20 32 21 33 79 34
REMARK SMILES IDX 22 35 78 36 23 37 24 38 25 39 72 40 26 41 77 42 71 43 73 44
REMARK SMILES IDX 27 45 76 46 70 47 69 48 28 50 58 51 39 52 57 53 40 54 43 55
REMARK SMILES IDX 56 56 74 57 41 58 42 59 55 61 75 62 44 63 29 64 30 65 38 66
REMARK SMILES IDX 31 67 37 68 32 69 33 70 34 71 35 72 36 73 59 74 60 75 68 76
REMARK SMILES IDX 61 77 67 78 62 79 63 80 64 81 65 82 66 83 45 84 46 85 54 86
REMARK SMILES IDX 47 87 53 88 48 89 49 90 50 91 51 92 52 93
REMARK H PARENT 13 6 17 30 73 49 43 60
REMARK Flexibility Score: inf
ROOT
ATOM      1  C   UNL A   1      37.648  22.323  25.134  1.00  0.00     0.042 C 
ENDROOT
BRANCH   1   2
ATOM      2  C   UNL A   1      36.173  21.950  25.219  1.00  0.00     0.117 C 
BRANCH   2   3
ATOM      3  N   UNL A   1      35.583  22.110  26.539  1.00  0.00    -0.354 N 
ATOM      4  C   UNL A   1      34.521  22.854  26.955  1.00  0.00     0.240 C 
ATOM      5  O   UNL A   1      34.056  22.613  28.075  1.00  0.00    -0.273 OA
ATOM      6  H   UNL A   1      36.026  21.593  27.251  1.00  0.00     0.163 HD
BRANCH   4   7
ATOM      7  C   UNL A   1      33.859  23.919  26.095  1.00  0.00     0.235 C 
BRANCH   7   8
ATOM      8  N   UNL A   1      33.350  23.512  24.748  1.00  0.00    -0.257 N 
BRANCH   8   9
ATOM      9  S   UNL A   1      31.868  22.613  24.778  1.00  0.00     0.264 S 
ATOM     10  O   UNL A   1      31.042  23.103  23.689  1.00  0.00    -0.201 OA
ATOM     11  O   UNL A   1      31.367  22.651  26.139  1.00  0.00    -0.201 OA
BRANCH   9  12
ATOM     12  C   UNL A   1      32.192  20.888  24.416  1.00  0.00     0.088 A 
ATOM     13  C   UNL A   1      33.467  16.862  23.507  1.00  0.00     0.044 C 
ATOM     14  C   UNL A   1      32.987  18.246  23.833  1.00  0.00    -0.051 A 
ATOM     15  C   UNL A   1      33.089  18.747  25.137  1.00  0.00     0.005 A 
ATOM     16  C   UNL A   1      32.508  19.083  22.824  1.00  0.00     0.005 A 
ATOM     17  C   UNL A   1      32.679  20.055  25.433  1.00  0.00     0.022 A 
ATOM     18  C   UNL A   1      32.161  20.406  23.104  1.00  0.00     0.022 A 
ENDBRANCH   9  12
ENDBRANCH   8   9
BRANCH   8  19
ATOM     19  C   UNL A   1      33.400  24.647  23.789  1.00  0.00     0.055 A 
ATOM     20  C   UNL A   1      33.633  25.939  24.291  1.00  0.00     0.047 A 
ATOM     21  C   UNL A   1      33.106  24.529  22.423  1.00  0.00     0.047 A 
ATOM     22  C   UNL A   1      33.513  27.066  23.471  1.00  0.00     0.044 A 
ATOM     23  C   UNL A   1      33.029  25.662  21.603  1.00  0.00     0.044 A 
ATOM     24  Cl  UNL A   1      33.699  28.638  24.148  1.00  0.00    -0.084 Cl
ATOM     25  C   UNL A   1      33.210  26.935  22.124  1.00  0.00     0.041 A 
ATOM     26  Cl  UNL A   1      32.668  25.478  19.927  1.00  0.00    -0.084 Cl
ENDBRANCH   8  19
ENDBRANCH   7   8
ENDBRANCH   4   7
ENDBRANCH   2   3
ENDBRANCH   1   2
BRANCH   1  27
ATOM     27  C   UNL A   1      38.057  23.386  26.145  1.00  0.00     0.118 C 
BRANCH  27  28
ATOM     28  N   UNL A   1      39.308  23.059  26.827  1.00  0.00    -0.352 N 
ATOM     29  C   UNL A   1      40.149  23.920  27.516  1.00  0.00     0.251 C 
ATOM     30  H   UNL A   1      39.587  22.116  26.793  1.00  0.00     0.163 HD
ATOM     31  O   UNL A   1      41.221  23.578  27.969  1.00  0.00    -0.269 OA
BRANCH  29  32
ATOM     32  C   UNL A   1      39.626  25.280  27.746  1.00  0.00     0.039 A 
ATOM     33  C   UNL A   1      40.103  26.293  26.908  1.00  0.00     0.014 A 
ATOM     34  C   UNL A   1      39.004  25.563  28.958  1.00  0.00     0.014 A 
ATOM     35  C   UNL A   1      40.135  27.599  27.379  1.00  0.00     0.010 A 
ATOM     36  C   UNL A   1      39.119  26.845  29.458  1.00  0.00     0.010 A 
ATOM     37  C   UNL A   1      39.738  27.845  28.692  1.00  0.00    -0.014 A 
BRANCH  37  38
ATOM     38  C   UNL A   1      39.983  29.107  29.378  1.00  0.00     0.031 A 
ATOM     39  C   UNL A   1      38.996  30.200  29.252  1.00  0.00     0.074 A 
ATOM     40  C   UNL A   1      41.071  29.268  30.166  1.00  0.00     0.049 A 
ATOM     41  N   UNL A   1      39.246  31.445  29.486  1.00  0.00    -0.248 NA
ATOM     42  C   UNL A   1      37.645  29.972  28.747  1.00  0.00     0.031 C 
ATOM     43  C   UNL A   1      41.294  30.337  31.138  1.00  0.00     0.029 A 
ATOM     44  N   UNL A   1      42.313  28.632  30.074  1.00  0.00    -0.354 N 
ATOM     45  C   UNL A   1      38.038  32.104  29.503  1.00  0.00     0.074 A 
ATOM     46  C   UNL A   1      37.110  31.186  28.890  1.00  0.00     0.031 C 
ATOM     47  C   UNL A   1      42.615  30.487  31.313  1.00  0.00     0.029 A 
ATOM     48  C   UNL A   1      43.271  29.626  30.343  1.00  0.00     0.049 A 
ATOM     49  H   UNL A   1      42.482  27.685  29.865  1.00  0.00     0.167 HD
ATOM     50  C   UNL A   1      37.928  33.275  30.190  1.00  0.00     0.031 A 
ATOM     51  C   UNL A   1      44.222  30.034  29.456  1.00  0.00     0.031 A 
ATOM     52  C   UNL A   1      39.242  33.801  30.571  1.00  0.00     0.049 A 
ATOM     53  C   UNL A   1      44.190  31.524  29.179  1.00  0.00     0.074 A 
ATOM     54  C   UNL A   1      39.927  33.897  31.771  1.00  0.00     0.029 A 
ATOM     55  N   UNL A   1      40.168  34.087  29.570  1.00  0.00    -0.354 N 
ATOM     56  N   UNL A   1      43.197  32.311  29.488  1.00  0.00    -0.248 NA
ATOM     57  C   UNL A   1      45.260  32.232  28.486  1.00  0.00     0.031 C 
ATOM     58  C   UNL A   1      41.291  34.180  31.479  1.00  0.00     0.029 A 
ATOM     59  C   UNL A   1      41.427  34.286  30.105  1.00  0.00     0.049 A 
ATOM     60  H   UNL A   1      39.955  34.141  28.612  1.00  0.00     0.167 HD
ATOM     61  C   UNL A   1      43.458  33.589  29.056  1.00  0.00     0.074 A 
ATOM     62  C   UNL A   1      44.775  33.486  28.450  1.00  0.00     0.031 C 
ATOM     63  C   UNL A   1      42.555  34.603  29.228  1.00  0.00     0.031 A 
BRANCH  50  64
ATOM     64  C   UNL A   1      36.614  33.800  30.753  1.00  0.00    -0.014 A 
ATOM     65  C   UNL A   1      35.507  33.987  29.897  1.00  0.00     0.010 A 
ATOM     66  C   UNL A   1      36.429  34.236  32.080  1.00  0.00     0.010 A 
ATOM     67  C   UNL A   1      34.328  34.631  30.323  1.00  0.00     0.020 A 
ATOM     68  C   UNL A   1      35.265  34.880  32.521  1.00  0.00     0.020 A 
ATOM     69  C   UNL A   1      34.224  35.093  31.633  1.00  0.00     0.054 A 
BRANCH  69  70
ATOM     70  S   UNL A   1      32.740  35.985  32.166  1.00  0.00     0.124 S 
ATOM     71  O   UNL A   1      31.867  34.902  32.609  1.00  0.00    -0.237 OA
ATOM     72  O   UNL A   1      33.255  36.853  33.220  1.00  0.00    -0.237 OA
ATOM     73  O   UNL A   1      32.297  36.678  30.956  1.00  0.00    -0.744 OA
ENDBRANCH  69  70
ENDBRANCH  50  64
BRANCH  51  74
ATOM     74  C   UNL A   1      44.647  28.997  28.477  1.00  0.00    -0.014 A 
ATOM     75  C   UNL A   1      44.069  29.043  27.191  1.00  0.00     0.010 A 
ATOM     76  C   UNL A   1      45.850  28.294  28.658  1.00  0.00     0.010 A 
ATOM     77  C   UNL A   1      44.762  28.550  26.084  1.00  0.00     0.020 A 
ATOM     78  C   UNL A   1      46.546  27.793  27.548  1.00  0.00     0.020 A 
ATOM     79  C   UNL A   1      46.025  27.987  26.264  1.00  0.00     0.054 A 
BRANCH  79  80
ATOM     80  S   UNL A   1      47.053  27.729  24.786  1.00  0.00     0.124 S 
ATOM     81  O   UNL A   1      46.772  26.337  24.449  1.00  0.00    -0.237 OA
ATOM     82  O   UNL A   1      46.501  28.723  23.864  1.00  0.00    -0.237 OA
ATOM     83  O   UNL A   1      48.403  28.004  25.264  1.00  0.00    -0.744 OA
ENDBRANCH  79  80
ENDBRANCH  51  74
BRANCH  63  84
ATOM     84  C   UNL A   1      42.625  36.011  28.652  1.00  0.00    -0.014 A 
ATOM     85  C   UNL A   1      42.112  36.409  27.409  1.00  0.00     0.010 A 
ATOM     86  C   UNL A   1      43.180  37.044  29.454  1.00  0.00     0.010 A 
ATOM     87  C   UNL A   1      42.184  37.743  26.971  1.00  0.00     0.020 A 
ATOM     88  C   UNL A   1      43.222  38.383  29.048  1.00  0.00     0.020 A 
ATOM     89  C   UNL A   1      42.738  38.723  27.793  1.00  0.00     0.054 A 
BRANCH  89  90
ATOM     90  S   UNL A   1      42.762  40.445  27.235  1.00  0.00     0.124 S 
ATOM     91  O   UNL A   1      44.064  40.899  27.714  1.00  0.00    -0.237 OA
ATOM     92  O   UNL A   1      42.639  40.313  25.784  1.00  0.00    -0.237 OA
ATOM     93  O   UNL A   1      41.606  41.040  27.898  1.00  0.00    -0.744 OA
ENDBRANCH  89  90
ENDBRANCH  63  84
ENDBRANCH  37  38
ENDBRANCH  29  32
ENDBRANCH  27  28
ENDBRANCH   1  27
TORSDOF 17
ENDMDL
MODEL 3
REMARK VINA RESULT:     -13.2      4.966     11.242
REMARK SMILES Cc1ccc(S(=O)(=O)N(CC(=O)NCCCNC(=O)c2ccc(-c3c4nc(c(-c5ccc(S(=O)(=O)[O-])cc5)c5ccc([nH]5)c(-c5ccc(S(=O)(=O)[O-])cc5)c5nc(c(-c6ccc(S(=O)(=O)[O-])cc6)c6ccc3[nH]6)C=C5)C=C4)cc2)c2cc(Cl)cc(Cl)c2)cc1
REMARK SMILES IDX 15 1 14 2 13 3 11 4 12 5 10 7 9 8 6 9 7 10 8 11 5 12 1 13
REMARK SMILES IDX 2 14 3 15 89 16 4 17 88 18 80 19 81 20 87 21 82 22 85 23
REMARK SMILES IDX 83 24 84 25 86 26 16 27 17 28 18 29 19 31 20 32 21 33 79 34
REMARK SMILES IDX 22 35 78 36 23 37 24 38 25 39 72 40 26 41 77 42 71 43 73 44
REMARK SMILES IDX 27 45 76 46 70 47 69 48 28 50 58 51 39 52 57 53 40 54 43 55
REMARK SMILES IDX 56 56 74 57 41 58 42 59 55 61 75 62 44 63 29 64 30 65 38 66
REMARK SMILES IDX 31 67 37 68 32 69 33 70 34 71 35 72 36 73 59 74 60 75 68 76
REMARK SMILES IDX 61 77 67 78 62 79 63 80 64 81 65 82 66 83 45 84 46 85 54 86
REMARK SMILES IDX 47 87 53 88 48 89 49 90 50 91 51 92 52 93
REMARK H PARENT 13 6 17 30 73 49 43 60
REMARK Flexibility Score: inf
ROOT
ATOM      1  C   UNL A   1      37.454  22.417  25.051  1.00  0.00     0.042 C 
ENDROOT
BRANCH   1   2
ATOM      2  C   UNL A   1      36.297  22.882  24.175  1.00  0.00     0.117 C 
BRANCH   2   3
ATOM      3  N   UNL A   1      35.036  22.202  24.427  1.00  0.00    -0.354 N 
ATOM      4  C   UNL A   1      33.753  22.578  24.163  1.00  0.00     0.240 C 
ATOM      5  O   UNL A   1      32.876  21.709  24.231  1.00  0.00    -0.273 OA
ATOM      6  H   UNL A   1      35.124  21.323  24.861  1.00  0.00     0.163 HD
BRANCH   4   7
ATOM      7  C   UNL A   1      33.365  23.988  23.744  1.00  0.00     0.235 C 
BRANCH   7   8
ATOM      8  N   UNL A   1      32.276  24.669  24.511  1.00  0.00    -0.257 N 
BRANCH   8   9
ATOM      9  S   UNL A   1      32.584  24.839  26.208  1.00  0.00     0.264 S 
ATOM     10  O   UNL A   1      33.872  24.224  26.476  1.00  0.00    -0.201 OA
ATOM     11  O   UNL A   1      31.402  24.377  26.911  1.00  0.00    -0.201 OA
BRANCH   9  12
ATOM     12  C   UNL A   1      32.766  26.571  26.626  1.00  0.00     0.088 A 
ATOM     13  C   UNL A   1      33.021  30.850  27.168  1.00  0.00     0.044 C 
ATOM     14  C   UNL A   1      32.938  29.358  27.020  1.00  0.00    -0.051 A 
ATOM     15  C   UNL A   1      31.723  28.689  27.203  1.00  0.00     0.005 A 
ATOM     16  C   UNL A   1      34.057  28.627  26.616  1.00  0.00     0.005 A 
ATOM     17  C   UNL A   1      31.637  27.301  27.025  1.00  0.00     0.022 A 
ATOM     18  C   UNL A   1      33.959  27.255  26.374  1.00  0.00     0.022 A 
ENDBRANCH   9  12
ENDBRANCH   8   9
BRANCH   8  19
ATOM     19  C   UNL A   1      31.814  25.896  23.810  1.00  0.00     0.055 A 
ATOM     20  C   UNL A   1      32.778  26.793  23.320  1.00  0.00     0.047 A 
ATOM     21  C   UNL A   1      30.468  26.281  23.713  1.00  0.00     0.047 A 
ATOM     22  C   UNL A   1      32.413  28.045  22.814  1.00  0.00     0.044 A 
ATOM     23  C   UNL A   1      30.111  27.520  23.168  1.00  0.00     0.044 A 
ATOM     24  Cl  UNL A   1      33.631  29.158  22.325  1.00  0.00    -0.084 Cl
ATOM     25  C   UNL A   1      31.078  28.417  22.736  1.00  0.00     0.041 A 
ATOM     26  Cl  UNL A   1      28.447  27.958  23.062  1.00  0.00    -0.084 Cl
ENDBRANCH   8  19
ENDBRANCH   7   8
ENDBRANCH   4   7
ENDBRANCH   2   3
ENDBRANCH   1   2
BRANCH   1  27
ATOM     27  C   UNL A   1      37.849  23.434  26.113  1.00  0.00     0.118 C 
BRANCH  27  28
ATOM     28  N   UNL A   1      39.107  23.093  26.775  1.00  0.00    -0.352 N 
ATOM     29  C   UNL A   1      39.977  23.946  27.438  1.00  0.00     0.251 C 
ATOM     30  H   UNL A   1      39.368  22.144  26.748  1.00  0.00     0.163 HD
ATOM     31  O   UNL A   1      41.051  23.589  27.875  1.00  0.00    -0.269 OA
BRANCH  29  32
ATOM     32  C   UNL A   1      39.482  25.318  27.662  1.00  0.00     0.039 A 
ATOM     33  C   UNL A   1      40.029  26.326  26.861  1.00  0.00     0.014 A 
ATOM     34  C   UNL A   1      38.811  25.604  28.846  1.00  0.00     0.014 A 
ATOM     35  C   UNL A   1      40.076  27.625  27.352  1.00  0.00     0.010 A 
ATOM     36  C   UNL A   1      38.938  26.876  29.369  1.00  0.00     0.010 A 
ATOM     37  C   UNL A   1      39.623  27.866  28.647  1.00  0.00    -0.014 A 
BRANCH  37  38
ATOM     38  C   UNL A   1      39.871  29.112  29.361  1.00  0.00     0.031 A 
ATOM     39  C   UNL A   1      38.900  30.219  29.239  1.00  0.00     0.074 A 
ATOM     40  C   UNL A   1      40.946  29.244  30.172  1.00  0.00     0.049 A 
ATOM     41  N   UNL A   1      39.160  31.456  29.502  1.00  0.00    -0.248 NA
ATOM     42  C   UNL A   1      37.555  30.018  28.706  1.00  0.00     0.031 C 
ATOM     43  C   UNL A   1      41.164  30.292  31.168  1.00  0.00     0.029 A 
ATOM     44  N   UNL A   1      42.181  28.595  30.090  1.00  0.00    -0.354 N 
ATOM     45  C   UNL A   1      37.960  32.130  29.510  1.00  0.00     0.074 A 
ATOM     46  C   UNL A   1      37.032  31.236  28.862  1.00  0.00     0.031 C 
ATOM     47  C   UNL A   1      42.484  30.422  31.369  1.00  0.00     0.029 A 
ATOM     48  C   UNL A   1      43.146  29.571  30.395  1.00  0.00     0.049 A 
ATOM     49  H   UNL A   1      42.343  27.650  29.866  1.00  0.00     0.167 HD
ATOM     50  C   UNL A   1      37.852  33.289  30.217  1.00  0.00     0.031 A 
ATOM     51  C   UNL A   1      44.119  29.985  29.533  1.00  0.00     0.031 A 
ATOM     52  C   UNL A   1      39.165  33.791  30.631  1.00  0.00     0.049 A 
ATOM     53  C   UNL A   1      44.110  31.479  29.284  1.00  0.00     0.074 A 
ATOM     54  C   UNL A   1      39.829  33.855  31.845  1.00  0.00     0.029 A 
ATOM     55  N   UNL A   1      40.113  34.085  29.653  1.00  0.00    -0.354 N 
ATOM     56  N   UNL A   1      43.120  32.273  29.590  1.00  0.00    -0.248 NA
ATOM     57  C   UNL A   1      45.200  32.187  28.624  1.00  0.00     0.031 C 
ATOM     58  C   UNL A   1      41.202  34.127  31.583  1.00  0.00     0.029 A 
ATOM     59  C   UNL A   1      41.364  34.258  30.214  1.00  0.00     0.049 A 
ATOM     60  H   UNL A   1      39.918  34.160  28.692  1.00  0.00     0.167 HD
ATOM     61  C   UNL A   1      43.404  33.555  29.188  1.00  0.00     0.074 A 
ATOM     62  C   UNL A   1      44.731  33.447  28.603  1.00  0.00     0.031 C 
ATOM     63  C   UNL A   1      42.511  34.577  29.364  1.00  0.00     0.031 A 
BRANCH  50  64
ATOM     64  C   UNL A   1      36.535  33.820  30.766  1.00  0.00    -0.014 A 
ATOM     65  C   UNL A   1      35.455  34.066  29.891  1.00  0.00     0.010 A 
ATOM     66  C   UNL A   1      36.323  34.205  32.105  1.00  0.00     0.010 A 
ATOM     67  C   UNL A   1      34.279  34.718  30.312  1.00  0.00     0.020 A 
ATOM     68  C   UNL A   1      35.161  34.856  32.542  1.00  0.00     0.020 A 
ATOM     69  C   UNL A   1      34.149  35.128  31.637  1.00  0.00     0.054 A 
BRANCH  69  70
ATOM     70  S   UNL A   1      32.670  36.030  32.167  1.00  0.00     0.124 S 
ATOM     71  O   UNL A   1      32.294  36.752  30.955  1.00  0.00    -0.237 OA
ATOM     72  O   UNL A   1      31.770  34.953  32.567  1.00  0.00    -0.237 OA
ATOM     73  O   UNL A   1      33.151  36.873  33.262  1.00  0.00    -0.744 OA
ENDBRANCH  69  70
ENDBRANCH  50  64
BRANCH  51  74
ATOM     74  C   UNL A   1      44.548  28.961  28.542  1.00  0.00    -0.014 A 
ATOM     75  C   UNL A   1      43.972  29.020  27.256  1.00  0.00     0.010 A 
ATOM     76  C   UNL A   1      45.753  28.260  28.716  1.00  0.00     0.010 A 
ATOM     77  C   UNL A   1      44.668  28.544  26.144  1.00  0.00     0.020 A 
ATOM     78  C   UNL A   1      46.452  27.775  27.601  1.00  0.00     0.020 A 
ATOM     79  C   UNL A   1      45.933  27.983  26.319  1.00  0.00     0.054 A 
BRANCH  79  80
ATOM     80  S   UNL A   1      46.964  27.747  24.839  1.00  0.00     0.124 S 
ATOM     81  O   UNL A   1      48.303  28.035  25.342  1.00  0.00    -0.237 OA
ATOM     82  O   UNL A   1      46.702  26.342  24.516  1.00  0.00    -0.237 OA
ATOM     83  O   UNL A   1      46.421  28.715  23.894  1.00  0.00    -0.744 OA
ENDBRANCH  79  80
ENDBRANCH  51  74
BRANCH  63  84
ATOM     84  C   UNL A   1      42.608  35.995  28.816  1.00  0.00    -0.014 A 
ATOM     85  C   UNL A   1      43.200  37.083  29.473  1.00  0.00     0.010 A 
ATOM     86  C   UNL A   1      42.138  36.246  27.499  1.00  0.00     0.010 A 
ATOM     87  C   UNL A   1      43.283  38.353  28.875  1.00  0.00     0.020 A 
ATOM     88  C   UNL A   1      42.251  37.494  26.876  1.00  0.00     0.020 A 
ATOM     89  C   UNL A   1      42.809  38.552  27.580  1.00  0.00     0.054 A 
BRANCH  89  90
ATOM     90  S   UNL A   1      42.984  40.179  26.807  1.00  0.00     0.124 S 
ATOM     91  O   UNL A   1      41.638  40.415  26.291  1.00  0.00    -0.237 OA
ATOM     92  O   UNL A   1      43.382  41.026  27.930  1.00  0.00    -0.237 OA
ATOM     93  O   UNL A   1      44.016  39.973  25.795  1.00  0.00    -0.744 OA
ENDBRANCH  89  90
ENDBRANCH  63  84
ENDBRANCH  37  38
ENDBRANCH  29  32
ENDBRANCH  27  28
ENDBRANCH   1  27
TORSDOF 17
ENDMDL
