MODEL 1
REMARK VINA RESULT:     -11.1      0.000      0.000
REMARK SMILES O=C(Cc1ccccc1Nc1c(F)cccc1C(F)(F)F)NCCCNC(=O)c1ccc(-c2c3nc(c(-c4ccc(S(=O)(=O)[O-])cc4)c4ccc([nH]4)c(-c4ccc(S(=O)(=O)[O-])cc4)c4nc(c(-c5ccc(S(=O)(=O)[O-])cc5)c5ccc2[nH]5)C=C4)C=C3)cc1
REMARK SMILES IDX 23 1 22 2 1 3 2 4 3 6 4 7 5 8 9 9 6 10 8 11 7 12 10 13 11 15
REMARK SMILES IDX 12 16 17 17 13 18 14 19 16 20 15 21 18 22 19 23 20 24 21 25
REMARK SMILES IDX 24 26 25 27 26 28 27 29 28 31 29 32 30 33 88 34 31 35 87 36
REMARK SMILES IDX 32 37 33 38 34 39 81 40 35 41 86 42 80 43 82 44 36 45 85 46
REMARK SMILES IDX 79 47 78 48 37 50 67 51 48 52 66 53 49 54 52 55 65 56 83 57
REMARK SMILES IDX 50 58 51 59 64 61 84 62 53 63 38 64 39 65 47 66 40 67 46 68
REMARK SMILES IDX 41 69 42 70 43 71 44 72 45 73 68 74 69 75 77 76 70 77 76 78
REMARK SMILES IDX 71 79 72 80 73 81 74 82 75 83 54 84 55 85 63 86 56 87 62 88
REMARK SMILES IDX 57 89 58 90 59 91 60 92 61 93
REMARK H PARENT 22 5 10 14 26 30 82 49 52 60
REMARK Flexibility Score: inf
ROOT
ATOM      1  C   UNL A   1      34.641  23.979  25.985  1.00  0.00     0.117 C 
ENDROOT
BRANCH   1   2
ATOM      2  N   UNL A   1      34.396  25.238  25.312  1.00  0.00    -0.356 N 
ATOM      3  O   UNL A   1      32.279  25.570  26.145  1.00  0.00    -0.275 OA
ATOM      4  C   UNL A   1      33.225  25.948  25.461  1.00  0.00     0.224 C 
ATOM      5  H   UNL A   1      35.097  25.602  24.723  1.00  0.00     0.163 HD
BRANCH   4   6
ATOM      6  C   UNL A   1      33.184  27.250  24.679  1.00  0.00     0.137 C 
BRANCH   6   7
ATOM      7  C   UNL A   1      32.959  28.497  25.517  1.00  0.00    -0.015 A 
ATOM      8  C   UNL A   1      33.674  28.668  26.722  1.00  0.00     0.006 A 
ATOM      9  C   UNL A   1      32.006  29.471  25.140  1.00  0.00     0.042 A 
ATOM     10  C   UNL A   1      33.499  29.804  27.508  1.00  0.00     0.000 A 
ATOM     11  C   UNL A   1      31.836  30.599  25.959  1.00  0.00     0.026 A 
ATOM     12  C   UNL A   1      32.581  30.772  27.126  1.00  0.00     0.002 A 
BRANCH   9  13
ATOM     13  N   UNL A   1      31.272  29.325  23.943  1.00  0.00    -0.352 N 
ATOM     14  H   UNL A   1      31.822  29.177  23.140  1.00  0.00     0.167 HD
BRANCH  13  15
ATOM     15  C   UNL A   1      29.881  29.354  23.704  1.00  0.00     0.087 A 
ATOM     16  C   UNL A   1      29.277  30.621  23.568  1.00  0.00     0.147 A 
ATOM     17  C   UNL A   1      29.076  28.215  23.524  1.00  0.00     0.082 A 
ATOM     18  F   UNL A   1      30.022  31.722  23.764  1.00  0.00    -0.205 F 
ATOM     19  C   UNL A   1      27.941  30.781  23.220  1.00  0.00     0.041 A 
ATOM     20  C   UNL A   1      27.721  28.388  23.147  1.00  0.00     0.015 A 
ATOM     21  C   UNL A   1      27.161  29.657  22.993  1.00  0.00     0.004 A 
BRANCH  17  22
ATOM     22  C   UNL A   1      29.557  26.800  23.748  1.00  0.00     0.418 C 
ATOM     23  F   UNL A   1      28.569  25.883  23.514  1.00  0.00    -0.166 F 
ATOM     24  F   UNL A   1      30.565  26.451  22.900  1.00  0.00    -0.166 F 
ATOM     25  F   UNL A   1      29.993  26.521  25.008  1.00  0.00    -0.166 F 
ENDBRANCH  17  22
ENDBRANCH  13  15
ENDBRANCH   9  13
ENDBRANCH   6   7
ENDBRANCH   4   6
ENDBRANCH   1   2
BRANCH   1  26
ATOM     26  C   UNL A   1      35.609  23.089  25.217  1.00  0.00     0.042 C 
BRANCH  26  27
ATOM     27  C   UNL A   1      37.011  23.672  25.062  1.00  0.00     0.118 C 
BRANCH  27  28
ATOM     28  N   UNL A   1      38.067  22.727  25.402  1.00  0.00    -0.352 N 
ATOM     29  C   UNL A   1      39.228  22.928  26.109  1.00  0.00     0.251 C 
ATOM     30  H   UNL A   1      37.928  21.807  25.078  1.00  0.00     0.163 HD
ATOM     31  O   UNL A   1      40.064  22.031  26.179  1.00  0.00    -0.269 OA
BRANCH  29  32
ATOM     32  C   UNL A   1      39.485  24.232  26.760  1.00  0.00     0.039 A 
ATOM     33  C   UNL A   1      39.000  24.451  28.053  1.00  0.00     0.014 A 
ATOM     34  C   UNL A   1      40.206  25.232  26.103  1.00  0.00     0.014 A 
ATOM     35  C   UNL A   1      39.311  25.640  28.720  1.00  0.00     0.010 A 
ATOM     36  C   UNL A   1      40.571  26.386  26.792  1.00  0.00     0.010 A 
ATOM     37  C   UNL A   1      40.136  26.599  28.110  1.00  0.00    -0.014 A 
BRANCH  37  38
ATOM     38  C   UNL A   1      40.576  27.826  28.823  1.00  0.00     0.031 A 
ATOM     39  C   UNL A   1      41.905  27.849  29.528  1.00  0.00     0.074 A 
ATOM     40  C   UNL A   1      39.740  28.878  28.928  1.00  0.00     0.049 A 
ATOM     41  N   UNL A   1      42.395  28.752  30.337  1.00  0.00    -0.248 NA
ATOM     42  C   UNL A   1      42.786  26.689  29.316  1.00  0.00     0.031 C 
ATOM     43  C   UNL A   1      38.415  28.977  28.311  1.00  0.00     0.029 A 
ATOM     44  N   UNL A   1      39.874  30.063  29.610  1.00  0.00    -0.354 N 
ATOM     45  C   UNL A   1      43.626  28.258  30.754  1.00  0.00     0.074 A 
ATOM     46  C   UNL A   1      43.791  26.960  30.135  1.00  0.00     0.031 C 
ATOM     47  C   UNL A   1      37.864  30.157  28.636  1.00  0.00     0.029 A 
ATOM     48  C   UNL A   1      38.771  30.879  29.522  1.00  0.00     0.049 A 
ATOM     49  H   UNL A   1      40.683  30.304  30.117  1.00  0.00     0.167 HD
ATOM     50  C   UNL A   1      44.538  28.836  31.572  1.00  0.00     0.031 A 
ATOM     51  C   UNL A   1      38.507  32.066  30.104  1.00  0.00     0.031 A 
ATOM     52  C   UNL A   1      44.379  30.134  32.172  1.00  0.00     0.049 A 
ATOM     53  C   UNL A   1      39.533  32.685  31.014  1.00  0.00     0.074 A 
ATOM     54  C   UNL A   1      45.268  30.823  32.979  1.00  0.00     0.029 A 
ATOM     55  N   UNL A   1      43.261  30.939  32.029  1.00  0.00    -0.354 N 
ATOM     56  N   UNL A   1      40.706  32.218  31.369  1.00  0.00    -0.248 NA
ATOM     57  C   UNL A   1      39.203  33.994  31.596  1.00  0.00     0.031 C 
ATOM     58  C   UNL A   1      44.670  32.029  33.356  1.00  0.00     0.029 A 
ATOM     59  C   UNL A   1      43.431  32.114  32.741  1.00  0.00     0.049 A 
ATOM     60  H   UNL A   1      42.462  30.711  31.499  1.00  0.00     0.167 HD
ATOM     61  C   UNL A   1      41.269  33.193  32.186  1.00  0.00     0.074 A 
ATOM     62  C   UNL A   1      40.310  34.274  32.271  1.00  0.00     0.031 C 
ATOM     63  C   UNL A   1      42.475  33.191  32.803  1.00  0.00     0.031 A 
BRANCH  50  64
ATOM     64  C   UNL A   1      45.792  28.057  31.873  1.00  0.00    -0.014 A 
ATOM     65  C   UNL A   1      45.856  27.175  32.966  1.00  0.00     0.010 A 
ATOM     66  C   UNL A   1      46.911  28.184  31.031  1.00  0.00     0.010 A 
ATOM     67  C   UNL A   1      47.029  26.468  33.238  1.00  0.00     0.020 A 
ATOM     68  C   UNL A   1      48.079  27.459  31.283  1.00  0.00     0.020 A 
ATOM     69  C   UNL A   1      48.137  26.621  32.398  1.00  0.00     0.054 A 
BRANCH  69  70
ATOM     70  S   UNL A   1      49.645  25.682  32.767  1.00  0.00     0.124 S 
ATOM     71  O   UNL A   1      50.062  25.250  31.435  1.00  0.00    -0.237 OA
ATOM     72  O   UNL A   1      50.501  26.682  33.400  1.00  0.00    -0.237 OA
ATOM     73  O   UNL A   1      49.182  24.615  33.650  1.00  0.00    -0.744 OA
ENDBRANCH  69  70
ENDBRANCH  50  64
BRANCH  51  74
ATOM     74  C   UNL A   1      37.214  32.753  29.836  1.00  0.00    -0.014 A 
ATOM     75  C   UNL A   1      36.130  32.597  30.717  1.00  0.00     0.010 A 
ATOM     76  C   UNL A   1      37.065  33.580  28.708  1.00  0.00     0.010 A 
ATOM     77  C   UNL A   1      34.915  33.240  30.466  1.00  0.00     0.020 A 
ATOM     78  C   UNL A   1      35.859  34.246  28.468  1.00  0.00     0.020 A 
ATOM     79  C   UNL A   1      34.788  34.061  29.343  1.00  0.00     0.054 A 
BRANCH  79  80
ATOM     80  S   UNL A   1      33.217  34.928  29.066  1.00  0.00     0.124 S 
ATOM     81  O   UNL A   1      32.599  34.863  30.386  1.00  0.00    -0.237 OA
ATOM     82  O   UNL A   1      33.658  36.253  28.637  1.00  0.00    -0.237 OA
ATOM     83  O   UNL A   1      32.567  34.130  28.028  1.00  0.00    -0.744 OA
ENDBRANCH  79  80
ENDBRANCH  51  74
BRANCH  63  84
ATOM     84  C   UNL A   1      42.865  34.418  33.583  1.00  0.00    -0.014 A 
ATOM     85  C   UNL A   1      42.598  34.528  34.958  1.00  0.00     0.010 A 
ATOM     86  C   UNL A   1      43.583  35.442  32.938  1.00  0.00     0.010 A 
ATOM     87  C   UNL A   1      43.031  35.648  35.673  1.00  0.00     0.020 A 
ATOM     88  C   UNL A   1      44.038  36.552  33.654  1.00  0.00     0.020 A 
ATOM     89  C   UNL A   1      43.753  36.652  35.016  1.00  0.00     0.054 A 
BRANCH  89  90
ATOM     90  S   UNL A   1      44.367  38.061  35.979  1.00  0.00     0.124 S 
ATOM     91  O   UNL A   1      43.657  37.897  37.244  1.00  0.00    -0.237 OA
ATOM     92  O   UNL A   1      45.806  37.814  36.028  1.00  0.00    -0.237 OA
ATOM     93  O   UNL A   1      43.968  39.222  35.186  1.00  0.00    -0.744 OA
ENDBRANCH  89  90
ENDBRANCH  63  84
ENDBRANCH  37  38
ENDBRANCH  29  32
ENDBRANCH  27  28
ENDBRANCH  26  27
ENDBRANCH   1  26
TORSDOF 17
ENDMDL
MODEL 2
REMARK VINA RESULT:     -10.6      3.239      9.275
REMARK SMILES O=C(Cc1ccccc1Nc1c(F)cccc1C(F)(F)F)NCCCNC(=O)c1ccc(-c2c3nc(c(-c4ccc(S(=O)(=O)[O-])cc4)c4ccc([nH]4)c(-c4ccc(S(=O)(=O)[O-])cc4)c4nc(c(-c5ccc(S(=O)(=O)[O-])cc5)c5ccc2[nH]5)C=C4)C=C3)cc1
REMARK SMILES IDX 23 1 22 2 1 3 2 4 3 6 4 7 5 8 9 9 6 10 8 11 7 12 10 13 11 15
REMARK SMILES IDX 12 16 17 17 13 18 14 19 16 20 15 21 18 22 19 23 20 24 21 25
REMARK SMILES IDX 24 26 25 27 26 28 27 29 28 31 29 32 30 33 88 34 31 35 87 36
REMARK SMILES IDX 32 37 33 38 34 39 81 40 35 41 86 42 80 43 82 44 36 45 85 46
REMARK SMILES IDX 79 47 78 48 37 50 67 51 48 52 66 53 49 54 52 55 65 56 83 57
REMARK SMILES IDX 50 58 51 59 64 61 84 62 53 63 38 64 39 65 47 66 40 67 46 68
REMARK SMILES IDX 41 69 42 70 43 71 44 72 45 73 68 74 69 75 77 76 70 77 76 78
REMARK SMILES IDX 71 79 72 80 73 81 74 82 75 83 54 84 55 85 63 86 56 87 62 88
REMARK SMILES IDX 57 89 58 90 59 91 60 92 61 93
REMARK H PARENT 22 5 10 14 26 30 82 49 52 60
REMARK Flexibility Score: inf
ROOT
ATOM      1  C   UNL A   1      31.771  28.217  27.057  1.00  0.00     0.117 C 
ENDROOT
BRANCH   1   2
ATOM      2  N   UNL A   1      31.191  27.461  25.966  1.00  0.00    -0.356 N 
ATOM      3  O   UNL A   1      31.373  25.395  26.958  1.00  0.00    -0.275 OA
ATOM      4  C   UNL A   1      31.023  26.094  26.013  1.00  0.00     0.224 C 
ATOM      5  H   UNL A   1      30.905  27.944  25.157  1.00  0.00     0.163 HD
BRANCH   4   6
ATOM      6  C   UNL A   1      30.380  25.505  24.768  1.00  0.00     0.137 C 
BRANCH   6   7
ATOM      7  C   UNL A   1      31.284  25.436  23.549  1.00  0.00    -0.015 A 
ATOM      8  C   UNL A   1      30.993  26.227  22.417  1.00  0.00     0.006 A 
ATOM      9  C   UNL A   1      32.386  24.553  23.504  1.00  0.00     0.042 A 
ATOM     10  C   UNL A   1      31.806  26.195  21.288  1.00  0.00     0.000 A 
ATOM     11  C   UNL A   1      33.182  24.527  22.347  1.00  0.00     0.026 A 
ATOM     12  C   UNL A   1      32.904  25.346  21.253  1.00  0.00     0.002 A 
BRANCH   9  13
ATOM     13  N   UNL A   1      32.700  23.745  24.619  1.00  0.00    -0.352 N 
ATOM     14  H   UNL A   1      32.014  23.737  25.326  1.00  0.00     0.167 HD
BRANCH  13  15
ATOM     15  C   UNL A   1      33.831  22.946  24.890  1.00  0.00     0.087 A 
ATOM     16  C   UNL A   1      34.953  23.588  25.454  1.00  0.00     0.147 A 
ATOM     17  C   UNL A   1      33.890  21.553  24.705  1.00  0.00     0.082 A 
ATOM     18  F   UNL A   1      34.928  24.922  25.614  1.00  0.00    -0.205 F 
ATOM     19  C   UNL A   1      36.084  22.894  25.870  1.00  0.00     0.041 A 
ATOM     20  C   UNL A   1      35.037  20.852  25.154  1.00  0.00     0.015 A 
ATOM     21  C   UNL A   1      36.120  21.515  25.733  1.00  0.00     0.004 A 
BRANCH  17  22
ATOM     22  C   UNL A   1      32.813  20.750  24.013  1.00  0.00     0.418 C 
ATOM     23  F   UNL A   1      33.199  19.453  23.808  1.00  0.00    -0.166 F 
ATOM     24  F   UNL A   1      31.672  20.661  24.754  1.00  0.00    -0.166 F 
ATOM     25  F   UNL A   1      32.446  21.199  22.782  1.00  0.00    -0.166 F 
ENDBRANCH  17  22
ENDBRANCH  13  15
ENDBRANCH   9  13
ENDBRANCH   6   7
ENDBRANCH   4   6
ENDBRANCH   1   2
BRANCH   1  26
ATOM     26  C   UNL A   1      33.292  28.134  27.076  1.00  0.00     0.042 C 
BRANCH  26  27
ATOM     27  C   UNL A   1      33.990  29.194  26.228  1.00  0.00     0.118 C 
BRANCH  27  28
ATOM     28  N   UNL A   1      33.814  30.547  26.739  1.00  0.00    -0.352 N 
ATOM     29  C   UNL A   1      34.535  31.222  27.696  1.00  0.00     0.251 C 
ATOM     30  H   UNL A   1      33.069  31.053  26.341  1.00  0.00     0.163 HD
ATOM     31  O   UNL A   1      34.148  32.319  28.090  1.00  0.00    -0.269 OA
BRANCH  29  32
ATOM     32  C   UNL A   1      35.756  30.617  28.271  1.00  0.00     0.039 A 
ATOM     33  C   UNL A   1      36.997  30.930  27.708  1.00  0.00     0.014 A 
ATOM     34  C   UNL A   1      35.681  29.751  29.364  1.00  0.00     0.014 A 
ATOM     35  C   UNL A   1      38.169  30.442  28.295  1.00  0.00     0.010 A 
ATOM     36  C   UNL A   1      36.850  29.321  29.986  1.00  0.00     0.010 A 
ATOM     37  C   UNL A   1      38.106  29.669  29.465  1.00  0.00    -0.014 A 
BRANCH  37  38
ATOM     38  C   UNL A   1      39.331  29.221  30.178  1.00  0.00     0.031 A 
ATOM     39  C   UNL A   1      39.805  29.965  31.396  1.00  0.00     0.074 A 
ATOM     40  C   UNL A   1      40.071  28.215  29.672  1.00  0.00     0.049 A 
ATOM     41  N   UNL A   1      40.927  29.837  32.056  1.00  0.00    -0.248 NA
ATOM     42  C   UNL A   1      38.911  31.009  31.923  1.00  0.00     0.031 C 
ATOM     43  C   UNL A   1      39.736  27.424  28.485  1.00  0.00     0.029 A 
ATOM     44  N   UNL A   1      41.276  27.696  30.083  1.00  0.00    -0.354 N 
ATOM     45  C   UNL A   1      40.889  30.802  33.056  1.00  0.00     0.074 A 
ATOM     46  C   UNL A   1      39.648  31.529  32.894  1.00  0.00     0.031 C 
ATOM     47  C   UNL A   1      40.704  26.519  28.269  1.00  0.00     0.029 A 
ATOM     48  C   UNL A   1      41.752  26.694  29.269  1.00  0.00     0.049 A 
ATOM     49  H   UNL A   1      41.753  28.013  30.883  1.00  0.00     0.167 HD
ATOM     50  C   UNL A   1      41.800  31.055  34.026  1.00  0.00     0.031 A 
ATOM     51  C   UNL A   1      42.911  26.007  29.310  1.00  0.00     0.031 A 
ATOM     52  C   UNL A   1      43.024  30.320  34.196  1.00  0.00     0.049 A 
ATOM     53  C   UNL A   1      43.911  26.309  30.392  1.00  0.00     0.074 A 
ATOM     54  C   UNL A   1      43.990  30.472  35.176  1.00  0.00     0.029 A 
ATOM     55  N   UNL A   1      43.451  29.292  33.370  1.00  0.00    -0.354 N 
ATOM     56  N   UNL A   1      43.841  27.203  31.349  1.00  0.00    -0.248 NA
ATOM     57  C   UNL A   1      45.142  25.507  30.404  1.00  0.00     0.031 C 
ATOM     58  C   UNL A   1      45.020  29.563  34.919  1.00  0.00     0.029 A 
ATOM     59  C   UNL A   1      44.671  28.808  33.810  1.00  0.00     0.049 A 
ATOM     60  H   UNL A   1      42.960  28.955  32.586  1.00  0.00     0.167 HD
ATOM     61  C   UNL A   1      45.001  27.044  32.099  1.00  0.00     0.074 A 
ATOM     62  C   UNL A   1      45.754  25.971  31.486  1.00  0.00     0.031 C 
ATOM     63  C   UNL A   1      45.401  27.726  33.200  1.00  0.00     0.031 A 
BRANCH  50  64
ATOM     64  C   UNL A   1      41.507  32.187  34.976  1.00  0.00    -0.014 A 
ATOM     65  C   UNL A   1      41.975  33.489  34.723  1.00  0.00     0.010 A 
ATOM     66  C   UNL A   1      40.724  31.952  36.120  1.00  0.00     0.010 A 
ATOM     67  C   UNL A   1      41.704  34.525  35.620  1.00  0.00     0.020 A 
ATOM     68  C   UNL A   1      40.427  32.991  37.006  1.00  0.00     0.020 A 
ATOM     69  C   UNL A   1      40.937  34.267  36.760  1.00  0.00     0.054 A 
BRANCH  69  70
ATOM     70  S   UNL A   1      40.590  35.633  37.902  1.00  0.00     0.124 S 
ATOM     71  O   UNL A   1      39.747  34.981  38.902  1.00  0.00    -0.237 OA
ATOM     72  O   UNL A   1      41.922  36.019  38.359  1.00  0.00    -0.237 OA
ATOM     73  O   UNL A   1      39.912  36.620  37.066  1.00  0.00    -0.744 OA
ENDBRANCH  69  70
ENDBRANCH  50  64
BRANCH  51  74
ATOM     74  C   UNL A   1      43.185  24.954  28.293  1.00  0.00    -0.014 A 
ATOM     75  C   UNL A   1      43.970  25.243  27.165  1.00  0.00     0.010 A 
ATOM     76  C   UNL A   1      42.675  23.653  28.457  1.00  0.00     0.010 A 
ATOM     77  C   UNL A   1      44.227  24.257  26.208  1.00  0.00     0.020 A 
ATOM     78  C   UNL A   1      42.952  22.657  27.516  1.00  0.00     0.020 A 
ATOM     79  C   UNL A   1      43.717  22.969  26.391  1.00  0.00     0.054 A 
BRANCH  79  80
ATOM     80  S   UNL A   1      44.107  21.691  25.163  1.00  0.00     0.124 S 
ATOM     81  O   UNL A   1      45.526  21.458  25.409  1.00  0.00    -0.237 OA
ATOM     82  O   UNL A   1      43.211  20.602  25.545  1.00  0.00    -0.237 OA
ATOM     83  O   UNL A   1      43.787  22.333  23.890  1.00  0.00    -0.744 OA
ENDBRANCH  79  80
ENDBRANCH  51  74
BRANCH  63  84
ATOM     84  C   UNL A   1      46.685  27.299  33.859  1.00  0.00    -0.014 A 
ATOM     85  C   UNL A   1      47.913  27.900  33.530  1.00  0.00     0.010 A 
ATOM     86  C   UNL A   1      46.645  26.336  34.885  1.00  0.00     0.010 A 
ATOM     87  C   UNL A   1      49.080  27.534  34.207  1.00  0.00     0.020 A 
ATOM     88  C   UNL A   1      47.805  25.984  35.578  1.00  0.00     0.020 A 
ATOM     89  C   UNL A   1      49.017  26.580  35.229  1.00  0.00     0.054 A 
BRANCH  89  90
ATOM     90  S   UNL A   1      50.533  26.173  36.141  1.00  0.00     0.124 S 
ATOM     91  O   UNL A   1      51.291  27.417  36.040  1.00  0.00    -0.237 OA
ATOM     92  O   UNL A   1      50.029  25.850  37.474  1.00  0.00    -0.237 OA
ATOM     93  O   UNL A   1      51.088  25.043  35.401  1.00  0.00    -0.744 OA
ENDBRANCH  89  90
ENDBRANCH  63  84
ENDBRANCH  37  38
ENDBRANCH  29  32
ENDBRANCH  27  28
ENDBRANCH  26  27
ENDBRANCH   1  26
TORSDOF 17
ENDMDL
MODEL 3
REMARK VINA RESULT:     -10.6      3.418      7.800
REMARK SMILES O=C(Cc1ccccc1Nc1c(F)cccc1C(F)(F)F)NCCCNC(=O)c1ccc(-c2c3nc(c(-c4ccc(S(=O)(=O)[O-])cc4)c4ccc([nH]4)c(-c4ccc(S(=O)(=O)[O-])cc4)c4nc(c(-c5ccc(S(=O)(=O)[O-])cc5)c5ccc2[nH]5)C=C4)C=C3)cc1
REMARK SMILES IDX 23 1 22 2 1 3 2 4 3 6 4 7 5 8 9 9 6 10 8 11 7 12 10 13 11 15
REMARK SMILES IDX 12 16 17 17 13 18 14 19 16 20 15 21 18 22 19 23 20 24 21 25
REMARK SMILES IDX 24 26 25 27 26 28 27 29 28 31 29 32 30 33 88 34 31 35 87 36
REMARK SMILES IDX 32 37 33 38 34 39 81 40 35 41 86 42 80 43 82 44 36 45 85 46
REMARK SMILES IDX 79 47 78 48 37 50 67 51 48 52 66 53 49 54 52 55 65 56 83 57
REMARK SMILES IDX 50 58 51 59 64 61 84 62 53 63 38 64 39 65 47 66 40 67 46 68
REMARK SMILES IDX 41 69 42 70 43 71 44 72 45 73 68 74 69 75 77 76 70 77 76 78
REMARK SMILES IDX 71 79 72 80 73 81 74 82 75 83 54 84 55 85 63 86 56 87 62 88
REMARK SMILES IDX 57 89 58 90 59 91 60 92 61 93
REMARK H PARENT 22 5 10 14 26 30 82 49 52 60
REMARK Flexibility Score: inf
ROOT
ATOM      1  C   UNL A   1      31.976  27.825  26.962  1.00  0.00     0.117 C 
ENDROOT
BRANCH   1   2
ATOM      2  N   UNL A   1      31.351  27.132  25.855  1.00  0.00    -0.356 N 
ATOM      3  O   UNL A   1      31.231  25.074  26.873  1.00  0.00    -0.275 OA
ATOM      4  C   UNL A   1      31.011  25.798  25.908  1.00  0.00     0.224 C 
ATOM      5  H   UNL A   1      31.160  27.636  25.030  1.00  0.00     0.163 HD
BRANCH   4   6
ATOM      6  C   UNL A   1      30.350  25.276  24.643  1.00  0.00     0.137 C 
BRANCH   6   7
ATOM      7  C   UNL A   1      31.271  25.150  23.441  1.00  0.00    -0.015 A 
ATOM      8  C   UNL A   1      31.142  26.053  22.365  1.00  0.00     0.006 A 
ATOM      9  C   UNL A   1      32.224  24.110  23.355  1.00  0.00     0.042 A 
ATOM     10  C   UNL A   1      31.977  25.972  21.253  1.00  0.00     0.000 A 
ATOM     11  C   UNL A   1      33.042  24.040  22.216  1.00  0.00     0.026 A 
ATOM     12  C   UNL A   1      32.930  24.966  21.179  1.00  0.00     0.002 A 
BRANCH   9  13
ATOM     13  N   UNL A   1      32.372  23.188  24.413  1.00  0.00    -0.352 N 
ATOM     14  H   UNL A   1      31.625  23.175  25.055  1.00  0.00     0.167 HD
BRANCH  13  15
ATOM     15  C   UNL A   1      33.411  22.279  24.707  1.00  0.00     0.087 A 
ATOM     16  C   UNL A   1      33.160  20.912  24.463  1.00  0.00     0.147 A 
ATOM     17  C   UNL A   1      34.693  22.645  25.155  1.00  0.00     0.082 A 
ATOM     18  F   UNL A   1      31.933  20.538  24.061  1.00  0.00    -0.205 F 
ATOM     19  C   UNL A   1      34.136  19.934  24.604  1.00  0.00     0.041 A 
ATOM     20  C   UNL A   1      35.688  21.644  25.272  1.00  0.00     0.015 A 
ATOM     21  C   UNL A   1      35.414  20.303  24.996  1.00  0.00     0.004 A 
BRANCH  17  22
ATOM     22  C   UNL A   1      35.072  24.050  25.562  1.00  0.00     0.418 C 
ATOM     23  F   UNL A   1      35.019  24.918  24.506  1.00  0.00    -0.166 F 
ATOM     24  F   UNL A   1      34.218  24.574  26.487  1.00  0.00    -0.166 F 
ATOM     25  F   UNL A   1      36.329  24.196  26.064  1.00  0.00    -0.166 F 
ENDBRANCH  17  22
ENDBRANCH  13  15
ENDBRANCH   9  13
ENDBRANCH   6   7
ENDBRANCH   4   6
ENDBRANCH   1   2
BRANCH   1  26
ATOM     26  C   UNL A   1      33.494  27.858  26.843  1.00  0.00     0.042 C 
BRANCH  26  27
ATOM     27  C   UNL A   1      34.038  29.050  26.061  1.00  0.00     0.118 C 
BRANCH  27  28
ATOM     28  N   UNL A   1      33.633  30.336  26.615  1.00  0.00    -0.352 N 
ATOM     29  C   UNL A   1      34.221  31.087  27.605  1.00  0.00     0.251 C 
ATOM     30  H   UNL A   1      32.817  30.723  26.223  1.00  0.00     0.163 HD
ATOM     31  O   UNL A   1      33.653  32.089  28.031  1.00  0.00    -0.269 OA
BRANCH  29  32
ATOM     32  C   UNL A   1      35.522  30.674  28.177  1.00  0.00     0.039 A 
ATOM     33  C   UNL A   1      36.694  31.260  27.688  1.00  0.00     0.014 A 
ATOM     34  C   UNL A   1      35.588  29.720  29.195  1.00  0.00     0.014 A 
ATOM     35  C   UNL A   1      37.923  30.953  28.279  1.00  0.00     0.010 A 
ATOM     36  C   UNL A   1      36.803  29.465  29.825  1.00  0.00     0.010 A 
ATOM     37  C   UNL A   1      37.982  30.086  29.381  1.00  0.00    -0.014 A 
BRANCH  37  38
ATOM     38  C   UNL A   1      39.253  29.816  30.103  1.00  0.00     0.031 A 
ATOM     39  C   UNL A   1      40.158  28.706  29.640  1.00  0.00     0.074 A 
ATOM     40  C   UNL A   1      39.541  30.494  31.231  1.00  0.00     0.049 A 
ATOM     41  N   UNL A   1      41.217  28.208  30.224  1.00  0.00    -0.248 NA
ATOM     42  C   UNL A   1      39.808  28.055  28.368  1.00  0.00     0.031 C 
ATOM     43  C   UNL A   1      38.738  31.579  31.801  1.00  0.00     0.029 A 
ATOM     44  N   UNL A   1      40.583  30.357  32.116  1.00  0.00    -0.354 N 
ATOM     45  C   UNL A   1      41.642  27.166  29.408  1.00  0.00     0.074 A 
ATOM     46  C   UNL A   1      40.707  27.083  28.306  1.00  0.00     0.031 C 
ATOM     47  C   UNL A   1      39.320  32.012  32.930  1.00  0.00     0.029 A 
ATOM     48  C   UNL A   1      40.508  31.208  33.194  1.00  0.00     0.049 A 
ATOM     49  H   UNL A   1      41.314  29.710  31.990  1.00  0.00     0.167 HD
ATOM     50  C   UNL A   1      42.718  26.357  29.558  1.00  0.00     0.031 A 
ATOM     51  C   UNL A   1      41.293  31.315  34.285  1.00  0.00     0.031 A 
ATOM     52  C   UNL A   1      43.656  26.452  30.644  1.00  0.00     0.049 A 
ATOM     53  C   UNL A   1      42.479  30.401  34.433  1.00  0.00     0.074 A 
ATOM     54  C   UNL A   1      44.803  25.706  30.859  1.00  0.00     0.029 A 
ATOM     55  N   UNL A   1      43.560  27.349  31.696  1.00  0.00    -0.354 N 
ATOM     56  N   UNL A   1      42.884  29.445  33.633  1.00  0.00    -0.248 NA
ATOM     57  C   UNL A   1      43.316  30.585  35.626  1.00  0.00     0.031 C 
ATOM     58  C   UNL A   1      45.378  26.126  32.062  1.00  0.00     0.029 A 
ATOM     59  C   UNL A   1      44.619  27.168  32.569  1.00  0.00     0.049 A 
ATOM     60  H   UNL A   1      42.844  28.016  31.807  1.00  0.00     0.167 HD
ATOM     61  C   UNL A   1      44.045  28.938  34.208  1.00  0.00     0.074 A 
ATOM     62  C   UNL A   1      44.277  29.694  35.421  1.00  0.00     0.031 C 
ATOM     63  C   UNL A   1      44.848  27.940  33.764  1.00  0.00     0.031 A 
BRANCH  50  64
ATOM     64  C   UNL A   1      42.932  25.286  28.520  1.00  0.00    -0.014 A 
ATOM     65  C   UNL A   1      42.340  24.017  28.652  1.00  0.00     0.010 A 
ATOM     66  C   UNL A   1      43.708  25.564  27.380  1.00  0.00     0.010 A 
ATOM     67  C   UNL A   1      42.556  23.031  27.686  1.00  0.00     0.020 A 
ATOM     68  C   UNL A   1      43.905  24.589  26.398  1.00  0.00     0.020 A 
ATOM     69  C   UNL A   1      43.344  23.322  26.568  1.00  0.00     0.054 A 
BRANCH  69  70
ATOM     70  S   UNL A   1      43.600  22.028  25.323  1.00  0.00     0.124 S 
ATOM     71  O   UNL A   1      44.941  21.553  25.656  1.00  0.00    -0.237 OA
ATOM     72  O   UNL A   1      42.514  21.092  25.602  1.00  0.00    -0.237 OA
ATOM     73  O   UNL A   1      43.491  22.742  24.053  1.00  0.00    -0.744 OA
ENDBRANCH  69  70
ENDBRANCH  50  64
BRANCH  51  74
ATOM     74  C   UNL A   1      40.986  32.338  35.322  1.00  0.00    -0.014 A 
ATOM     75  C   UNL A   1      41.643  33.580  35.311  1.00  0.00     0.010 A 
ATOM     76  C   UNL A   1      40.024  32.082  36.316  1.00  0.00     0.010 A 
ATOM     77  C   UNL A   1      41.358  34.541  36.284  1.00  0.00     0.020 A 
ATOM     78  C   UNL A   1      39.717  33.051  37.275  1.00  0.00     0.020 A 
ATOM     79  C   UNL A   1      40.396  34.270  37.261  1.00  0.00     0.054 A 
BRANCH  79  80
ATOM     80  S   UNL A   1      40.004  35.553  38.484  1.00  0.00     0.124 S 
ATOM     81  O   UNL A   1      38.840  34.985  39.156  1.00  0.00    -0.237 OA
ATOM     82  O   UNL A   1      41.228  35.615  39.280  1.00  0.00    -0.237 OA
ATOM     83  O   UNL A   1      39.743  36.735  37.665  1.00  0.00    -0.744 OA
ENDBRANCH  79  80
ENDBRANCH  51  74
BRANCH  63  84
ATOM     84  C   UNL A   1      46.090  27.637  34.557  1.00  0.00    -0.014 A 
ATOM     85  C   UNL A   1      47.287  28.343  34.343  1.00  0.00     0.010 A 
ATOM     86  C   UNL A   1      46.031  26.684  35.591  1.00  0.00     0.010 A 
ATOM     87  C   UNL A   1      48.407  28.089  35.140  1.00  0.00     0.020 A 
ATOM     88  C   UNL A   1      47.140  26.444  36.404  1.00  0.00     0.020 A 
ATOM     89  C   UNL A   1      48.325  27.144  36.168  1.00  0.00     0.054 A 
BRANCH  89  90
ATOM     90  S   UNL A   1      49.769  26.883  37.235  1.00  0.00     0.124 S 
ATOM     91  O   UNL A   1      49.207  26.080  38.317  1.00  0.00    -0.237 OA
ATOM     92  O   UNL A   1      50.700  26.186  36.351  1.00  0.00    -0.237 OA
ATOM     93  O   UNL A   1      50.171  28.237  37.609  1.00  0.00    -0.744 OA
ENDBRANCH  89  90
ENDBRANCH  63  84
ENDBRANCH  37  38
ENDBRANCH  29  32
ENDBRANCH  27  28
ENDBRANCH  26  27
ENDBRANCH   1  26
TORSDOF 17
ENDMDL
