MODEL 1
REMARK VINA RESULT:      -9.9      0.000      0.000
REMARK SMILES CS(=O)(=O)c1ccc(C2=NN(c3ccc(C(=O)NCCCNC(=O)c4ccc(-c5c6nc(c(-c7ccc(S(=O)(=O)[O-])cc7)c7ccc([nH]7)c(-c7ccc(S(=O)(=O)[O-])cc7)c7nc(c(-c8ccc(S(=O)(=O)[O-])cc8)c8ccc5[nH]8)C=C7)C=C6)cc4)cc3)[C@H](c3ccccc3)C2)cc1
REMARK SMILES IDX 20 1 19 2 18 3 16 4 17 5 15 7 12 8 13 9 86 10 14 11 85 12
REMARK SMILES IDX 11 13 9 14 10 15 94 16 87 17 8 18 5 19 6 20 96 21 7 22 95 23
REMARK SMILES IDX 2 24 1 25 3 26 4 27 88 28 89 29 93 30 90 31 92 32 91 33
REMARK SMILES IDX 21 34 22 35 23 36 24 38 25 39 26 40 84 41 27 42 83 43 28 44
REMARK SMILES IDX 29 45 30 46 77 47 31 48 82 49 76 50 78 51 32 52 81 53 75 54
REMARK SMILES IDX 74 55 33 57 63 58 44 59 62 60 45 61 48 62 61 63 79 64 46 65
REMARK SMILES IDX 47 66 60 68 80 69 49 70 34 71 35 72 43 73 36 74 42 75 37 76
REMARK SMILES IDX 38 77 39 78 40 79 41 80 64 81 65 82 73 83 66 84 72 85 67 86
REMARK SMILES IDX 68 87 69 88 70 89 71 90 50 91 51 92 59 93 52 94 58 95 53 96
REMARK SMILES IDX 54 97 55 98 56 99 57 100
REMARK H PARENT 18 6 22 37 78 56 48 67
REMARK Flexibility Score: inf
ROOT
ATOM      1  C   UNL A   1      33.992  33.482  28.867  1.00  0.00     0.042 C 
ENDROOT
BRANCH   1   2
ATOM      2  C   UNL A   1      34.975  34.418  29.566  1.00  0.00     0.118 C 
BRANCH   2   3
ATOM      3  N   UNL A   1      36.272  34.405  28.912  1.00  0.00    -0.352 N 
ATOM      4  C   UNL A   1      37.524  34.115  29.395  1.00  0.00     0.251 C 
ATOM      5  O   UNL A   1      38.464  34.076  28.603  1.00  0.00    -0.269 OA
ATOM      6  H   UNL A   1      36.249  34.645  27.957  1.00  0.00     0.163 HD
BRANCH   4   7
ATOM      7  C   UNL A   1      37.753  33.768  30.821  1.00  0.00     0.039 A 
ATOM      8  C   UNL A   1      38.447  33.071  33.455  1.00  0.00     0.060 A 
ATOM      9  C   UNL A   1      39.014  34.196  32.849  1.00  0.00     0.029 A 
ATOM     10  C   UNL A   1      37.457  32.368  32.769  1.00  0.00     0.029 A 
ATOM     11  C   UNL A   1      38.668  34.546  31.540  1.00  0.00     0.016 A 
ATOM     12  C   UNL A   1      37.100  32.720  31.469  1.00  0.00     0.016 A 
BRANCH   8  13
ATOM     13  N   UNL A   1      38.850  32.642  34.703  1.00  0.00    -0.257 N 
ATOM     14  C   UNL A   1      38.711  32.514  36.808  1.00  0.00     0.071 C 
ATOM     15  N   UNL A   1      38.012  32.773  35.751  1.00  0.00    -0.176 NA
ATOM     16  C   UNL A   1      40.172  32.234  36.572  1.00  0.00     0.091 C 
ATOM     17  C   UNL A   1      40.183  32.134  35.034  1.00  0.00     0.144 C 
BRANCH  14  18
ATOM     18  C   UNL A   1      38.111  32.527  38.149  1.00  0.00    -0.002 A 
ATOM     19  C   UNL A   1      36.820  32.576  40.613  1.00  0.00     0.067 A 
ATOM     20  C   UNL A   1      36.463  31.613  39.662  1.00  0.00     0.021 A 
ATOM     21  C   UNL A   1      37.823  33.512  40.338  1.00  0.00     0.021 A 
ATOM     22  C   UNL A   1      37.102  31.599  38.425  1.00  0.00     0.011 A 
ATOM     23  C   UNL A   1      38.478  33.482  39.101  1.00  0.00     0.011 A 
BRANCH  19  24
ATOM     24  S   UNL A   1      35.941  32.547  42.157  1.00  0.00     0.175 S 
ATOM     25  C   UNL A   1      37.075  32.003  43.399  1.00  0.00     0.163 C 
ATOM     26  O   UNL A   1      34.926  31.517  42.031  1.00  0.00    -0.224 OA
ATOM     27  O   UNL A   1      35.590  33.920  42.459  1.00  0.00    -0.224 OA
ENDBRANCH  19  24
ENDBRANCH  14  18
BRANCH  17  28
ATOM     28  C   UNL A   1      40.435  30.761  34.408  1.00  0.00    -0.023 A 
ATOM     29  C   UNL A   1      39.464  30.016  33.720  1.00  0.00     0.006 A 
ATOM     30  C   UNL A   1      41.731  30.210  34.498  1.00  0.00     0.006 A 
ATOM     31  C   UNL A   1      39.776  28.772  33.156  1.00  0.00     0.000 A 
ATOM     32  C   UNL A   1      42.052  28.987  33.904  1.00  0.00     0.000 A 
ATOM     33  C   UNL A   1      41.070  28.263  33.239  1.00  0.00     0.000 A 
ENDBRANCH  17  28
ENDBRANCH   8  13
ENDBRANCH   4   7
ENDBRANCH   2   3
ENDBRANCH   1   2
BRANCH   1  34
ATOM     34  C   UNL A   1      34.670  32.493  27.929  1.00  0.00     0.118 C 
BRANCH  34  35
ATOM     35  N   UNL A   1      33.992  31.205  27.917  1.00  0.00    -0.352 N 
ATOM     36  C   UNL A   1      34.516  29.938  27.947  1.00  0.00     0.251 C 
ATOM     37  H   UNL A   1      33.010  31.251  27.884  1.00  0.00     0.163 HD
ATOM     38  O   UNL A   1      33.787  28.983  27.688  1.00  0.00    -0.269 OA
BRANCH  36  39
ATOM     39  C   UNL A   1      35.940  29.717  28.283  1.00  0.00     0.039 A 
ATOM     40  C   UNL A   1      36.896  29.831  27.269  1.00  0.00     0.014 A 
ATOM     41  C   UNL A   1      36.332  29.347  29.572  1.00  0.00     0.014 A 
ATOM     42  C   UNL A   1      38.244  29.604  27.557  1.00  0.00     0.010 A 
ATOM     43  C   UNL A   1      37.683  29.207  29.876  1.00  0.00     0.010 A 
ATOM     44  C   UNL A   1      38.651  29.308  28.868  1.00  0.00    -0.014 A 
BRANCH  44  45
ATOM     45  C   UNL A   1      40.077  29.056  29.194  1.00  0.00     0.031 A 
ATOM     46  C   UNL A   1      40.707  27.734  28.835  1.00  0.00     0.074 A 
ATOM     47  C   UNL A   1      40.790  29.989  29.854  1.00  0.00     0.049 A 
ATOM     48  N   UNL A   1      41.916  27.301  29.085  1.00  0.00    -0.248 NA
ATOM     49  C   UNL A   1      39.858  26.762  28.125  1.00  0.00     0.031 C 
ATOM     50  C   UNL A   1      40.285  31.295  30.284  1.00  0.00     0.029 A 
ATOM     51  N   UNL A   1      42.094  29.983  30.282  1.00  0.00    -0.354 N 
ATOM     52  C   UNL A   1      41.965  26.005  28.584  1.00  0.00     0.074 A 
ATOM     53  C   UNL A   1      40.650  25.701  28.065  1.00  0.00     0.031 C 
ATOM     54  C   UNL A   1      41.274  31.972  30.889  1.00  0.00     0.029 A 
ATOM     55  C   UNL A   1      42.468  31.136  30.931  1.00  0.00     0.049 A 
ATOM     56  H   UNL A   1      42.705  29.224  30.139  1.00  0.00     0.167 HD
ATOM     57  C   UNL A   1      43.016  25.151  28.537  1.00  0.00     0.031 A 
ATOM     58  C   UNL A   1      43.640  31.478  31.504  1.00  0.00     0.031 A 
ATOM     59  C   UNL A   1      44.325  25.464  29.043  1.00  0.00     0.049 A 
ATOM     60  C   UNL A   1      44.788  30.507  31.452  1.00  0.00     0.074 A 
ATOM     61  C   UNL A   1      45.471  24.690  29.001  1.00  0.00     0.029 A 
ATOM     62  N   UNL A   1      44.665  26.646  29.685  1.00  0.00    -0.354 N 
ATOM     63  N   UNL A   1      44.833  29.308  30.921  1.00  0.00    -0.248 NA
ATOM     64  C   UNL A   1      46.051  30.940  32.066  1.00  0.00     0.031 C 
ATOM     65  C   UNL A   1      46.488  25.378  29.669  1.00  0.00     0.029 A 
ATOM     66  C   UNL A   1      45.996  26.612  30.063  1.00  0.00     0.049 A 
ATOM     67  H   UNL A   1      44.050  27.397  29.848  1.00  0.00     0.167 HD
ATOM     68  C   UNL A   1      46.137  28.861  31.101  1.00  0.00     0.074 A 
ATOM     69  C   UNL A   1      46.851  29.922  31.781  1.00  0.00     0.031 C 
ATOM     70  C   UNL A   1      46.694  27.681  30.733  1.00  0.00     0.031 A 
BRANCH  57  71
ATOM     71  C   UNL A   1      42.788  23.793  27.923  1.00  0.00    -0.014 A 
ATOM     72  C   UNL A   1      43.056  23.553  26.563  1.00  0.00     0.010 A 
ATOM     73  C   UNL A   1      42.344  22.728  28.728  1.00  0.00     0.010 A 
ATOM     74  C   UNL A   1      42.844  22.286  26.011  1.00  0.00     0.020 A 
ATOM     75  C   UNL A   1      42.162  21.452  28.188  1.00  0.00     0.020 A 
ATOM     76  C   UNL A   1      42.398  21.243  26.828  1.00  0.00     0.054 A 
BRANCH  76  77
ATOM     77  S   UNL A   1      42.162  19.603  26.089  1.00  0.00     0.124 S 
ATOM     78  O   UNL A   1      43.060  19.659  24.938  1.00  0.00    -0.237 OA
ATOM     79  O   UNL A   1      42.577  18.706  27.165  1.00  0.00    -0.237 OA
ATOM     80  O   UNL A   1      40.738  19.569  25.767  1.00  0.00    -0.744 OA
ENDBRANCH  76  77
ENDBRANCH  57  71
BRANCH  58  81
ATOM     81  C   UNL A   1      43.789  32.807  32.160  1.00  0.00    -0.014 A 
ATOM     82  C   UNL A   1      43.532  32.961  33.534  1.00  0.00     0.010 A 
ATOM     83  C   UNL A   1      44.194  33.929  31.413  1.00  0.00     0.010 A 
ATOM     84  C   UNL A   1      43.652  34.214  34.143  1.00  0.00     0.020 A 
ATOM     85  C   UNL A   1      44.346  35.177  32.025  1.00  0.00     0.020 A 
ATOM     86  C   UNL A   1      44.060  35.314  33.384  1.00  0.00     0.054 A 
BRANCH  86  87
ATOM     87  S   UNL A   1      44.247  36.921  34.206  1.00  0.00     0.124 S 
ATOM     88  O   UNL A   1      43.883  36.603  35.583  1.00  0.00    -0.237 OA
ATOM     89  O   UNL A   1      45.657  37.228  33.978  1.00  0.00    -0.237 OA
ATOM     90  O   UNL A   1      43.307  37.781  33.491  1.00  0.00    -0.744 OA
ENDBRANCH  86  87
ENDBRANCH  58  81
BRANCH  70  91
ATOM     91  C   UNL A   1      48.164  27.491  31.005  1.00  0.00    -0.014 A 
ATOM     92  C   UNL A   1      48.624  26.885  32.187  1.00  0.00     0.010 A 
ATOM     93  C   UNL A   1      49.099  27.878  30.026  1.00  0.00     0.010 A 
ATOM     94  C   UNL A   1      49.994  26.705  32.402  1.00  0.00     0.020 A 
ATOM     95  C   UNL A   1      50.466  27.670  30.222  1.00  0.00     0.020 A 
ATOM     96  C   UNL A   1      50.906  27.098  31.417  1.00  0.00     0.054 A 
BRANCH  96  97
ATOM     97  S   UNL A   1      52.674  26.817  31.703  1.00  0.00     0.124 S 
ATOM     98  O   UNL A   1      53.117  26.321  30.403  1.00  0.00    -0.237 OA
ATOM     99  O   UNL A   1      53.155  28.147  32.065  1.00  0.00    -0.237 OA
ATOM    100  O   UNL A   1      52.699  25.836  32.785  1.00  0.00    -0.744 OA
ENDBRANCH  96  97
ENDBRANCH  70  91
ENDBRANCH  44  45
ENDBRANCH  36  39
ENDBRANCH  34  35
ENDBRANCH   1  34
TORSDOF 17
ENDMDL
MODEL 2
REMARK VINA RESULT:      -9.9      2.555      4.256
REMARK SMILES CS(=O)(=O)c1ccc(C2=NN(c3ccc(C(=O)NCCCNC(=O)c4ccc(-c5c6nc(c(-c7ccc(S(=O)(=O)[O-])cc7)c7ccc([nH]7)c(-c7ccc(S(=O)(=O)[O-])cc7)c7nc(c(-c8ccc(S(=O)(=O)[O-])cc8)c8ccc5[nH]8)C=C7)C=C6)cc4)cc3)[C@H](c3ccccc3)C2)cc1
REMARK SMILES IDX 20 1 19 2 18 3 16 4 17 5 15 7 12 8 13 9 86 10 14 11 85 12
REMARK SMILES IDX 11 13 9 14 10 15 94 16 87 17 8 18 5 19 6 20 96 21 7 22 95 23
REMARK SMILES IDX 2 24 1 25 3 26 4 27 88 28 89 29 93 30 90 31 92 32 91 33
REMARK SMILES IDX 21 34 22 35 23 36 24 38 25 39 26 40 84 41 27 42 83 43 28 44
REMARK SMILES IDX 29 45 30 46 77 47 31 48 82 49 76 50 78 51 32 52 81 53 75 54
REMARK SMILES IDX 74 55 33 57 63 58 44 59 62 60 45 61 48 62 61 63 79 64 46 65
REMARK SMILES IDX 47 66 60 68 80 69 49 70 34 71 35 72 43 73 36 74 42 75 37 76
REMARK SMILES IDX 38 77 39 78 40 79 41 80 64 81 65 82 73 83 66 84 72 85 67 86
REMARK SMILES IDX 68 87 69 88 70 89 71 90 50 91 51 92 59 93 52 94 58 95 53 96
REMARK SMILES IDX 54 97 55 98 56 99 57 100
REMARK H PARENT 18 6 22 37 78 56 48 67
REMARK Flexibility Score: inf
ROOT
ATOM      1  C   UNL A   1      34.187  33.535  28.715  1.00  0.00     0.042 C 
ENDROOT
BRANCH   1   2
ATOM      2  C   UNL A   1      34.773  34.797  29.343  1.00  0.00     0.118 C 
BRANCH   2   3
ATOM      3  N   UNL A   1      34.015  35.205  30.514  1.00  0.00    -0.352 N 
ATOM      4  C   UNL A   1      34.267  35.044  31.853  1.00  0.00     0.251 C 
ATOM      5  O   UNL A   1      33.509  35.577  32.662  1.00  0.00    -0.269 OA
ATOM      6  H   UNL A   1      33.175  35.679  30.310  1.00  0.00     0.163 HD
BRANCH   4   7
ATOM      7  C   UNL A   1      35.469  34.321  32.343  1.00  0.00     0.039 A 
ATOM      8  C   UNL A   1      37.623  32.944  33.515  1.00  0.00     0.060 A 
ATOM      9  C   UNL A   1      36.357  32.354  33.453  1.00  0.00     0.029 A 
ATOM     10  C   UNL A   1      37.818  34.177  32.892  1.00  0.00     0.029 A 
ATOM     11  C   UNL A   1      35.285  33.036  32.868  1.00  0.00     0.016 A 
ATOM     12  C   UNL A   1      36.756  34.855  32.297  1.00  0.00     0.016 A 
BRANCH   8  13
ATOM     13  N   UNL A   1      38.670  32.340  34.180  1.00  0.00    -0.257 N 
ATOM     14  C   UNL A   1      40.192  30.894  34.417  1.00  0.00     0.071 C 
ATOM     15  N   UNL A   1      39.458  31.468  33.520  1.00  0.00    -0.176 NA
ATOM     16  C   UNL A   1      39.912  31.292  35.842  1.00  0.00     0.091 C 
ATOM     17  C   UNL A   1      38.958  32.481  35.608  1.00  0.00     0.144 C 
BRANCH  14  18
ATOM     18  C   UNL A   1      41.207  29.894  34.056  1.00  0.00    -0.002 A 
ATOM     19  C   UNL A   1      43.043  27.888  33.471  1.00  0.00     0.067 A 
ATOM     20  C   UNL A   1      41.692  27.705  33.154  1.00  0.00     0.021 A 
ATOM     21  C   UNL A   1      43.480  29.072  34.076  1.00  0.00     0.021 A 
ATOM     22  C   UNL A   1      40.773  28.705  33.460  1.00  0.00     0.011 A 
ATOM     23  C   UNL A   1      42.557  30.085  34.362  1.00  0.00     0.011 A 
BRANCH  19  24
ATOM     24  S   UNL A   1      44.150  26.555  33.076  1.00  0.00     0.175 S 
ATOM     25  C   UNL A   1      43.827  25.246  34.220  1.00  0.00     0.163 C 
ATOM     26  O   UNL A   1      45.490  27.038  33.356  1.00  0.00    -0.224 OA
ATOM     27  O   UNL A   1      43.776  26.083  31.758  1.00  0.00    -0.224 OA
ENDBRANCH  19  24
ENDBRANCH  14  18
BRANCH  17  28
ATOM     28  C   UNL A   1      39.466  33.883  35.946  1.00  0.00    -0.023 A 
ATOM     29  C   UNL A   1      38.996  34.657  37.019  1.00  0.00     0.006 A 
ATOM     30  C   UNL A   1      40.494  34.435  35.151  1.00  0.00     0.006 A 
ATOM     31  C   UNL A   1      39.526  35.928  37.277  1.00  0.00     0.000 A 
ATOM     32  C   UNL A   1      41.047  35.687  35.430  1.00  0.00     0.000 A 
ATOM     33  C   UNL A   1      40.556  36.438  36.490  1.00  0.00     0.000 A 
ENDBRANCH  17  28
ENDBRANCH   8  13
ENDBRANCH   4   7
ENDBRANCH   2   3
ENDBRANCH   1   2
BRANCH   1  34
ATOM     34  C   UNL A   1      34.825  32.254  29.237  1.00  0.00     0.118 C 
BRANCH  34  35
ATOM     35  N   UNL A   1      34.205  31.068  28.665  1.00  0.00    -0.352 N 
ATOM     36  C   UNL A   1      34.785  29.937  28.149  1.00  0.00     0.251 C 
ATOM     37  H   UNL A   1      33.221  31.079  28.646  1.00  0.00     0.163 HD
ATOM     38  O   UNL A   1      34.096  29.156  27.497  1.00  0.00    -0.269 OA
BRANCH  36  39
ATOM     39  C   UNL A   1      36.222  29.659  28.368  1.00  0.00     0.039 A 
ATOM     40  C   UNL A   1      36.636  29.204  29.623  1.00  0.00     0.014 A 
ATOM     41  C   UNL A   1      37.167  29.896  27.365  1.00  0.00     0.014 A 
ATOM     42  C   UNL A   1      37.990  28.957  29.860  1.00  0.00     0.010 A 
ATOM     43  C   UNL A   1      38.502  29.566  27.575  1.00  0.00     0.010 A 
ATOM     44  C   UNL A   1      38.933  29.119  28.832  1.00  0.00    -0.014 A 
BRANCH  44  45
ATOM     45  C   UNL A   1      40.378  28.869  29.064  1.00  0.00     0.031 A 
ATOM     46  C   UNL A   1      40.983  27.544  28.674  1.00  0.00     0.074 A 
ATOM     47  C   UNL A   1      41.133  29.808  29.667  1.00  0.00     0.049 A 
ATOM     48  N   UNL A   1      42.206  27.113  28.847  1.00  0.00    -0.248 NA
ATOM     49  C   UNL A   1      40.089  26.567  28.031  1.00  0.00     0.031 C 
ATOM     50  C   UNL A   1      40.657  31.117  30.120  1.00  0.00     0.029 A 
ATOM     51  N   UNL A   1      42.463  29.804  30.007  1.00  0.00    -0.354 N 
ATOM     52  C   UNL A   1      42.221  25.813  28.354  1.00  0.00     0.074 A 
ATOM     53  C   UNL A   1      40.875  25.505  27.927  1.00  0.00     0.031 C 
ATOM     54  C   UNL A   1      41.685  31.799  30.651  1.00  0.00     0.029 A 
ATOM     55  C   UNL A   1      42.879  30.963  30.620  1.00  0.00     0.049 A 
ATOM     56  H   UNL A   1      43.063  29.044  29.829  1.00  0.00     0.167 HD
ATOM     57  C   UNL A   1      43.267  24.958  28.244  1.00  0.00     0.031 A 
ATOM     58  C   UNL A   1      44.086  31.309  31.110  1.00  0.00     0.031 A 
ATOM     59  C   UNL A   1      44.608  25.275  28.659  1.00  0.00     0.049 A 
ATOM     60  C   UNL A   1      45.229  30.337  30.990  1.00  0.00     0.074 A 
ATOM     61  C   UNL A   1      45.748  24.500  28.546  1.00  0.00     0.029 A 
ATOM     62  N   UNL A   1      44.989  26.462  29.266  1.00  0.00    -0.354 N 
ATOM     63  N   UNL A   1      45.238  29.135  30.466  1.00  0.00    -0.248 NA
ATOM     64  C   UNL A   1      46.530  30.776  31.514  1.00  0.00     0.031 C 
ATOM     65  C   UNL A   1      46.807  25.194  29.138  1.00  0.00     0.029 A 
ATOM     66  C   UNL A   1      46.343  26.431  29.554  1.00  0.00     0.049 A 
ATOM     67  H   UNL A   1      44.386  27.215  29.464  1.00  0.00     0.167 HD
ATOM     68  C   UNL A   1      46.552  28.688  30.562  1.00  0.00     0.074 A 
ATOM     69  C   UNL A   1      47.310  29.755  31.184  1.00  0.00     0.031 C 
ATOM     70  C   UNL A   1      47.084  27.505  30.168  1.00  0.00     0.031 A 
BRANCH  57  71
ATOM     71  C   UNL A   1      43.000  23.596  27.658  1.00  0.00    -0.014 A 
ATOM     72  C   UNL A   1      43.340  23.293  26.326  1.00  0.00     0.010 A 
ATOM     73  C   UNL A   1      42.442  22.585  28.464  1.00  0.00     0.010 A 
ATOM     74  C   UNL A   1      43.089  22.023  25.800  1.00  0.00     0.020 A 
ATOM     75  C   UNL A   1      42.220  21.304  27.952  1.00  0.00     0.020 A 
ATOM     76  C   UNL A   1      42.530  21.036  26.617  1.00  0.00     0.054 A 
BRANCH  76  77
ATOM     77  S   UNL A   1      42.246  19.388  25.915  1.00  0.00     0.124 S 
ATOM     78  O   UNL A   1      42.742  18.517  26.977  1.00  0.00    -0.237 OA
ATOM     79  O   UNL A   1      40.799  19.371  25.714  1.00  0.00    -0.237 OA
ATOM     80  O   UNL A   1      43.041  19.391  24.690  1.00  0.00    -0.744 OA
ENDBRANCH  76  77
ENDBRANCH  57  71
BRANCH  58  81
ATOM     81  C   UNL A   1      44.279  32.644  31.744  1.00  0.00    -0.014 A 
ATOM     82  C   UNL A   1      44.631  33.762  30.968  1.00  0.00     0.010 A 
ATOM     83  C   UNL A   1      44.108  32.804  33.131  1.00  0.00     0.010 A 
ATOM     84  C   UNL A   1      44.834  35.008  31.568  1.00  0.00     0.020 A 
ATOM     85  C   UNL A   1      44.278  34.055  33.731  1.00  0.00     0.020 A 
ATOM     86  C   UNL A   1      44.653  35.147  32.947  1.00  0.00     0.054 A 
BRANCH  86  87
ATOM     87  S   UNL A   1      44.882  36.783  33.698  1.00  0.00     0.124 S 
ATOM     88  O   UNL A   1      44.477  36.544  35.079  1.00  0.00    -0.237 OA
ATOM     89  O   UNL A   1      46.308  37.027  33.489  1.00  0.00    -0.237 OA
ATOM     90  O   UNL A   1      43.991  37.643  32.922  1.00  0.00    -0.744 OA
ENDBRANCH  86  87
ENDBRANCH  58  81
BRANCH  70  91
ATOM     91  C   UNL A   1      48.568  27.317  30.342  1.00  0.00    -0.014 A 
ATOM     92  C   UNL A   1      49.483  27.705  29.347  1.00  0.00     0.010 A 
ATOM     93  C   UNL A   1      49.057  26.794  31.554  1.00  0.00     0.010 A 
ATOM     94  C   UNL A   1      50.857  27.535  29.546  1.00  0.00     0.020 A 
ATOM     95  C   UNL A   1      50.429  26.654  31.770  1.00  0.00     0.020 A 
ATOM     96  C   UNL A   1      51.321  27.011  30.758  1.00  0.00     0.054 A 
BRANCH  96  97
ATOM     97  S   UNL A   1      53.109  26.840  31.006  1.00  0.00     0.124 S 
ATOM     98  O   UNL A   1      53.627  27.098  29.666  1.00  0.00    -0.237 OA
ATOM     99  O   UNL A   1      53.394  27.871  32.001  1.00  0.00    -0.237 OA
ATOM    100  O   UNL A   1      53.263  25.466  31.479  1.00  0.00    -0.744 OA
ENDBRANCH  96  97
ENDBRANCH  70  91
ENDBRANCH  44  45
ENDBRANCH  36  39
ENDBRANCH  34  35
ENDBRANCH   1  34
TORSDOF 17
ENDMDL
MODEL 3
REMARK VINA RESULT:      -9.7      4.881     12.317
REMARK SMILES CS(=O)(=O)c1ccc(C2=NN(c3ccc(C(=O)NCCCNC(=O)c4ccc(-c5c6nc(c(-c7ccc(S(=O)(=O)[O-])cc7)c7ccc([nH]7)c(-c7ccc(S(=O)(=O)[O-])cc7)c7nc(c(-c8ccc(S(=O)(=O)[O-])cc8)c8ccc5[nH]8)C=C7)C=C6)cc4)cc3)[C@H](c3ccccc3)C2)cc1
REMARK SMILES IDX 20 1 19 2 18 3 16 4 17 5 15 7 12 8 13 9 86 10 14 11 85 12
REMARK SMILES IDX 11 13 9 14 10 15 94 16 87 17 8 18 5 19 6 20 96 21 7 22 95 23
REMARK SMILES IDX 2 24 1 25 3 26 4 27 88 28 89 29 93 30 90 31 92 32 91 33
REMARK SMILES IDX 21 34 22 35 23 36 24 38 25 39 26 40 84 41 27 42 83 43 28 44
REMARK SMILES IDX 29 45 30 46 77 47 31 48 82 49 76 50 78 51 32 52 81 53 75 54
REMARK SMILES IDX 74 55 33 57 63 58 44 59 62 60 45 61 48 62 61 63 79 64 46 65
REMARK SMILES IDX 47 66 60 68 80 69 49 70 34 71 35 72 43 73 36 74 42 75 37 76
REMARK SMILES IDX 38 77 39 78 40 79 41 80 64 81 65 82 73 83 66 84 72 85 67 86
REMARK SMILES IDX 68 87 69 88 70 89 71 90 50 91 51 92 59 93 52 94 58 95 53 96
REMARK SMILES IDX 54 97 55 98 56 99 57 100
REMARK H PARENT 18 6 22 37 78 56 48 67
REMARK Flexibility Score: inf
ROOT
ATOM      1  C   UNL A   1      36.759  29.820  29.559  1.00  0.00     0.042 C 
ENDROOT
BRANCH   1   2
ATOM      2  C   UNL A   1      35.629  29.564  28.564  1.00  0.00     0.118 C 
BRANCH   2   3
ATOM      3  N   UNL A   1      34.799  30.744  28.395  1.00  0.00    -0.352 N 
ATOM      4  C   UNL A   1      33.691  30.964  27.615  1.00  0.00     0.251 C 
ATOM      5  O   UNL A   1      33.097  32.035  27.726  1.00  0.00    -0.269 OA
ATOM      6  H   UNL A   1      35.079  31.520  28.934  1.00  0.00     0.163 HD
BRANCH   4   7
ATOM      7  C   UNL A   1      33.149  29.917  26.710  1.00  0.00     0.039 A 
ATOM      8  C   UNL A   1      32.213  27.754  25.177  1.00  0.00     0.060 A 
ATOM      9  C   UNL A   1      31.701  27.987  26.456  1.00  0.00     0.029 A 
ATOM     10  C   UNL A   1      33.115  28.672  24.639  1.00  0.00     0.029 A 
ATOM     11  C   UNL A   1      32.163  29.065  27.219  1.00  0.00     0.016 A 
ATOM     12  C   UNL A   1      33.569  29.754  25.391  1.00  0.00     0.016 A 
BRANCH   8  13
ATOM     13  N   UNL A   1      31.855  26.639  24.448  1.00  0.00    -0.257 N 
ATOM     14  C   UNL A   1      31.957  24.595  23.923  1.00  0.00     0.071 C 
ATOM     15  N   UNL A   1      32.211  25.416  24.890  1.00  0.00    -0.176 NA
ATOM     16  C   UNL A   1      31.442  25.219  22.653  1.00  0.00     0.091 C 
ATOM     17  C   UNL A   1      31.190  26.659  23.143  1.00  0.00     0.144 C 
BRANCH  14  18
ATOM     18  C   UNL A   1      32.191  23.150  24.061  1.00  0.00    -0.002 A 
ATOM     19  C   UNL A   1      32.477  20.390  24.255  1.00  0.00     0.067 A 
ATOM     20  C   UNL A   1      32.236  20.976  23.007  1.00  0.00     0.021 A 
ATOM     21  C   UNL A   1      32.579  21.179  25.406  1.00  0.00     0.021 A 
ATOM     22  C   UNL A   1      32.081  22.356  22.914  1.00  0.00     0.011 A 
ATOM     23  C   UNL A   1      32.444  22.569  25.306  1.00  0.00     0.011 A 
BRANCH  19  24
ATOM     24  S   UNL A   1      32.635  18.620  24.296  1.00  0.00     0.175 S 
ATOM     25  C   UNL A   1      34.364  18.247  24.317  1.00  0.00     0.163 C 
ATOM     26  O   UNL A   1      32.113  18.133  23.032  1.00  0.00    -0.224 OA
ATOM     27  O   UNL A   1      32.081  18.184  25.562  1.00  0.00    -0.224 OA
ENDBRANCH  19  24
ENDBRANCH  14  18
BRANCH  17  28
ATOM     28  C   UNL A   1      29.740  27.133  23.256  1.00  0.00    -0.023 A 
ATOM     29  C   UNL A   1      28.708  26.386  23.844  1.00  0.00     0.006 A 
ATOM     30  C   UNL A   1      29.413  28.415  22.764  1.00  0.00     0.006 A 
ATOM     31  C   UNL A   1      27.406  26.897  23.928  1.00  0.00     0.000 A 
ATOM     32  C   UNL A   1      28.124  28.939  22.880  1.00  0.00     0.000 A 
ATOM     33  C   UNL A   1      27.116  28.175  23.456  1.00  0.00     0.000 A 
ENDBRANCH  17  28
ENDBRANCH   8  13
ENDBRANCH   4   7
ENDBRANCH   2   3
ENDBRANCH   1   2
BRANCH   1  34
ATOM     34  C   UNL A   1      36.279  29.913  31.001  1.00  0.00     0.118 C 
BRANCH  34  35
ATOM     35  N   UNL A   1      36.535  31.225  31.574  1.00  0.00    -0.352 N 
ATOM     36  C   UNL A   1      37.727  31.838  31.867  1.00  0.00     0.251 C 
ATOM     37  H   UNL A   1      35.732  31.754  31.784  1.00  0.00     0.163 HD
ATOM     38  O   UNL A   1      37.726  32.847  32.567  1.00  0.00    -0.269 OA
BRANCH  36  39
ATOM     39  C   UNL A   1      39.003  31.292  31.351  1.00  0.00     0.039 A 
ATOM     40  C   UNL A   1      39.416  31.648  30.064  1.00  0.00     0.014 A 
ATOM     41  C   UNL A   1      39.762  30.392  32.103  1.00  0.00     0.014 A 
ATOM     42  C   UNL A   1      40.604  31.127  29.547  1.00  0.00     0.010 A 
ATOM     43  C   UNL A   1      40.988  29.943  31.621  1.00  0.00     0.010 A 
ATOM     44  C   UNL A   1      41.410  30.283  30.329  1.00  0.00    -0.014 A 
BRANCH  44  45
ATOM     45  C   UNL A   1      42.673  29.712  29.796  1.00  0.00     0.031 A 
ATOM     46  C   UNL A   1      43.918  30.560  29.748  1.00  0.00     0.074 A 
ATOM     47  C   UNL A   1      42.690  28.454  29.313  1.00  0.00     0.049 A 
ATOM     48  N   UNL A   1      45.099  30.265  29.268  1.00  0.00    -0.248 NA
ATOM     49  C   UNL A   1      43.815  31.927  30.285  1.00  0.00     0.031 C 
ATOM     50  C   UNL A   1      41.542  27.545  29.275  1.00  0.00     0.029 A 
ATOM     51  N   UNL A   1      43.709  27.723  28.757  1.00  0.00    -0.354 N 
ATOM     52  C   UNL A   1      45.869  31.412  29.427  1.00  0.00     0.074 A 
ATOM     53  C   UNL A   1      45.008  32.425  29.995  1.00  0.00     0.031 C 
ATOM     54  C   UNL A   1      41.928  26.370  28.752  1.00  0.00     0.029 A 
ATOM     55  C   UNL A   1      43.335  26.456  28.375  1.00  0.00     0.049 A 
ATOM     56  H   UNL A   1      44.622  28.072  28.641  1.00  0.00     0.167 HD
ATOM     57  C   UNL A   1      47.182  31.600  29.147  1.00  0.00     0.031 A 
ATOM     58  C   UNL A   1      44.043  25.476  27.780  1.00  0.00     0.031 A 
ATOM     59  C   UNL A   1      48.036  30.584  28.593  1.00  0.00     0.049 A 
ATOM     60  C   UNL A   1      45.495  25.713  27.464  1.00  0.00     0.074 A 
ATOM     61  C   UNL A   1      49.390  30.655  28.318  1.00  0.00     0.029 A 
ATOM     62  N   UNL A   1      47.620  29.311  28.229  1.00  0.00    -0.354 N 
ATOM     63  N   UNL A   1      46.222  26.785  27.676  1.00  0.00    -0.248 NA
ATOM     64  C   UNL A   1      46.229  24.603  26.842  1.00  0.00     0.031 C 
ATOM     65  C   UNL A   1      49.780  29.447  27.733  1.00  0.00     0.029 A 
ATOM     66  C   UNL A   1      48.687  28.596  27.712  1.00  0.00     0.049 A 
ATOM     67  H   UNL A   1      46.702  28.968  28.325  1.00  0.00     0.167 HD
ATOM     68  C   UNL A   1      47.506  26.464  27.250  1.00  0.00     0.074 A 
ATOM     69  C   UNL A   1      47.459  25.095  26.779  1.00  0.00     0.031 C 
ATOM     70  C   UNL A   1      48.624  27.231  27.253  1.00  0.00     0.031 A 
BRANCH  57  71
ATOM     71  C   UNL A   1      47.770  32.959  29.428  1.00  0.00    -0.014 A 
ATOM     72  C   UNL A   1      48.324  33.269  30.684  1.00  0.00     0.010 A 
ATOM     73  C   UNL A   1      47.813  33.927  28.408  1.00  0.00     0.010 A 
ATOM     74  C   UNL A   1      48.870  34.532  30.927  1.00  0.00     0.020 A 
ATOM     75  C   UNL A   1      48.388  35.180  28.636  1.00  0.00     0.020 A 
ATOM     76  C   UNL A   1      48.899  35.480  29.900  1.00  0.00     0.054 A 
BRANCH  76  77
ATOM     77  S   UNL A   1      49.643  37.100  30.236  1.00  0.00     0.124 S 
ATOM     78  O   UNL A   1      50.206  37.450  28.935  1.00  0.00    -0.237 OA
ATOM     79  O   UNL A   1      48.494  37.898  30.658  1.00  0.00    -0.237 OA
ATOM     80  O   UNL A   1      50.622  36.821  31.283  1.00  0.00    -0.744 OA
ENDBRANCH  76  77
ENDBRANCH  57  71
BRANCH  58  81
ATOM     81  C   UNL A   1      43.392  24.174  27.458  1.00  0.00    -0.014 A 
ATOM     82  C   UNL A   1      42.951  23.897  26.153  1.00  0.00     0.010 A 
ATOM     83  C   UNL A   1      43.214  23.202  28.459  1.00  0.00     0.010 A 
ATOM     84  C   UNL A   1      42.321  22.684  25.859  1.00  0.00     0.020 A 
ATOM     85  C   UNL A   1      42.612  21.975  28.162  1.00  0.00     0.020 A 
ATOM     86  C   UNL A   1      42.158  21.729  26.866  1.00  0.00     0.054 A 
BRANCH  86  87
ATOM     87  S   UNL A   1      41.373  20.147  26.451  1.00  0.00     0.124 S 
ATOM     88  O   UNL A   1      41.495  19.409  27.704  1.00  0.00    -0.237 OA
ATOM     89  O   UNL A   1      40.018  20.555  26.086  1.00  0.00    -0.237 OA
ATOM     90  O   UNL A   1      42.183  19.643  25.344  1.00  0.00    -0.744 OA
ENDBRANCH  86  87
ENDBRANCH  58  81
BRANCH  70  91
ATOM     91  C   UNL A   1      49.906  26.594  26.784  1.00  0.00    -0.014 A 
ATOM     92  C   UNL A   1      50.243  26.530  25.420  1.00  0.00     0.010 A 
ATOM     93  C   UNL A   1      50.817  26.100  27.737  1.00  0.00     0.010 A 
ATOM     94  C   UNL A   1      51.450  25.949  25.017  1.00  0.00     0.020 A 
ATOM     95  C   UNL A   1      52.037  25.549  27.341  1.00  0.00     0.020 A 
ATOM     96  C   UNL A   1      52.339  25.463  25.981  1.00  0.00     0.054 A 
BRANCH  96  97
ATOM     97  S   UNL A   1      53.915  24.752  25.435  1.00  0.00     0.124 S 
ATOM     98  O   UNL A   1      54.734  24.868  26.638  1.00  0.00    -0.237 OA
ATOM     99  O   UNL A   1      53.539  23.392  25.059  1.00  0.00    -0.237 OA
ATOM    100  O   UNL A   1      54.316  25.611  24.323  1.00  0.00    -0.744 OA
ENDBRANCH  96  97
ENDBRANCH  70  91
ENDBRANCH  44  45
ENDBRANCH  36  39
ENDBRANCH  34  35
ENDBRANCH   1  34
TORSDOF 17
ENDMDL
