MODEL 1
REMARK VINA RESULT:     -11.1      0.000      0.000
REMARK SMILES CC[C@@H]1CC[C@@](Cc2ccc(O)cc2)(C(=O)NCCCNC(=O)c2ccc(-c3c4nc(c(-c5ccc(S(=O)(=O)[O-])cc5)c5ccc([nH]5)c(-c5ccc(S(=O)(=O)[O-])cc5)c5nc(c(-c6ccc(S(=O)(=O)[O-])cc6)c6ccc3[nH]6)C=C5)C=C4)cc2)C1
REMARK SMILES IDX 19 1 18 2 17 3 15 4 16 5 6 7 3 8 4 9 84 10 5 11 2 12 1 13
REMARK SMILES IDX 7 14 8 15 9 16 14 17 10 18 13 19 11 20 12 21 20 23 21 24
REMARK SMILES IDX 22 25 23 27 24 28 25 29 83 30 26 31 82 32 27 33 28 34 29 35
REMARK SMILES IDX 76 36 30 37 81 38 75 39 77 40 31 41 80 42 74 43 73 44 32 46
REMARK SMILES IDX 62 47 43 48 61 49 44 50 47 51 60 52 78 53 45 54 46 55 59 57
REMARK SMILES IDX 79 58 48 59 33 60 34 61 42 62 35 63 41 64 36 65 37 66 38 67
REMARK SMILES IDX 39 68 40 69 63 70 64 71 72 72 65 73 71 74 66 75 67 76 68 77
REMARK SMILES IDX 69 78 70 79 49 80 50 81 58 82 51 83 57 84 52 85 53 86 54 87
REMARK SMILES IDX 55 88 56 89
REMARK H PARENT 17 6 12 22 21 26 77 45 47 56
REMARK Flexibility Score: inf
ROOT
ATOM      1  C   UNL A   1      33.813  28.512  25.897  1.00  0.00     0.042 C 
ENDROOT
BRANCH   1   2
ATOM      2  C   UNL A   1      33.376  27.122  25.488  1.00  0.00     0.117 C 
BRANCH   2   3
ATOM      3  N   UNL A   1      33.802  26.734  24.157  1.00  0.00    -0.356 N 
ATOM      4  C   UNL A   1      33.861  25.506  23.572  1.00  0.00     0.226 C 
ATOM      5  O   UNL A   1      33.973  25.504  22.342  1.00  0.00    -0.274 OA
ATOM      6  H   UNL A   1      34.097  27.479  23.584  1.00  0.00     0.163 HD
BRANCH   4   7
ATOM      7  C   UNL A   1      33.770  24.189  24.379  1.00  0.00     0.053 C 
ATOM      8  C   UNL A   1      36.140  23.608  24.540  1.00  0.00    -0.010 C 
ATOM      9  C   UNL A   1      35.660  23.823  25.968  1.00  0.00     0.005 C 
ATOM     10  C   UNL A   1      34.852  23.202  23.831  1.00  0.00     0.020 C 
ATOM     11  C   UNL A   1      34.234  24.368  25.848  1.00  0.00     0.017 C 
BRANCH   8  12
ATOM     12  C   UNL A   1      37.272  22.582  24.471  1.00  0.00     0.000 C 
ATOM     13  C   UNL A   1      36.794  21.147  24.609  1.00  0.00     0.004 C 
ENDBRANCH   8  12
BRANCH   7  14
ATOM     14  C   UNL A   1      32.391  23.488  24.163  1.00  0.00     0.052 C 
BRANCH  14  15
ATOM     15  C   UNL A   1      32.322  21.984  24.017  1.00  0.00    -0.047 A 
ATOM     16  C   UNL A   1      32.489  21.148  25.138  1.00  0.00     0.007 A 
ATOM     17  C   UNL A   1      32.129  21.392  22.761  1.00  0.00     0.007 A 
ATOM     18  C   UNL A   1      32.583  19.758  24.984  1.00  0.00     0.046 A 
ATOM     19  C   UNL A   1      32.219  20.005  22.609  1.00  0.00     0.046 A 
ATOM     20  C   UNL A   1      32.493  19.205  23.713  1.00  0.00     0.115 A 
BRANCH  20  21
ATOM     21  O   UNL A   1      32.712  17.876  23.505  1.00  0.00    -0.508 OA
ATOM     22  H   UNL A   1      32.879  17.558  22.639  1.00  0.00     0.293 HD
ENDBRANCH  20  21
ENDBRANCH  14  15
ENDBRANCH   7  14
ENDBRANCH   4   7
ENDBRANCH   2   3
ENDBRANCH   1   2
BRANCH   1  23
ATOM     23  C   UNL A   1      33.423  28.830  27.334  1.00  0.00     0.118 C 
BRANCH  23  24
ATOM     24  N   UNL A   1      33.678  30.232  27.689  1.00  0.00    -0.352 N 
ATOM     25  C   UNL A   1      34.756  30.805  28.325  1.00  0.00     0.251 C 
ATOM     26  H   UNL A   1      32.965  30.860  27.432  1.00  0.00     0.163 HD
ATOM     27  O   UNL A   1      34.633  31.917  28.838  1.00  0.00    -0.269 OA
BRANCH  25  28
ATOM     28  C   UNL A   1      36.026  30.049  28.406  1.00  0.00     0.039 A 
ATOM     29  C   UNL A   1      36.930  30.065  27.343  1.00  0.00     0.014 A 
ATOM     30  C   UNL A   1      36.356  29.387  29.588  1.00  0.00     0.014 A 
ATOM     31  C   UNL A   1      38.219  29.546  27.525  1.00  0.00     0.010 A 
ATOM     32  C   UNL A   1      37.669  29.003  29.812  1.00  0.00     0.010 A 
ATOM     33  C   UNL A   1      38.625  29.088  28.789  1.00  0.00    -0.014 A 
BRANCH  33  34
ATOM     34  C   UNL A   1      40.030  28.710  29.114  1.00  0.00     0.031 A 
ATOM     35  C   UNL A   1      40.965  29.756  29.666  1.00  0.00     0.074 A 
ATOM     36  C   UNL A   1      40.509  27.498  28.762  1.00  0.00     0.049 A 
ATOM     37  N   UNL A   1      42.270  29.737  29.753  1.00  0.00    -0.248 NA
ATOM     38  C   UNL A   1      40.353  31.014  30.126  1.00  0.00     0.031 C 
ATOM     39  C   UNL A   1      39.730  26.407  28.171  1.00  0.00     0.029 A 
ATOM     40  N   UNL A   1      41.785  26.991  28.826  1.00  0.00    -0.354 N 
ATOM     41  C   UNL A   1      42.635  30.997  30.212  1.00  0.00     0.074 A 
ATOM     42  C   UNL A   1      41.418  31.769  30.345  1.00  0.00     0.031 C 
ATOM     43  C   UNL A   1      40.535  25.355  27.953  1.00  0.00     0.029 A 
ATOM     44  C   UNL A   1      41.898  25.713  28.328  1.00  0.00     0.049 A 
ATOM     45  H   UNL A   1      42.546  27.494  29.195  1.00  0.00     0.167 HD
ATOM     46  C   UNL A   1      43.868  31.468  30.513  1.00  0.00     0.031 A 
ATOM     47  C   UNL A   1      42.979  24.923  28.169  1.00  0.00     0.031 A 
ATOM     48  C   UNL A   1      45.066  30.678  30.441  1.00  0.00     0.049 A 
ATOM     49  C   UNL A   1      44.333  25.445  28.567  1.00  0.00     0.074 A 
ATOM     50  C   UNL A   1      46.355  31.035  30.795  1.00  0.00     0.029 A 
ATOM     51  N   UNL A   1      45.117  29.361  30.010  1.00  0.00    -0.354 N 
ATOM     52  N   UNL A   1      44.654  26.630  29.026  1.00  0.00    -0.248 NA
ATOM     53  C   UNL A   1      45.469  24.522  28.430  1.00  0.00     0.031 C 
ATOM     54  C   UNL A   1      47.191  29.941  30.554  1.00  0.00     0.029 A 
ATOM     55  C   UNL A   1      46.414  28.890  30.093  1.00  0.00     0.049 A 
ATOM     56  H   UNL A   1      44.345  28.841  29.692  1.00  0.00     0.167 HD
ATOM     57  C   UNL A   1      46.022  26.583  29.270  1.00  0.00     0.074 A 
ATOM     58  C   UNL A   1      46.468  25.254  28.906  1.00  0.00     0.031 C 
ATOM     59  C   UNL A   1      46.832  27.553  29.756  1.00  0.00     0.031 A 
BRANCH  46  60
ATOM     60  C   UNL A   1      43.977  32.904  30.955  1.00  0.00    -0.014 A 
ATOM     61  C   UNL A   1      43.835  33.260  32.309  1.00  0.00     0.010 A 
ATOM     62  C   UNL A   1      44.248  33.908  30.008  1.00  0.00     0.010 A 
ATOM     63  C   UNL A   1      43.903  34.600  32.698  1.00  0.00     0.020 A 
ATOM     64  C   UNL A   1      44.349  35.247  30.399  1.00  0.00     0.020 A 
ATOM     65  C   UNL A   1      44.153  35.586  31.740  1.00  0.00     0.054 A 
BRANCH  65  66
ATOM     66  S   UNL A   1      44.243  37.316  32.275  1.00  0.00     0.124 S 
ATOM     67  O   UNL A   1      43.873  38.027  31.054  1.00  0.00    -0.237 OA
ATOM     68  O   UNL A   1      43.260  37.371  33.355  1.00  0.00    -0.237 OA
ATOM     69  O   UNL A   1      45.633  37.477  32.694  1.00  0.00    -0.744 OA
ENDBRANCH  65  66
ENDBRANCH  46  60
BRANCH  47  70
ATOM     70  C   UNL A   1      42.821  23.544  27.631  1.00  0.00    -0.014 A 
ATOM     71  C   UNL A   1      42.395  22.502  28.473  1.00  0.00     0.010 A 
ATOM     72  C   UNL A   1      43.075  23.266  26.276  1.00  0.00     0.010 A 
ATOM     73  C   UNL A   1      42.244  21.205  27.978  1.00  0.00     0.020 A 
ATOM     74  C   UNL A   1      42.899  21.973  25.769  1.00  0.00     0.020 A 
ATOM     75  C   UNL A   1      42.496  20.948  26.628  1.00  0.00     0.054 A 
BRANCH  75  76
ATOM     76  S   UNL A   1      42.240  19.267  25.993  1.00  0.00     0.124 S 
ATOM     77  O   UNL A   1      42.753  18.449  27.087  1.00  0.00    -0.237 OA
ATOM     78  O   UNL A   1      40.794  19.221  25.791  1.00  0.00    -0.237 OA
ATOM     79  O   UNL A   1      43.033  19.242  24.766  1.00  0.00    -0.744 OA
ENDBRANCH  75  76
ENDBRANCH  47  70
BRANCH  59  80
ATOM     80  C   UNL A   1      48.276  27.207  29.996  1.00  0.00    -0.014 A 
ATOM     81  C   UNL A   1      49.243  27.373  28.991  1.00  0.00     0.010 A 
ATOM     82  C   UNL A   1      48.679  26.812  31.285  1.00  0.00     0.010 A 
ATOM     83  C   UNL A   1      50.592  27.143  29.270  1.00  0.00     0.020 A 
ATOM     84  C   UNL A   1      50.029  26.604  31.574  1.00  0.00     0.020 A 
ATOM     85  C   UNL A   1      50.977  26.767  30.562  1.00  0.00     0.054 A 
BRANCH  85  86
ATOM     86  S   UNL A   1      52.744  26.564  30.925  1.00  0.00     0.124 S 
ATOM     87  O   UNL A   1      52.749  25.353  31.740  1.00  0.00    -0.237 OA
ATOM     88  O   UNL A   1      53.332  26.429  29.595  1.00  0.00    -0.237 OA
ATOM     89  O   UNL A   1      53.095  27.793  31.632  1.00  0.00    -0.744 OA
ENDBRANCH  85  86
ENDBRANCH  59  80
ENDBRANCH  33  34
ENDBRANCH  25  28
ENDBRANCH  23  24
ENDBRANCH   1  23
TORSDOF 17
ENDMDL
MODEL 2
REMARK VINA RESULT:     -10.9      3.159      9.287
REMARK SMILES CC[C@@H]1CC[C@@](Cc2ccc(O)cc2)(C(=O)NCCCNC(=O)c2ccc(-c3c4nc(c(-c5ccc(S(=O)(=O)[O-])cc5)c5ccc([nH]5)c(-c5ccc(S(=O)(=O)[O-])cc5)c5nc(c(-c6ccc(S(=O)(=O)[O-])cc6)c6ccc3[nH]6)C=C5)C=C4)cc2)C1
REMARK SMILES IDX 19 1 18 2 17 3 15 4 16 5 6 7 3 8 4 9 84 10 5 11 2 12 1 13
REMARK SMILES IDX 7 14 8 15 9 16 14 17 10 18 13 19 11 20 12 21 20 23 21 24
REMARK SMILES IDX 22 25 23 27 24 28 25 29 83 30 26 31 82 32 27 33 28 34 29 35
REMARK SMILES IDX 76 36 30 37 81 38 75 39 77 40 31 41 80 42 74 43 73 44 32 46
REMARK SMILES IDX 62 47 43 48 61 49 44 50 47 51 60 52 78 53 45 54 46 55 59 57
REMARK SMILES IDX 79 58 48 59 33 60 34 61 42 62 35 63 41 64 36 65 37 66 38 67
REMARK SMILES IDX 39 68 40 69 63 70 64 71 72 72 65 73 71 74 66 75 67 76 68 77
REMARK SMILES IDX 69 78 70 79 49 80 50 81 58 82 51 83 57 84 52 85 53 86 54 87
REMARK SMILES IDX 55 88 56 89
REMARK H PARENT 17 6 12 22 21 26 77 45 47 56
REMARK Flexibility Score: inf
ROOT
ATOM      1  C   UNL A   1      36.614  22.198  24.132  1.00  0.00     0.042 C 
ENDROOT
BRANCH   1   2
ATOM      2  C   UNL A   1      35.865  21.030  24.734  1.00  0.00     0.117 C 
BRANCH   2   3
ATOM      3  N   UNL A   1      35.342  21.282  26.064  1.00  0.00    -0.356 N 
ATOM      4  C   UNL A   1      34.080  21.589  26.473  1.00  0.00     0.226 C 
ATOM      5  O   UNL A   1      33.861  21.452  27.681  1.00  0.00    -0.274 OA
ATOM      6  H   UNL A   1      36.007  21.221  26.787  1.00  0.00     0.163 HD
BRANCH   4   7
ATOM      7  C   UNL A   1      32.975  22.057  25.498  1.00  0.00     0.053 C 
ATOM      8  C   UNL A   1      33.052  24.473  25.874  1.00  0.00    -0.010 C 
ATOM      9  C   UNL A   1      33.424  24.260  24.413  1.00  0.00     0.005 C 
ATOM     10  C   UNL A   1      32.200  23.241  26.165  1.00  0.00     0.020 C 
ATOM     11  C   UNL A   1      33.559  22.745  24.235  1.00  0.00     0.017 C 
BRANCH   8  12
ATOM     12  C   UNL A   1      32.350  25.814  26.090  1.00  0.00     0.000 C 
ATOM     13  C   UNL A   1      33.302  26.998  26.109  1.00  0.00     0.004 C 
ENDBRANCH   8  12
BRANCH   7  14
ATOM     14  C   UNL A   1      31.922  20.929  25.253  1.00  0.00     0.052 C 
BRANCH  14  15
ATOM     15  C   UNL A   1      32.345  19.627  24.610  1.00  0.00    -0.047 A 
ATOM     16  C   UNL A   1      32.904  18.594  25.386  1.00  0.00     0.007 A 
ATOM     17  C   UNL A   1      32.226  19.438  23.226  1.00  0.00     0.007 A 
ATOM     18  C   UNL A   1      33.440  17.452  24.776  1.00  0.00     0.046 A 
ATOM     19  C   UNL A   1      32.757  18.296  22.618  1.00  0.00     0.046 A 
ATOM     20  C   UNL A   1      33.402  17.337  23.392  1.00  0.00     0.115 A 
BRANCH  20  21
ATOM     21  O   UNL A   1      34.029  16.310  22.752  1.00  0.00    -0.508 OA
ATOM     22  H   UNL A   1      33.786  15.424  22.938  1.00  0.00     0.293 HD
ENDBRANCH  20  21
ENDBRANCH  14  15
ENDBRANCH   7  14
ENDBRANCH   4   7
ENDBRANCH   2   3
ENDBRANCH   1   2
BRANCH   1  23
ATOM     23  C   UNL A   1      37.396  22.974  25.182  1.00  0.00     0.118 C 
BRANCH  23  24
ATOM     24  N   UNL A   1      38.642  22.300  25.570  1.00  0.00    -0.352 N 
ATOM     25  C   UNL A   1      39.793  22.812  26.124  1.00  0.00     0.251 C 
ATOM     26  H   UNL A   1      38.654  21.329  25.410  1.00  0.00     0.163 HD
ATOM     27  O   UNL A   1      40.837  22.164  26.054  1.00  0.00    -0.269 OA
BRANCH  25  28
ATOM     28  C   UNL A   1      39.752  24.151  26.756  1.00  0.00     0.039 A 
ATOM     29  C   UNL A   1      39.112  24.336  27.982  1.00  0.00     0.014 A 
ATOM     30  C   UNL A   1      40.432  25.212  26.160  1.00  0.00     0.014 A 
ATOM     31  C   UNL A   1      39.284  25.541  28.675  1.00  0.00     0.010 A 
ATOM     32  C   UNL A   1      40.715  26.346  26.905  1.00  0.00     0.010 A 
ATOM     33  C   UNL A   1      40.157  26.524  28.180  1.00  0.00    -0.014 A 
BRANCH  33  34
ATOM     34  C   UNL A   1      40.548  27.738  28.950  1.00  0.00     0.031 A 
ATOM     35  C   UNL A   1      41.819  27.721  29.761  1.00  0.00     0.074 A 
ATOM     36  C   UNL A   1      39.696  28.780  29.059  1.00  0.00     0.049 A 
ATOM     37  N   UNL A   1      42.207  28.532  30.710  1.00  0.00    -0.248 NA
ATOM     38  C   UNL A   1      42.747  26.606  29.510  1.00  0.00     0.031 C 
ATOM     39  C   UNL A   1      38.408  28.910  28.372  1.00  0.00     0.029 A 
ATOM     40  N   UNL A   1      39.776  29.923  29.819  1.00  0.00    -0.354 N 
ATOM     41  C   UNL A   1      43.385  27.990  31.211  1.00  0.00     0.074 A 
ATOM     42  C   UNL A   1      43.625  26.759  30.489  1.00  0.00     0.031 C 
ATOM     43  C   UNL A   1      37.835  30.073  28.719  1.00  0.00     0.029 A 
ATOM     44  C   UNL A   1      38.680  30.746  29.699  1.00  0.00     0.049 A 
ATOM     45  H   UNL A   1      40.547  30.133  30.393  1.00  0.00     0.167 HD
ATOM     46  C   UNL A   1      44.205  28.478  32.172  1.00  0.00     0.031 A 
ATOM     47  C   UNL A   1      38.375  31.901  30.323  1.00  0.00     0.031 A 
ATOM     48  C   UNL A   1      43.996  29.733  32.840  1.00  0.00     0.049 A 
ATOM     49  C   UNL A   1      39.329  32.457  31.345  1.00  0.00     0.074 A 
ATOM     50  C   UNL A   1      44.805  30.354  33.774  1.00  0.00     0.029 A 
ATOM     51  N   UNL A   1      42.913  30.571  32.623  1.00  0.00    -0.354 N 
ATOM     52  N   UNL A   1      40.452  31.943  31.785  1.00  0.00    -0.248 NA
ATOM     53  C   UNL A   1      38.978  33.749  31.951  1.00  0.00     0.031 C 
ATOM     54  C   UNL A   1      44.198  31.559  34.142  1.00  0.00     0.029 A 
ATOM     55  C   UNL A   1      43.034  31.706  33.403  1.00  0.00     0.049 A 
ATOM     56  H   UNL A   1      42.169  30.384  32.007  1.00  0.00     0.167 HD
ATOM     57  C   UNL A   1      40.962  32.867  32.689  1.00  0.00     0.074 A 
ATOM     58  C   UNL A   1      40.025  33.970  32.735  1.00  0.00     0.031 C 
ATOM     59  C   UNL A   1      42.107  32.807  33.411  1.00  0.00     0.031 A 
BRANCH  46  60
ATOM     60  C   UNL A   1      45.405  27.651  32.549  1.00  0.00    -0.014 A 
ATOM     61  C   UNL A   1      45.317  26.648  33.532  1.00  0.00     0.010 A 
ATOM     62  C   UNL A   1      46.633  27.863  31.898  1.00  0.00     0.010 A 
ATOM     63  C   UNL A   1      46.448  25.914  33.897  1.00  0.00     0.020 A 
ATOM     64  C   UNL A   1      47.760  27.108  32.238  1.00  0.00     0.020 A 
ATOM     65  C   UNL A   1      47.664  26.152  33.252  1.00  0.00     0.054 A 
BRANCH  65  66
ATOM     66  S   UNL A   1      49.114  25.180  33.741  1.00  0.00     0.124 S 
ATOM     67  O   UNL A   1      48.498  24.053  34.437  1.00  0.00    -0.237 OA
ATOM     68  O   UNL A   1      49.735  24.860  32.457  1.00  0.00    -0.237 OA
ATOM     69  O   UNL A   1      49.876  26.095  34.587  1.00  0.00    -0.744 OA
ENDBRANCH  65  66
ENDBRANCH  46  60
BRANCH  47  70
ATOM     70  C   UNL A   1      37.119  32.624  29.980  1.00  0.00    -0.014 A 
ATOM     71  C   UNL A   1      36.009  32.557  30.840  1.00  0.00     0.010 A 
ATOM     72  C   UNL A   1      37.031  33.397  28.808  1.00  0.00     0.010 A 
ATOM     73  C   UNL A   1      34.826  33.232  30.526  1.00  0.00     0.020 A 
ATOM     74  C   UNL A   1      35.857  34.096  28.504  1.00  0.00     0.020 A 
ATOM     75  C   UNL A   1      34.758  33.999  29.361  1.00  0.00     0.054 A 
BRANCH  75  76
ATOM     76  S   UNL A   1      33.231  34.912  29.001  1.00  0.00     0.124 S 
ATOM     77  O   UNL A   1      32.587  34.953  30.310  1.00  0.00    -0.237 OA
ATOM     78  O   UNL A   1      33.735  36.189  28.503  1.00  0.00    -0.237 OA
ATOM     79  O   UNL A   1      32.565  34.081  28.000  1.00  0.00    -0.744 OA
ENDBRANCH  75  76
ENDBRANCH  47  70
BRANCH  59  80
ATOM     80  C   UNL A   1      42.459  33.993  34.267  1.00  0.00    -0.014 A 
ATOM     81  C   UNL A   1      42.102  34.046  35.624  1.00  0.00     0.010 A 
ATOM     82  C   UNL A   1      43.255  35.017  33.721  1.00  0.00     0.010 A 
ATOM     83  C   UNL A   1      42.531  35.108  36.422  1.00  0.00     0.020 A 
ATOM     84  C   UNL A   1      43.705  36.069  34.521  1.00  0.00     0.020 A 
ATOM     85  C   UNL A   1      43.336  36.110  35.867  1.00  0.00     0.054 A 
BRANCH  85  86
ATOM     86  S   UNL A   1      43.958  37.432  36.944  1.00  0.00     0.124 S 
ATOM     87  O   UNL A   1      42.869  37.575  37.907  1.00  0.00    -0.237 OA
ATOM     88  O   UNL A   1      45.193  36.860  37.473  1.00  0.00    -0.237 OA
ATOM     89  O   UNL A   1      44.141  38.561  36.036  1.00  0.00    -0.744 OA
ENDBRANCH  85  86
ENDBRANCH  59  80
ENDBRANCH  33  34
ENDBRANCH  25  28
ENDBRANCH  23  24
ENDBRANCH   1  23
TORSDOF 17
ENDMDL
MODEL 3
REMARK VINA RESULT:     -10.9      3.299      9.590
REMARK SMILES CC[C@@H]1CC[C@@](Cc2ccc(O)cc2)(C(=O)NCCCNC(=O)c2ccc(-c3c4nc(c(-c5ccc(S(=O)(=O)[O-])cc5)c5ccc([nH]5)c(-c5ccc(S(=O)(=O)[O-])cc5)c5nc(c(-c6ccc(S(=O)(=O)[O-])cc6)c6ccc3[nH]6)C=C5)C=C4)cc2)C1
REMARK SMILES IDX 19 1 18 2 17 3 15 4 16 5 6 7 3 8 4 9 84 10 5 11 2 12 1 13
REMARK SMILES IDX 7 14 8 15 9 16 14 17 10 18 13 19 11 20 12 21 20 23 21 24
REMARK SMILES IDX 22 25 23 27 24 28 25 29 83 30 26 31 82 32 27 33 28 34 29 35
REMARK SMILES IDX 76 36 30 37 81 38 75 39 77 40 31 41 80 42 74 43 73 44 32 46
REMARK SMILES IDX 62 47 43 48 61 49 44 50 47 51 60 52 78 53 45 54 46 55 59 57
REMARK SMILES IDX 79 58 48 59 33 60 34 61 42 62 35 63 41 64 36 65 37 66 38 67
REMARK SMILES IDX 39 68 40 69 63 70 64 71 72 72 65 73 71 74 66 75 67 76 68 77
REMARK SMILES IDX 69 78 70 79 49 80 50 81 58 82 51 83 57 84 52 85 53 86 54 87
REMARK SMILES IDX 55 88 56 89
REMARK H PARENT 17 6 12 22 21 26 77 45 47 56
REMARK Flexibility Score: inf
ROOT
ATOM      1  C   UNL A   1      35.960  23.423  25.939  1.00  0.00     0.042 C 
ENDROOT
BRANCH   1   2
ATOM      2  C   UNL A   1      34.841  24.246  25.342  1.00  0.00     0.117 C 
BRANCH   2   3
ATOM      3  N   UNL A   1      33.673  24.367  26.194  1.00  0.00    -0.356 N 
ATOM      4  C   UNL A   1      32.612  25.217  26.122  1.00  0.00     0.226 C 
ATOM      5  O   UNL A   1      31.625  24.900  26.793  1.00  0.00    -0.274 OA
ATOM      6  H   UNL A   1      33.643  23.733  26.947  1.00  0.00     0.163 HD
BRANCH   4   7
ATOM      7  C   UNL A   1      32.617  26.490  25.242  1.00  0.00     0.053 C 
ATOM      8  C   UNL A   1      32.998  28.201  26.946  1.00  0.00    -0.010 C 
ATOM      9  C   UNL A   1      34.194  28.266  26.007  1.00  0.00     0.005 C 
ATOM     10  C   UNL A   1      31.912  27.639  26.034  1.00  0.00     0.020 C 
ATOM     11  C   UNL A   1      34.044  27.072  25.060  1.00  0.00     0.017 C 
BRANCH   8  12
ATOM     12  C   UNL A   1      32.687  29.567  27.562  1.00  0.00     0.000 C 
ATOM     13  C   UNL A   1      33.615  30.670  27.082  1.00  0.00     0.004 C 
ENDBRANCH   8  12
BRANCH   7  14
ATOM     14  C   UNL A   1      31.778  26.280  23.940  1.00  0.00     0.052 C 
BRANCH  14  15
ATOM     15  C   UNL A   1      30.426  26.942  23.797  1.00  0.00    -0.047 A 
ATOM     16  C   UNL A   1      29.254  26.271  24.195  1.00  0.00     0.007 A 
ATOM     17  C   UNL A   1      30.308  28.219  23.231  1.00  0.00     0.007 A 
ATOM     18  C   UNL A   1      27.992  26.814  23.920  1.00  0.00     0.046 A 
ATOM     19  C   UNL A   1      29.048  28.763  22.961  1.00  0.00     0.046 A 
ATOM     20  C   UNL A   1      27.903  28.035  23.264  1.00  0.00     0.115 A 
BRANCH  20  21
ATOM     21  O   UNL A   1      26.700  28.533  22.860  1.00  0.00    -0.508 OA
ATOM     22  H   UNL A   1      25.927  28.008  22.934  1.00  0.00     0.293 HD
ENDBRANCH  20  21
ENDBRANCH  14  15
ENDBRANCH   7  14
ENDBRANCH   4   7
ENDBRANCH   2   3
ENDBRANCH   1   2
BRANCH   1  23
ATOM     23  C   UNL A   1      37.157  23.327  25.004  1.00  0.00     0.118 C 
BRANCH  23  24
ATOM     24  N   UNL A   1      38.260  22.547  25.578  1.00  0.00    -0.352 N 
ATOM     25  C   UNL A   1      39.373  22.961  26.275  1.00  0.00     0.251 C 
ATOM     26  H   UNL A   1      38.192  21.574  25.445  1.00  0.00     0.163 HD
ATOM     27  O   UNL A   1      40.342  22.209  26.367  1.00  0.00    -0.269 OA
BRANCH  25  28
ATOM     28  C   UNL A   1      39.386  24.319  26.863  1.00  0.00     0.039 A 
ATOM     29  C   UNL A   1      38.858  24.547  28.135  1.00  0.00     0.014 A 
ATOM     30  C   UNL A   1      40.009  25.359  26.174  1.00  0.00     0.014 A 
ATOM     31  C   UNL A   1      39.089  25.774  28.769  1.00  0.00     0.010 A 
ATOM     32  C   UNL A   1      40.356  26.517  26.853  1.00  0.00     0.010 A 
ATOM     33  C   UNL A   1      39.914  26.738  28.165  1.00  0.00    -0.014 A 
BRANCH  33  34
ATOM     34  C   UNL A   1      40.370  27.977  28.857  1.00  0.00     0.031 A 
ATOM     35  C   UNL A   1      41.702  27.980  29.562  1.00  0.00     0.074 A 
ATOM     36  C   UNL A   1      39.533  29.027  28.996  1.00  0.00     0.049 A 
ATOM     37  N   UNL A   1      42.169  28.823  30.447  1.00  0.00    -0.248 NA
ATOM     38  C   UNL A   1      42.603  26.851  29.278  1.00  0.00     0.031 C 
ATOM     39  C   UNL A   1      38.195  29.141  28.411  1.00  0.00     0.029 A 
ATOM     40  N   UNL A   1      39.679  30.196  29.704  1.00  0.00    -0.354 N 
ATOM     41  C   UNL A   1      43.382  28.291  30.871  1.00  0.00     0.074 A 
ATOM     42  C   UNL A   1      43.558  27.033  30.177  1.00  0.00     0.031 C 
ATOM     43  C   UNL A   1      37.656  30.320  28.761  1.00  0.00     0.029 A 
ATOM     44  C   UNL A   1      38.580  31.022  29.644  1.00  0.00     0.049 A 
ATOM     45  H   UNL A   1      40.495  30.422  30.207  1.00  0.00     0.167 HD
ATOM     46  C   UNL A   1      44.278  28.808  31.744  1.00  0.00     0.031 A 
ATOM     47  C   UNL A   1      38.331  32.201  30.248  1.00  0.00     0.031 A 
ATOM     48  C   UNL A   1      44.129  30.088  32.380  1.00  0.00     0.049 A 
ATOM     49  C   UNL A   1      39.366  32.787  31.168  1.00  0.00     0.074 A 
ATOM     50  C   UNL A   1      45.013  30.737  33.223  1.00  0.00     0.029 A 
ATOM     51  N   UNL A   1      43.035  30.924  32.221  1.00  0.00    -0.354 N 
ATOM     52  N   UNL A   1      40.520  32.282  31.535  1.00  0.00    -0.248 NA
ATOM     53  C   UNL A   1      39.071  34.103  31.753  1.00  0.00     0.031 C 
ATOM     54  C   UNL A   1      44.442  31.958  33.594  1.00  0.00     0.029 A 
ATOM     55  C   UNL A   1      43.223  32.086  32.947  1.00  0.00     0.049 A 
ATOM     56  H   UNL A   1      42.243  30.721  31.675  1.00  0.00     0.167 HD
ATOM     57  C   UNL A   1      41.105  33.235  32.361  1.00  0.00     0.074 A 
ATOM     58  C   UNL A   1      40.178  34.345  32.442  1.00  0.00     0.031 C 
ATOM     59  C   UNL A   1      42.304  33.193  32.990  1.00  0.00     0.031 A 
BRANCH  46  60
ATOM     60  C   UNL A   1      45.502  27.987  32.053  1.00  0.00    -0.014 A 
ATOM     61  C   UNL A   1      45.526  27.101  33.146  1.00  0.00     0.010 A 
ATOM     62  C   UNL A   1      46.637  28.085  31.228  1.00  0.00     0.010 A 
ATOM     63  C   UNL A   1      46.681  26.373  33.441  1.00  0.00     0.020 A 
ATOM     64  C   UNL A   1      47.784  27.334  31.502  1.00  0.00     0.020 A 
ATOM     65  C   UNL A   1      47.805  26.499  32.621  1.00  0.00     0.054 A 
BRANCH  65  66
ATOM     66  S   UNL A   1      49.289  25.537  33.024  1.00  0.00     0.124 S 
ATOM     67  O   UNL A   1      48.731  24.444  33.816  1.00  0.00    -0.237 OA
ATOM     68  O   UNL A   1      49.797  25.162  31.707  1.00  0.00    -0.237 OA
ATOM     69  O   UNL A   1      50.123  26.481  33.765  1.00  0.00    -0.744 OA
ENDBRANCH  65  66
ENDBRANCH  46  60
BRANCH  47  70
ATOM     70  C   UNL A   1      37.054  32.920  29.981  1.00  0.00    -0.014 A 
ATOM     71  C   UNL A   1      36.019  32.896  30.932  1.00  0.00     0.010 A 
ATOM     72  C   UNL A   1      36.872  33.646  28.791  1.00  0.00     0.010 A 
ATOM     73  C   UNL A   1      34.817  33.567  30.690  1.00  0.00     0.020 A 
ATOM     74  C   UNL A   1      35.680  34.342  28.557  1.00  0.00     0.020 A 
ATOM     75  C   UNL A   1      34.656  34.287  29.504  1.00  0.00     0.054 A 
BRANCH  75  76
ATOM     76  S   UNL A   1      33.108  35.197  29.236  1.00  0.00     0.124 S 
ATOM     77  O   UNL A   1      32.491  35.142  30.557  1.00  0.00    -0.237 OA
ATOM     78  O   UNL A   1      33.583  36.512  28.813  1.00  0.00    -0.237 OA
ATOM     79  O   UNL A   1      32.435  34.423  28.196  1.00  0.00    -0.744 OA
ENDBRANCH  75  76
ENDBRANCH  47  70
BRANCH  59  80
ATOM     80  C   UNL A   1      42.729  34.406  33.770  1.00  0.00    -0.014 A 
ATOM     81  C   UNL A   1      42.398  34.554  35.127  1.00  0.00     0.010 A 
ATOM     82  C   UNL A   1      43.564  35.357  33.155  1.00  0.00     0.010 A 
ATOM     83  C   UNL A   1      42.893  35.638  35.856  1.00  0.00     0.020 A 
ATOM     84  C   UNL A   1      44.079  36.429  33.886  1.00  0.00     0.020 A 
ATOM     85  C   UNL A   1      43.736  36.565  35.232  1.00  0.00     0.054 A 
BRANCH  85  86
ATOM     86  S   UNL A   1      44.440  37.913  36.222  1.00  0.00     0.124 S 
ATOM     87  O   UNL A   1      43.753  37.742  37.499  1.00  0.00    -0.237 OA
ATOM     88  O   UNL A   1      45.866  37.596  36.228  1.00  0.00    -0.237 OA
ATOM     89  O   UNL A   1      44.080  39.116  35.476  1.00  0.00    -0.744 OA
ENDBRANCH  85  86
ENDBRANCH  59  80
ENDBRANCH  33  34
ENDBRANCH  25  28
ENDBRANCH  23  24
ENDBRANCH   1  23
TORSDOF 17
ENDMDL
