MODEL 1
REMARK VINA RESULT:     -11.4      0.000      0.000
REMARK SMILES CN1C(=O)C[C@@H](C(=O)NCCCNC(=O)c2ccc(-c3c4nc(c(-c5ccc(S(=O)(=O)[O-])cc5)c5ccc([nH]5)c(-c5ccc(S(=O)(=O)[O-])cc5)c5nc(c(-c6ccc(S(=O)(=O)[O-])cc6)c6ccc3[nH]6)C=C5)C=C4)cc2)C12CC[NH+](CCSc1ccccc1)CC2
REMARK SMILES IDX 10 1 9 2 7 3 8 4 6 6 1 7 2 8 3 9 76 10 4 11 5 12 77 13 90 14
REMARK SMILES IDX 78 15 89 16 79 17 80 19 81 20 82 21 83 22 84 23 88 24 85 25
REMARK SMILES IDX 87 26 86 27 11 28 12 29 13 30 14 31 15 33 16 34 17 35 75 36
REMARK SMILES IDX 18 37 74 38 19 39 20 40 21 41 68 42 22 43 73 44 67 45 69 46
REMARK SMILES IDX 23 47 72 48 66 49 65 50 24 52 54 53 35 54 53 55 36 56 39 57
REMARK SMILES IDX 52 58 70 59 37 60 38 61 51 63 71 64 40 65 25 66 26 67 34 68
REMARK SMILES IDX 27 69 33 70 28 71 29 72 30 73 31 74 32 75 55 76 56 77 64 78
REMARK SMILES IDX 57 79 63 80 58 81 59 82 60 83 61 84 62 85 41 86 42 87 50 88
REMARK SMILES IDX 43 89 49 90 44 91 45 92 46 93 47 94 48 95
REMARK H PARENT 9 5 79 18 13 32 69 51 39 62
REMARK Flexibility Score: inf
ROOT
ATOM      1  C   UNL A   1      33.554  30.534  27.197  1.00  0.00     0.117 C 
ENDROOT
BRANCH   1   2
ATOM      2  N   UNL A   1      32.589  29.555  27.659  1.00  0.00    -0.356 N 
ATOM      3  C   UNL A   1      31.830  28.653  27.004  1.00  0.00     0.226 C 
ATOM      4  O   UNL A   1      30.994  28.035  27.670  1.00  0.00    -0.275 OA
ATOM      5  H   UNL A   1      32.464  29.548  28.635  1.00  0.00     0.163 HD
BRANCH   3   6
ATOM      6  C   UNL A   1      31.969  28.357  25.536  1.00  0.00     0.114 C 
ATOM      7  C   UNL A   1      29.646  25.901  23.861  1.00  0.00     0.147 C 
ATOM      8  N   UNL A   1      30.408  27.024  24.392  1.00  0.00    -0.339 N 
ATOM      9  C   UNL A   1      30.105  28.329  24.010  1.00  0.00     0.223 C 
ATOM     10  C   UNL A   1      31.749  26.916  25.011  1.00  0.00     0.065 C 
ATOM     11  O   UNL A   1      29.182  28.688  23.310  1.00  0.00    -0.275 OA
ATOM     12  C   UNL A   1      31.131  29.255  24.614  1.00  0.00     0.116 C 
ATOM     13  C   UNL A   1      31.911  25.686  25.967  1.00  0.00     0.091 C 
ATOM     14  C   UNL A   1      32.766  26.790  23.884  1.00  0.00     0.091 C 
ATOM     15  C   UNL A   1      33.262  24.912  25.978  1.00  0.00     0.264 C 
ATOM     16  C   UNL A   1      34.133  26.444  24.451  1.00  0.00     0.264 C 
ATOM     17  N   UNL A   1      34.136  25.066  24.818  1.00  0.00    -0.334 N 
ATOM     18  H   UNL A   1      35.039  24.730  25.155  1.00  0.00     0.348 HD
BRANCH  17  19
ATOM     19  C   UNL A   1      34.030  24.160  23.652  1.00  0.00     0.273 C 
BRANCH  19  20
ATOM     20  C   UNL A   1      34.153  22.553  23.725  1.00  0.00     0.136 C 
BRANCH  20  21
ATOM     21  S   UNL A   1      34.924  21.510  25.133  1.00  0.00    -0.120 SA
BRANCH  21  22
ATOM     22  C   UNL A   1      36.558  22.156  25.601  1.00  0.00     0.007 A 
ATOM     23  C   UNL A   1      37.760  21.440  25.527  1.00  0.00     0.015 A 
ATOM     24  C   UNL A   1      36.618  23.446  26.169  1.00  0.00     0.015 A 
ATOM     25  C   UNL A   1      38.981  22.044  25.909  1.00  0.00     0.001 A 
ATOM     26  C   UNL A   1      37.833  24.077  26.461  1.00  0.00     0.001 A 
ATOM     27  C   UNL A   1      39.022  23.373  26.336  1.00  0.00     0.000 A 
ENDBRANCH  21  22
ENDBRANCH  20  21
ENDBRANCH  19  20
ENDBRANCH  17  19
ENDBRANCH   3   6
ENDBRANCH   1   2
BRANCH   1  28
ATOM     28  C   UNL A   1      34.955  29.951  27.090  1.00  0.00     0.042 C 
BRANCH  28  29
ATOM     29  C   UNL A   1      35.426  29.361  28.411  1.00  0.00     0.118 C 
BRANCH  29  30
ATOM     30  N   UNL A   1      35.424  30.388  29.441  1.00  0.00    -0.352 N 
ATOM     31  C   UNL A   1      36.395  30.612  30.383  1.00  0.00     0.251 C 
ATOM     32  H   UNL A   1      34.642  30.985  29.465  1.00  0.00     0.163 HD
ATOM     33  O   UNL A   1      36.107  31.121  31.460  1.00  0.00    -0.269 OA
BRANCH  31  34
ATOM     34  C   UNL A   1      37.785  30.243  30.059  1.00  0.00     0.039 A 
ATOM     35  C   UNL A   1      38.610  29.709  31.049  1.00  0.00     0.014 A 
ATOM     36  C   UNL A   1      38.268  30.443  28.760  1.00  0.00     0.014 A 
ATOM     37  C   UNL A   1      39.916  29.342  30.721  1.00  0.00     0.010 A 
ATOM     38  C   UNL A   1      39.532  29.992  28.417  1.00  0.00     0.010 A 
ATOM     39  C   UNL A   1      40.375  29.458  29.398  1.00  0.00    -0.014 A 
BRANCH  39  40
ATOM     40  C   UNL A   1      41.740  29.032  29.014  1.00  0.00     0.031 A 
ATOM     41  C   UNL A   1      42.861  30.035  28.985  1.00  0.00     0.074 A 
ATOM     42  C   UNL A   1      41.945  27.763  28.612  1.00  0.00     0.049 A 
ATOM     43  N   UNL A   1      44.104  29.868  28.616  1.00  0.00    -0.248 NA
ATOM     44  C   UNL A   1      42.535  31.412  29.392  1.00  0.00     0.031 C 
ATOM     45  C   UNL A   1      40.916  26.721  28.543  1.00  0.00     0.029 A 
ATOM     46  N   UNL A   1      43.082  27.137  28.173  1.00  0.00    -0.354 N 
ATOM     47  C   UNL A   1      44.700  31.119  28.724  1.00  0.00     0.074 A 
ATOM     48  C   UNL A   1      43.671  32.045  29.140  1.00  0.00     0.031 C 
ATOM     49  C   UNL A   1      41.476  25.580  28.115  1.00  0.00     0.029 A 
ATOM     50  C   UNL A   1      42.888  25.820  27.834  1.00  0.00     0.049 A 
ATOM     51  H   UNL A   1      43.955  27.588  28.108  1.00  0.00     0.167 HD
ATOM     52  C   UNL A   1      45.992  31.462  28.510  1.00  0.00     0.031 A 
ATOM     53  C   UNL A   1      43.747  24.908  27.339  1.00  0.00     0.031 A 
ATOM     54  C   UNL A   1      47.007  30.529  28.101  1.00  0.00     0.049 A 
ATOM     55  C   UNL A   1      45.176  25.308  27.111  1.00  0.00     0.074 A 
ATOM     56  C   UNL A   1      48.363  30.750  27.932  1.00  0.00     0.029 A 
ATOM     57  N   UNL A   1      46.776  29.198  27.781  1.00  0.00    -0.354 N 
ATOM     58  N   UNL A   1      45.745  26.474  27.309  1.00  0.00    -0.248 NA
ATOM     59  C   UNL A   1      46.081  24.271  26.601  1.00  0.00     0.031 C 
ATOM     60  C   UNL A   1      48.938  29.571  27.445  1.00  0.00     0.029 A 
ATOM     61  C   UNL A   1      47.954  28.597  27.375  1.00  0.00     0.049 A 
ATOM     62  H   UNL A   1      45.902  28.748  27.835  1.00  0.00     0.167 HD
ATOM     63  C   UNL A   1      47.080  26.309  26.958  1.00  0.00     0.074 A 
ATOM     64  C   UNL A   1      47.236  24.923  26.560  1.00  0.00     0.031 C 
ATOM     65  C   UNL A   1      48.084  27.220  26.960  1.00  0.00     0.031 A 
BRANCH  52  66
ATOM     66  C   UNL A   1      46.370  32.910  28.694  1.00  0.00    -0.014 A 
ATOM     67  C   UNL A   1      46.807  33.404  29.938  1.00  0.00     0.010 A 
ATOM     68  C   UNL A   1      46.304  33.791  27.598  1.00  0.00     0.010 A 
ATOM     69  C   UNL A   1      47.116  34.757  30.096  1.00  0.00     0.020 A 
ATOM     70  C   UNL A   1      46.644  35.139  27.745  1.00  0.00     0.020 A 
ATOM     71  C   UNL A   1      47.027  35.618  28.998  1.00  0.00     0.054 A 
BRANCH  71  72
ATOM     72  S   UNL A   1      47.439  37.369  29.232  1.00  0.00     0.124 S 
ATOM     73  O   UNL A   1      48.792  37.434  28.682  1.00  0.00    -0.237 OA
ATOM     74  O   UNL A   1      46.410  38.047  28.448  1.00  0.00    -0.237 OA
ATOM     75  O   UNL A   1      47.345  37.558  30.676  1.00  0.00    -0.744 OA
ENDBRANCH  71  72
ENDBRANCH  52  66
BRANCH  53  76
ATOM     76  C   UNL A   1      43.262  23.535  27.036  1.00  0.00    -0.014 A 
ATOM     77  C   UNL A   1      43.013  23.139  25.711  1.00  0.00     0.010 A 
ATOM     78  C   UNL A   1      43.106  22.595  28.073  1.00  0.00     0.010 A 
ATOM     79  C   UNL A   1      42.617  21.828  25.427  1.00  0.00     0.020 A 
ATOM     80  C   UNL A   1      42.740  21.277  27.790  1.00  0.00     0.020 A 
ATOM     81  C   UNL A   1      42.493  20.903  26.468  1.00  0.00     0.054 A 
BRANCH  81  82
ATOM     82  S   UNL A   1      42.068  19.185  26.067  1.00  0.00     0.124 S 
ATOM     83  O   UNL A   1      40.627  19.271  25.852  1.00  0.00    -0.237 OA
ATOM     84  O   UNL A   1      42.872  18.933  24.875  1.00  0.00    -0.237 OA
ATOM     85  O   UNL A   1      42.482  18.444  27.256  1.00  0.00    -0.744 OA
ENDBRANCH  81  82
ENDBRANCH  53  76
BRANCH  65  86
ATOM     86  C   UNL A   1      49.443  26.749  26.518  1.00  0.00    -0.014 A 
ATOM     87  C   UNL A   1      50.281  26.031  27.391  1.00  0.00     0.010 A 
ATOM     88  C   UNL A   1      49.864  26.978  25.196  1.00  0.00     0.010 A 
ATOM     89  C   UNL A   1      51.529  25.577  26.957  1.00  0.00     0.020 A 
ATOM     90  C   UNL A   1      51.098  26.497  24.749  1.00  0.00     0.020 A 
ATOM     91  C   UNL A   1      51.928  25.812  25.637  1.00  0.00     0.054 A 
BRANCH  91  92
ATOM     92  S   UNL A   1      53.533  25.171  25.088  1.00  0.00     0.124 S 
ATOM     93  O   UNL A   1      53.555  25.570  23.684  1.00  0.00    -0.237 OA
ATOM     94  O   UNL A   1      54.473  25.874  25.958  1.00  0.00    -0.237 OA
ATOM     95  O   UNL A   1      53.431  23.732  25.324  1.00  0.00    -0.744 OA
ENDBRANCH  91  92
ENDBRANCH  65  86
ENDBRANCH  39  40
ENDBRANCH  31  34
ENDBRANCH  29  30
ENDBRANCH  28  29
ENDBRANCH   1  28
TORSDOF 17
ENDMDL
MODEL 2
REMARK VINA RESULT:     -11.4      2.894      3.679
REMARK SMILES CN1C(=O)C[C@@H](C(=O)NCCCNC(=O)c2ccc(-c3c4nc(c(-c5ccc(S(=O)(=O)[O-])cc5)c5ccc([nH]5)c(-c5ccc(S(=O)(=O)[O-])cc5)c5nc(c(-c6ccc(S(=O)(=O)[O-])cc6)c6ccc3[nH]6)C=C5)C=C4)cc2)C12CC[NH+](CCSc1ccccc1)CC2
REMARK SMILES IDX 10 1 9 2 7 3 8 4 6 6 1 7 2 8 3 9 76 10 4 11 5 12 77 13 90 14
REMARK SMILES IDX 78 15 89 16 79 17 80 19 81 20 82 21 83 22 84 23 88 24 85 25
REMARK SMILES IDX 87 26 86 27 11 28 12 29 13 30 14 31 15 33 16 34 17 35 75 36
REMARK SMILES IDX 18 37 74 38 19 39 20 40 21 41 68 42 22 43 73 44 67 45 69 46
REMARK SMILES IDX 23 47 72 48 66 49 65 50 24 52 54 53 35 54 53 55 36 56 39 57
REMARK SMILES IDX 52 58 70 59 37 60 38 61 51 63 71 64 40 65 25 66 26 67 34 68
REMARK SMILES IDX 27 69 33 70 28 71 29 72 30 73 31 74 32 75 55 76 56 77 64 78
REMARK SMILES IDX 57 79 63 80 58 81 59 82 60 83 61 84 62 85 41 86 42 87 50 88
REMARK SMILES IDX 43 89 49 90 44 91 45 92 46 93 47 94 48 95
REMARK H PARENT 9 5 79 18 13 32 69 51 39 62
REMARK Flexibility Score: inf
ROOT
ATOM      1  C   UNL A   1      31.980  29.005  25.173  1.00  0.00     0.117 C 
ENDROOT
BRANCH   1   2
ATOM      2  N   UNL A   1      32.825  29.116  24.001  1.00  0.00    -0.356 N 
ATOM      3  C   UNL A   1      32.937  28.359  22.890  1.00  0.00     0.226 C 
ATOM      4  O   UNL A   1      33.854  28.639  22.111  1.00  0.00    -0.275 OA
ATOM      5  H   UNL A   1      33.433  29.890  24.019  1.00  0.00     0.163 HD
BRANCH   3   6
ATOM      6  C   UNL A   1      32.001  27.230  22.554  1.00  0.00     0.114 C 
ATOM      7  C   UNL A   1      30.326  25.264  25.305  1.00  0.00     0.147 C 
ATOM      8  N   UNL A   1      30.750  26.130  24.212  1.00  0.00    -0.339 N 
ATOM      9  C   UNL A   1      29.834  26.962  23.572  1.00  0.00     0.223 C 
ATOM     10  C   UNL A   1      31.991  25.948  23.424  1.00  0.00     0.065 C 
ATOM     11  O   UNL A   1      28.671  27.133  23.872  1.00  0.00    -0.275 OA
ATOM     12  C   UNL A   1      30.527  27.635  22.412  1.00  0.00     0.116 C 
ATOM     13  C   UNL A   1      33.239  25.558  24.285  1.00  0.00     0.091 C 
ATOM     14  C   UNL A   1      31.734  24.837  22.414  1.00  0.00     0.091 C 
ATOM     15  C   UNL A   1      34.259  24.529  23.713  1.00  0.00     0.264 C 
ATOM     16  C   UNL A   1      33.032  24.442  21.731  1.00  0.00     0.264 C 
ATOM     17  N   UNL A   1      33.800  23.652  22.638  1.00  0.00    -0.334 N 
ATOM     18  H   UNL A   1      34.667  23.291  22.240  1.00  0.00     0.348 HD
BRANCH  17  19
ATOM     19  C   UNL A   1      33.175  22.342  22.930  1.00  0.00     0.273 C 
BRANCH  19  20
ATOM     20  C   UNL A   1      33.330  21.543  24.323  1.00  0.00     0.136 C 
BRANCH  20  21
ATOM     21  S   UNL A   1      34.856  20.567  24.939  1.00  0.00    -0.120 SA
BRANCH  21  22
ATOM     22  C   UNL A   1      36.200  21.695  25.416  1.00  0.00     0.007 A 
ATOM     23  C   UNL A   1      36.033  23.031  25.805  1.00  0.00     0.015 A 
ATOM     24  C   UNL A   1      37.526  21.226  25.301  1.00  0.00     0.015 A 
ATOM     25  C   UNL A   1      37.150  23.820  26.167  1.00  0.00     0.001 A 
ATOM     26  C   UNL A   1      38.623  21.974  25.745  1.00  0.00     0.001 A 
ATOM     27  C   UNL A   1      38.438  23.279  26.175  1.00  0.00     0.000 A 
ENDBRANCH  21  22
ENDBRANCH  20  21
ENDBRANCH  19  20
ENDBRANCH  17  19
ENDBRANCH   3   6
ENDBRANCH   1   2
BRANCH   1  28
ATOM     28  C   UNL A   1      32.621  28.162  26.265  1.00  0.00     0.042 C 
BRANCH  28  29
ATOM     29  C   UNL A   1      33.995  28.686  26.652  1.00  0.00     0.118 C 
BRANCH  29  30
ATOM     30  N   UNL A   1      33.906  30.091  27.017  1.00  0.00    -0.352 N 
ATOM     31  C   UNL A   1      34.640  30.742  27.973  1.00  0.00     0.251 C 
ATOM     32  H   UNL A   1      33.247  30.631  26.524  1.00  0.00     0.163 HD
ATOM     33  O   UNL A   1      34.184  31.728  28.540  1.00  0.00    -0.269 OA
BRANCH  31  34
ATOM     34  C   UNL A   1      35.991  30.238  28.286  1.00  0.00     0.039 A 
ATOM     35  C   UNL A   1      36.996  30.303  27.321  1.00  0.00     0.014 A 
ATOM     36  C   UNL A   1      36.248  29.690  29.547  1.00  0.00     0.014 A 
ATOM     37  C   UNL A   1      38.274  29.844  27.639  1.00  0.00     0.010 A 
ATOM     38  C   UNL A   1      37.539  29.322  29.890  1.00  0.00     0.010 A 
ATOM     39  C   UNL A   1      38.559  29.375  28.932  1.00  0.00    -0.014 A 
BRANCH  39  40
ATOM     40  C   UNL A   1      39.919  28.927  29.311  1.00  0.00     0.031 A 
ATOM     41  C   UNL A   1      40.859  29.877  29.999  1.00  0.00     0.074 A 
ATOM     42  C   UNL A   1      40.327  27.693  28.956  1.00  0.00     0.049 A 
ATOM     43  N   UNL A   1      42.105  29.690  30.351  1.00  0.00    -0.248 NA
ATOM     44  C   UNL A   1      40.345  31.223  30.303  1.00  0.00     0.031 C 
ATOM     45  C   UNL A   1      39.517  26.710  28.232  1.00  0.00     0.029 A 
ATOM     46  N   UNL A   1      41.528  27.061  29.145  1.00  0.00    -0.354 N 
ATOM     47  C   UNL A   1      42.528  30.898  30.894  1.00  0.00     0.074 A 
ATOM     48  C   UNL A   1      41.425  31.825  30.776  1.00  0.00     0.031 C 
ATOM     49  C   UNL A   1      40.236  25.589  28.063  1.00  0.00     0.029 A 
ATOM     50  C   UNL A   1      41.569  25.792  28.622  1.00  0.00     0.049 A 
ATOM     51  H   UNL A   1      42.289  27.477  29.612  1.00  0.00     0.167 HD
ATOM     52  C   UNL A   1      43.723  31.201  31.454  1.00  0.00     0.031 A 
ATOM     53  C   UNL A   1      42.571  24.893  28.583  1.00  0.00     0.031 A 
ATOM     54  C   UNL A   1      44.809  30.266  31.570  1.00  0.00     0.049 A 
ATOM     55  C   UNL A   1      43.888  25.248  29.211  1.00  0.00     0.074 A 
ATOM     56  C   UNL A   1      46.034  30.442  32.189  1.00  0.00     0.029 A 
ATOM     57  N   UNL A   1      44.809  28.983  31.040  1.00  0.00    -0.354 N 
ATOM     58  N   UNL A   1      44.240  26.364  29.806  1.00  0.00    -0.248 NA
ATOM     59  C   UNL A   1      44.939  24.225  29.171  1.00  0.00     0.031 C 
ATOM     60  C   UNL A   1      46.798  29.290  31.975  1.00  0.00     0.029 A 
ATOM     61  C   UNL A   1      46.026  28.371  31.281  1.00  0.00     0.049 A 
ATOM     62  H   UNL A   1      44.052  28.570  30.564  1.00  0.00     0.167 HD
ATOM     63  C   UNL A   1      45.553  26.173  30.222  1.00  0.00     0.074 A 
ATOM     64  C   UNL A   1      45.920  24.825  29.833  1.00  0.00     0.031 C 
ATOM     65  C   UNL A   1      46.379  27.035  30.864  1.00  0.00     0.031 A 
BRANCH  52  66
ATOM     66  C   UNL A   1      43.918  32.607  31.962  1.00  0.00    -0.014 A 
ATOM     67  C   UNL A   1      43.656  32.948  33.303  1.00  0.00     0.010 A 
ATOM     68  C   UNL A   1      44.390  33.604  31.087  1.00  0.00     0.010 A 
ATOM     69  C   UNL A   1      43.809  34.265  33.744  1.00  0.00     0.020 A 
ATOM     70  C   UNL A   1      44.575  34.916  31.533  1.00  0.00     0.020 A 
ATOM     71  C   UNL A   1      44.262  35.243  32.853  1.00  0.00     0.054 A 
BRANCH  71  72
ATOM     72  S   UNL A   1      44.455  36.943  33.454  1.00  0.00     0.124 S 
ATOM     73  O   UNL A   1      45.145  36.735  34.725  1.00  0.00    -0.237 OA
ATOM     74  O   UNL A   1      45.252  37.567  32.401  1.00  0.00    -0.237 OA
ATOM     75  O   UNL A   1      43.083  37.430  33.564  1.00  0.00    -0.744 OA
ENDBRANCH  71  72
ENDBRANCH  52  66
BRANCH  53  76
ATOM     76  C   UNL A   1      42.349  23.578  27.925  1.00  0.00    -0.014 A 
ATOM     77  C   UNL A   1      42.749  23.364  26.594  1.00  0.00     0.010 A 
ATOM     78  C   UNL A   1      41.791  22.509  28.652  1.00  0.00     0.010 A 
ATOM     79  C   UNL A   1      42.594  22.107  26.002  1.00  0.00     0.020 A 
ATOM     80  C   UNL A   1      41.662  21.244  28.073  1.00  0.00     0.020 A 
ATOM     81  C   UNL A   1      42.061  21.053  26.749  1.00  0.00     0.054 A 
BRANCH  81  82
ATOM     82  S   UNL A   1      41.955  19.408  25.989  1.00  0.00     0.124 S 
ATOM     83  O   UNL A   1      40.525  19.287  25.726  1.00  0.00    -0.237 OA
ATOM     84  O   UNL A   1      42.807  19.551  24.812  1.00  0.00    -0.237 OA
ATOM     85  O   UNL A   1      42.480  18.520  27.024  1.00  0.00    -0.744 OA
ENDBRANCH  81  82
ENDBRANCH  53  76
BRANCH  65  86
ATOM     86  C   UNL A   1      47.767  26.547  31.187  1.00  0.00    -0.014 A 
ATOM     87  C   UNL A   1      48.830  26.739  30.287  1.00  0.00     0.010 A 
ATOM     88  C   UNL A   1      48.020  25.937  32.429  1.00  0.00     0.010 A 
ATOM     89  C   UNL A   1      50.117  26.304  30.612  1.00  0.00     0.020 A 
ATOM     90  C   UNL A   1      49.312  25.530  32.770  1.00  0.00     0.020 A 
ATOM     91  C   UNL A   1      50.350  25.704  31.853  1.00  0.00     0.054 A 
BRANCH  91  92
ATOM     92  S   UNL A   1      52.039  25.191  32.267  1.00  0.00     0.124 S 
ATOM     93  O   UNL A   1      52.238  25.823  33.568  1.00  0.00    -0.237 OA
ATOM     94  O   UNL A   1      51.935  23.734  32.285  1.00  0.00    -0.237 OA
ATOM     95  O   UNL A   1      52.845  25.740  31.178  1.00  0.00    -0.744 OA
ENDBRANCH  91  92
ENDBRANCH  65  86
ENDBRANCH  39  40
ENDBRANCH  31  34
ENDBRANCH  29  30
ENDBRANCH  28  29
ENDBRANCH   1  28
TORSDOF 17
ENDMDL
MODEL 3
REMARK VINA RESULT:     -11.3      4.108     10.011
REMARK SMILES CN1C(=O)C[C@@H](C(=O)NCCCNC(=O)c2ccc(-c3c4nc(c(-c5ccc(S(=O)(=O)[O-])cc5)c5ccc([nH]5)c(-c5ccc(S(=O)(=O)[O-])cc5)c5nc(c(-c6ccc(S(=O)(=O)[O-])cc6)c6ccc3[nH]6)C=C5)C=C4)cc2)C12CC[NH+](CCSc1ccccc1)CC2
REMARK SMILES IDX 10 1 9 2 7 3 8 4 6 6 1 7 2 8 3 9 76 10 4 11 5 12 77 13 90 14
REMARK SMILES IDX 78 15 89 16 79 17 80 19 81 20 82 21 83 22 84 23 88 24 85 25
REMARK SMILES IDX 87 26 86 27 11 28 12 29 13 30 14 31 15 33 16 34 17 35 75 36
REMARK SMILES IDX 18 37 74 38 19 39 20 40 21 41 68 42 22 43 73 44 67 45 69 46
REMARK SMILES IDX 23 47 72 48 66 49 65 50 24 52 54 53 35 54 53 55 36 56 39 57
REMARK SMILES IDX 52 58 70 59 37 60 38 61 51 63 71 64 40 65 25 66 26 67 34 68
REMARK SMILES IDX 27 69 33 70 28 71 29 72 30 73 31 74 32 75 55 76 56 77 64 78
REMARK SMILES IDX 57 79 63 80 58 81 59 82 60 83 61 84 62 85 41 86 42 87 50 88
REMARK SMILES IDX 43 89 49 90 44 91 45 92 46 93 47 94 48 95
REMARK H PARENT 9 5 79 18 13 32 69 51 39 62
REMARK Flexibility Score: inf
ROOT
ATOM      1  C   UNL A   1      35.414  21.642  25.364  1.00  0.00     0.117 C 
ENDROOT
BRANCH   1   2
ATOM      2  N   UNL A   1      34.811  21.757  26.678  1.00  0.00    -0.356 N 
ATOM      3  C   UNL A   1      33.558  22.056  27.076  1.00  0.00     0.226 C 
ATOM      4  O   UNL A   1      33.376  22.207  28.289  1.00  0.00    -0.275 OA
ATOM      5  H   UNL A   1      35.435  21.584  27.419  1.00  0.00     0.163 HD
BRANCH   3   6
ATOM      6  C   UNL A   1      32.394  22.190  26.133  1.00  0.00     0.114 C 
ATOM      7  C   UNL A   1      32.896  23.634  22.683  1.00  0.00     0.147 C 
ATOM      8  N   UNL A   1      32.687  22.857  23.898  1.00  0.00    -0.339 N 
ATOM      9  C   UNL A   1      32.471  21.482  23.831  1.00  0.00     0.223 C 
ATOM     10  C   UNL A   1      32.286  23.426  25.206  1.00  0.00     0.065 C 
ATOM     11  O   UNL A   1      32.513  20.785  22.839  1.00  0.00    -0.275 OA
ATOM     12  C   UNL A   1      32.163  20.977  25.219  1.00  0.00     0.116 C 
ATOM     13  C   UNL A   1      33.017  24.762  25.569  1.00  0.00     0.091 C 
ATOM     14  C   UNL A   1      30.788  23.695  25.148  1.00  0.00     0.091 C 
ATOM     15  C   UNL A   1      32.219  25.888  26.288  1.00  0.00     0.264 C 
ATOM     16  C   UNL A   1      30.353  24.491  26.368  1.00  0.00     0.264 C 
ATOM     17  N   UNL A   1      30.761  25.846  26.194  1.00  0.00    -0.334 N 
ATOM     18  H   UNL A   1      30.457  26.469  26.943  1.00  0.00     0.348 HD
BRANCH  17  19
ATOM     19  C   UNL A   1      30.044  26.526  25.092  1.00  0.00     0.273 C 
BRANCH  19  20
ATOM     20  C   UNL A   1      30.739  27.054  23.734  1.00  0.00     0.136 C 
BRANCH  20  21
ATOM     21  S   UNL A   1      31.678  28.701  23.474  1.00  0.00    -0.120 SA
BRANCH  21  22
ATOM     22  C   UNL A   1      32.488  29.236  25.012  1.00  0.00     0.007 A 
ATOM     23  C   UNL A   1      31.969  30.177  25.912  1.00  0.00     0.015 A 
ATOM     24  C   UNL A   1      33.781  28.741  25.281  1.00  0.00     0.015 A 
ATOM     25  C   UNL A   1      32.681  30.515  27.087  1.00  0.00     0.001 A 
ATOM     26  C   UNL A   1      34.445  29.004  26.486  1.00  0.00     0.001 A 
ATOM     27  C   UNL A   1      33.896  29.899  27.393  1.00  0.00     0.000 A 
ENDBRANCH  21  22
ENDBRANCH  20  21
ENDBRANCH  19  20
ENDBRANCH  17  19
ENDBRANCH   3   6
ENDBRANCH   1   2
BRANCH   1  28
ATOM     28  C   UNL A   1      35.928  22.978  24.851  1.00  0.00     0.042 C 
BRANCH  28  29
ATOM     29  C   UNL A   1      36.932  23.605  25.806  1.00  0.00     0.118 C 
BRANCH  29  30
ATOM     30  N   UNL A   1      37.981  22.647  26.121  1.00  0.00    -0.352 N 
ATOM     31  C   UNL A   1      39.293  22.926  26.404  1.00  0.00     0.251 C 
ATOM     32  H   UNL A   1      37.720  21.698  26.133  1.00  0.00     0.163 HD
ATOM     33  O   UNL A   1      40.166  22.099  26.168  1.00  0.00    -0.269 OA
BRANCH  31  34
ATOM     34  C   UNL A   1      39.619  24.230  27.011  1.00  0.00     0.039 A 
ATOM     35  C   UNL A   1      39.246  24.495  28.328  1.00  0.00     0.014 A 
ATOM     36  C   UNL A   1      40.293  25.194  26.253  1.00  0.00     0.014 A 
ATOM     37  C   UNL A   1      39.582  25.724  28.896  1.00  0.00     0.010 A 
ATOM     38  C   UNL A   1      40.707  26.374  26.849  1.00  0.00     0.010 A 
ATOM     39  C   UNL A   1      40.336  26.660  28.168  1.00  0.00    -0.014 A 
BRANCH  39  40
ATOM     40  C   UNL A   1      40.747  27.952  28.763  1.00  0.00     0.031 A 
ATOM     41  C   UNL A   1      42.123  28.105  29.351  1.00  0.00     0.074 A 
ATOM     42  C   UNL A   1      39.850  28.953  28.847  1.00  0.00     0.049 A 
ATOM     43  N   UNL A   1      42.644  29.133  29.969  1.00  0.00    -0.248 NA
ATOM     44  C   UNL A   1      43.022  26.942  29.260  1.00  0.00     0.031 C 
ATOM     45  C   UNL A   1      38.468  28.892  28.364  1.00  0.00     0.029 A 
ATOM     46  N   UNL A   1      39.962  30.211  29.379  1.00  0.00    -0.354 N 
ATOM     47  C   UNL A   1      43.916  28.733  30.361  1.00  0.00     0.074 A 
ATOM     48  C   UNL A   1      44.069  27.353  29.958  1.00  0.00     0.031 C 
ATOM     49  C   UNL A   1      37.870  30.070  28.597  1.00  0.00     0.029 A 
ATOM     50  C   UNL A   1      38.808  30.950  29.288  1.00  0.00     0.049 A 
ATOM     51  H   UNL A   1      40.791  30.552  29.787  1.00  0.00     0.167 HD
ATOM     52  C   UNL A   1      44.875  29.456  30.985  1.00  0.00     0.031 A 
ATOM     53  C   UNL A   1      38.529  32.194  29.723  1.00  0.00     0.031 A 
ATOM     54  C   UNL A   1      44.710  30.831  31.375  1.00  0.00     0.049 A 
ATOM     55  C   UNL A   1      39.607  32.979  30.412  1.00  0.00     0.074 A 
ATOM     56  C   UNL A   1      45.642  31.682  31.942  1.00  0.00     0.029 A 
ATOM     57  N   UNL A   1      43.531  31.552  31.254  1.00  0.00    -0.354 N 
ATOM     58  N   UNL A   1      40.838  32.617  30.690  1.00  0.00    -0.248 NA
ATOM     59  C   UNL A   1      39.264  34.341  30.840  1.00  0.00     0.031 C 
ATOM     60  C   UNL A   1      45.006  32.896  32.225  1.00  0.00     0.029 A 
ATOM     61  C   UNL A   1      43.697  32.824  31.773  1.00  0.00     0.049 A 
ATOM     62  H   UNL A   1      42.698  31.208  30.856  1.00  0.00     0.167 HD
ATOM     63  C   UNL A   1      41.422  33.712  31.316  1.00  0.00     0.074 A 
ATOM     64  C   UNL A   1      40.416  34.756  31.352  1.00  0.00     0.031 C 
ATOM     65  C   UNL A   1      42.675  33.841  31.819  1.00  0.00     0.031 A 
BRANCH  52  66
ATOM     66  C   UNL A   1      46.176  28.763  31.303  1.00  0.00    -0.014 A 
ATOM     67  C   UNL A   1      47.247  28.755  30.390  1.00  0.00     0.010 A 
ATOM     68  C   UNL A   1      46.337  28.121  32.545  1.00  0.00     0.010 A 
ATOM     69  C   UNL A   1      48.431  28.075  30.689  1.00  0.00     0.020 A 
ATOM     70  C   UNL A   1      47.532  27.467  32.862  1.00  0.00     0.020 A 
ATOM     71  C   UNL A   1      48.563  27.430  31.922  1.00  0.00     0.054 A 
BRANCH  71  72
ATOM     72  S   UNL A   1      50.112  26.558  32.285  1.00  0.00     0.124 S 
ATOM     73  O   UNL A   1      50.144  26.600  33.745  1.00  0.00    -0.237 OA
ATOM     74  O   UNL A   1      49.882  25.240  31.700  1.00  0.00    -0.237 OA
ATOM     75  O   UNL A   1      51.129  27.366  31.617  1.00  0.00    -0.744 OA
ENDBRANCH  71  72
ENDBRANCH  52  66
BRANCH  53  76
ATOM     76  C   UNL A   1      37.168  32.756  29.508  1.00  0.00    -0.014 A 
ATOM     77  C   UNL A   1      36.327  33.035  30.599  1.00  0.00     0.010 A 
ATOM     78  C   UNL A   1      36.732  33.073  28.208  1.00  0.00     0.010 A 
ATOM     79  C   UNL A   1      35.074  33.621  30.394  1.00  0.00     0.020 A 
ATOM     80  C   UNL A   1      35.493  33.686  28.002  1.00  0.00     0.020 A 
ATOM     81  C   UNL A   1      34.670  33.952  29.098  1.00  0.00     0.054 A 
BRANCH  81  82
ATOM     82  S   UNL A   1      33.080  34.795  28.865  1.00  0.00     0.124 S 
ATOM     83  O   UNL A   1      32.508  34.740  30.207  1.00  0.00    -0.237 OA
ATOM     84  O   UNL A   1      33.491  36.118  28.405  1.00  0.00    -0.237 OA
ATOM     85  O   UNL A   1      32.404  33.978  27.861  1.00  0.00    -0.744 OA
ENDBRANCH  81  82
ENDBRANCH  53  76
BRANCH  65  86
ATOM     86  C   UNL A   1      43.029  35.160  32.454  1.00  0.00    -0.014 A 
ATOM     87  C   UNL A   1      42.809  35.387  33.824  1.00  0.00     0.010 A 
ATOM     88  C   UNL A   1      43.641  36.163  31.681  1.00  0.00     0.010 A 
ATOM     89  C   UNL A   1      43.168  36.606  34.404  1.00  0.00     0.020 A 
ATOM     90  C   UNL A   1      44.030  37.371  32.265  1.00  0.00     0.020 A 
ATOM     91  C   UNL A   1      43.779  37.590  33.620  1.00  0.00     0.054 A 
BRANCH  91  92
ATOM     92  S   UNL A   1      44.276  39.145  34.409  1.00  0.00     0.124 S 
ATOM     93  O   UNL A   1      43.267  40.075  33.910  1.00  0.00    -0.237 OA
ATOM     94  O   UNL A   1      44.188  38.824  35.831  1.00  0.00    -0.237 OA
ATOM     95  O   UNL A   1      45.631  39.370  33.909  1.00  0.00    -0.744 OA
ENDBRANCH  91  92
ENDBRANCH  65  86
ENDBRANCH  39  40
ENDBRANCH  31  34
ENDBRANCH  29  30
ENDBRANCH  28  29
ENDBRANCH   1  28
TORSDOF 17
ENDMDL
