MODEL 1
REMARK VINA RESULT:     -11.4      0.000      0.000
REMARK SMILES CCc1ccc(C[NH+]2CCC(Oc3ccccc3OC)(C(=O)NCCCNC(=O)c3ccc(-c4c5nc(c(-c6ccc(S(=O)(=O)[O-])cc6)c6ccc([nH]6)c(-c6ccc(S(=O)(=O)[O-])cc6)c6nc(c(-c7ccc(S(=O)(=O)[O-])cc7)c7ccc4[nH]7)C=C6)C=C5)cc3)CC2)nc1
REMARK SMILES IDX 25 1 24 2 23 3 21 4 22 5 11 7 8 8 9 9 91 10 10 12 90 13 7 14
REMARK SMILES IDX 6 15 3 16 4 17 93 18 5 19 92 20 2 21 1 22 12 23 13 24 14 25
REMARK SMILES IDX 18 26 15 27 17 28 16 29 19 30 20 31 26 32 27 33 28 34 29 36
REMARK SMILES IDX 30 37 31 38 89 39 32 40 88 41 33 42 34 43 35 44 82 45 36 46
REMARK SMILES IDX 87 47 81 48 83 49 37 50 86 51 80 52 79 53 38 55 68 56 49 57
REMARK SMILES IDX 67 58 50 59 53 60 66 61 84 62 51 63 52 64 65 66 85 67 54 68
REMARK SMILES IDX 39 69 40 70 48 71 41 72 47 73 42 74 43 75 44 76 45 77 46 78
REMARK SMILES IDX 69 79 70 80 78 81 71 82 77 83 72 84 73 85 74 86 75 87 76 88
REMARK SMILES IDX 55 89 56 90 64 91 57 92 63 93 58 94 59 95 60 96 61 97 62 98
REMARK H PARENT 23 6 8 11 27 35 83 54 53 65
REMARK Flexibility Score: inf
ROOT
ATOM      1  C   UNL A   1      34.065  28.251  26.107  1.00  0.00     0.042 C 
ENDROOT
BRANCH   1   2
ATOM      2  C   UNL A   1      33.744  29.170  24.935  1.00  0.00     0.118 C 
BRANCH   2   3
ATOM      3  N   UNL A   1      34.162  28.634  23.645  1.00  0.00    -0.353 N 
ATOM      4  C   UNL A   1      33.475  27.919  22.697  1.00  0.00     0.264 C 
ATOM      5  O   UNL A   1      34.032  27.822  21.597  1.00  0.00    -0.270 OA
ATOM      6  H   UNL A   1      35.101  28.817  23.413  1.00  0.00     0.163 HD
BRANCH   4   7
ATOM      7  C   UNL A   1      32.098  27.245  22.993  1.00  0.00     0.197 C 
ATOM      8  N   UNL A   1      32.349  24.333  22.578  1.00  0.00    -0.330 N 
ATOM      9  C   UNL A   1      33.052  24.987  23.682  1.00  0.00     0.267 C 
ATOM     10  C   UNL A   1      32.328  25.218  21.404  1.00  0.00     0.267 C 
ATOM     11  H   UNL A   1      31.380  24.169  22.853  1.00  0.00     0.348 HD
ATOM     12  C   UNL A   1      32.266  26.211  24.106  1.00  0.00     0.120 C 
ATOM     13  C   UNL A   1      31.574  26.527  21.724  1.00  0.00     0.120 C 
BRANCH   8  14
ATOM     14  C   UNL A   1      32.909  22.990  22.286  1.00  0.00     0.319 C 
BRANCH  14  15
ATOM     15  C   UNL A   1      34.188  22.633  23.028  1.00  0.00     0.095 A 
ATOM     16  C   UNL A   1      36.413  22.474  24.645  1.00  0.00    -0.030 A 
ATOM     17  C   UNL A   1      35.245  21.810  25.019  1.00  0.00     0.007 A 
ATOM     18  C   UNL A   1      36.406  23.138  23.423  1.00  0.00     0.115 A 
ATOM     19  C   UNL A   1      34.121  21.884  24.204  1.00  0.00     0.030 A 
ATOM     20  N   UNL A   1      35.333  23.221  22.606  1.00  0.00    -0.255 NA
BRANCH  16  21
ATOM     21  C   UNL A   1      37.616  22.525  25.543  1.00  0.00     0.034 C 
ATOM     22  C   UNL A   1      37.878  23.916  26.097  1.00  0.00     0.009 C 
ENDBRANCH  16  21
ENDBRANCH  14  15
ENDBRANCH   8  14
BRANCH   7  23
ATOM     23  O   UNL A   1      31.311  28.368  23.468  1.00  0.00    -0.473 OA
BRANCH  23  24
ATOM     24  C   UNL A   1      30.207  28.801  22.802  1.00  0.00     0.162 A 
ATOM     25  C   UNL A   1      30.333  29.966  22.038  1.00  0.00     0.050 A 
ATOM     26  C   UNL A   1      28.922  28.320  23.099  1.00  0.00     0.160 A 
ATOM     27  C   UNL A   1      29.209  30.586  21.490  1.00  0.00     0.004 A 
ATOM     28  C   UNL A   1      27.801  28.914  22.506  1.00  0.00     0.050 A 
ATOM     29  C   UNL A   1      27.944  30.040  21.695  1.00  0.00     0.004 A 
BRANCH  26  30
ATOM     30  O   UNL A   1      28.650  27.504  24.167  1.00  0.00    -0.493 OA
ATOM     31  C   UNL A   1      28.671  26.114  23.880  1.00  0.00     0.278 C 
ENDBRANCH  26  30
ENDBRANCH  23  24
ENDBRANCH   7  23
ENDBRANCH   4   7
ENDBRANCH   2   3
ENDBRANCH   1   2
BRANCH   1  32
ATOM     32  C   UNL A   1      33.406  28.657  27.417  1.00  0.00     0.118 C 
BRANCH  32  33
ATOM     33  N   UNL A   1      33.500  30.087  27.672  1.00  0.00    -0.352 N 
ATOM     34  C   UNL A   1      34.519  30.826  28.221  1.00  0.00     0.251 C 
ATOM     35  H   UNL A   1      32.706  30.608  27.409  1.00  0.00     0.163 HD
ATOM     36  O   UNL A   1      34.312  31.999  28.536  1.00  0.00    -0.269 OA
BRANCH  34  37
ATOM     37  C   UNL A   1      35.848  30.224  28.460  1.00  0.00     0.039 A 
ATOM     38  C   UNL A   1      36.793  30.238  27.430  1.00  0.00     0.014 A 
ATOM     39  C   UNL A   1      36.166  29.635  29.688  1.00  0.00     0.014 A 
ATOM     40  C   UNL A   1      38.081  29.748  27.661  1.00  0.00     0.010 A 
ATOM     41  C   UNL A   1      37.470  29.214  29.939  1.00  0.00     0.010 A 
ATOM     42  C   UNL A   1      38.446  29.281  28.934  1.00  0.00    -0.014 A 
BRANCH  42  43
ATOM     43  C   UNL A   1      39.852  28.920  29.257  1.00  0.00     0.031 A 
ATOM     44  C   UNL A   1      40.795  29.946  29.824  1.00  0.00     0.074 A 
ATOM     45  C   UNL A   1      40.302  27.687  28.942  1.00  0.00     0.049 A 
ATOM     46  N   UNL A   1      42.078  29.842  30.055  1.00  0.00    -0.248 NA
ATOM     47  C   UNL A   1      40.230  31.265  30.157  1.00  0.00     0.031 C 
ATOM     48  C   UNL A   1      39.494  26.612  28.356  1.00  0.00     0.029 A 
ATOM     49  N   UNL A   1      41.554  27.132  29.049  1.00  0.00    -0.354 N 
ATOM     50  C   UNL A   1      42.480  31.084  30.534  1.00  0.00     0.074 A 
ATOM     51  C   UNL A   1      41.310  31.934  30.540  1.00  0.00     0.031 C 
ATOM     52  C   UNL A   1      40.266  25.532  28.165  1.00  0.00     0.029 A 
ATOM     53  C   UNL A   1      41.635  25.848  28.560  1.00  0.00     0.049 A 
ATOM     54  H   UNL A   1      42.323  27.609  29.439  1.00  0.00     0.167 HD
ATOM     55  C   UNL A   1      43.713  31.474  30.937  1.00  0.00     0.031 A 
ATOM     56  C   UNL A   1      42.693  25.025  28.414  1.00  0.00     0.031 A 
ATOM     57  C   UNL A   1      44.870  30.617  30.948  1.00  0.00     0.049 A 
ATOM     58  C   UNL A   1      44.056  25.504  28.841  1.00  0.00     0.074 A 
ATOM     59  C   UNL A   1      46.140  30.900  31.421  1.00  0.00     0.029 A 
ATOM     60  N   UNL A   1      44.906  29.323  30.455  1.00  0.00    -0.354 N 
ATOM     61  N   UNL A   1      44.392  26.648  29.386  1.00  0.00    -0.248 NA
ATOM     62  C   UNL A   1      45.181  24.581  28.633  1.00  0.00     0.031 C 
ATOM     63  C   UNL A   1      46.962  29.806  31.144  1.00  0.00     0.029 A 
ATOM     64  C   UNL A   1      46.189  28.814  30.564  1.00  0.00     0.049 A 
ATOM     65  H   UNL A   1      44.135  28.838  30.082  1.00  0.00     0.167 HD
ATOM     66  C   UNL A   1      45.763  26.571  29.605  1.00  0.00     0.074 A 
ATOM     67  C   UNL A   1      46.188  25.261  29.160  1.00  0.00     0.031 C 
ATOM     68  C   UNL A   1      46.598  27.505  30.123  1.00  0.00     0.031 A 
BRANCH  55  69
ATOM     69  C   UNL A   1      43.902  32.898  31.390  1.00  0.00    -0.014 A 
ATOM     70  C   UNL A   1      43.774  33.258  32.742  1.00  0.00     0.010 A 
ATOM     71  C   UNL A   1      44.337  33.865  30.462  1.00  0.00     0.010 A 
ATOM     72  C   UNL A   1      44.069  34.560  33.158  1.00  0.00     0.020 A 
ATOM     73  C   UNL A   1      44.656  35.159  30.877  1.00  0.00     0.020 A 
ATOM     74  C   UNL A   1      44.516  35.501  32.223  1.00  0.00     0.054 A 
BRANCH  74  75
ATOM     75  S   UNL A   1      44.968  37.158  32.807  1.00  0.00     0.124 S 
ATOM     76  O   UNL A   1      45.229  37.858  31.552  1.00  0.00    -0.237 OA
ATOM     77  O   UNL A   1      43.770  37.581  33.525  1.00  0.00    -0.237 OA
ATOM     78  O   UNL A   1      46.143  36.923  33.643  1.00  0.00    -0.744 OA
ENDBRANCH  74  75
ENDBRANCH  55  69
BRANCH  56  79
ATOM     79  C   UNL A   1      42.525  23.680  27.796  1.00  0.00    -0.014 A 
ATOM     80  C   UNL A   1      41.899  22.637  28.502  1.00  0.00     0.010 A 
ATOM     81  C   UNL A   1      43.035  23.421  26.510  1.00  0.00     0.010 A 
ATOM     82  C   UNL A   1      41.826  21.353  27.953  1.00  0.00     0.020 A 
ATOM     83  C   UNL A   1      42.932  22.148  25.943  1.00  0.00     0.020 A 
ATOM     84  C   UNL A   1      42.348  21.116  26.679  1.00  0.00     0.054 A 
BRANCH  84  85
ATOM     85  S   UNL A   1      42.247  19.443  25.986  1.00  0.00     0.124 S 
ATOM     86  O   UNL A   1      40.809  19.278  25.801  1.00  0.00    -0.237 OA
ATOM     87  O   UNL A   1      43.036  19.559  24.763  1.00  0.00    -0.237 OA
ATOM     88  O   UNL A   1      42.845  18.608  27.026  1.00  0.00    -0.744 OA
ENDBRANCH  84  85
ENDBRANCH  56  79
BRANCH  68  89
ATOM     89  C   UNL A   1      48.053  27.144  30.260  1.00  0.00    -0.014 A 
ATOM     90  C   UNL A   1      48.984  27.491  29.266  1.00  0.00     0.010 A 
ATOM     91  C   UNL A   1      48.505  26.511  31.432  1.00  0.00     0.010 A 
ATOM     92  C   UNL A   1      50.340  27.197  29.434  1.00  0.00     0.020 A 
ATOM     93  C   UNL A   1      49.864  26.243  31.618  1.00  0.00     0.020 A 
ATOM     94  C   UNL A   1      50.771  26.580  30.612  1.00  0.00     0.054 A 
BRANCH  94  95
ATOM     95  S   UNL A   1      52.544  26.272  30.832  1.00  0.00     0.124 S 
ATOM     96  O   UNL A   1      52.544  25.095  31.697  1.00  0.00    -0.237 OA
ATOM     97  O   UNL A   1      53.001  26.045  29.462  1.00  0.00    -0.237 OA
ATOM     98  O   UNL A   1      53.037  27.500  31.452  1.00  0.00    -0.744 OA
ENDBRANCH  94  95
ENDBRANCH  68  89
ENDBRANCH  42  43
ENDBRANCH  34  37
ENDBRANCH  32  33
ENDBRANCH   1  32
TORSDOF 19
ENDMDL
MODEL 2
REMARK VINA RESULT:     -11.1      2.186      2.786
REMARK SMILES CCc1ccc(C[NH+]2CCC(Oc3ccccc3OC)(C(=O)NCCCNC(=O)c3ccc(-c4c5nc(c(-c6ccc(S(=O)(=O)[O-])cc6)c6ccc([nH]6)c(-c6ccc(S(=O)(=O)[O-])cc6)c6nc(c(-c7ccc(S(=O)(=O)[O-])cc7)c7ccc4[nH]7)C=C6)C=C5)cc3)CC2)nc1
REMARK SMILES IDX 25 1 24 2 23 3 21 4 22 5 11 7 8 8 9 9 91 10 10 12 90 13 7 14
REMARK SMILES IDX 6 15 3 16 4 17 93 18 5 19 92 20 2 21 1 22 12 23 13 24 14 25
REMARK SMILES IDX 18 26 15 27 17 28 16 29 19 30 20 31 26 32 27 33 28 34 29 36
REMARK SMILES IDX 30 37 31 38 89 39 32 40 88 41 33 42 34 43 35 44 82 45 36 46
REMARK SMILES IDX 87 47 81 48 83 49 37 50 86 51 80 52 79 53 38 55 68 56 49 57
REMARK SMILES IDX 67 58 50 59 53 60 66 61 84 62 51 63 52 64 65 66 85 67 54 68
REMARK SMILES IDX 39 69 40 70 48 71 41 72 47 73 42 74 43 75 44 76 45 77 46 78
REMARK SMILES IDX 69 79 70 80 78 81 71 82 77 83 72 84 73 85 74 86 75 87 76 88
REMARK SMILES IDX 55 89 56 90 64 91 57 92 63 93 58 94 59 95 60 96 61 97 62 98
REMARK H PARENT 23 6 8 11 27 35 83 54 53 65
REMARK Flexibility Score: inf
ROOT
ATOM      1  C   UNL A   1      33.684  29.270  27.266  1.00  0.00     0.042 C 
ENDROOT
BRANCH   1   2
ATOM      2  C   UNL A   1      33.637  28.036  26.373  1.00  0.00     0.118 C 
BRANCH   2   3
ATOM      3  N   UNL A   1      34.003  28.308  24.988  1.00  0.00    -0.353 N 
ATOM      4  C   UNL A   1      33.292  28.179  23.822  1.00  0.00     0.264 C 
ATOM      5  O   UNL A   1      33.792  28.725  22.832  1.00  0.00    -0.270 OA
ATOM      6  H   UNL A   1      34.921  28.644  24.868  1.00  0.00     0.163 HD
BRANCH   4   7
ATOM      7  C   UNL A   1      31.959  27.371  23.741  1.00  0.00     0.197 C 
ATOM      8  N   UNL A   1      32.523  24.709  22.596  1.00  0.00    -0.330 N 
ATOM      9  C   UNL A   1      33.035  25.070  23.918  1.00  0.00     0.267 C 
ATOM     10  C   UNL A   1      32.552  25.883  21.711  1.00  0.00     0.267 C 
ATOM     11  H   UNL A   1      31.549  24.419  22.686  1.00  0.00     0.348 HD
ATOM     12  C   UNL A   1      32.097  26.079  24.547  1.00  0.00     0.120 C 
ATOM     13  C   UNL A   1      31.649  27.004  22.268  1.00  0.00     0.120 C 
BRANCH   8  14
ATOM     14  C   UNL A   1      33.234  23.535  22.031  1.00  0.00     0.319 C 
BRANCH  14  15
ATOM     15  C   UNL A   1      34.333  22.946  22.903  1.00  0.00     0.095 A 
ATOM     16  C   UNL A   1      36.268  22.362  24.775  1.00  0.00    -0.030 A 
ATOM     17  C   UNL A   1      34.974  21.871  24.950  1.00  0.00     0.007 A 
ATOM     18  C   UNL A   1      36.526  23.079  23.611  1.00  0.00     0.115 A 
ATOM     19  C   UNL A   1      33.996  22.159  24.006  1.00  0.00     0.030 A 
ATOM     20  N   UNL A   1      35.599  23.368  22.672  1.00  0.00    -0.255 NA
BRANCH  16  21
ATOM     21  C   UNL A   1      37.331  22.181  25.820  1.00  0.00     0.034 C 
ATOM     22  C   UNL A   1      38.110  23.456  26.095  1.00  0.00     0.009 C 
ENDBRANCH  16  21
ENDBRANCH  14  15
ENDBRANCH   8  14
BRANCH   7  23
ATOM     23  O   UNL A   1      31.024  28.269  24.391  1.00  0.00    -0.473 OA
BRANCH  23  24
ATOM     24  C   UNL A   1      29.996  28.847  23.712  1.00  0.00     0.162 A 
ATOM     25  C   UNL A   1      29.950  30.245  23.685  1.00  0.00     0.050 A 
ATOM     26  C   UNL A   1      28.857  28.124  23.327  1.00  0.00     0.160 A 
ATOM     27  C   UNL A   1      28.831  30.914  23.186  1.00  0.00     0.004 A 
ATOM     28  C   UNL A   1      27.757  28.794  22.780  1.00  0.00     0.050 A 
ATOM     29  C   UNL A   1      27.747  30.187  22.702  1.00  0.00     0.004 A 
BRANCH  26  30
ATOM     30  O   UNL A   1      28.613  26.834  23.726  1.00  0.00    -0.493 OA
ATOM     31  C   UNL A   1      27.285  26.583  24.161  1.00  0.00     0.278 C 
ENDBRANCH  26  30
ENDBRANCH  23  24
ENDBRANCH   7  23
ENDBRANCH   4   7
ENDBRANCH   2   3
ENDBRANCH   1   2
BRANCH   1  32
ATOM     32  C   UNL A   1      35.086  29.803  27.521  1.00  0.00     0.118 C 
BRANCH  32  33
ATOM     33  N   UNL A   1      35.172  30.589  28.745  1.00  0.00    -0.352 N 
ATOM     34  C   UNL A   1      36.167  30.657  29.688  1.00  0.00     0.251 C 
ATOM     35  H   UNL A   1      34.391  31.164  28.923  1.00  0.00     0.163 HD
ATOM     36  O   UNL A   1      35.949  31.234  30.754  1.00  0.00    -0.269 OA
BRANCH  34  37
ATOM     37  C   UNL A   1      37.483  30.027  29.448  1.00  0.00     0.039 A 
ATOM     38  C   UNL A   1      37.936  29.886  28.134  1.00  0.00     0.014 A 
ATOM     39  C   UNL A   1      38.267  29.563  30.509  1.00  0.00     0.014 A 
ATOM     40  C   UNL A   1      39.212  29.368  27.890  1.00  0.00     0.010 A 
ATOM     41  C   UNL A   1      39.564  29.115  30.269  1.00  0.00     0.010 A 
ATOM     42  C   UNL A   1      40.057  29.028  28.958  1.00  0.00    -0.014 A 
BRANCH  42  43
ATOM     43  C   UNL A   1      41.475  28.642  28.736  1.00  0.00     0.031 A 
ATOM     44  C   UNL A   1      42.561  29.684  28.741  1.00  0.00     0.074 A 
ATOM     45  C   UNL A   1      41.768  27.360  28.430  1.00  0.00     0.049 A 
ATOM     46  N   UNL A   1      43.829  29.548  28.450  1.00  0.00    -0.248 NA
ATOM     47  C   UNL A   1      42.171  31.059  29.097  1.00  0.00     0.031 C 
ATOM     48  C   UNL A   1      40.798  26.262  28.362  1.00  0.00     0.029 A 
ATOM     49  N   UNL A   1      42.960  26.764  28.099  1.00  0.00    -0.354 N 
ATOM     50  C   UNL A   1      44.383  30.819  28.563  1.00  0.00     0.074 A 
ATOM     51  C   UNL A   1      43.310  31.718  28.926  1.00  0.00     0.031 C 
ATOM     52  C   UNL A   1      41.434  25.131  28.020  1.00  0.00     0.029 A 
ATOM     53  C   UNL A   1      42.843  25.428  27.790  1.00  0.00     0.049 A 
ATOM     54  H   UNL A   1      43.818  27.248  28.084  1.00  0.00     0.167 HD
ATOM     55  C   UNL A   1      45.672  31.196  28.385  1.00  0.00     0.031 A 
ATOM     56  C   UNL A   1      43.758  24.544  27.341  1.00  0.00     0.031 A 
ATOM     57  C   UNL A   1      46.740  30.292  28.044  1.00  0.00     0.049 A 
ATOM     58  C   UNL A   1      45.175  25.006  27.121  1.00  0.00     0.074 A 
ATOM     59  C   UNL A   1      48.091  30.571  27.928  1.00  0.00     0.029 A 
ATOM     60  N   UNL A   1      46.582  28.948  27.750  1.00  0.00    -0.354 N 
ATOM     61  N   UNL A   1      45.696  26.191  27.333  1.00  0.00    -0.248 NA
ATOM     62  C   UNL A   1      46.126  24.013  26.603  1.00  0.00     0.031 C 
ATOM     63  C   UNL A   1      48.739  29.413  27.490  1.00  0.00     0.029 A 
ATOM     64  C   UNL A   1      47.803  28.396  27.402  1.00  0.00     0.049 A 
ATOM     65  H   UNL A   1      45.728  28.459  27.783  1.00  0.00     0.167 HD
ATOM     66  C   UNL A   1      47.040  26.076  26.993  1.00  0.00     0.074 A 
ATOM     67  C   UNL A   1      47.256  24.704  26.590  1.00  0.00     0.031 C 
ATOM     68  C   UNL A   1      48.006  27.025  27.008  1.00  0.00     0.031 A 
BRANCH  55  69
ATOM     69  C   UNL A   1      46.019  32.654  28.536  1.00  0.00    -0.014 A 
ATOM     70  C   UNL A   1      45.913  33.545  27.455  1.00  0.00     0.010 A 
ATOM     71  C   UNL A   1      46.337  33.159  29.811  1.00  0.00     0.010 A 
ATOM     72  C   UNL A   1      46.125  34.914  27.644  1.00  0.00     0.020 A 
ATOM     73  C   UNL A   1      46.526  34.528  30.011  1.00  0.00     0.020 A 
ATOM     74  C   UNL A   1      46.423  35.398  28.924  1.00  0.00     0.054 A 
BRANCH  74  75
ATOM     75  S   UNL A   1      46.612  37.187  29.153  1.00  0.00     0.124 S 
ATOM     76  O   UNL A   1      46.570  37.674  27.776  1.00  0.00    -0.237 OA
ATOM     77  O   UNL A   1      45.454  37.527  29.975  1.00  0.00    -0.237 OA
ATOM     78  O   UNL A   1      47.906  37.318  29.819  1.00  0.00    -0.744 OA
ENDBRANCH  74  75
ENDBRANCH  55  69
BRANCH  56  79
ATOM     79  C   UNL A   1      43.363  23.143  27.022  1.00  0.00    -0.014 A 
ATOM     80  C   UNL A   1      42.951  22.263  28.038  1.00  0.00     0.010 A 
ATOM     81  C   UNL A   1      43.442  22.668  25.700  1.00  0.00     0.010 A 
ATOM     82  C   UNL A   1      42.670  20.925  27.747  1.00  0.00     0.020 A 
ATOM     83  C   UNL A   1      43.127  21.340  25.398  1.00  0.00     0.020 A 
ATOM     84  C   UNL A   1      42.765  20.471  26.428  1.00  0.00     0.054 A 
BRANCH  84  85
ATOM     85  S   UNL A   1      42.400  18.731  26.071  1.00  0.00     0.124 S 
ATOM     86  O   UNL A   1      40.999  18.793  25.665  1.00  0.00    -0.237 OA
ATOM     87  O   UNL A   1      43.354  18.419  25.011  1.00  0.00    -0.237 OA
ATOM     88  O   UNL A   1      42.655  18.061  27.345  1.00  0.00    -0.744 OA
ENDBRANCH  84  85
ENDBRANCH  56  79
BRANCH  68  89
ATOM     89  C   UNL A   1      49.396  26.615  26.598  1.00  0.00    -0.014 A 
ATOM     90  C   UNL A   1      50.265  25.986  27.506  1.00  0.00     0.010 A 
ATOM     91  C   UNL A   1      49.810  26.797  25.265  1.00  0.00     0.010 A 
ATOM     92  C   UNL A   1      51.531  25.562  27.094  1.00  0.00     0.020 A 
ATOM     93  C   UNL A   1      51.063  26.347  24.842  1.00  0.00     0.020 A 
ATOM     94  C   UNL A   1      51.919  25.740  25.762  1.00  0.00     0.054 A 
BRANCH  94  95
ATOM     95  S   UNL A   1      53.541  25.119  25.240  1.00  0.00     0.124 S 
ATOM     96  O   UNL A   1      53.637  25.630  23.875  1.00  0.00    -0.237 OA
ATOM     97  O   UNL A   1      54.445  25.737  26.207  1.00  0.00    -0.237 OA
ATOM     98  O   UNL A   1      53.411  23.668  25.354  1.00  0.00    -0.744 OA
ENDBRANCH  94  95
ENDBRANCH  68  89
ENDBRANCH  42  43
ENDBRANCH  34  37
ENDBRANCH  32  33
ENDBRANCH   1  32
TORSDOF 19
ENDMDL
MODEL 3
REMARK VINA RESULT:     -10.7      4.223      9.088
REMARK SMILES CCc1ccc(C[NH+]2CCC(Oc3ccccc3OC)(C(=O)NCCCNC(=O)c3ccc(-c4c5nc(c(-c6ccc(S(=O)(=O)[O-])cc6)c6ccc([nH]6)c(-c6ccc(S(=O)(=O)[O-])cc6)c6nc(c(-c7ccc(S(=O)(=O)[O-])cc7)c7ccc4[nH]7)C=C6)C=C5)cc3)CC2)nc1
REMARK SMILES IDX 25 1 24 2 23 3 21 4 22 5 11 7 8 8 9 9 91 10 10 12 90 13 7 14
REMARK SMILES IDX 6 15 3 16 4 17 93 18 5 19 92 20 2 21 1 22 12 23 13 24 14 25
REMARK SMILES IDX 18 26 15 27 17 28 16 29 19 30 20 31 26 32 27 33 28 34 29 36
REMARK SMILES IDX 30 37 31 38 89 39 32 40 88 41 33 42 34 43 35 44 82 45 36 46
REMARK SMILES IDX 87 47 81 48 83 49 37 50 86 51 80 52 79 53 38 55 68 56 49 57
REMARK SMILES IDX 67 58 50 59 53 60 66 61 84 62 51 63 52 64 65 66 85 67 54 68
REMARK SMILES IDX 39 69 40 70 48 71 41 72 47 73 42 74 43 75 44 76 45 77 46 78
REMARK SMILES IDX 69 79 70 80 78 81 71 82 77 83 72 84 73 85 74 86 75 87 76 88
REMARK SMILES IDX 55 89 56 90 64 91 57 92 63 93 58 94 59 95 60 96 61 97 62 98
REMARK H PARENT 23 6 8 11 27 35 83 54 53 65
REMARK Flexibility Score: inf
ROOT
ATOM      1  C   UNL A   1      31.486  31.888  26.256  1.00  0.00     0.042 C 
ENDROOT
BRANCH   1   2
ATOM      2  C   UNL A   1      31.512  30.446  25.765  1.00  0.00     0.118 C 
BRANCH   2   3
ATOM      3  N   UNL A   1      32.745  30.092  25.072  1.00  0.00    -0.353 N 
ATOM      4  C   UNL A   1      32.998  29.163  24.095  1.00  0.00     0.264 C 
ATOM      5  O   UNL A   1      34.093  29.270  23.531  1.00  0.00    -0.270 OA
ATOM      6  H   UNL A   1      33.533  30.610  25.353  1.00  0.00     0.163 HD
BRANCH   4   7
ATOM      7  C   UNL A   1      31.988  28.027  23.739  1.00  0.00     0.197 C 
ATOM      8  N   UNL A   1      32.774  25.566  25.169  1.00  0.00    -0.330 N 
ATOM      9  C   UNL A   1      32.279  26.727  25.909  1.00  0.00     0.267 C 
ATOM     10  C   UNL A   1      33.583  26.012  24.024  1.00  0.00     0.267 C 
ATOM     11  H   UNL A   1      31.979  25.047  24.796  1.00  0.00     0.348 HD
ATOM     12  C   UNL A   1      31.334  27.508  25.020  1.00  0.00     0.120 C 
ATOM     13  C   UNL A   1      32.730  26.853  23.051  1.00  0.00     0.120 C 
BRANCH   8  14
ATOM     14  C   UNL A   1      33.490  24.612  26.053  1.00  0.00     0.319 C 
BRANCH  14  15
ATOM     15  C   UNL A   1      33.306  23.140  25.720  1.00  0.00     0.095 A 
ATOM     16  C   UNL A   1      32.886  20.662  24.591  1.00  0.00    -0.030 A 
ATOM     17  C   UNL A   1      34.192  21.125  24.761  1.00  0.00     0.007 A 
ATOM     18  C   UNL A   1      31.857  21.466  25.068  1.00  0.00     0.115 A 
ATOM     19  C   UNL A   1      34.408  22.373  25.334  1.00  0.00     0.030 A 
ATOM     20  N   UNL A   1      32.036  22.678  25.636  1.00  0.00    -0.255 NA
BRANCH  16  21
ATOM     21  C   UNL A   1      32.592  19.377  23.872  1.00  0.00     0.034 C 
ATOM     22  C   UNL A   1      32.630  18.166  24.790  1.00  0.00     0.009 C 
ENDBRANCH  16  21
ENDBRANCH  14  15
ENDBRANCH   8  14
BRANCH   7  23
ATOM     23  O   UNL A   1      31.014  28.734  22.930  1.00  0.00    -0.473 OA
BRANCH  23  24
ATOM     24  C   UNL A   1      29.688  28.723  23.233  1.00  0.00     0.162 A 
ATOM     25  C   UNL A   1      29.084  27.477  23.430  1.00  0.00     0.050 A 
ATOM     26  C   UNL A   1      28.872  29.851  23.049  1.00  0.00     0.160 A 
ATOM     27  C   UNL A   1      27.698  27.365  23.546  1.00  0.00     0.004 A 
ATOM     28  C   UNL A   1      27.487  29.744  23.217  1.00  0.00     0.050 A 
ATOM     29  C   UNL A   1      26.900  28.505  23.473  1.00  0.00     0.004 A 
BRANCH  26  30
ATOM     30  O   UNL A   1      29.295  30.992  22.416  1.00  0.00    -0.493 OA
ATOM     31  C   UNL A   1      28.874  32.204  23.021  1.00  0.00     0.278 C 
ENDBRANCH  26  30
ENDBRANCH  23  24
ENDBRANCH   7  23
ENDBRANCH   4   7
ENDBRANCH   2   3
ENDBRANCH   1   2
BRANCH   1  32
ATOM     32  C   UNL A   1      32.536  32.210  27.308  1.00  0.00     0.118 C 
BRANCH  32  33
ATOM     33  N   UNL A   1      32.567  33.625  27.655  1.00  0.00    -0.352 N 
ATOM     34  C   UNL A   1      33.400  34.313  28.501  1.00  0.00     0.251 C 
ATOM     35  H   UNL A   1      31.880  34.174  27.211  1.00  0.00     0.163 HD
ATOM     36  O   UNL A   1      33.123  35.474  28.809  1.00  0.00    -0.269 OA
BRANCH  34  37
ATOM     37  C   UNL A   1      34.608  33.672  29.064  1.00  0.00     0.039 A 
ATOM     38  C   UNL A   1      35.866  34.092  28.622  1.00  0.00     0.014 A 
ATOM     39  C   UNL A   1      34.509  32.651  30.014  1.00  0.00     0.014 A 
ATOM     40  C   UNL A   1      37.020  33.556  29.200  1.00  0.00     0.010 A 
ATOM     41  C   UNL A   1      35.658  32.171  30.639  1.00  0.00     0.010 A 
ATOM     42  C   UNL A   1      36.925  32.631  30.251  1.00  0.00    -0.014 A 
BRANCH  42  43
ATOM     43  C   UNL A   1      38.127  32.178  31.000  1.00  0.00     0.031 A 
ATOM     44  C   UNL A   1      38.930  30.999  30.520  1.00  0.00     0.074 A 
ATOM     45  C   UNL A   1      38.433  32.773  32.173  1.00  0.00     0.049 A 
ATOM     46  N   UNL A   1      39.931  30.395  31.105  1.00  0.00    -0.248 NA
ATOM     47  C   UNL A   1      38.546  30.410  29.225  1.00  0.00     0.031 C 
ATOM     48  C   UNL A   1      37.711  33.906  32.763  1.00  0.00     0.029 A 
ATOM     49  N   UNL A   1      39.416  32.498  33.091  1.00  0.00    -0.354 N 
ATOM     50  C   UNL A   1      40.281  29.342  30.268  1.00  0.00     0.074 A 
ATOM     51  C   UNL A   1      39.372  29.374  29.144  1.00  0.00     0.031 C 
ATOM     52  C   UNL A   1      38.281  34.231  33.934  1.00  0.00     0.029 A 
ATOM     53  C   UNL A   1      39.370  33.300  34.209  1.00  0.00     0.049 A 
ATOM     54  H   UNL A   1      40.092  31.793  32.962  1.00  0.00     0.167 HD
ATOM     55  C   UNL A   1      41.277  28.436  30.423  1.00  0.00     0.031 A 
ATOM     56  C   UNL A   1      40.099  33.274  35.343  1.00  0.00     0.031 A 
ATOM     57  C   UNL A   1      42.191  28.422  31.535  1.00  0.00     0.049 A 
ATOM     58  C   UNL A   1      41.175  32.231  35.497  1.00  0.00     0.074 A 
ATOM     59  C   UNL A   1      43.285  27.595  31.732  1.00  0.00     0.029 A 
ATOM     60  N   UNL A   1      42.117  29.256  32.638  1.00  0.00    -0.354 N 
ATOM     61  N   UNL A   1      41.554  31.309  34.646  1.00  0.00    -0.248 NA
ATOM     62  C   UNL A   1      41.920  32.225  36.764  1.00  0.00     0.031 C 
ATOM     63  C   UNL A   1      43.824  27.878  32.989  1.00  0.00     0.029 A 
ATOM     64  C   UNL A   1      43.112  28.928  33.544  1.00  0.00     0.049 A 
ATOM     65  H   UNL A   1      41.454  29.974  32.760  1.00  0.00     0.167 HD
ATOM     66  C   UNL A   1      42.596  30.630  35.267  1.00  0.00     0.074 A 
ATOM     67  C   UNL A   1      42.805  31.263  36.551  1.00  0.00     0.031 C 
ATOM     68  C   UNL A   1      43.313  29.571  34.817  1.00  0.00     0.031 A 
BRANCH  55  69
ATOM     69  C   UNL A   1      41.436  27.360  29.381  1.00  0.00    -0.014 A 
ATOM     70  C   UNL A   1      42.638  27.203  28.671  1.00  0.00     0.010 A 
ATOM     71  C   UNL A   1      40.406  26.417  29.201  1.00  0.00     0.010 A 
ATOM     72  C   UNL A   1      42.806  26.126  27.795  1.00  0.00     0.020 A 
ATOM     73  C   UNL A   1      40.577  25.327  28.346  1.00  0.00     0.020 A 
ATOM     74  C   UNL A   1      41.776  25.190  27.644  1.00  0.00     0.054 A 
BRANCH  74  75
ATOM     75  S   UNL A   1      42.054  23.761  26.562  1.00  0.00     0.124 S 
ATOM     76  O   UNL A   1      42.979  22.956  27.358  1.00  0.00    -0.237 OA
ATOM     77  O   UNL A   1      40.711  23.208  26.412  1.00  0.00    -0.237 OA
ATOM     78  O   UNL A   1      42.624  24.346  25.351  1.00  0.00    -0.744 OA
ENDBRANCH  74  75
ENDBRANCH  55  69
BRANCH  56  79
ATOM     79  C   UNL A   1      39.813  34.232  36.448  1.00  0.00    -0.014 A 
ATOM     80  C   UNL A   1      40.404  35.507  36.465  1.00  0.00     0.010 A 
ATOM     81  C   UNL A   1      38.980  33.853  37.517  1.00  0.00     0.010 A 
ATOM     82  C   UNL A   1      40.205  36.367  37.550  1.00  0.00     0.020 A 
ATOM     83  C   UNL A   1      38.749  34.723  38.586  1.00  0.00     0.020 A 
ATOM     84  C   UNL A   1      39.382  35.966  38.606  1.00  0.00     0.054 A 
BRANCH  84  85
ATOM     85  S   UNL A   1      39.139  37.095  40.005  1.00  0.00     0.124 S 
ATOM     86  O   UNL A   1      40.513  37.383  40.404  1.00  0.00    -0.237 OA
ATOM     87  O   UNL A   1      38.410  38.202  39.395  1.00  0.00    -0.237 OA
ATOM     88  O   UNL A   1      38.365  36.297  40.955  1.00  0.00    -0.744 OA
ENDBRANCH  84  85
ENDBRANCH  56  79
BRANCH  68  89
ATOM     89  C   UNL A   1      44.406  29.038  35.704  1.00  0.00    -0.014 A 
ATOM     90  C   UNL A   1      44.157  27.999  36.618  1.00  0.00     0.010 A 
ATOM     91  C   UNL A   1      45.716  29.535  35.571  1.00  0.00     0.010 A 
ATOM     92  C   UNL A   1      45.196  27.479  37.395  1.00  0.00     0.020 A 
ATOM     93  C   UNL A   1      46.762  28.997  36.323  1.00  0.00     0.020 A 
ATOM     94  C   UNL A   1      46.492  27.977  37.238  1.00  0.00     0.054 A 
BRANCH  94  95
ATOM     95  S   UNL A   1      47.832  27.236  38.210  1.00  0.00     0.124 S 
ATOM     96  O   UNL A   1      48.275  26.150  37.340  1.00  0.00    -0.237 OA
ATOM     97  O   UNL A   1      48.770  28.346  38.358  1.00  0.00    -0.237 OA
ATOM     98  O   UNL A   1      47.173  26.815  39.445  1.00  0.00    -0.744 OA
ENDBRANCH  94  95
ENDBRANCH  68  89
ENDBRANCH  42  43
ENDBRANCH  34  37
ENDBRANCH  32  33
ENDBRANCH   1  32
TORSDOF 19
ENDMDL
