MODEL 1
REMARK VINA RESULT:     -11.7      0.000      0.000
REMARK SMILES C[C@@H](NC(=O)[C@H]1CC=CC[C@@H]1C(=O)NCCCNC(=O)c1ccc(-c2c3nc(c(-c4ccc(S(=O)(=O)[O-])cc4)c4ccc([nH]4)c(-c4ccc(S(=O)(=O)[O-])cc4)c4nc(c(-c5ccc(S(=O)(=O)[O-])cc5)c5ccc2[nH]5)C=C4)C=C3)cc1)c1ccc(-n2ccnc2)cc1
REMARK SMILES IDX 15 1 14 2 12 3 13 4 11 6 6 7 7 8 8 9 10 10 9 11 4 12 3 13
REMARK SMILES IDX 5 15 2 16 1 17 81 18 82 19 91 20 83 21 90 22 84 23 85 24
REMARK SMILES IDX 86 25 89 26 87 27 88 28 16 29 17 30 18 31 19 32 20 34 21 35
REMARK SMILES IDX 22 36 80 37 23 38 79 39 24 40 25 41 26 42 73 43 27 44 78 45
REMARK SMILES IDX 72 46 74 47 28 48 77 49 71 50 70 51 29 53 59 54 40 55 58 56
REMARK SMILES IDX 41 57 44 58 57 59 75 60 42 61 43 62 56 64 76 65 45 66 30 67
REMARK SMILES IDX 31 68 39 69 32 70 38 71 33 72 34 73 35 74 36 75 37 76 60 77
REMARK SMILES IDX 61 78 69 79 62 80 68 81 63 82 64 83 65 84 66 85 67 86 46 87
REMARK SMILES IDX 47 88 55 89 48 90 54 91 49 92 50 93 51 94 52 95 53 96
REMARK H PARENT 14 5 3 14 18 33 74 52 44 63
REMARK Flexibility Score: inf
ROOT
ATOM      1  C   UNL A   1      34.681  24.497  25.353  1.00  0.00     0.117 C 
ENDROOT
BRANCH   1   2
ATOM      2  N   UNL A   1      33.524  24.389  26.240  1.00  0.00    -0.356 N 
ATOM      3  C   UNL A   1      32.439  25.163  26.498  1.00  0.00     0.224 C 
ATOM      4  O   UNL A   1      31.607  24.700  27.281  1.00  0.00    -0.275 OA
ATOM      5  H   UNL A   1      33.534  23.563  26.775  1.00  0.00     0.163 HD
BRANCH   3   6
ATOM      6  C   UNL A   1      32.202  26.446  25.743  1.00  0.00     0.095 C 
ATOM      7  C   UNL A   1      33.393  27.317  25.467  1.00  0.00     0.095 C 
ATOM      8  C   UNL A   1      33.825  28.069  26.752  1.00  0.00     0.041 C 
ATOM      9  C   UNL A   1      32.712  28.441  27.693  1.00  0.00    -0.030 C 
ATOM     10  C   UNL A   1      31.041  27.286  26.295  1.00  0.00     0.041 C 
ATOM     11  C   UNL A   1      31.436  28.107  27.476  1.00  0.00    -0.030 C 
BRANCH   7  12
ATOM     12  C   UNL A   1      33.192  28.156  24.184  1.00  0.00     0.224 C 
ATOM     13  N   UNL A   1      32.985  27.628  22.926  1.00  0.00    -0.349 N 
ATOM     14  H   UNL A   1      33.744  27.837  22.335  1.00  0.00     0.164 HD
ATOM     15  O   UNL A   1      33.502  29.355  24.198  1.00  0.00    -0.275 OA
BRANCH  13  16
ATOM     16  C   UNL A   1      31.936  26.818  22.180  1.00  0.00     0.109 C 
ATOM     17  C   UNL A   1      30.582  27.538  22.259  1.00  0.00     0.036 C 
BRANCH  16  18
ATOM     18  C   UNL A   1      31.865  25.291  22.343  1.00  0.00    -0.026 A 
ATOM     19  C   UNL A   1      30.872  24.650  23.113  1.00  0.00     0.008 A 
ATOM     20  C   UNL A   1      32.877  24.472  21.809  1.00  0.00     0.008 A 
ATOM     21  C   UNL A   1      30.998  23.306  23.513  1.00  0.00     0.027 A 
ATOM     22  C   UNL A   1      33.023  23.133  22.228  1.00  0.00     0.027 A 
ATOM     23  C   UNL A   1      32.129  22.572  23.145  1.00  0.00     0.046 A 
BRANCH  23  24
ATOM     24  N   UNL A   1      32.426  21.345  23.805  1.00  0.00    -0.306 N 
ATOM     25  C   UNL A   1      32.678  21.165  25.151  1.00  0.00     0.113 A 
ATOM     26  C   UNL A   1      32.409  20.078  23.265  1.00  0.00     0.204 A 
ATOM     27  C   UNL A   1      32.695  19.804  25.355  1.00  0.00     0.131 A 
ATOM     28  N   UNL A   1      32.573  19.136  24.169  1.00  0.00    -0.245 NA
ENDBRANCH  23  24
ENDBRANCH  16  18
ENDBRANCH  13  16
ENDBRANCH   7  12
ENDBRANCH   3   6
ENDBRANCH   1   2
BRANCH   1  29
ATOM     29  C   UNL A   1      35.797  23.571  25.819  1.00  0.00     0.042 C 
BRANCH  29  30
ATOM     30  C   UNL A   1      37.088  23.735  25.021  1.00  0.00     0.118 C 
BRANCH  30  31
ATOM     31  N   UNL A   1      38.100  22.737  25.320  1.00  0.00    -0.352 N 
ATOM     32  C   UNL A   1      39.243  22.904  26.077  1.00  0.00     0.251 C 
ATOM     33  H   UNL A   1      37.955  21.841  24.940  1.00  0.00     0.163 HD
ATOM     34  O   UNL A   1      40.060  22.005  26.162  1.00  0.00    -0.269 OA
BRANCH  32  35
ATOM     35  C   UNL A   1      39.481  24.213  26.737  1.00  0.00     0.039 A 
ATOM     36  C   UNL A   1      38.971  24.413  28.019  1.00  0.00     0.014 A 
ATOM     37  C   UNL A   1      40.251  25.208  26.124  1.00  0.00     0.014 A 
ATOM     38  C   UNL A   1      39.286  25.585  28.711  1.00  0.00     0.010 A 
ATOM     39  C   UNL A   1      40.631  26.338  26.848  1.00  0.00     0.010 A 
ATOM     40  C   UNL A   1      40.152  26.541  28.151  1.00  0.00    -0.014 A 
BRANCH  40  41
ATOM     41  C   UNL A   1      40.568  27.733  28.941  1.00  0.00     0.031 A 
ATOM     42  C   UNL A   1      41.919  27.792  29.603  1.00  0.00     0.074 A 
ATOM     43  C   UNL A   1      39.715  28.770  29.073  1.00  0.00     0.049 A 
ATOM     44  N   UNL A   1      42.468  28.779  30.265  1.00  0.00    -0.248 NA
ATOM     45  C   UNL A   1      42.756  26.583  29.531  1.00  0.00     0.031 C 
ATOM     46  C   UNL A   1      38.350  28.816  28.542  1.00  0.00     0.029 A 
ATOM     47  N   UNL A   1      39.872  29.991  29.680  1.00  0.00    -0.354 N 
ATOM     48  C   UNL A   1      43.712  28.316  30.680  1.00  0.00     0.074 A 
ATOM     49  C   UNL A   1      43.807  26.936  30.256  1.00  0.00     0.031 C 
ATOM     50  C   UNL A   1      37.813  30.018  28.806  1.00  0.00     0.029 A 
ATOM     51  C   UNL A   1      38.779  30.818  29.553  1.00  0.00     0.049 A 
ATOM     52  H   UNL A   1      40.690  30.252  30.161  1.00  0.00     0.167 HD
ATOM     53  C   UNL A   1      44.698  28.983  31.328  1.00  0.00     0.031 A 
ATOM     54  C   UNL A   1      38.574  32.079  29.981  1.00  0.00     0.031 A 
ATOM     55  C   UNL A   1      44.601  30.353  31.760  1.00  0.00     0.049 A 
ATOM     56  C   UNL A   1      39.683  32.800  30.697  1.00  0.00     0.074 A 
ATOM     57  C   UNL A   1      45.560  31.128  32.390  1.00  0.00     0.029 A 
ATOM     58  N   UNL A   1      43.478  31.154  31.612  1.00  0.00    -0.354 N 
ATOM     59  N   UNL A   1      40.883  32.367  31.008  1.00  0.00    -0.248 NA
ATOM     60  C   UNL A   1      39.419  34.187  31.099  1.00  0.00     0.031 C 
ATOM     61  C   UNL A   1      44.999  32.378  32.671  1.00  0.00     0.029 A 
ATOM     62  C   UNL A   1      43.713  32.406  32.156  1.00  0.00     0.049 A 
ATOM     63  H   UNL A   1      42.638  30.873  31.183  1.00  0.00     0.167 HD
ATOM     64  C   UNL A   1      41.522  33.437  31.624  1.00  0.00     0.074 A 
ATOM     65  C   UNL A   1      40.588  34.544  31.612  1.00  0.00     0.031 C 
ATOM     66  C   UNL A   1      42.769  33.497  32.156  1.00  0.00     0.031 A 
BRANCH  53  67
ATOM     67  C   UNL A   1      45.979  28.235  31.601  1.00  0.00    -0.014 A 
ATOM     68  C   UNL A   1      46.162  27.530  32.807  1.00  0.00     0.010 A 
ATOM     69  C   UNL A   1      46.995  28.194  30.629  1.00  0.00     0.010 A 
ATOM     70  C   UNL A   1      47.350  26.835  33.050  1.00  0.00     0.020 A 
ATOM     71  C   UNL A   1      48.172  27.473  30.855  1.00  0.00     0.020 A 
ATOM     72  C   UNL A   1      48.347  26.811  32.072  1.00  0.00     0.054 A 
BRANCH  72  73
ATOM     73  S   UNL A   1      49.865  25.874  32.405  1.00  0.00     0.124 S 
ATOM     74  O   UNL A   1      50.881  26.922  32.358  1.00  0.00    -0.237 OA
ATOM     75  O   UNL A   1      49.607  25.310  33.727  1.00  0.00    -0.237 OA
ATOM     76  O   UNL A   1      49.920  24.903  31.315  1.00  0.00    -0.744 OA
ENDBRANCH  72  73
ENDBRANCH  53  67
BRANCH  54  77
ATOM     77  C   UNL A   1      37.267  32.748  29.726  1.00  0.00    -0.014 A 
ATOM     78  C   UNL A   1      37.009  33.393  28.503  1.00  0.00     0.010 A 
ATOM     79  C   UNL A   1      36.266  32.740  30.716  1.00  0.00     0.010 A 
ATOM     80  C   UNL A   1      35.786  34.035  28.284  1.00  0.00     0.020 A 
ATOM     81  C   UNL A   1      35.031  33.351  30.487  1.00  0.00     0.020 A 
ATOM     82  C   UNL A   1      34.804  34.008  29.277  1.00  0.00     0.054 A 
BRANCH  82  83
ATOM     83  S   UNL A   1      33.207  34.805  28.954  1.00  0.00     0.124 S 
ATOM     84  O   UNL A   1      33.615  36.105  28.429  1.00  0.00    -0.237 OA
ATOM     85  O   UNL A   1      32.591  33.897  27.988  1.00  0.00    -0.237 OA
ATOM     86  O   UNL A   1      32.566  34.832  30.267  1.00  0.00    -0.744 OA
ENDBRANCH  82  83
ENDBRANCH  54  77
BRANCH  66  87
ATOM     87  C   UNL A   1      43.202  34.816  32.745  1.00  0.00    -0.014 A 
ATOM     88  C   UNL A   1      43.004  35.110  34.106  1.00  0.00     0.010 A 
ATOM     89  C   UNL A   1      43.824  35.774  31.923  1.00  0.00     0.010 A 
ATOM     90  C   UNL A   1      43.362  36.359  34.620  1.00  0.00     0.020 A 
ATOM     91  C   UNL A   1      44.217  37.011  32.441  1.00  0.00     0.020 A 
ATOM     92  C   UNL A   1      43.960  37.306  33.781  1.00  0.00     0.054 A 
BRANCH  92  93
ATOM     93  S   UNL A   1      44.411  38.921  34.469  1.00  0.00     0.124 S 
ATOM     94  O   UNL A   1      45.817  39.030  34.091  1.00  0.00    -0.237 OA
ATOM     95  O   UNL A   1      43.502  39.831  33.777  1.00  0.00    -0.237 OA
ATOM     96  O   UNL A   1      44.162  38.770  35.901  1.00  0.00    -0.744 OA
ENDBRANCH  92  93
ENDBRANCH  66  87
ENDBRANCH  40  41
ENDBRANCH  32  35
ENDBRANCH  30  31
ENDBRANCH  29  30
ENDBRANCH   1  29
TORSDOF 17
ENDMDL
MODEL 2
REMARK VINA RESULT:     -11.4      0.722      7.997
REMARK SMILES C[C@@H](NC(=O)[C@H]1CC=CC[C@@H]1C(=O)NCCCNC(=O)c1ccc(-c2c3nc(c(-c4ccc(S(=O)(=O)[O-])cc4)c4ccc([nH]4)c(-c4ccc(S(=O)(=O)[O-])cc4)c4nc(c(-c5ccc(S(=O)(=O)[O-])cc5)c5ccc2[nH]5)C=C4)C=C3)cc1)c1ccc(-n2ccnc2)cc1
REMARK SMILES IDX 15 1 14 2 12 3 13 4 11 6 6 7 7 8 8 9 10 10 9 11 4 12 3 13
REMARK SMILES IDX 5 15 2 16 1 17 81 18 82 19 91 20 83 21 90 22 84 23 85 24
REMARK SMILES IDX 86 25 89 26 87 27 88 28 16 29 17 30 18 31 19 32 20 34 21 35
REMARK SMILES IDX 22 36 80 37 23 38 79 39 24 40 25 41 26 42 73 43 27 44 78 45
REMARK SMILES IDX 72 46 74 47 28 48 77 49 71 50 70 51 29 53 59 54 40 55 58 56
REMARK SMILES IDX 41 57 44 58 57 59 75 60 42 61 43 62 56 64 76 65 45 66 30 67
REMARK SMILES IDX 31 68 39 69 32 70 38 71 33 72 34 73 35 74 36 75 37 76 60 77
REMARK SMILES IDX 61 78 69 79 62 80 68 81 63 82 64 83 65 84 66 85 67 86 46 87
REMARK SMILES IDX 47 88 55 89 48 90 54 91 49 92 50 93 51 94 52 95 53 96
REMARK H PARENT 14 5 3 14 18 33 74 52 44 63
REMARK Flexibility Score: inf
ROOT
ATOM      1  C   UNL A   1      34.592  24.488  25.343  1.00  0.00     0.117 C 
ENDROOT
BRANCH   1   2
ATOM      2  N   UNL A   1      33.436  24.388  26.232  1.00  0.00    -0.356 N 
ATOM      3  C   UNL A   1      32.362  25.175  26.500  1.00  0.00     0.224 C 
ATOM      4  O   UNL A   1      31.526  24.716  27.280  1.00  0.00    -0.275 OA
ATOM      5  H   UNL A   1      33.436  23.557  26.759  1.00  0.00     0.163 HD
BRANCH   3   6
ATOM      6  C   UNL A   1      32.143  26.468  25.756  1.00  0.00     0.095 C 
ATOM      7  C   UNL A   1      33.351  27.302  25.446  1.00  0.00     0.095 C 
ATOM      8  C   UNL A   1      33.847  28.035  26.719  1.00  0.00     0.041 C 
ATOM      9  C   UNL A   1      32.777  28.438  27.697  1.00  0.00    -0.030 C 
ATOM     10  C   UNL A   1      31.027  27.341  26.349  1.00  0.00     0.041 C 
ATOM     11  C   UNL A   1      31.484  28.145  27.519  1.00  0.00    -0.030 C 
BRANCH   7  12
ATOM     12  C   UNL A   1      33.136  28.153  24.173  1.00  0.00     0.224 C 
ATOM     13  N   UNL A   1      32.943  27.637  22.908  1.00  0.00    -0.349 N 
ATOM     14  H   UNL A   1      33.698  27.869  22.321  1.00  0.00     0.164 HD
ATOM     15  O   UNL A   1      33.420  29.358  24.202  1.00  0.00    -0.275 OA
BRANCH  13  16
ATOM     16  C   UNL A   1      31.912  26.815  22.149  1.00  0.00     0.109 C 
ATOM     17  C   UNL A   1      30.552  27.527  22.200  1.00  0.00     0.036 C 
BRANCH  16  18
ATOM     18  C   UNL A   1      31.847  25.289  22.323  1.00  0.00    -0.026 A 
ATOM     19  C   UNL A   1      30.862  24.648  23.104  1.00  0.00     0.008 A 
ATOM     20  C   UNL A   1      32.858  24.470  21.785  1.00  0.00     0.008 A 
ATOM     21  C   UNL A   1      30.996  23.307  23.510  1.00  0.00     0.027 A 
ATOM     22  C   UNL A   1      33.012  23.134  22.212  1.00  0.00     0.027 A 
ATOM     23  C   UNL A   1      32.127  22.575  23.139  1.00  0.00     0.046 A 
BRANCH  23  24
ATOM     24  N   UNL A   1      32.433  21.354  23.804  1.00  0.00    -0.306 N 
ATOM     25  C   UNL A   1      32.711  21.185  25.146  1.00  0.00     0.113 A 
ATOM     26  C   UNL A   1      32.401  20.081  23.276  1.00  0.00     0.204 A 
ATOM     27  C   UNL A   1      32.728  19.826  25.363  1.00  0.00     0.131 A 
ATOM     28  N   UNL A   1      32.580  19.148  24.185  1.00  0.00    -0.245 NA
ENDBRANCH  23  24
ENDBRANCH  16  18
ENDBRANCH  13  16
ENDBRANCH   7  12
ENDBRANCH   3   6
ENDBRANCH   1   2
BRANCH   1  29
ATOM     29  C   UNL A   1      35.797  23.787  25.956  1.00  0.00     0.042 C 
BRANCH  29  30
ATOM     30  C   UNL A   1      37.034  23.824  25.064  1.00  0.00     0.118 C 
BRANCH  30  31
ATOM     31  N   UNL A   1      38.010  22.790  25.359  1.00  0.00    -0.352 N 
ATOM     32  C   UNL A   1      39.169  22.918  26.101  1.00  0.00     0.251 C 
ATOM     33  H   UNL A   1      37.826  21.898  24.988  1.00  0.00     0.163 HD
ATOM     34  O   UNL A   1      39.950  21.988  26.184  1.00  0.00    -0.269 OA
BRANCH  32  35
ATOM     35  C   UNL A   1      39.466  24.222  26.746  1.00  0.00     0.039 A 
ATOM     36  C   UNL A   1      39.007  24.440  28.045  1.00  0.00     0.014 A 
ATOM     37  C   UNL A   1      40.241  25.193  26.103  1.00  0.00     0.014 A 
ATOM     38  C   UNL A   1      39.378  25.605  28.720  1.00  0.00     0.010 A 
ATOM     39  C   UNL A   1      40.678  26.314  26.808  1.00  0.00     0.010 A 
ATOM     40  C   UNL A   1      40.251  26.535  28.126  1.00  0.00    -0.014 A 
BRANCH  40  41
ATOM     41  C   UNL A   1      40.727  27.717  28.897  1.00  0.00     0.031 A 
ATOM     42  C   UNL A   1      39.851  28.928  29.079  1.00  0.00     0.074 A 
ATOM     43  C   UNL A   1      41.966  27.703  29.432  1.00  0.00     0.049 A 
ATOM     44  N   UNL A   1      40.080  30.011  29.779  1.00  0.00    -0.248 NA
ATOM     45  C   UNL A   1      38.562  28.937  28.369  1.00  0.00     0.031 C 
ATOM     46  C   UNL A   1      42.944  26.623  29.274  1.00  0.00     0.029 A 
ATOM     47  N   UNL A   1      42.611  28.617  30.228  1.00  0.00    -0.354 N 
ATOM     48  C   UNL A   1      38.965  30.823  29.602  1.00  0.00     0.074 A 
ATOM     49  C   UNL A   1      38.093  30.139  28.672  1.00  0.00     0.031 C 
ATOM     50  C   UNL A   1      44.043  26.915  29.988  1.00  0.00     0.029 A 
ATOM     51  C   UNL A   1      43.866  28.215  30.626  1.00  0.00     0.049 A 
ATOM     52  H   UNL A   1      42.214  29.479  30.489  1.00  0.00     0.167 HD
ATOM     53  C   UNL A   1      38.676  32.014  30.180  1.00  0.00     0.031 A 
ATOM     54  C   UNL A   1      44.771  28.818  31.421  1.00  0.00     0.031 A 
ATOM     55  C   UNL A   1      39.548  32.701  31.099  1.00  0.00     0.049 A 
ATOM     56  C   UNL A   1      44.429  30.140  32.053  1.00  0.00     0.074 A 
ATOM     57  C   UNL A   1      39.328  33.893  31.768  1.00  0.00     0.029 A 
ATOM     58  N   UNL A   1      40.807  32.260  31.476  1.00  0.00    -0.354 N 
ATOM     59  N   UNL A   1      43.333  30.852  31.934  1.00  0.00    -0.248 NA
ATOM     60  C   UNL A   1      45.436  30.726  32.946  1.00  0.00     0.031 C 
ATOM     61  C   UNL A   1      40.475  34.201  32.505  1.00  0.00     0.029 A 
ATOM     62  C   UNL A   1      41.385  33.167  32.351  1.00  0.00     0.049 A 
ATOM     63  H   UNL A   1      41.230  31.427  31.168  1.00  0.00     0.167 HD
ATOM     64  C   UNL A   1      43.512  31.961  32.753  1.00  0.00     0.074 A 
ATOM     65  C   UNL A   1      44.807  31.808  33.385  1.00  0.00     0.031 C 
ATOM     66  C   UNL A   1      42.683  33.014  32.961  1.00  0.00     0.031 A 
BRANCH  53  67
ATOM     67  C   UNL A   1      37.350  32.648  29.841  1.00  0.00    -0.014 A 
ATOM     68  C   UNL A   1      36.216  32.427  30.647  1.00  0.00     0.010 A 
ATOM     69  C   UNL A   1      37.241  33.509  28.734  1.00  0.00     0.010 A 
ATOM     70  C   UNL A   1      34.993  33.023  30.328  1.00  0.00     0.020 A 
ATOM     71  C   UNL A   1      36.027  34.133  28.431  1.00  0.00     0.020 A 
ATOM     72  C   UNL A   1      34.906  33.872  29.223  1.00  0.00     0.054 A 
BRANCH  72  73
ATOM     73  S   UNL A   1      33.311  34.654  28.854  1.00  0.00     0.124 S 
ATOM     74  O   UNL A   1      32.742  33.730  27.876  1.00  0.00    -0.237 OA
ATOM     75  O   UNL A   1      32.655  34.671  30.158  1.00  0.00    -0.237 OA
ATOM     76  O   UNL A   1      33.681  35.966  28.328  1.00  0.00    -0.744 OA
ENDBRANCH  72  73
ENDBRANCH  53  67
BRANCH  54  77
ATOM     77  C   UNL A   1      46.087  28.166  31.678  1.00  0.00    -0.014 A 
ATOM     78  C   UNL A   1      46.252  27.263  32.744  1.00  0.00     0.010 A 
ATOM     79  C   UNL A   1      47.188  28.448  30.847  1.00  0.00     0.010 A 
ATOM     80  C   UNL A   1      47.497  26.674  32.987  1.00  0.00     0.020 A 
ATOM     81  C   UNL A   1      48.424  27.835  31.067  1.00  0.00     0.020 A 
ATOM     82  C   UNL A   1      48.574  26.961  32.145  1.00  0.00     0.054 A 
BRANCH  82  83
ATOM     83  S   UNL A   1      50.167  26.148  32.449  1.00  0.00     0.124 S 
ATOM     84  O   UNL A   1      49.784  24.741  32.510  1.00  0.00    -0.237 OA
ATOM     85  O   UNL A   1      50.950  26.542  31.280  1.00  0.00    -0.237 OA
ATOM     86  O   UNL A   1      50.614  26.732  33.713  1.00  0.00    -0.744 OA
ENDBRANCH  82  83
ENDBRANCH  54  77
BRANCH  66  87
ATOM     87  C   UNL A   1      43.143  34.071  33.934  1.00  0.00    -0.014 A 
ATOM     88  C   UNL A   1      42.821  33.997  35.301  1.00  0.00     0.010 A 
ATOM     89  C   UNL A   1      43.917  35.151  33.472  1.00  0.00     0.010 A 
ATOM     90  C   UNL A   1      43.211  35.015  36.176  1.00  0.00     0.020 A 
ATOM     91  C   UNL A   1      44.340  36.153  34.350  1.00  0.00     0.020 A 
ATOM     92  C   UNL A   1      43.962  36.091  35.692  1.00  0.00     0.054 A 
BRANCH  92  93
ATOM     93  S   UNL A   1      44.452  37.402  36.846  1.00  0.00     0.124 S 
ATOM     94  O   UNL A   1      44.142  38.608  36.083  1.00  0.00    -0.237 OA
ATOM     95  O   UNL A   1      43.594  37.151  38.001  1.00  0.00    -0.237 OA
ATOM     96  O   UNL A   1      45.875  37.154  37.068  1.00  0.00    -0.744 OA
ENDBRANCH  92  93
ENDBRANCH  66  87
ENDBRANCH  40  41
ENDBRANCH  32  35
ENDBRANCH  30  31
ENDBRANCH  29  30
ENDBRANCH   1  29
TORSDOF 17
ENDMDL
MODEL 3
REMARK VINA RESULT:     -11.4      2.516      8.987
REMARK SMILES C[C@@H](NC(=O)[C@H]1CC=CC[C@@H]1C(=O)NCCCNC(=O)c1ccc(-c2c3nc(c(-c4ccc(S(=O)(=O)[O-])cc4)c4ccc([nH]4)c(-c4ccc(S(=O)(=O)[O-])cc4)c4nc(c(-c5ccc(S(=O)(=O)[O-])cc5)c5ccc2[nH]5)C=C4)C=C3)cc1)c1ccc(-n2ccnc2)cc1
REMARK SMILES IDX 15 1 14 2 12 3 13 4 11 6 6 7 7 8 8 9 10 10 9 11 4 12 3 13
REMARK SMILES IDX 5 15 2 16 1 17 81 18 82 19 91 20 83 21 90 22 84 23 85 24
REMARK SMILES IDX 86 25 89 26 87 27 88 28 16 29 17 30 18 31 19 32 20 34 21 35
REMARK SMILES IDX 22 36 80 37 23 38 79 39 24 40 25 41 26 42 73 43 27 44 78 45
REMARK SMILES IDX 72 46 74 47 28 48 77 49 71 50 70 51 29 53 59 54 40 55 58 56
REMARK SMILES IDX 41 57 44 58 57 59 75 60 42 61 43 62 56 64 76 65 45 66 30 67
REMARK SMILES IDX 31 68 39 69 32 70 38 71 33 72 34 73 35 74 36 75 37 76 60 77
REMARK SMILES IDX 61 78 69 79 62 80 68 81 63 82 64 83 65 84 66 85 67 86 46 87
REMARK SMILES IDX 47 88 55 89 48 90 54 91 49 92 50 93 51 94 52 95 53 96
REMARK H PARENT 14 5 3 14 18 33 74 52 44 63
REMARK Flexibility Score: inf
ROOT
ATOM      1  C   UNL A   1      32.364  29.125  24.981  1.00  0.00     0.117 C 
ENDROOT
BRANCH   1   2
ATOM      2  N   UNL A   1      33.152  28.810  23.791  1.00  0.00    -0.356 N 
ATOM      3  C   UNL A   1      33.121  27.830  22.852  1.00  0.00     0.224 C 
ATOM      4  O   UNL A   1      33.923  27.933  21.922  1.00  0.00    -0.275 OA
ATOM      5  H   UNL A   1      33.875  29.460  23.633  1.00  0.00     0.163 HD
BRANCH   3   6
ATOM      6  C   UNL A   1      32.054  26.765  22.877  1.00  0.00     0.095 C 
ATOM      7  C   UNL A   1      32.147  25.717  23.946  1.00  0.00     0.095 C 
ATOM      8  C   UNL A   1      33.261  24.694  23.609  1.00  0.00     0.041 C 
ATOM      9  C   UNL A   1      33.472  24.420  22.145  1.00  0.00    -0.030 C 
ATOM     10  C   UNL A   1      31.797  26.114  21.510  1.00  0.00     0.041 C 
ATOM     11  C   UNL A   1      32.787  25.049  21.184  1.00  0.00    -0.030 C 
BRANCH   7  12
ATOM     12  C   UNL A   1      30.751  25.157  24.308  1.00  0.00     0.224 C 
ATOM     13  N   UNL A   1      30.486  23.832  24.587  1.00  0.00    -0.349 N 
ATOM     14  H   UNL A   1      29.902  23.444  23.896  1.00  0.00     0.164 HD
ATOM     15  O   UNL A   1      29.749  25.848  24.076  1.00  0.00    -0.275 OA
BRANCH  13  16
ATOM     16  C   UNL A   1      30.827  22.791  25.642  1.00  0.00     0.109 C 
ATOM     17  C   UNL A   1      29.960  23.021  26.888  1.00  0.00     0.036 C 
BRANCH  16  18
ATOM     18  C   UNL A   1      32.292  22.425  25.935  1.00  0.00    -0.026 A 
ATOM     19  C   UNL A   1      33.043  23.039  26.959  1.00  0.00     0.008 A 
ATOM     20  C   UNL A   1      32.979  21.524  25.100  1.00  0.00     0.008 A 
ATOM     21  C   UNL A   1      34.446  22.933  27.013  1.00  0.00     0.027 A 
ATOM     22  C   UNL A   1      34.387  21.436  25.132  1.00  0.00     0.027 A 
ATOM     23  C   UNL A   1      35.128  22.203  26.036  1.00  0.00     0.046 A 
BRANCH  23  24
ATOM     24  N   UNL A   1      36.536  22.360  25.886  1.00  0.00    -0.306 N 
ATOM     25  C   UNL A   1      37.291  23.462  26.233  1.00  0.00     0.113 A 
ATOM     26  C   UNL A   1      37.445  21.410  25.474  1.00  0.00     0.204 A 
ATOM     27  C   UNL A   1      38.607  23.076  26.108  1.00  0.00     0.131 A 
ATOM     28  N   UNL A   1      38.692  21.813  25.592  1.00  0.00    -0.245 NA
ENDBRANCH  23  24
ENDBRANCH  16  18
ENDBRANCH  13  16
ENDBRANCH   7  12
ENDBRANCH   3   6
ENDBRANCH   1   2
BRANCH   1  29
ATOM     29  C   UNL A   1      32.681  28.146  26.104  1.00  0.00     0.042 C 
BRANCH  29  30
ATOM     30  C   UNL A   1      33.846  28.594  26.982  1.00  0.00     0.118 C 
BRANCH  30  31
ATOM     31  N   UNL A   1      33.695  29.930  27.530  1.00  0.00    -0.352 N 
ATOM     32  C   UNL A   1      34.630  30.654  28.245  1.00  0.00     0.251 C 
ATOM     33  H   UNL A   1      32.828  30.370  27.376  1.00  0.00     0.163 HD
ATOM     34  O   UNL A   1      34.331  31.728  28.733  1.00  0.00    -0.269 OA
BRANCH  32  35
ATOM     35  C   UNL A   1      35.981  30.074  28.449  1.00  0.00     0.039 A 
ATOM     36  C   UNL A   1      36.910  30.174  27.414  1.00  0.00     0.014 A 
ATOM     37  C   UNL A   1      36.348  29.493  29.668  1.00  0.00     0.014 A 
ATOM     38  C   UNL A   1      38.225  29.749  27.624  1.00  0.00     0.010 A 
ATOM     39  C   UNL A   1      37.679  29.148  29.902  1.00  0.00     0.010 A 
ATOM     40  C   UNL A   1      38.634  29.271  28.882  1.00  0.00    -0.014 A 
BRANCH  40  41
ATOM     41  C   UNL A   1      40.062  28.925  29.125  1.00  0.00     0.031 A 
ATOM     42  C   UNL A   1      41.001  29.913  29.766  1.00  0.00     0.074 A 
ATOM     43  C   UNL A   1      40.521  27.711  28.758  1.00  0.00     0.049 A 
ATOM     44  N   UNL A   1      42.252  29.750  30.116  1.00  0.00    -0.248 NA
ATOM     45  C   UNL A   1      40.477  31.262  30.030  1.00  0.00     0.031 C 
ATOM     46  C   UNL A   1      39.737  26.683  28.066  1.00  0.00     0.029 A 
ATOM     47  N   UNL A   1      41.752  27.127  28.926  1.00  0.00    -0.354 N 
ATOM     48  C   UNL A   1      42.662  30.969  30.647  1.00  0.00     0.074 A 
ATOM     49  C   UNL A   1      41.548  31.881  30.508  1.00  0.00     0.031 C 
ATOM     50  C   UNL A   1      40.490  25.583  27.911  1.00  0.00     0.029 A 
ATOM     51  C   UNL A   1      41.819  25.833  28.460  1.00  0.00     0.049 A 
ATOM     52  H   UNL A   1      42.515  27.589  29.341  1.00  0.00     0.167 HD
ATOM     53  C   UNL A   1      43.844  31.294  31.224  1.00  0.00     0.031 A 
ATOM     54  C   UNL A   1      42.831  24.943  28.476  1.00  0.00     0.031 A 
ATOM     55  C   UNL A   1      44.958  30.389  31.354  1.00  0.00     0.049 A 
ATOM     56  C   UNL A   1      44.134  25.326  29.123  1.00  0.00     0.074 A 
ATOM     57  C   UNL A   1      46.183  30.613  31.957  1.00  0.00     0.029 A 
ATOM     58  N   UNL A   1      44.985  29.090  30.870  1.00  0.00    -0.354 N 
ATOM     59  N   UNL A   1      44.472  26.459  29.691  1.00  0.00    -0.248 NA
ATOM     60  C   UNL A   1      45.184  24.299  29.152  1.00  0.00     0.031 C 
ATOM     61  C   UNL A   1      46.971  29.470  31.790  1.00  0.00     0.029 A 
ATOM     62  C   UNL A   1      46.212  28.508  31.142  1.00  0.00     0.049 A 
ATOM     63  H   UNL A   1      44.241  28.647  30.401  1.00  0.00     0.167 HD
ATOM     64  C   UNL A   1      45.767  26.275  30.163  1.00  0.00     0.074 A 
ATOM     65  C   UNL A   1      46.137  24.912  29.841  1.00  0.00     0.031 C 
ATOM     66  C   UNL A   1      46.578  27.155  30.801  1.00  0.00     0.031 A 
BRANCH  53  67
ATOM     67  C   UNL A   1      43.989  32.692  31.770  1.00  0.00    -0.014 A 
ATOM     68  C   UNL A   1      43.597  32.998  33.088  1.00  0.00     0.010 A 
ATOM     69  C   UNL A   1      44.564  33.704  30.980  1.00  0.00     0.010 A 
ATOM     70  C   UNL A   1      43.740  34.294  33.589  1.00  0.00     0.020 A 
ATOM     71  C   UNL A   1      44.739  34.995  31.489  1.00  0.00     0.020 A 
ATOM     72  C   UNL A   1      44.310  35.285  32.786  1.00  0.00     0.054 A 
BRANCH  72  73
ATOM     73  S   UNL A   1      44.510  36.951  33.476  1.00  0.00     0.124 S 
ATOM     74  O   UNL A   1      43.123  37.373  33.650  1.00  0.00    -0.237 OA
ATOM     75  O   UNL A   1      45.249  36.698  34.709  1.00  0.00    -0.237 OA
ATOM     76  O   UNL A   1      45.254  37.668  32.442  1.00  0.00    -0.744 OA
ENDBRANCH  72  73
ENDBRANCH  53  67
BRANCH  54  77
ATOM     77  C   UNL A   1      42.644  23.593  27.873  1.00  0.00    -0.014 A 
ATOM     78  C   UNL A   1      43.214  23.270  26.628  1.00  0.00     0.010 A 
ATOM     79  C   UNL A   1      41.889  22.616  28.550  1.00  0.00     0.010 A 
ATOM     80  C   UNL A   1      43.014  22.007  26.063  1.00  0.00     0.020 A 
ATOM     81  C   UNL A   1      41.716  21.343  28.004  1.00  0.00     0.020 A 
ATOM     82  C   UNL A   1      42.268  21.050  26.755  1.00  0.00     0.054 A 
BRANCH  82  83
ATOM     83  S   UNL A   1      42.061  19.402  26.026  1.00  0.00     0.124 S 
ATOM     84  O   UNL A   1      42.614  18.538  27.065  1.00  0.00    -0.237 OA
ATOM     85  O   UNL A   1      40.614  19.320  25.838  1.00  0.00    -0.237 OA
ATOM     86  O   UNL A   1      42.839  19.474  24.791  1.00  0.00    -0.744 OA
ENDBRANCH  82  83
ENDBRANCH  54  77
BRANCH  66  87
ATOM     87  C   UNL A   1      47.940  26.657  31.216  1.00  0.00    -0.014 A 
ATOM     88  C   UNL A   1      49.059  26.798  30.376  1.00  0.00     0.010 A 
ATOM     89  C   UNL A   1      48.103  26.045  32.473  1.00  0.00     0.010 A 
ATOM     90  C   UNL A   1      50.300  26.280  30.757  1.00  0.00     0.020 A 
ATOM     91  C   UNL A   1      49.350  25.559  32.873  1.00  0.00     0.020 A 
ATOM     92  C   UNL A   1      50.436  25.656  32.001  1.00  0.00     0.054 A 
BRANCH  92  93
ATOM     93  S   UNL A   1      52.055  24.989  32.471  1.00  0.00     0.124 S 
ATOM     94  O   UNL A   1      52.238  25.550  33.806  1.00  0.00    -0.237 OA
ATOM     95  O   UNL A   1      51.834  23.545  32.421  1.00  0.00    -0.237 OA
ATOM     96  O   UNL A   1      52.955  25.511  31.446  1.00  0.00    -0.744 OA
ENDBRANCH  92  93
ENDBRANCH  66  87
ENDBRANCH  40  41
ENDBRANCH  32  35
ENDBRANCH  30  31
ENDBRANCH  29  30
ENDBRANCH   1  29
TORSDOF 17
ENDMDL
