MODEL 1
REMARK VINA RESULT:     -13.7      0.000      0.000
REMARK SMILES CC(C)c1cc(C#N)cc2nc(-c3ccc(C(=O)NCCCNC(=O)c4ccc(-c5c6nc(c(-c7ccc(S(=O)(=O)[O-])cc7)c7ccc([nH]7)c(-c7ccc(S(=O)(=O)[O-])cc7)c7nc(c(-c8ccc(S(=O)(=O)[O-])cc8)c8ccc5[nH]8)C=C7)C=C6)cc4)cc3)oc12
REMARK SMILES IDX 21 1 20 2 19 3 17 4 18 5 16 7 13 8 14 9 87 10 15 11 86 12
REMARK SMILES IDX 12 13 4 14 5 15 89 16 6 17 10 18 88 19 9 20 11 21 2 22 1 23
REMARK SMILES IDX 3 24 7 25 8 26 22 27 23 28 24 29 25 31 26 32 27 33 85 34
REMARK SMILES IDX 28 35 84 36 29 37 30 38 31 39 78 40 32 41 83 42 77 43 79 44
REMARK SMILES IDX 33 45 82 46 76 47 75 48 34 50 64 51 45 52 63 53 46 54 49 55
REMARK SMILES IDX 62 56 80 57 47 58 48 59 61 61 81 62 50 63 35 64 36 65 44 66
REMARK SMILES IDX 37 67 43 68 38 69 39 70 40 71 41 72 42 73 65 74 66 75 74 76
REMARK SMILES IDX 67 77 73 78 68 79 69 80 70 81 71 82 72 83 51 84 52 85 60 86
REMARK SMILES IDX 53 87 59 88 54 89 55 90 56 91 57 92 58 93
REMARK H PARENT 19 6 23 30 79 49 49 60
REMARK Flexibility Score: inf
ROOT
ATOM      1  C   UNL A   1      40.668  22.458  27.128  1.00  0.00     0.042 C 
ENDROOT
BRANCH   1   2
ATOM      2  C   UNL A   1      39.336  22.772  26.449  1.00  0.00     0.118 C 
BRANCH   2   3
ATOM      3  N   UNL A   1      38.559  21.619  26.002  1.00  0.00    -0.352 N 
ATOM      4  C   UNL A   1      37.341  21.474  25.368  1.00  0.00     0.251 C 
ATOM      5  O   UNL A   1      36.996  20.328  25.066  1.00  0.00    -0.269 OA
ATOM      6  H   UNL A   1      38.998  20.758  26.196  1.00  0.00     0.163 HD
BRANCH   4   7
ATOM      7  C   UNL A   1      36.396  22.596  25.077  1.00  0.00     0.039 A 
ATOM      8  C   UNL A   1      34.457  24.551  24.403  1.00  0.00     0.037 A 
ATOM      9  C   UNL A   1      35.106  23.836  23.396  1.00  0.00     0.014 A 
ATOM     10  C   UNL A   1      34.845  24.337  25.729  1.00  0.00     0.014 A 
ATOM     11  C   UNL A   1      36.064  22.861  23.733  1.00  0.00     0.014 A 
ATOM     12  C   UNL A   1      35.841  23.417  26.052  1.00  0.00     0.014 A 
BRANCH   8  13
ATOM     13  C   UNL A   1      33.436  25.559  24.166  1.00  0.00     0.227 A 
ATOM     14  C   UNL A   1      31.869  28.612  25.042  1.00  0.00     0.001 A 
ATOM     15  C   UNL A   1      30.898  29.210  24.192  1.00  0.00     0.027 A 
ATOM     16  C   UNL A   1      32.372  27.409  24.524  1.00  0.00     0.158 A 
ATOM     17  C   UNL A   1      30.545  28.695  22.929  1.00  0.00     0.055 A 
ATOM     18  C   UNL A   1      32.046  26.877  23.283  1.00  0.00     0.111 A 
ATOM     19  O   UNL A   1      33.260  26.537  25.108  1.00  0.00    -0.436 OA
ATOM     20  C   UNL A   1      31.137  27.530  22.448  1.00  0.00     0.052 A 
ATOM     21  N   UNL A   1      32.721  25.712  23.071  1.00  0.00    -0.209 NA
BRANCH  14  22
ATOM     22  C   UNL A   1      32.225  29.239  26.384  1.00  0.00     0.017 C 
ATOM     23  C   UNL A   1      31.816  30.711  26.528  1.00  0.00     0.012 C 
ATOM     24  C   UNL A   1      31.619  28.474  27.574  1.00  0.00     0.012 C 
ENDBRANCH  14  22
BRANCH  17  25
ATOM     25  C   UNL A   1      29.539  29.354  22.141  1.00  0.00     0.099 C 
ATOM     26  N   UNL A   1      28.754  29.869  21.468  1.00  0.00    -0.192 NA
ENDBRANCH  17  25
ENDBRANCH   8  13
ENDBRANCH   4   7
ENDBRANCH   2   3
ENDBRANCH   1   2
BRANCH   1  27
ATOM     27  C   UNL A   1      41.620  21.546  26.368  1.00  0.00     0.118 C 
BRANCH  27  28
ATOM     28  N   UNL A   1      42.445  22.212  25.381  1.00  0.00    -0.352 N 
ATOM     29  C   UNL A   1      43.093  23.411  25.270  1.00  0.00     0.251 C 
ATOM     30  H   UNL A   1      42.572  21.657  24.579  1.00  0.00     0.163 HD
ATOM     31  O   UNL A   1      43.913  23.459  24.345  1.00  0.00    -0.269 OA
BRANCH  29  32
ATOM     32  C   UNL A   1      42.863  24.651  26.070  1.00  0.00     0.039 A 
ATOM     33  C   UNL A   1      43.426  24.974  27.302  1.00  0.00     0.014 A 
ATOM     34  C   UNL A   1      41.891  25.531  25.539  1.00  0.00     0.014 A 
ATOM     35  C   UNL A   1      42.926  26.075  28.027  1.00  0.00     0.010 A 
ATOM     36  C   UNL A   1      41.401  26.626  26.252  1.00  0.00     0.010 A 
ATOM     37  C   UNL A   1      41.867  26.871  27.533  1.00  0.00    -0.014 A 
BRANCH  37  38
ATOM     38  C   UNL A   1      41.445  28.090  28.251  1.00  0.00     0.031 A 
ATOM     39  C   UNL A   1      42.451  29.171  28.104  1.00  0.00     0.074 A 
ATOM     40  C   UNL A   1      40.284  28.320  28.920  1.00  0.00     0.049 A 
ATOM     41  N   UNL A   1      43.338  29.486  28.988  1.00  0.00    -0.248 NA
ATOM     42  C   UNL A   1      42.664  29.808  26.795  1.00  0.00     0.031 C 
ATOM     43  C   UNL A   1      39.114  27.444  29.040  1.00  0.00     0.029 A 
ATOM     44  N   UNL A   1      39.877  29.429  29.630  1.00  0.00    -0.354 N 
ATOM     45  C   UNL A   1      44.037  30.556  28.456  1.00  0.00     0.074 A 
ATOM     46  C   UNL A   1      43.732  30.571  27.048  1.00  0.00     0.031 C 
ATOM     47  C   UNL A   1      38.072  28.123  29.586  1.00  0.00     0.029 A 
ATOM     48  C   UNL A   1      38.520  29.449  29.986  1.00  0.00     0.049 A 
ATOM     49  H   UNL A   1      40.495  30.155  29.872  1.00  0.00     0.167 HD
ATOM     50  C   UNL A   1      44.560  31.501  29.285  1.00  0.00     0.031 A 
ATOM     51  C   UNL A   1      37.817  30.398  30.678  1.00  0.00     0.031 A 
ATOM     52  C   UNL A   1      44.586  31.032  30.649  1.00  0.00     0.049 A 
ATOM     53  C   UNL A   1      38.804  31.150  31.475  1.00  0.00     0.074 A 
ATOM     54  C   UNL A   1      45.175  29.982  31.322  1.00  0.00     0.029 A 
ATOM     55  N   UNL A   1      43.552  31.474  31.436  1.00  0.00    -0.354 N 
ATOM     56  N   UNL A   1      39.437  30.644  32.492  1.00  0.00    -0.248 NA
ATOM     57  C   UNL A   1      39.406  32.324  30.867  1.00  0.00     0.031 C 
ATOM     58  C   UNL A   1      44.211  29.575  32.290  1.00  0.00     0.029 A 
ATOM     59  C   UNL A   1      43.129  30.457  32.242  1.00  0.00     0.049 A 
ATOM     60  H   UNL A   1      43.175  32.383  31.422  1.00  0.00     0.167 HD
ATOM     61  C   UNL A   1      40.731  31.110  32.342  1.00  0.00     0.074 A 
ATOM     62  C   UNL A   1      40.628  32.217  31.388  1.00  0.00     0.031 C 
ATOM     63  C   UNL A   1      41.787  30.366  32.779  1.00  0.00     0.031 A 
BRANCH  50  64
ATOM     64  C   UNL A   1      44.580  32.976  28.956  1.00  0.00    -0.014 A 
ATOM     65  C   UNL A   1      45.666  33.623  28.336  1.00  0.00     0.010 A 
ATOM     66  C   UNL A   1      43.365  33.693  29.023  1.00  0.00     0.010 A 
ATOM     67  C   UNL A   1      45.567  34.925  27.841  1.00  0.00     0.020 A 
ATOM     68  C   UNL A   1      43.243  34.983  28.493  1.00  0.00     0.020 A 
ATOM     69  C   UNL A   1      44.355  35.599  27.927  1.00  0.00     0.054 A 
BRANCH  69  70
ATOM     70  S   UNL A   1      44.269  37.289  27.292  1.00  0.00     0.124 S 
ATOM     71  O   UNL A   1      45.505  37.376  26.518  1.00  0.00    -0.237 OA
ATOM     72  O   UNL A   1      43.035  37.268  26.512  1.00  0.00    -0.237 OA
ATOM     73  O   UNL A   1      44.232  38.108  28.501  1.00  0.00    -0.744 OA
ENDBRANCH  69  70
ENDBRANCH  50  64
BRANCH  51  74
ATOM     74  C   UNL A   1      36.520  31.065  30.309  1.00  0.00    -0.014 A 
ATOM     75  C   UNL A   1      36.263  31.417  28.974  1.00  0.00     0.010 A 
ATOM     76  C   UNL A   1      35.709  31.671  31.305  1.00  0.00     0.010 A 
ATOM     77  C   UNL A   1      35.338  32.423  28.651  1.00  0.00     0.020 A 
ATOM     78  C   UNL A   1      34.777  32.682  30.987  1.00  0.00     0.020 A 
ATOM     79  C   UNL A   1      34.638  33.086  29.661  1.00  0.00     0.054 A 
BRANCH  79  80
ATOM     80  S   UNL A   1      33.649  34.547  29.208  1.00  0.00     0.124 S 
ATOM     81  O   UNL A   1      33.255  35.064  30.514  1.00  0.00    -0.237 OA
ATOM     82  O   UNL A   1      34.613  35.366  28.475  1.00  0.00    -0.237 OA
ATOM     83  O   UNL A   1      32.564  33.998  28.398  1.00  0.00    -0.744 OA
ENDBRANCH  79  80
ENDBRANCH  51  74
BRANCH  63  84
ATOM     84  C   UNL A   1      41.546  29.245  33.766  1.00  0.00    -0.014 A 
ATOM     85  C   UNL A   1      41.729  29.576  35.122  1.00  0.00     0.010 A 
ATOM     86  C   UNL A   1      41.343  27.893  33.426  1.00  0.00     0.010 A 
ATOM     87  C   UNL A   1      41.778  28.591  36.105  1.00  0.00     0.020 A 
ATOM     88  C   UNL A   1      41.356  26.897  34.420  1.00  0.00     0.020 A 
ATOM     89  C   UNL A   1      41.606  27.254  35.749  1.00  0.00     0.054 A 
BRANCH  89  90
ATOM     90  S   UNL A   1      41.750  26.014  37.062  1.00  0.00     0.124 S 
ATOM     91  O   UNL A   1      42.832  26.557  37.882  1.00  0.00    -0.237 OA
ATOM     92  O   UNL A   1      40.426  26.044  37.680  1.00  0.00    -0.237 OA
ATOM     93  O   UNL A   1      42.074  24.779  36.351  1.00  0.00    -0.744 OA
ENDBRANCH  89  90
ENDBRANCH  63  84
ENDBRANCH  37  38
ENDBRANCH  29  32
ENDBRANCH  27  28
ENDBRANCH   1  27
TORSDOF 16
ENDMDL
MODEL 2
REMARK VINA RESULT:     -13.0      1.847      2.595
REMARK SMILES CC(C)c1cc(C#N)cc2nc(-c3ccc(C(=O)NCCCNC(=O)c4ccc(-c5c6nc(c(-c7ccc(S(=O)(=O)[O-])cc7)c7ccc([nH]7)c(-c7ccc(S(=O)(=O)[O-])cc7)c7nc(c(-c8ccc(S(=O)(=O)[O-])cc8)c8ccc5[nH]8)C=C7)C=C6)cc4)cc3)oc12
REMARK SMILES IDX 21 1 20 2 19 3 17 4 18 5 16 7 13 8 14 9 87 10 15 11 86 12
REMARK SMILES IDX 12 13 4 14 5 15 89 16 6 17 10 18 88 19 9 20 11 21 2 22 1 23
REMARK SMILES IDX 3 24 7 25 8 26 22 27 23 28 24 29 25 31 26 32 27 33 85 34
REMARK SMILES IDX 28 35 84 36 29 37 30 38 31 39 78 40 32 41 83 42 77 43 79 44
REMARK SMILES IDX 33 45 82 46 76 47 75 48 34 50 64 51 45 52 63 53 46 54 49 55
REMARK SMILES IDX 62 56 80 57 47 58 48 59 61 61 81 62 50 63 35 64 36 65 44 66
REMARK SMILES IDX 37 67 43 68 38 69 39 70 40 71 41 72 42 73 65 74 66 75 74 76
REMARK SMILES IDX 67 77 73 78 68 79 69 80 70 81 71 82 72 83 51 84 52 85 60 86
REMARK SMILES IDX 53 87 59 88 54 89 55 90 56 91 57 92 58 93
REMARK H PARENT 19 6 23 30 79 49 49 60
REMARK Flexibility Score: inf
ROOT
ATOM      1  C   UNL A   1      36.345  21.654  24.417  1.00  0.00     0.042 C 
ENDROOT
BRANCH   1   2
ATOM      2  C   UNL A   1      35.770  20.692  25.456  1.00  0.00     0.118 C 
BRANCH   2   3
ATOM      3  N   UNL A   1      34.700  19.815  24.989  1.00  0.00    -0.352 N 
ATOM      4  C   UNL A   1      33.450  20.037  24.444  1.00  0.00     0.251 C 
ATOM      5  O   UNL A   1      32.808  19.045  24.087  1.00  0.00    -0.269 OA
ATOM      6  H   UNL A   1      34.915  18.858  25.085  1.00  0.00     0.163 HD
BRANCH   4   7
ATOM      7  C   UNL A   1      32.809  21.380  24.311  1.00  0.00     0.039 A 
ATOM      8  C   UNL A   1      31.750  24.010  24.246  1.00  0.00     0.037 A 
ATOM      9  C   UNL A   1      31.698  23.266  25.426  1.00  0.00     0.014 A 
ATOM     10  C   UNL A   1      32.255  23.400  23.094  1.00  0.00     0.014 A 
ATOM     11  C   UNL A   1      32.230  21.963  25.457  1.00  0.00     0.014 A 
ATOM     12  C   UNL A   1      32.720  22.086  23.116  1.00  0.00     0.014 A 
BRANCH   8  13
ATOM     13  C   UNL A   1      31.253  25.370  24.111  1.00  0.00     0.227 A 
ATOM     14  C   UNL A   1      31.364  28.788  25.034  1.00  0.00     0.001 A 
ATOM     15  C   UNL A   1      30.627  29.768  24.313  1.00  0.00     0.027 A 
ATOM     16  C   UNL A   1      31.190  27.494  24.519  1.00  0.00     0.158 A 
ATOM     17  C   UNL A   1      29.876  29.483  23.156  1.00  0.00     0.055 A 
ATOM     18  C   UNL A   1      30.459  27.181  23.379  1.00  0.00     0.111 A 
ATOM     19  O   UNL A   1      31.688  26.309  25.008  1.00  0.00    -0.436 OA
ATOM     20  C   UNL A   1      29.804  28.183  22.660  1.00  0.00     0.052 A 
ATOM     21  N   UNL A   1      30.506  25.842  23.136  1.00  0.00    -0.209 NA
BRANCH  14  22
ATOM     22  C   UNL A   1      32.180  29.170  26.263  1.00  0.00     0.017 C 
ATOM     23  C   UNL A   1      31.720  28.504  27.566  1.00  0.00     0.012 C 
ATOM     24  C   UNL A   1      33.680  28.870  26.095  1.00  0.00     0.012 C 
ENDBRANCH  14  22
BRANCH  17  25
ATOM     25  C   UNL A   1      29.147  30.532  22.498  1.00  0.00     0.099 C 
ATOM     26  N   UNL A   1      28.602  31.402  21.967  1.00  0.00    -0.192 NA
ENDBRANCH  17  25
ENDBRANCH   8  13
ENDBRANCH   4   7
ENDBRANCH   2   3
ENDBRANCH   1   2
BRANCH   1  27
ATOM     27  C   UNL A   1      37.483  22.553  24.881  1.00  0.00     0.118 C 
BRANCH  27  28
ATOM     28  N   UNL A   1      38.635  21.852  25.413  1.00  0.00    -0.352 N 
ATOM     29  C   UNL A   1      39.615  22.101  26.332  1.00  0.00     0.251 C 
ATOM     30  H   UNL A   1      38.739  20.964  25.003  1.00  0.00     0.163 HD
ATOM     31  O   UNL A   1      40.258  21.100  26.670  1.00  0.00    -0.269 OA
BRANCH  29  32
ATOM     32  C   UNL A   1      40.029  23.423  26.891  1.00  0.00     0.039 A 
ATOM     33  C   UNL A   1      41.110  23.681  27.729  1.00  0.00     0.014 A 
ATOM     34  C   UNL A   1      39.155  24.495  26.595  1.00  0.00     0.014 A 
ATOM     35  C   UNL A   1      41.224  24.942  28.349  1.00  0.00     0.010 A 
ATOM     36  C   UNL A   1      39.271  25.746  27.201  1.00  0.00     0.010 A 
ATOM     37  C   UNL A   1      40.269  25.963  28.136  1.00  0.00    -0.014 A 
BRANCH  37  38
ATOM     38  C   UNL A   1      40.475  27.314  28.697  1.00  0.00     0.031 A 
ATOM     39  C   UNL A   1      41.710  27.933  28.154  1.00  0.00     0.074 A 
ATOM     40  C   UNL A   1      39.669  28.013  29.538  1.00  0.00     0.049 A 
ATOM     41  N   UNL A   1      42.846  27.983  28.766  1.00  0.00    -0.248 NA
ATOM     42  C   UNL A   1      41.780  28.323  26.737  1.00  0.00     0.031 C 
ATOM     43  C   UNL A   1      38.347  27.641  30.051  1.00  0.00     0.029 A 
ATOM     44  N   UNL A   1      39.850  29.256  30.107  1.00  0.00    -0.354 N 
ATOM     45  C   UNL A   1      43.700  28.668  27.919  1.00  0.00     0.074 A 
ATOM     46  C   UNL A   1      43.068  28.663  26.624  1.00  0.00     0.031 C 
ATOM     47  C   UNL A   1      37.767  28.702  30.670  1.00  0.00     0.029 A 
ATOM     48  C   UNL A   1      38.717  29.803  30.726  1.00  0.00     0.049 A 
ATOM     49  H   UNL A   1      40.715  29.725  30.083  1.00  0.00     0.167 HD
ATOM     50  C   UNL A   1      44.701  29.430  28.439  1.00  0.00     0.031 A 
ATOM     51  C   UNL A   1      38.571  31.004  31.367  1.00  0.00     0.031 A 
ATOM     52  C   UNL A   1      44.919  29.114  29.830  1.00  0.00     0.049 A 
ATOM     53  C   UNL A   1      39.922  31.415  31.796  1.00  0.00     0.074 A 
ATOM     54  C   UNL A   1      45.276  27.989  30.544  1.00  0.00     0.029 A 
ATOM     55  N   UNL A   1      44.329  29.974  30.722  1.00  0.00    -0.354 N 
ATOM     56  N   UNL A   1      40.588  30.809  32.734  1.00  0.00    -0.248 NA
ATOM     57  C   UNL A   1      40.702  32.224  30.877  1.00  0.00     0.031 C 
ATOM     58  C   UNL A   1      44.514  28.055  31.746  1.00  0.00     0.029 A 
ATOM     59  C   UNL A   1      43.813  29.263  31.765  1.00  0.00     0.049 A 
ATOM     60  H   UNL A   1      44.285  30.953  30.623  1.00  0.00     0.167 HD
ATOM     61  C   UNL A   1      41.879  30.754  32.240  1.00  0.00     0.074 A 
ATOM     62  C   UNL A   1      41.909  31.727  31.146  1.00  0.00     0.031 C 
ATOM     63  C   UNL A   1      42.702  29.720  32.575  1.00  0.00     0.031 A 
BRANCH  50  64
ATOM     64  C   UNL A   1      45.125  30.757  27.855  1.00  0.00    -0.014 A 
ATOM     65  C   UNL A   1      46.392  30.993  27.288  1.00  0.00     0.010 A 
ATOM     66  C   UNL A   1      44.132  31.733  27.620  1.00  0.00     0.010 A 
ATOM     67  C   UNL A   1      46.674  32.148  26.557  1.00  0.00     0.020 A 
ATOM     68  C   UNL A   1      44.391  32.876  26.853  1.00  0.00     0.020 A 
ATOM     69  C   UNL A   1      45.671  33.086  26.348  1.00  0.00     0.054 A 
BRANCH  69  70
ATOM     70  S   UNL A   1      46.075  34.578  25.412  1.00  0.00     0.124 S 
ATOM     71  O   UNL A   1      45.276  34.394  24.203  1.00  0.00    -0.237 OA
ATOM     72  O   UNL A   1      45.631  35.641  26.308  1.00  0.00    -0.237 OA
ATOM     73  O   UNL A   1      47.521  34.482  25.223  1.00  0.00    -0.744 OA
ENDBRANCH  69  70
ENDBRANCH  50  64
BRANCH  51  74
ATOM     74  C   UNL A   1      37.522  32.061  31.160  1.00  0.00    -0.014 A 
ATOM     75  C   UNL A   1      36.185  31.806  31.510  1.00  0.00     0.010 A 
ATOM     76  C   UNL A   1      37.765  33.165  30.301  1.00  0.00     0.010 A 
ATOM     77  C   UNL A   1      35.130  32.526  30.928  1.00  0.00     0.020 A 
ATOM     78  C   UNL A   1      36.708  33.893  29.713  1.00  0.00     0.020 A 
ATOM     79  C   UNL A   1      35.393  33.530  29.994  1.00  0.00     0.054 A 
BRANCH  79  80
ATOM     80  S   UNL A   1      33.989  34.251  29.085  1.00  0.00     0.124 S 
ATOM     81  O   UNL A   1      34.622  35.362  28.381  1.00  0.00    -0.237 OA
ATOM     82  O   UNL A   1      33.555  33.140  28.240  1.00  0.00    -0.237 OA
ATOM     83  O   UNL A   1      33.048  34.630  30.136  1.00  0.00    -0.744 OA
ENDBRANCH  79  80
ENDBRANCH  51  74
BRANCH  63  84
ATOM     84  C   UNL A   1      42.364  28.862  33.775  1.00  0.00    -0.014 A 
ATOM     85  C   UNL A   1      43.116  29.115  34.937  1.00  0.00     0.010 A 
ATOM     86  C   UNL A   1      41.512  27.741  33.757  1.00  0.00     0.010 A 
ATOM     87  C   UNL A   1      43.077  28.247  36.025  1.00  0.00     0.020 A 
ATOM     88  C   UNL A   1      41.442  26.879  34.867  1.00  0.00     0.020 A 
ATOM     89  C   UNL A   1      42.251  27.124  35.981  1.00  0.00     0.054 A 
BRANCH  89  90
ATOM     90  S   UNL A   1      42.298  25.995  37.398  1.00  0.00     0.124 S 
ATOM     91  O   UNL A   1      40.892  25.940  37.795  1.00  0.00    -0.237 OA
ATOM     92  O   UNL A   1      42.828  24.766  36.812  1.00  0.00    -0.237 OA
ATOM     93  O   UNL A   1      43.184  26.659  38.351  1.00  0.00    -0.744 OA
ENDBRANCH  89  90
ENDBRANCH  63  84
ENDBRANCH  37  38
ENDBRANCH  29  32
ENDBRANCH  27  28
ENDBRANCH   1  27
TORSDOF 16
ENDMDL
MODEL 3
REMARK VINA RESULT:     -13.0      2.953      9.959
REMARK SMILES CC(C)c1cc(C#N)cc2nc(-c3ccc(C(=O)NCCCNC(=O)c4ccc(-c5c6nc(c(-c7ccc(S(=O)(=O)[O-])cc7)c7ccc([nH]7)c(-c7ccc(S(=O)(=O)[O-])cc7)c7nc(c(-c8ccc(S(=O)(=O)[O-])cc8)c8ccc5[nH]8)C=C7)C=C6)cc4)cc3)oc12
REMARK SMILES IDX 21 1 20 2 19 3 17 4 18 5 16 7 13 8 14 9 87 10 15 11 86 12
REMARK SMILES IDX 12 13 4 14 5 15 89 16 6 17 10 18 88 19 9 20 11 21 2 22 1 23
REMARK SMILES IDX 3 24 7 25 8 26 22 27 23 28 24 29 25 31 26 32 27 33 85 34
REMARK SMILES IDX 28 35 84 36 29 37 30 38 31 39 78 40 32 41 83 42 77 43 79 44
REMARK SMILES IDX 33 45 82 46 76 47 75 48 34 50 64 51 45 52 63 53 46 54 49 55
REMARK SMILES IDX 62 56 80 57 47 58 48 59 61 61 81 62 50 63 35 64 36 65 44 66
REMARK SMILES IDX 37 67 43 68 38 69 39 70 40 71 41 72 42 73 65 74 66 75 74 76
REMARK SMILES IDX 67 77 73 78 68 79 69 80 70 81 71 82 72 83 51 84 52 85 60 86
REMARK SMILES IDX 53 87 59 88 54 89 55 90 56 91 57 92 58 93
REMARK H PARENT 19 6 23 30 79 49 49 60
REMARK Flexibility Score: inf
ROOT
ATOM      1  C   UNL A   1      35.036  32.059  27.938  1.00  0.00     0.042 C 
ENDROOT
BRANCH   1   2
ATOM      2  C   UNL A   1      34.105  30.855  27.800  1.00  0.00     0.118 C 
BRANCH   2   3
ATOM      3  N   UNL A   1      32.954  31.035  26.920  1.00  0.00    -0.352 N 
ATOM      4  C   UNL A   1      32.154  30.167  26.202  1.00  0.00     0.251 C 
ATOM      5  O   UNL A   1      31.196  30.656  25.596  1.00  0.00    -0.269 OA
ATOM      6  H   UNL A   1      32.691  31.979  26.815  1.00  0.00     0.163 HD
BRANCH   4   7
ATOM      7  C   UNL A   1      32.402  28.700  26.066  1.00  0.00     0.039 A 
ATOM      8  C   UNL A   1      32.635  25.896  25.710  1.00  0.00     0.037 A 
ATOM      9  C   UNL A   1      31.625  26.415  26.522  1.00  0.00     0.014 A 
ATOM     10  C   UNL A   1      33.564  26.780  25.153  1.00  0.00     0.014 A 
ATOM     11  C   UNL A   1      31.508  27.807  26.692  1.00  0.00     0.014 A 
ATOM     12  C   UNL A   1      33.481  28.154  25.379  1.00  0.00     0.014 A 
BRANCH   8  13
ATOM     13  C   UNL A   1      32.829  24.479  25.447  1.00  0.00     0.227 A 
ATOM     14  C   UNL A   1      34.984  21.714  24.941  1.00  0.00     0.001 A 
ATOM     15  C   UNL A   1      34.476  20.386  24.891  1.00  0.00     0.027 A 
ATOM     16  C   UNL A   1      33.977  22.670  25.147  1.00  0.00     0.158 A 
ATOM     17  C   UNL A   1      33.124  20.061  25.113  1.00  0.00     0.055 A 
ATOM     18  C   UNL A   1      32.637  22.381  25.371  1.00  0.00     0.111 A 
ATOM     19  O   UNL A   1      34.097  24.040  25.174  1.00  0.00    -0.436 OA
ATOM     20  C   UNL A   1      32.189  21.058  25.380  1.00  0.00     0.052 A 
ATOM     21  N   UNL A   1      31.926  23.528  25.556  1.00  0.00    -0.209 NA
BRANCH  14  22
ATOM     22  C   UNL A   1      36.466  21.993  24.721  1.00  0.00     0.017 C 
ATOM     23  C   UNL A   1      37.369  20.758  24.831  1.00  0.00     0.012 C 
ATOM     24  C   UNL A   1      36.748  22.652  23.359  1.00  0.00     0.012 C 
ENDBRANCH  14  22
BRANCH  17  25
ATOM     25  C   UNL A   1      32.692  18.692  25.026  1.00  0.00     0.099 C 
ATOM     26  N   UNL A   1      32.299  17.608  24.963  1.00  0.00    -0.192 NA
ENDBRANCH  17  25
ENDBRANCH   8  13
ENDBRANCH   4   7
ENDBRANCH   2   3
ENDBRANCH   1   2
BRANCH   1  27
ATOM     27  C   UNL A   1      34.534  33.211  28.798  1.00  0.00     0.118 C 
BRANCH  27  28
ATOM     28  N   UNL A   1      34.383  32.900  30.205  1.00  0.00    -0.352 N 
ATOM     29  C   UNL A   1      35.174  32.410  31.208  1.00  0.00     0.251 C 
ATOM     30  H   UNL A   1      33.472  33.090  30.523  1.00  0.00     0.163 HD
ATOM     31  O   UNL A   1      34.701  32.556  32.341  1.00  0.00    -0.269 OA
BRANCH  29  32
ATOM     32  C   UNL A   1      36.465  31.671  31.074  1.00  0.00     0.039 A 
ATOM     33  C   UNL A   1      37.740  32.218  30.961  1.00  0.00     0.014 A 
ATOM     34  C   UNL A   1      36.338  30.267  30.958  1.00  0.00     0.014 A 
ATOM     35  C   UNL A   1      38.824  31.389  30.611  1.00  0.00     0.010 A 
ATOM     36  C   UNL A   1      37.412  29.443  30.621  1.00  0.00     0.010 A 
ATOM     37  C   UNL A   1      38.654  30.004  30.379  1.00  0.00    -0.014 A 
BRANCH  37  38
ATOM     38  C   UNL A   1      39.823  29.134  30.135  1.00  0.00     0.031 A 
ATOM     39  C   UNL A   1      40.559  28.866  31.397  1.00  0.00     0.074 A 
ATOM     40  C   UNL A   1      40.215  28.546  28.974  1.00  0.00     0.049 A 
ATOM     41  N   UNL A   1      41.637  29.470  31.769  1.00  0.00    -0.248 NA
ATOM     42  C   UNL A   1      39.946  28.040  32.448  1.00  0.00     0.031 C 
ATOM     43  C   UNL A   1      39.538  28.561  27.673  1.00  0.00     0.029 A 
ATOM     44  N   UNL A   1      41.317  27.763  28.707  1.00  0.00    -0.354 N 
ATOM     45  C   UNL A   1      41.995  28.893  32.976  1.00  0.00     0.074 A 
ATOM     46  C   UNL A   1      40.828  28.188  33.442  1.00  0.00     0.031 C 
ATOM     47  C   UNL A   1      40.119  27.667  26.831  1.00  0.00     0.029 A 
ATOM     48  C   UNL A   1      41.298  27.102  27.471  1.00  0.00     0.049 A 
ATOM     49  H   UNL A   1      42.066  27.675  29.340  1.00  0.00     0.167 HD
ATOM     50  C   UNL A   1      43.309  28.806  33.322  1.00  0.00     0.031 A 
ATOM     51  C   UNL A   1      42.226  26.258  26.921  1.00  0.00     0.031 A 
ATOM     52  C   UNL A   1      44.117  29.666  32.492  1.00  0.00     0.049 A 
ATOM     53  C   UNL A   1      43.511  26.567  27.577  1.00  0.00     0.074 A 
ATOM     54  C   UNL A   1      44.177  31.020  32.235  1.00  0.00     0.029 A 
ATOM     55  N   UNL A   1      44.753  29.040  31.449  1.00  0.00    -0.354 N 
ATOM     56  N   UNL A   1      44.163  27.675  27.383  1.00  0.00    -0.248 NA
ATOM     57  C   UNL A   1      43.845  25.830  28.782  1.00  0.00     0.031 C 
ATOM     58  C   UNL A   1      44.482  31.121  30.847  1.00  0.00     0.029 A 
ATOM     59  C   UNL A   1      44.704  29.838  30.344  1.00  0.00     0.049 A 
ATOM     60  H   UNL A   1      45.177  28.153  31.493  1.00  0.00     0.167 HD
ATOM     61  C   UNL A   1      44.609  28.021  28.647  1.00  0.00     0.074 A 
ATOM     62  C   UNL A   1      44.472  26.801  29.446  1.00  0.00     0.031 C 
ATOM     63  C   UNL A   1      44.767  29.331  28.988  1.00  0.00     0.031 A 
BRANCH  50  64
ATOM     64  C   UNL A   1      43.902  27.617  34.041  1.00  0.00    -0.014 A 
ATOM     65  C   UNL A   1      43.848  27.442  35.437  1.00  0.00     0.010 A 
ATOM     66  C   UNL A   1      44.296  26.498  33.274  1.00  0.00     0.010 A 
ATOM     67  C   UNL A   1      44.198  26.235  36.046  1.00  0.00     0.020 A 
ATOM     68  C   UNL A   1      44.609  25.271  33.871  1.00  0.00     0.020 A 
ATOM     69  C   UNL A   1      44.582  25.157  35.258  1.00  0.00     0.054 A 
BRANCH  69  70
ATOM     70  S   UNL A   1      45.045  23.617  36.081  1.00  0.00     0.124 S 
ATOM     71  O   UNL A   1      44.799  23.947  37.483  1.00  0.00    -0.237 OA
ATOM     72  O   UNL A   1      44.124  22.654  35.487  1.00  0.00    -0.237 OA
ATOM     73  O   UNL A   1      46.451  23.445  35.720  1.00  0.00    -0.744 OA
ENDBRANCH  69  70
ENDBRANCH  50  64
BRANCH  51  74
ATOM     74  C   UNL A   1      42.022  24.891  26.329  1.00  0.00    -0.014 A 
ATOM     75  C   UNL A   1      40.987  24.066  26.798  1.00  0.00     0.010 A 
ATOM     76  C   UNL A   1      43.051  24.269  25.573  1.00  0.00     0.010 A 
ATOM     77  C   UNL A   1      41.038  22.671  26.641  1.00  0.00     0.020 A 
ATOM     78  C   UNL A   1      43.108  22.868  25.411  1.00  0.00     0.020 A 
ATOM     79  C   UNL A   1      42.123  22.075  25.995  1.00  0.00     0.054 A 
BRANCH  79  80
ATOM     80  S   UNL A   1      42.264  20.260  26.045  1.00  0.00     0.124 S 
ATOM     81  O   UNL A   1      42.344  20.002  27.480  1.00  0.00    -0.237 OA
ATOM     82  O   UNL A   1      41.026  19.828  25.400  1.00  0.00    -0.237 OA
ATOM     83  O   UNL A   1      43.483  19.981  25.290  1.00  0.00    -0.744 OA
ENDBRANCH  79  80
ENDBRANCH  51  74
BRANCH  63  84
ATOM     84  C   UNL A   1      44.843  30.378  27.896  1.00  0.00    -0.014 A 
ATOM     85  C   UNL A   1      46.120  30.918  27.658  1.00  0.00     0.010 A 
ATOM     86  C   UNL A   1      43.734  30.964  27.255  1.00  0.00     0.010 A 
ATOM     87  C   UNL A   1      46.288  32.048  26.862  1.00  0.00     0.020 A 
ATOM     88  C   UNL A   1      43.902  32.084  26.421  1.00  0.00     0.020 A 
ATOM     89  C   UNL A   1      45.177  32.636  26.258  1.00  0.00     0.054 A 
BRANCH  89  90
ATOM     90  S   UNL A   1      45.451  34.145  25.292  1.00  0.00     0.124 S 
ATOM     91  O   UNL A   1      44.813  33.816  24.018  1.00  0.00    -0.237 OA
ATOM     92  O   UNL A   1      44.767  35.163  26.085  1.00  0.00    -0.237 OA
ATOM     93  O   UNL A   1      46.906  34.273  25.239  1.00  0.00    -0.744 OA
ENDBRANCH  89  90
ENDBRANCH  63  84
ENDBRANCH  37  38
ENDBRANCH  29  32
ENDBRANCH  27  28
ENDBRANCH   1  27
TORSDOF 16
ENDMDL
