MODEL 1
REMARK VINA RESULT:     -13.2      0.000      0.000
REMARK SMILES Cc1cccc(-c2noc(C[N@@H+](C)Cc3ncccc3C(=O)NCCCNC(=O)c3ccc(-c4c5nc(c(-c6ccc(S(=O)(=O)[O-])cc6)c6ccc([nH]6)c(-c6ccc(S(=O)(=O)[O-])cc6)c6nc(c(-c7ccc(S(=O)(=O)[O-])cc7)c7ccc4[nH]7)C=C6)C=C5)cc3)n2)c1
REMARK SMILES IDX 24 1 23 2 21 3 22 4 20 6 15 7 16 8 17 9 19 10 18 11 14 12
REMARK SMILES IDX 12 13 13 14 11 16 10 17 7 18 8 19 90 20 9 21 6 22 1 23 2 24
REMARK SMILES IDX 3 25 91 26 4 27 5 28 25 29 26 30 27 31 28 32 29 34 30 35
REMARK SMILES IDX 31 36 89 37 32 38 88 39 33 40 34 41 35 42 82 43 36 44 87 45
REMARK SMILES IDX 81 46 83 47 37 48 86 49 80 50 79 51 38 53 68 54 49 55 67 56
REMARK SMILES IDX 50 57 53 58 66 59 84 60 51 61 52 62 65 64 85 65 54 66 39 67
REMARK SMILES IDX 40 68 48 69 41 70 47 71 42 72 43 73 44 74 45 75 46 76 69 77
REMARK SMILES IDX 70 78 78 79 71 80 77 81 72 82 73 83 74 84 75 85 76 86 55 87
REMARK SMILES IDX 56 88 64 89 57 90 63 91 58 92 59 93 60 94 61 95 62 96
REMARK H PARENT 23 5 12 15 27 33 83 52 53 63
REMARK Flexibility Score: inf
ROOT
ATOM      1  C   UNL A   1      32.021  28.547  26.967  1.00  0.00     0.118 C 
ENDROOT
BRANCH   1   2
ATOM      2  N   UNL A   1      32.465  27.723  25.848  1.00  0.00    -0.352 N 
ATOM      3  C   UNL A   1      32.028  27.510  24.560  1.00  0.00     0.253 C 
ATOM      4  O   UNL A   1      32.772  26.813  23.875  1.00  0.00    -0.269 OA
ATOM      5  H   UNL A   1      33.267  27.197  26.065  1.00  0.00     0.163 HD
BRANCH   3   6
ATOM      6  C   UNL A   1      30.762  28.074  23.968  1.00  0.00     0.067 A 
ATOM      7  C   UNL A   1      29.554  27.345  23.881  1.00  0.00     0.107 A 
ATOM      8  N   UNL A   1      28.441  27.862  23.256  1.00  0.00    -0.254 NA
ATOM      9  C   UNL A   1      28.466  29.122  22.794  1.00  0.00     0.111 A 
ATOM     10  C   UNL A   1      30.707  29.396  23.503  1.00  0.00     0.017 A 
ATOM     11  C   UNL A   1      29.565  29.931  22.912  1.00  0.00     0.021 A 
BRANCH   7  12
ATOM     12  C   UNL A   1      29.333  25.929  24.414  1.00  0.00     0.320 C 
BRANCH  12  13
ATOM     13  N   UNL A   1      30.538  25.082  24.661  1.00  0.00    -0.325 N 
ATOM     14  C   UNL A   1      30.654  23.952  23.749  1.00  0.00     0.333 C 
ATOM     15  H   UNL A   1      31.329  25.696  24.461  1.00  0.00     0.348 HD
BRANCH  13  16
ATOM     16  C   UNL A   1      30.668  24.653  26.069  1.00  0.00     0.364 C 
BRANCH  16  17
ATOM     17  C   UNL A   1      31.945  23.944  26.380  1.00  0.00     0.282 A 
ATOM     18  C   UNL A   1      33.837  23.048  26.463  1.00  0.00     0.202 A 
ATOM     19  N   UNL A   1      33.174  22.482  27.485  1.00  0.00    -0.057 NA
ATOM     20  N   UNL A   1      33.117  24.012  25.786  1.00  0.00    -0.186 NA
ATOM     21  O   UNL A   1      31.917  23.075  27.430  1.00  0.00    -0.333 OA
BRANCH  18  22
ATOM     22  C   UNL A   1      35.208  22.704  26.121  1.00  0.00     0.023 A 
ATOM     23  C   UNL A   1      37.210  19.686  24.914  1.00  0.00     0.044 C 
ATOM     24  C   UNL A   1      36.850  21.074  25.358  1.00  0.00    -0.050 A 
ATOM     25  C   UNL A   1      37.829  22.075  25.363  1.00  0.00     0.003 A 
ATOM     26  C   UNL A   1      35.543  21.392  25.754  1.00  0.00     0.015 A 
ATOM     27  C   UNL A   1      37.509  23.375  25.751  1.00  0.00     0.001 A 
ATOM     28  C   UNL A   1      36.203  23.690  26.125  1.00  0.00     0.012 A 
ENDBRANCH  18  22
ENDBRANCH  16  17
ENDBRANCH  13  16
ENDBRANCH  12  13
ENDBRANCH   7  12
ENDBRANCH   3   6
ENDBRANCH   1   2
BRANCH   1  29
ATOM     29  C   UNL A   1      32.729  29.902  27.003  1.00  0.00     0.042 C 
BRANCH  29  30
ATOM     30  C   UNL A   1      34.245  29.787  27.099  1.00  0.00     0.118 C 
BRANCH  30  31
ATOM     31  N   UNL A   1      34.858  30.935  27.766  1.00  0.00    -0.352 N 
ATOM     32  C   UNL A   1      36.079  30.971  28.421  1.00  0.00     0.251 C 
ATOM     33  H   UNL A   1      34.347  31.776  27.745  1.00  0.00     0.163 HD
ATOM     34  O   UNL A   1      36.474  31.946  29.029  1.00  0.00    -0.269 OA
BRANCH  32  35
ATOM     35  C   UNL A   1      36.920  29.766  28.281  1.00  0.00     0.039 A 
ATOM     36  C   UNL A   1      37.095  28.972  29.419  1.00  0.00     0.014 A 
ATOM     37  C   UNL A   1      37.763  29.663  27.179  1.00  0.00     0.014 A 
ATOM     38  C   UNL A   1      38.242  28.193  29.528  1.00  0.00     0.010 A 
ATOM     39  C   UNL A   1      38.943  28.960  27.331  1.00  0.00     0.010 A 
ATOM     40  C   UNL A   1      39.208  28.272  28.525  1.00  0.00    -0.014 A 
BRANCH  40  41
ATOM     41  C   UNL A   1      40.565  27.750  28.677  1.00  0.00     0.031 A 
ATOM     42  C   UNL A   1      40.849  26.330  28.364  1.00  0.00     0.074 A 
ATOM     43  C   UNL A   1      41.582  28.557  29.057  1.00  0.00     0.049 A 
ATOM     44  N   UNL A   1      41.860  25.665  28.818  1.00  0.00    -0.248 NA
ATOM     45  C   UNL A   1      39.943  25.516  27.559  1.00  0.00     0.031 C 
ATOM     46  C   UNL A   1      43.008  28.261  28.953  1.00  0.00     0.029 A 
ATOM     47  N   UNL A   1      41.535  29.719  29.830  1.00  0.00    -0.354 N 
ATOM     48  C   UNL A   1      41.908  24.468  28.140  1.00  0.00     0.074 A 
ATOM     49  C   UNL A   1      40.637  24.378  27.461  1.00  0.00     0.031 C 
ATOM     50  C   UNL A   1      43.667  28.999  29.858  1.00  0.00     0.029 A 
ATOM     51  C   UNL A   1      42.669  29.687  30.658  1.00  0.00     0.049 A 
ATOM     52  H   UNL A   1      40.846  30.421  29.799  1.00  0.00     0.167 HD
ATOM     53  C   UNL A   1      43.071  23.757  28.105  1.00  0.00     0.031 A 
ATOM     54  C   UNL A   1      42.638  29.716  32.021  1.00  0.00     0.031 A 
ATOM     55  C   UNL A   1      44.075  24.311  29.015  1.00  0.00     0.049 A 
ATOM     56  C   UNL A   1      43.345  28.543  32.662  1.00  0.00     0.074 A 
ATOM     57  C   UNL A   1      45.213  25.079  28.822  1.00  0.00     0.029 A 
ATOM     58  N   UNL A   1      43.832  24.310  30.384  1.00  0.00    -0.354 N 
ATOM     59  N   UNL A   1      43.697  27.466  32.017  1.00  0.00    -0.248 NA
ATOM     60  C   UNL A   1      43.656  28.462  34.087  1.00  0.00     0.031 C 
ATOM     61  C   UNL A   1      45.607  25.604  30.080  1.00  0.00     0.029 A 
ATOM     62  C   UNL A   1      44.728  25.132  31.040  1.00  0.00     0.049 A 
ATOM     63  H   UNL A   1      43.119  23.795  30.826  1.00  0.00     0.167 HD
ATOM     64  C   UNL A   1      44.237  26.559  32.891  1.00  0.00     0.074 A 
ATOM     65  C   UNL A   1      44.209  27.238  34.174  1.00  0.00     0.031 C 
ATOM     66  C   UNL A   1      44.641  25.320  32.484  1.00  0.00     0.031 A 
BRANCH  53  67
ATOM     67  C   UNL A   1      43.398  22.731  27.031  1.00  0.00    -0.014 A 
ATOM     68  C   UNL A   1      42.668  21.523  26.971  1.00  0.00     0.010 A 
ATOM     69  C   UNL A   1      44.459  22.843  26.114  1.00  0.00     0.010 A 
ATOM     70  C   UNL A   1      43.041  20.462  26.124  1.00  0.00     0.020 A 
ATOM     71  C   UNL A   1      44.860  21.789  25.281  1.00  0.00     0.020 A 
ATOM     72  C   UNL A   1      44.157  20.594  25.302  1.00  0.00     0.054 A 
BRANCH  72  73
ATOM     73  S   UNL A   1      44.689  19.199  24.277  1.00  0.00     0.124 S 
ATOM     74  O   UNL A   1      43.754  18.146  24.666  1.00  0.00    -0.237 OA
ATOM     75  O   UNL A   1      44.525  19.722  22.923  1.00  0.00    -0.237 OA
ATOM     76  O   UNL A   1      46.074  18.973  24.689  1.00  0.00    -0.744 OA
ENDBRANCH  72  73
ENDBRANCH  53  67
BRANCH  54  77
ATOM     77  C   UNL A   1      41.466  30.422  32.600  1.00  0.00    -0.014 A 
ATOM     78  C   UNL A   1      40.334  29.641  32.913  1.00  0.00     0.010 A 
ATOM     79  C   UNL A   1      41.625  31.676  33.216  1.00  0.00     0.010 A 
ATOM     80  C   UNL A   1      39.480  30.017  33.950  1.00  0.00     0.020 A 
ATOM     81  C   UNL A   1      40.767  32.055  34.258  1.00  0.00     0.020 A 
ATOM     82  C   UNL A   1      39.745  31.189  34.659  1.00  0.00     0.054 A 
BRANCH  82  83
ATOM     83  S   UNL A   1      38.876  31.435  36.237  1.00  0.00     0.124 S 
ATOM     84  O   UNL A   1      38.480  30.077  36.592  1.00  0.00    -0.237 OA
ATOM     85  O   UNL A   1      39.927  32.023  37.070  1.00  0.00    -0.237 OA
ATOM     86  O   UNL A   1      37.786  32.339  35.883  1.00  0.00    -0.744 OA
ENDBRANCH  82  83
ENDBRANCH  54  77
BRANCH  66  87
ATOM     87  C   UNL A   1      45.065  24.184  33.386  1.00  0.00    -0.014 A 
ATOM     88  C   UNL A   1      46.307  24.110  34.036  1.00  0.00     0.010 A 
ATOM     89  C   UNL A   1      44.119  23.178  33.706  1.00  0.00     0.010 A 
ATOM     90  C   UNL A   1      46.617  23.053  34.906  1.00  0.00     0.020 A 
ATOM     91  C   UNL A   1      44.400  22.145  34.605  1.00  0.00     0.020 A 
ATOM     92  C   UNL A   1      45.661  22.074  35.183  1.00  0.00     0.054 A 
BRANCH  92  93
ATOM     93  S   UNL A   1      46.043  20.750  36.358  1.00  0.00     0.124 S 
ATOM     94  O   UNL A   1      45.656  21.354  37.630  1.00  0.00    -0.237 OA
ATOM     95  O   UNL A   1      45.193  19.650  35.905  1.00  0.00    -0.237 OA
ATOM     96  O   UNL A   1      47.476  20.535  36.174  1.00  0.00    -0.744 OA
ENDBRANCH  92  93
ENDBRANCH  66  87
ENDBRANCH  40  41
ENDBRANCH  32  35
ENDBRANCH  30  31
ENDBRANCH  29  30
ENDBRANCH   1  29
TORSDOF 18
ENDMDL
MODEL 2
REMARK VINA RESULT:     -12.6      4.480     11.125
REMARK SMILES Cc1cccc(-c2noc(C[N@@H+](C)Cc3ncccc3C(=O)NCCCNC(=O)c3ccc(-c4c5nc(c(-c6ccc(S(=O)(=O)[O-])cc6)c6ccc([nH]6)c(-c6ccc(S(=O)(=O)[O-])cc6)c6nc(c(-c7ccc(S(=O)(=O)[O-])cc7)c7ccc4[nH]7)C=C6)C=C5)cc3)n2)c1
REMARK SMILES IDX 24 1 23 2 21 3 22 4 20 6 15 7 16 8 17 9 19 10 18 11 14 12
REMARK SMILES IDX 12 13 13 14 11 16 10 17 7 18 8 19 90 20 9 21 6 22 1 23 2 24
REMARK SMILES IDX 3 25 91 26 4 27 5 28 25 29 26 30 27 31 28 32 29 34 30 35
REMARK SMILES IDX 31 36 89 37 32 38 88 39 33 40 34 41 35 42 82 43 36 44 87 45
REMARK SMILES IDX 81 46 83 47 37 48 86 49 80 50 79 51 38 53 68 54 49 55 67 56
REMARK SMILES IDX 50 57 53 58 66 59 84 60 51 61 52 62 65 64 85 65 54 66 39 67
REMARK SMILES IDX 40 68 48 69 41 70 47 71 42 72 43 73 44 74 45 75 46 76 69 77
REMARK SMILES IDX 70 78 78 79 71 80 77 81 72 82 73 83 74 84 75 85 76 86 55 87
REMARK SMILES IDX 56 88 64 89 57 90 63 91 58 92 59 93 60 94 61 95 62 96
REMARK H PARENT 23 5 12 15 27 33 83 52 53 63
REMARK Flexibility Score: inf
ROOT
ATOM      1  C   UNL A   1      36.367  22.353  26.127  1.00  0.00     0.118 C 
ENDROOT
BRANCH   1   2
ATOM      2  N   UNL A   1      35.015  22.510  26.652  1.00  0.00    -0.352 N 
ATOM      3  C   UNL A   1      33.936  23.306  26.344  1.00  0.00     0.253 C 
ATOM      4  O   UNL A   1      32.907  23.038  26.962  1.00  0.00    -0.269 OA
ATOM      5  H   UNL A   1      34.831  21.901  27.403  1.00  0.00     0.163 HD
BRANCH   3   6
ATOM      6  C   UNL A   1      33.938  24.419  25.328  1.00  0.00     0.067 A 
ATOM      7  C   UNL A   1      33.788  24.202  23.940  1.00  0.00     0.107 A 
ATOM      8  N   UNL A   1      33.881  25.235  23.033  1.00  0.00    -0.254 NA
ATOM      9  C   UNL A   1      34.028  26.494  23.475  1.00  0.00     0.111 A 
ATOM     10  C   UNL A   1      34.046  25.760  25.724  1.00  0.00     0.017 A 
ATOM     11  C   UNL A   1      34.095  26.806  24.807  1.00  0.00     0.021 A 
BRANCH   7  12
ATOM     12  C   UNL A   1      33.549  22.846  23.274  1.00  0.00     0.320 C 
BRANCH  12  13
ATOM     13  N   UNL A   1      32.383  22.038  23.743  1.00  0.00    -0.325 N 
ATOM     14  C   UNL A   1      32.530  20.609  23.502  1.00  0.00     0.333 C 
ATOM     15  H   UNL A   1      32.376  22.161  24.756  1.00  0.00     0.348 HD
BRANCH  13  16
ATOM     16  C   UNL A   1      31.088  22.539  23.236  1.00  0.00     0.364 C 
BRANCH  16  17
ATOM     17  C   UNL A   1      30.712  23.891  23.744  1.00  0.00     0.282 A 
ATOM     18  C   UNL A   1      30.323  25.915  24.127  1.00  0.00     0.202 A 
ATOM     19  N   UNL A   1      30.247  25.343  25.340  1.00  0.00    -0.057 NA
ATOM     20  N   UNL A   1      30.554  25.026  23.096  1.00  0.00    -0.186 NA
ATOM     21  O   UNL A   1      30.506  24.000  25.088  1.00  0.00    -0.333 OA
BRANCH  18  22
ATOM     22  C   UNL A   1      30.141  27.341  23.911  1.00  0.00     0.023 A 
ATOM     23  C   UNL A   1      27.679  29.710  22.208  1.00  0.00     0.044 C 
ATOM     24  C   UNL A   1      28.851  29.191  22.988  1.00  0.00    -0.050 A 
ATOM     25  C   UNL A   1      29.737  30.093  23.590  1.00  0.00     0.003 A 
ATOM     26  C   UNL A   1      29.068  27.814  23.140  1.00  0.00     0.015 A 
ATOM     27  C   UNL A   1      30.819  29.631  24.338  1.00  0.00     0.001 A 
ATOM     28  C   UNL A   1      31.018  28.260  24.501  1.00  0.00     0.012 A 
ENDBRANCH  18  22
ENDBRANCH  16  17
ENDBRANCH  13  16
ENDBRANCH  12  13
ENDBRANCH   7  12
ENDBRANCH   3   6
ENDBRANCH   1   2
BRANCH   1  29
ATOM     29  C   UNL A   1      37.174  23.649  26.215  1.00  0.00     0.042 C 
BRANCH  29  30
ATOM     30  C   UNL A   1      38.532  23.561  25.531  1.00  0.00     0.118 C 
BRANCH  30  31
ATOM     31  N   UNL A   1      39.593  23.119  26.434  1.00  0.00    -0.352 N 
ATOM     32  C   UNL A   1      40.277  23.885  27.365  1.00  0.00     0.251 C 
ATOM     33  H   UNL A   1      39.851  22.170  26.374  1.00  0.00     0.163 HD
ATOM     34  O   UNL A   1      41.211  23.458  28.014  1.00  0.00    -0.269 OA
BRANCH  32  35
ATOM     35  C   UNL A   1      39.756  25.248  27.582  1.00  0.00     0.039 A 
ATOM     36  C   UNL A   1      40.290  26.271  26.793  1.00  0.00     0.014 A 
ATOM     37  C   UNL A   1      39.054  25.518  28.753  1.00  0.00     0.014 A 
ATOM     38  C   UNL A   1      40.281  27.574  27.278  1.00  0.00     0.010 A 
ATOM     39  C   UNL A   1      39.128  26.797  29.271  1.00  0.00     0.010 A 
ATOM     40  C   UNL A   1      39.790  27.812  28.561  1.00  0.00    -0.014 A 
BRANCH  40  41
ATOM     41  C   UNL A   1      40.009  29.063  29.284  1.00  0.00     0.031 A 
ATOM     42  C   UNL A   1      38.986  30.134  29.234  1.00  0.00     0.074 A 
ATOM     43  C   UNL A   1      41.116  29.243  30.041  1.00  0.00     0.049 A 
ATOM     44  N   UNL A   1      39.218  31.382  29.477  1.00  0.00    -0.248 NA
ATOM     45  C   UNL A   1      37.612  29.876  28.817  1.00  0.00     0.031 C 
ATOM     46  C   UNL A   1      41.320  30.285  31.044  1.00  0.00     0.029 A 
ATOM     47  N   UNL A   1      42.377  28.661  29.899  1.00  0.00    -0.354 N 
ATOM     48  C   UNL A   1      38.001  32.022  29.551  1.00  0.00     0.074 A 
ATOM     49  C   UNL A   1      37.052  31.072  29.020  1.00  0.00     0.031 C 
ATOM     50  C   UNL A   1      42.637  30.482  31.196  1.00  0.00     0.029 A 
ATOM     51  C   UNL A   1      43.311  29.667  30.200  1.00  0.00     0.049 A 
ATOM     52  H   UNL A   1      42.574  27.732  29.641  1.00  0.00     0.167 HD
ATOM     53  C   UNL A   1      37.907  33.224  30.189  1.00  0.00     0.031 A 
ATOM     54  C   UNL A   1      44.281  30.109  29.350  1.00  0.00     0.031 A 
ATOM     55  C   UNL A   1      39.224  33.763  30.532  1.00  0.00     0.049 A 
ATOM     56  C   UNL A   1      44.224  31.598  29.097  1.00  0.00     0.074 A 
ATOM     57  C   UNL A   1      39.941  33.842  31.715  1.00  0.00     0.029 A 
ATOM     58  N   UNL A   1      40.111  34.098  29.514  1.00  0.00    -0.354 N 
ATOM     59  N   UNL A   1      43.206  32.350  29.409  1.00  0.00    -0.248 NA
ATOM     60  C   UNL A   1      45.280  32.348  28.421  1.00  0.00     0.031 C 
ATOM     61  C   UNL A   1      41.288  34.154  31.393  1.00  0.00     0.029 A 
ATOM     62  C   UNL A   1      41.383  34.291  30.019  1.00  0.00     0.049 A 
ATOM     63  H   UNL A   1      39.866  34.185  28.564  1.00  0.00     0.167 HD
ATOM     64  C   UNL A   1      43.428  33.632  28.976  1.00  0.00     0.074 A 
ATOM     65  C   UNL A   1      44.751  33.585  28.382  1.00  0.00     0.031 C 
ATOM     66  C   UNL A   1      42.492  34.615  29.128  1.00  0.00     0.031 A 
BRANCH  53  67
ATOM     67  C   UNL A   1      36.609  33.773  30.762  1.00  0.00    -0.014 A 
ATOM     68  C   UNL A   1      35.487  33.938  29.921  1.00  0.00     0.010 A 
ATOM     69  C   UNL A   1      36.448  34.230  32.083  1.00  0.00     0.010 A 
ATOM     70  C   UNL A   1      34.324  34.608  30.344  1.00  0.00     0.020 A 
ATOM     71  C   UNL A   1      35.307  34.921  32.515  1.00  0.00     0.020 A 
ATOM     72  C   UNL A   1      34.254  35.122  31.636  1.00  0.00     0.054 A 
BRANCH  72  73
ATOM     73  S   UNL A   1      32.793  36.060  32.153  1.00  0.00     0.124 S 
ATOM     74  O   UNL A   1      32.476  36.836  30.958  1.00  0.00    -0.237 OA
ATOM     75  O   UNL A   1      31.844  35.003  32.492  1.00  0.00    -0.237 OA
ATOM     76  O   UNL A   1      33.272  36.848  33.289  1.00  0.00    -0.744 OA
ENDBRANCH  72  73
ENDBRANCH  53  67
BRANCH  54  77
ATOM     77  C   UNL A   1      44.753  29.097  28.369  1.00  0.00    -0.014 A 
ATOM     78  C   UNL A   1      45.632  28.101  28.844  1.00  0.00     0.010 A 
ATOM     79  C   UNL A   1      44.032  28.867  27.184  1.00  0.00     0.010 A 
ATOM     80  C   UNL A   1      45.652  26.837  28.254  1.00  0.00     0.020 A 
ATOM     81  C   UNL A   1      44.053  27.597  26.590  1.00  0.00     0.020 A 
ATOM     82  C   UNL A   1      44.810  26.576  27.173  1.00  0.00     0.054 A 
BRANCH  82  83
ATOM     83  S   UNL A   1      44.561  24.838  26.698  1.00  0.00     0.124 S 
ATOM     84  O   UNL A   1      44.406  24.180  27.990  1.00  0.00    -0.237 OA
ATOM     85  O   UNL A   1      43.347  24.922  25.884  1.00  0.00    -0.237 OA
ATOM     86  O   UNL A   1      45.780  24.513  25.964  1.00  0.00    -0.744 OA
ENDBRANCH  82  83
ENDBRANCH  54  77
BRANCH  66  87
ATOM     87  C   UNL A   1      42.551  35.997  28.521  1.00  0.00    -0.014 A 
ATOM     88  C   UNL A   1      41.862  36.383  27.361  1.00  0.00     0.010 A 
ATOM     89  C   UNL A   1      43.246  37.018  29.217  1.00  0.00     0.010 A 
ATOM     90  C   UNL A   1      41.916  37.701  26.880  1.00  0.00     0.020 A 
ATOM     91  C   UNL A   1      43.271  38.344  28.772  1.00  0.00     0.020 A 
ATOM     92  C   UNL A   1      42.624  38.673  27.588  1.00  0.00     0.054 A 
BRANCH  92  93
ATOM     93  S   UNL A   1      42.636  40.386  27.000  1.00  0.00     0.124 S 
ATOM     94  O   UNL A   1      41.309  40.509  26.401  1.00  0.00    -0.237 OA
ATOM     95  O   UNL A   1      42.840  41.156  28.226  1.00  0.00    -0.237 OA
ATOM     96  O   UNL A   1      43.755  40.416  26.062  1.00  0.00    -0.744 OA
ENDBRANCH  92  93
ENDBRANCH  66  87
ENDBRANCH  40  41
ENDBRANCH  32  35
ENDBRANCH  30  31
ENDBRANCH  29  30
ENDBRANCH   1  29
TORSDOF 18
ENDMDL
MODEL 3
REMARK VINA RESULT:     -12.4      4.081     10.158
REMARK SMILES Cc1cccc(-c2noc(C[N@@H+](C)Cc3ncccc3C(=O)NCCCNC(=O)c3ccc(-c4c5nc(c(-c6ccc(S(=O)(=O)[O-])cc6)c6ccc([nH]6)c(-c6ccc(S(=O)(=O)[O-])cc6)c6nc(c(-c7ccc(S(=O)(=O)[O-])cc7)c7ccc4[nH]7)C=C6)C=C5)cc3)n2)c1
REMARK SMILES IDX 24 1 23 2 21 3 22 4 20 6 15 7 16 8 17 9 19 10 18 11 14 12
REMARK SMILES IDX 12 13 13 14 11 16 10 17 7 18 8 19 90 20 9 21 6 22 1 23 2 24
REMARK SMILES IDX 3 25 91 26 4 27 5 28 25 29 26 30 27 31 28 32 29 34 30 35
REMARK SMILES IDX 31 36 89 37 32 38 88 39 33 40 34 41 35 42 82 43 36 44 87 45
REMARK SMILES IDX 81 46 83 47 37 48 86 49 80 50 79 51 38 53 68 54 49 55 67 56
REMARK SMILES IDX 50 57 53 58 66 59 84 60 51 61 52 62 65 64 85 65 54 66 39 67
REMARK SMILES IDX 40 68 48 69 41 70 47 71 42 72 43 73 44 74 45 75 46 76 69 77
REMARK SMILES IDX 70 78 78 79 71 80 77 81 72 82 73 83 74 84 75 85 76 86 55 87
REMARK SMILES IDX 56 88 64 89 57 90 63 91 58 92 59 93 60 94 61 95 62 96
REMARK H PARENT 23 5 12 15 27 33 83 52 53 63
REMARK Flexibility Score: inf
ROOT
ATOM      1  C   UNL A   1      35.643  23.874  25.143  1.00  0.00     0.118 C 
ENDROOT
BRANCH   1   2
ATOM      2  N   UNL A   1      34.606  23.415  24.227  1.00  0.00    -0.352 N 
ATOM      3  C   UNL A   1      33.669  24.030  23.427  1.00  0.00     0.253 C 
ATOM      4  O   UNL A   1      33.044  23.270  22.690  1.00  0.00    -0.269 OA
ATOM      5  H   UNL A   1      34.567  22.434  24.164  1.00  0.00     0.163 HD
BRANCH   3   6
ATOM      6  C   UNL A   1      33.396  25.511  23.391  1.00  0.00     0.067 A 
ATOM      7  C   UNL A   1      32.755  26.208  24.441  1.00  0.00     0.107 A 
ATOM      8  N   UNL A   1      32.446  27.546  24.337  1.00  0.00    -0.254 NA
ATOM      9  C   UNL A   1      32.836  28.235  23.254  1.00  0.00     0.111 A 
ATOM     10  C   UNL A   1      33.814  26.298  22.308  1.00  0.00     0.017 A 
ATOM     11  C   UNL A   1      33.537  27.661  22.226  1.00  0.00     0.021 A 
BRANCH   7  12
ATOM     12  C   UNL A   1      32.304  25.594  25.767  1.00  0.00     0.320 C 
BRANCH  12  13
ATOM     13  N   UNL A   1      31.065  24.761  25.762  1.00  0.00    -0.325 N 
ATOM     14  C   UNL A   1      29.841  25.536  25.916  1.00  0.00     0.333 C 
ATOM     15  H   UNL A   1      31.033  24.354  24.826  1.00  0.00     0.348 HD
BRANCH  13  16
ATOM     16  C   UNL A   1      31.116  23.638  26.722  1.00  0.00     0.364 C 
BRANCH  16  17
ATOM     17  C   UNL A   1      31.935  22.477  26.264  1.00  0.00     0.282 A 
ATOM     18  C   UNL A   1      32.772  20.746  25.431  1.00  0.00     0.202 A 
ATOM     19  N   UNL A   1      33.603  21.043  26.444  1.00  0.00    -0.057 NA
ATOM     20  N   UNL A   1      31.750  21.656  25.252  1.00  0.00    -0.186 NA
ATOM     21  O   UNL A   1      33.048  22.191  26.999  1.00  0.00    -0.333 OA
BRANCH  18  22
ATOM     22  C   UNL A   1      32.954  19.587  24.572  1.00  0.00     0.023 A 
ATOM     23  C   UNL A   1      34.750  16.219  24.612  1.00  0.00     0.044 C 
ATOM     24  C   UNL A   1      33.906  17.379  24.174  1.00  0.00    -0.050 A 
ATOM     25  C   UNL A   1      33.215  17.313  22.959  1.00  0.00     0.003 A 
ATOM     26  C   UNL A   1      33.784  18.528  24.970  1.00  0.00     0.015 A 
ATOM     27  C   UNL A   1      32.407  18.371  22.545  1.00  0.00     0.001 A 
ATOM     28  C   UNL A   1      32.275  19.503  23.350  1.00  0.00     0.012 A 
ENDBRANCH  18  22
ENDBRANCH  16  17
ENDBRANCH  13  16
ENDBRANCH  12  13
ENDBRANCH   7  12
ENDBRANCH   3   6
ENDBRANCH   1   2
BRANCH   1  29
ATOM     29  C   UNL A   1      36.513  22.723  25.653  1.00  0.00     0.042 C 
BRANCH  29  30
ATOM     30  C   UNL A   1      37.854  22.619  24.938  1.00  0.00     0.118 C 
BRANCH  30  31
ATOM     31  N   UNL A   1      38.865  21.921  25.730  1.00  0.00    -0.352 N 
ATOM     32  C   UNL A   1      39.853  22.488  26.520  1.00  0.00     0.251 C 
ATOM     33  H   UNL A   1      38.842  20.937  25.699  1.00  0.00     0.163 HD
ATOM     34  O   UNL A   1      40.713  21.834  27.075  1.00  0.00    -0.269 OA
BRANCH  32  35
ATOM     35  C   UNL A   1      39.761  23.948  26.713  1.00  0.00     0.039 A 
ATOM     36  C   UNL A   1      40.748  24.736  26.113  1.00  0.00     0.014 A 
ATOM     37  C   UNL A   1      38.952  24.439  27.733  1.00  0.00     0.014 A 
ATOM     38  C   UNL A   1      41.053  25.975  26.667  1.00  0.00     0.010 A 
ATOM     39  C   UNL A   1      39.320  25.627  28.335  1.00  0.00     0.010 A 
ATOM     40  C   UNL A   1      40.404  26.367  27.838  1.00  0.00    -0.014 A 
BRANCH  40  41
ATOM     41  C   UNL A   1      40.854  27.483  28.667  1.00  0.00     0.031 A 
ATOM     42  C   UNL A   1      39.975  28.660  28.862  1.00  0.00     0.074 A 
ATOM     43  C   UNL A   1      42.048  27.440  29.303  1.00  0.00     0.049 A 
ATOM     44  N   UNL A   1      40.386  29.833  29.216  1.00  0.00    -0.248 NA
ATOM     45  C   UNL A   1      38.543  28.615  28.585  1.00  0.00     0.031 C 
ATOM     46  C   UNL A   1      42.485  28.316  30.387  1.00  0.00     0.029 A 
ATOM     47  N   UNL A   1      43.204  26.743  28.947  1.00  0.00    -0.354 N 
ATOM     48  C   UNL A   1      39.274  30.591  29.506  1.00  0.00     0.074 A 
ATOM     49  C   UNL A   1      38.163  29.830  28.987  1.00  0.00     0.031 C 
ATOM     50  C   UNL A   1      43.825  28.342  30.403  1.00  0.00     0.029 A 
ATOM     51  C   UNL A   1      44.283  27.590  29.248  1.00  0.00     0.049 A 
ATOM     52  H   UNL A   1      43.254  25.838  28.563  1.00  0.00     0.167 HD
ATOM     53  C   UNL A   1      39.400  31.705  30.284  1.00  0.00     0.031 A 
ATOM     54  C   UNL A   1      45.207  28.025  28.344  1.00  0.00     0.031 A 
ATOM     55  C   UNL A   1      40.803  32.045  30.527  1.00  0.00     0.049 A 
ATOM     56  C   UNL A   1      45.313  29.531  28.271  1.00  0.00     0.074 A 
ATOM     57  C   UNL A   1      41.643  31.891  31.618  1.00  0.00     0.029 A 
ATOM     58  N   UNL A   1      41.614  32.405  29.455  1.00  0.00    -0.354 N 
ATOM     59  N   UNL A   1      44.436  30.347  28.785  1.00  0.00    -0.248 NA
ATOM     60  C   UNL A   1      46.379  30.237  27.564  1.00  0.00     0.031 C 
ATOM     61  C   UNL A   1      42.978  32.088  31.175  1.00  0.00     0.029 A 
ATOM     62  C   UNL A   1      42.946  32.387  29.824  1.00  0.00     0.049 A 
ATOM     63  H   UNL A   1      41.285  32.639  28.558  1.00  0.00     0.167 HD
ATOM     64  C   UNL A   1      44.771  31.640  28.478  1.00  0.00     0.074 A 
ATOM     65  C   UNL A   1      46.009  31.521  27.729  1.00  0.00     0.031 C 
ATOM     66  C   UNL A   1      43.988  32.695  28.851  1.00  0.00     0.031 A 
BRANCH  53  67
ATOM     67  C   UNL A   1      38.248  32.319  31.066  1.00  0.00    -0.014 A 
ATOM     68  C   UNL A   1      38.306  33.678  31.447  1.00  0.00     0.010 A 
ATOM     69  C   UNL A   1      37.131  31.605  31.536  1.00  0.00     0.010 A 
ATOM     70  C   UNL A   1      37.366  34.252  32.323  1.00  0.00     0.020 A 
ATOM     71  C   UNL A   1      36.199  32.154  32.428  1.00  0.00     0.020 A 
ATOM     72  C   UNL A   1      36.331  33.474  32.832  1.00  0.00     0.054 A 
BRANCH  72  73
ATOM     73  S   UNL A   1      35.172  34.188  34.027  1.00  0.00     0.124 S 
ATOM     74  O   UNL A   1      35.733  33.760  35.306  1.00  0.00    -0.237 OA
ATOM     75  O   UNL A   1      35.266  35.617  33.741  1.00  0.00    -0.237 OA
ATOM     76  O   UNL A   1      33.892  33.571  33.680  1.00  0.00    -0.744 OA
ENDBRANCH  72  73
ENDBRANCH  53  67
BRANCH  54  77
ATOM     77  C   UNL A   1      45.443  27.100  27.205  1.00  0.00    -0.014 A 
ATOM     78  C   UNL A   1      46.394  26.075  27.394  1.00  0.00     0.010 A 
ATOM     79  C   UNL A   1      44.478  26.960  26.192  1.00  0.00     0.010 A 
ATOM     80  C   UNL A   1      46.272  24.863  26.714  1.00  0.00     0.020 A 
ATOM     81  C   UNL A   1      44.355  25.744  25.507  1.00  0.00     0.020 A 
ATOM     82  C   UNL A   1      45.211  24.684  25.826  1.00  0.00     0.054 A 
BRANCH  82  83
ATOM     83  S   UNL A   1      44.846  22.989  25.278  1.00  0.00     0.124 S 
ATOM     84  O   UNL A   1      44.740  23.144  23.831  1.00  0.00    -0.237 OA
ATOM     85  O   UNL A   1      46.026  22.261  25.749  1.00  0.00    -0.237 OA
ATOM     86  O   UNL A   1      43.602  22.672  25.973  1.00  0.00    -0.744 OA
ENDBRANCH  82  83
ENDBRANCH  54  77
BRANCH  66  87
ATOM     87  C   UNL A   1      44.158  34.128  28.403  1.00  0.00    -0.014 A 
ATOM     88  C   UNL A   1      43.339  34.764  27.455  1.00  0.00     0.010 A 
ATOM     89  C   UNL A   1      45.123  34.936  29.054  1.00  0.00     0.010 A 
ATOM     90  C   UNL A   1      43.517  36.116  27.124  1.00  0.00     0.020 A 
ATOM     91  C   UNL A   1      45.280  36.295  28.764  1.00  0.00     0.020 A 
ATOM     92  C   UNL A   1      44.490  36.873  27.778  1.00  0.00     0.054 A 
BRANCH  92  93
ATOM     93  S   UNL A   1      44.670  38.634  27.396  1.00  0.00     0.124 S 
ATOM     94  O   UNL A   1      45.898  38.648  26.606  1.00  0.00    -0.237 OA
ATOM     95  O   UNL A   1      43.447  38.938  26.654  1.00  0.00    -0.237 OA
ATOM     96  O   UNL A   1      44.761  39.260  28.712  1.00  0.00    -0.744 OA
ENDBRANCH  92  93
ENDBRANCH  66  87
ENDBRANCH  40  41
ENDBRANCH  32  35
ENDBRANCH  30  31
ENDBRANCH  29  30
ENDBRANCH   1  29
TORSDOF 18
ENDMDL
