MODEL 1
REMARK VINA RESULT:     -11.9      0.000      0.000
REMARK SMILES O=C(NCCCNC(=O)c1ccc2nc(C3CCCCC3)[nH]c2c1)c1ccc(-c2c3nc(c(-c4ccc(S(=O)(=O)[O-])cc4)c4ccc([nH]4)c(-c4ccc(S(=O)(=O)[O-])cc4)c4nc(c(-c5ccc(S(=O)(=O)[O-])cc5)c5ccc2[nH]5)C=C4)C=C3)cc1
REMARK SMILES IDX 4 1 3 2 1 3 2 4 25 6 26 7 84 8 27 9 83 10 28 11 29 12 30 13
REMARK SMILES IDX 77 14 31 15 82 16 76 17 78 18 32 19 81 20 75 21 74 22 33 24
REMARK SMILES IDX 63 25 44 26 62 27 45 28 48 29 61 30 79 31 46 32 47 33 60 35
REMARK SMILES IDX 80 36 49 37 34 38 35 39 43 40 36 41 42 42 37 43 38 44 39 45
REMARK SMILES IDX 40 46 41 47 64 48 65 49 73 50 66 51 72 52 67 53 68 54 69 55
REMARK SMILES IDX 70 56 71 57 50 58 51 59 59 60 52 61 58 62 53 63 54 64 55 65
REMARK SMILES IDX 56 66 57 67 5 68 6 69 7 70 8 71 9 73 10 74 11 75 24 76 12 77
REMARK SMILES IDX 23 78 13 79 22 80 14 81 15 82 16 84 17 85 21 86 18 87 20 88
REMARK SMILES IDX 19 89
REMARK H PARENT 3 5 78 23 48 34 7 72 22 83
REMARK Flexibility Score: inf
ROOT
ATOM      1  C   UNL A   1      33.634  28.231  27.170  1.00  0.00     0.118 C 
ENDROOT
BRANCH   1   2
ATOM      2  N   UNL A   1      33.504  29.654  27.454  1.00  0.00    -0.352 N 
ATOM      3  O   UNL A   1      34.015  31.642  28.372  1.00  0.00    -0.269 OA
ATOM      4  C   UNL A   1      34.391  30.518  28.048  1.00  0.00     0.251 C 
ATOM      5  H   UNL A   1      32.650  30.057  27.178  1.00  0.00     0.163 HD
BRANCH   4   6
ATOM      6  C   UNL A   1      35.785  30.098  28.310  1.00  0.00     0.039 A 
ATOM      7  C   UNL A   1      36.761  30.212  27.317  1.00  0.00     0.014 A 
ATOM      8  C   UNL A   1      36.132  29.620  29.577  1.00  0.00     0.014 A 
ATOM      9  C   UNL A   1      38.040  29.720  27.542  1.00  0.00     0.010 A 
ATOM     10  C   UNL A   1      37.447  29.217  29.834  1.00  0.00     0.010 A 
ATOM     11  C   UNL A   1      38.407  29.248  28.812  1.00  0.00    -0.014 A 
BRANCH  11  12
ATOM     12  C   UNL A   1      39.830  28.911  29.068  1.00  0.00     0.031 A 
ATOM     13  C   UNL A   1      40.413  27.588  28.656  1.00  0.00     0.074 A 
ATOM     14  C   UNL A   1      40.601  29.840  29.667  1.00  0.00     0.049 A 
ATOM     15  N   UNL A   1      41.643  27.162  28.792  1.00  0.00    -0.248 NA
ATOM     16  C   UNL A   1      39.508  26.617  28.019  1.00  0.00     0.031 C 
ATOM     17  C   UNL A   1      40.135  31.154  30.127  1.00  0.00     0.029 A 
ATOM     18  N   UNL A   1      41.936  29.840  29.977  1.00  0.00    -0.354 N 
ATOM     19  C   UNL A   1      41.658  25.869  28.280  1.00  0.00     0.074 A 
ATOM     20  C   UNL A   1      40.312  25.575  27.840  1.00  0.00     0.031 C 
ATOM     21  C   UNL A   1      41.173  31.846  30.617  1.00  0.00     0.029 A 
ATOM     22  C   UNL A   1      42.362  31.005  30.571  1.00  0.00     0.049 A 
ATOM     23  H   UNL A   1      42.533  29.080  29.793  1.00  0.00     0.167 HD
ATOM     24  C   UNL A   1      42.704  25.012  28.190  1.00  0.00     0.031 A 
ATOM     25  C   UNL A   1      43.568  31.355  31.053  1.00  0.00     0.031 A 
ATOM     26  C   UNL A   1      44.044  25.321  28.620  1.00  0.00     0.049 A 
ATOM     27  C   UNL A   1      44.699  30.373  30.956  1.00  0.00     0.074 A 
ATOM     28  C   UNL A   1      45.181  24.538  28.515  1.00  0.00     0.029 A 
ATOM     29  N   UNL A   1      44.427  26.499  29.244  1.00  0.00    -0.354 N 
ATOM     30  N   UNL A   1      44.703  29.179  30.414  1.00  0.00    -0.248 NA
ATOM     31  C   UNL A   1      45.983  30.782  31.537  1.00  0.00     0.031 C 
ATOM     32  C   UNL A   1      46.240  25.218  29.126  1.00  0.00     0.029 A 
ATOM     33  C   UNL A   1      45.774  26.448  29.564  1.00  0.00     0.049 A 
ATOM     34  H   UNL A   1      43.830  27.259  29.433  1.00  0.00     0.167 HD
ATOM     35  C   UNL A   1      45.992  28.695  30.587  1.00  0.00     0.074 A 
ATOM     36  C   UNL A   1      46.747  29.738  31.253  1.00  0.00     0.031 C 
ATOM     37  C   UNL A   1      46.505  27.491  30.236  1.00  0.00     0.031 A 
BRANCH  24  38
ATOM     38  C   UNL A   1      42.454  23.641  27.622  1.00  0.00    -0.014 A 
ATOM     39  C   UNL A   1      42.694  23.358  26.266  1.00  0.00     0.010 A 
ATOM     40  C   UNL A   1      42.082  22.592  28.484  1.00  0.00     0.010 A 
ATOM     41  C   UNL A   1      42.555  22.054  25.780  1.00  0.00     0.020 A 
ATOM     42  C   UNL A   1      41.961  21.283  28.006  1.00  0.00     0.020 A 
ATOM     43  C   UNL A   1      42.194  21.024  26.654  1.00  0.00     0.054 A 
BRANCH  43  44
ATOM     44  S   UNL A   1      42.088  19.331  26.010  1.00  0.00     0.124 S 
ATOM     45  O   UNL A   1      42.609  18.550  27.129  1.00  0.00    -0.237 OA
ATOM     46  O   UNL A   1      40.660  19.176  25.748  1.00  0.00    -0.237 OA
ATOM     47  O   UNL A   1      42.938  19.357  24.822  1.00  0.00    -0.744 OA
ENDBRANCH  43  44
ENDBRANCH  24  38
BRANCH  25  48
ATOM     48  C   UNL A   1      43.750  32.673  31.716  1.00  0.00    -0.014 A 
ATOM     49  C   UNL A   1      44.220  33.785  30.997  1.00  0.00     0.010 A 
ATOM     50  C   UNL A   1      43.450  32.820  33.083  1.00  0.00     0.010 A 
ATOM     51  C   UNL A   1      44.413  35.011  31.639  1.00  0.00     0.020 A 
ATOM     52  C   UNL A   1      43.611  34.051  33.721  1.00  0.00     0.020 A 
ATOM     53  C   UNL A   1      44.112  35.135  32.998  1.00  0.00     0.054 A 
BRANCH  53  54
ATOM     54  S   UNL A   1      44.345  36.740  33.812  1.00  0.00     0.124 S 
ATOM     55  O   UNL A   1      45.092  37.483  32.801  1.00  0.00    -0.237 OA
ATOM     56  O   UNL A   1      42.971  37.184  34.039  1.00  0.00    -0.237 OA
ATOM     57  O   UNL A   1      45.090  36.402  35.022  1.00  0.00    -0.744 OA
ENDBRANCH  53  54
ENDBRANCH  25  48
BRANCH  37  58
ATOM     58  C   UNL A   1      47.952  27.245  30.558  1.00  0.00    -0.014 A 
ATOM     59  C   UNL A   1      48.966  27.650  29.673  1.00  0.00     0.010 A 
ATOM     60  C   UNL A   1      48.302  26.631  31.773  1.00  0.00     0.010 A 
ATOM     61  C   UNL A   1      50.308  27.414  29.984  1.00  0.00     0.020 A 
ATOM     62  C   UNL A   1      49.643  26.418  32.099  1.00  0.00     0.020 A 
ATOM     63  C   UNL A   1      50.637  26.797  31.194  1.00  0.00     0.054 A 
BRANCH  63  64
ATOM     64  S   UNL A   1      52.387  26.534  31.592  1.00  0.00     0.124 S 
ATOM     65  O   UNL A   1      52.315  25.469  32.588  1.00  0.00    -0.237 OA
ATOM     66  O   UNL A   1      52.956  26.153  30.302  1.00  0.00    -0.237 OA
ATOM     67  O   UNL A   1      52.825  27.833  32.100  1.00  0.00    -0.744 OA
ENDBRANCH  63  64
ENDBRANCH  37  58
ENDBRANCH  11  12
ENDBRANCH   4   6
ENDBRANCH   1   2
BRANCH   1  68
ATOM     68  C   UNL A   1      33.906  27.947  25.700  1.00  0.00     0.042 C 
BRANCH  68  69
ATOM     69  C   UNL A   1      32.978  26.910  25.086  1.00  0.00     0.118 C 
BRANCH  69  70
ATOM     70  N   UNL A   1      33.075  26.873  23.634  1.00  0.00    -0.352 N 
ATOM     71  C   UNL A   1      33.561  25.892  22.810  1.00  0.00     0.251 C 
ATOM     72  H   UNL A   1      32.739  27.675  23.173  1.00  0.00     0.163 HD
ATOM     73  O   UNL A   1      33.759  26.132  21.622  1.00  0.00    -0.269 OA
BRANCH  71  74
ATOM     74  C   UNL A   1      33.858  24.545  23.340  1.00  0.00     0.042 A 
ATOM     75  C   UNL A   1      34.913  24.345  24.241  1.00  0.00     0.016 A 
ATOM     76  C   UNL A   1      33.006  23.494  22.967  1.00  0.00     0.042 A 
ATOM     77  C   UNL A   1      35.197  23.068  24.737  1.00  0.00     0.031 A 
ATOM     78  C   UNL A   1      33.302  22.239  23.501  1.00  0.00     0.066 A 
ATOM     79  C   UNL A   1      34.370  22.003  24.358  1.00  0.00     0.089 A 
ATOM     80  N   UNL A   1      32.697  21.016  23.372  1.00  0.00    -0.342 N 
ATOM     81  N   UNL A   1      34.420  20.684  24.727  1.00  0.00    -0.233 NA
ATOM     82  C   UNL A   1      33.395  20.108  24.132  1.00  0.00     0.110 A 
ATOM     83  H   UNL A   1      31.901  20.822  22.828  1.00  0.00     0.168 HD
BRANCH  82  84
ATOM     84  C   UNL A   1      32.986  18.676  24.283  1.00  0.00     0.055 C 
ATOM     85  C   UNL A   1      34.003  17.747  23.601  1.00  0.00     0.011 C 
ATOM     86  C   UNL A   1      32.771  18.290  25.753  1.00  0.00     0.011 C 
ATOM     87  C   UNL A   1      33.618  16.279  23.756  1.00  0.00     0.001 C 
ATOM     88  C   UNL A   1      32.391  16.817  25.895  1.00  0.00     0.001 C 
ATOM     89  C   UNL A   1      33.413  15.906  25.221  1.00  0.00     0.000 C 
ENDBRANCH  82  84
ENDBRANCH  71  74
ENDBRANCH  69  70
ENDBRANCH  68  69
ENDBRANCH   1  68
TORSDOF 14
ENDMDL
MODEL 2
REMARK VINA RESULT:     -11.6      4.086     10.281
REMARK SMILES O=C(NCCCNC(=O)c1ccc2nc(C3CCCCC3)[nH]c2c1)c1ccc(-c2c3nc(c(-c4ccc(S(=O)(=O)[O-])cc4)c4ccc([nH]4)c(-c4ccc(S(=O)(=O)[O-])cc4)c4nc(c(-c5ccc(S(=O)(=O)[O-])cc5)c5ccc2[nH]5)C=C4)C=C3)cc1
REMARK SMILES IDX 4 1 3 2 1 3 2 4 25 6 26 7 84 8 27 9 83 10 28 11 29 12 30 13
REMARK SMILES IDX 77 14 31 15 82 16 76 17 78 18 32 19 81 20 75 21 74 22 33 24
REMARK SMILES IDX 63 25 44 26 62 27 45 28 48 29 61 30 79 31 46 32 47 33 60 35
REMARK SMILES IDX 80 36 49 37 34 38 35 39 43 40 36 41 42 42 37 43 38 44 39 45
REMARK SMILES IDX 40 46 41 47 64 48 65 49 73 50 66 51 72 52 67 53 68 54 69 55
REMARK SMILES IDX 70 56 71 57 50 58 51 59 59 60 52 61 58 62 53 63 54 64 55 65
REMARK SMILES IDX 56 66 57 67 5 68 6 69 7 70 8 71 9 73 10 74 11 75 24 76 12 77
REMARK SMILES IDX 23 78 13 79 22 80 14 81 15 82 16 84 17 85 21 86 18 87 20 88
REMARK SMILES IDX 19 89
REMARK H PARENT 3 5 78 23 48 34 7 72 22 83
REMARK Flexibility Score: inf
ROOT
ATOM      1  C   UNL A   1      40.445  21.520  27.241  1.00  0.00     0.118 C 
ENDROOT
BRANCH   1   2
ATOM      2  N   UNL A   1      39.394  21.879  26.298  1.00  0.00    -0.352 N 
ATOM      3  O   UNL A   1      37.743  23.115  25.401  1.00  0.00    -0.269 OA
ATOM      4  C   UNL A   1      38.737  23.073  26.124  1.00  0.00     0.251 C 
ATOM      5  H   UNL A   1      39.113  21.156  25.693  1.00  0.00     0.163 HD
BRANCH   4   6
ATOM      6  C   UNL A   1      39.209  24.295  26.810  1.00  0.00     0.039 A 
ATOM      7  C   UNL A   1      38.891  24.527  28.150  1.00  0.00     0.014 A 
ATOM      8  C   UNL A   1      40.015  25.203  26.117  1.00  0.00     0.014 A 
ATOM      9  C   UNL A   1      39.253  25.725  28.751  1.00  0.00     0.010 A 
ATOM     10  C   UNL A   1      40.464  26.364  26.755  1.00  0.00     0.010 A 
ATOM     11  C   UNL A   1      40.072  26.642  28.073  1.00  0.00    -0.014 A 
BRANCH  11  12
ATOM     12  C   UNL A   1      40.597  27.818  28.812  1.00  0.00     0.031 A 
ATOM     13  C   UNL A   1      42.002  27.851  29.344  1.00  0.00     0.074 A 
ATOM     14  C   UNL A   1      39.778  28.876  28.977  1.00  0.00     0.049 A 
ATOM     15  N   UNL A   1      42.607  28.818  29.987  1.00  0.00    -0.248 NA
ATOM     16  C   UNL A   1      42.834  26.655  29.137  1.00  0.00     0.031 C 
ATOM     17  C   UNL A   1      38.385  28.945  28.518  1.00  0.00     0.029 A 
ATOM     18  N   UNL A   1      39.993  30.100  29.555  1.00  0.00    -0.354 N 
ATOM     19  C   UNL A   1      43.879  28.342  30.283  1.00  0.00     0.074 A 
ATOM     20  C   UNL A   1      43.958  26.996  29.758  1.00  0.00     0.031 C 
ATOM     21  C   UNL A   1      37.889  30.160  28.791  1.00  0.00     0.029 A 
ATOM     22  C   UNL A   1      38.898  30.931  29.504  1.00  0.00     0.049 A 
ATOM     23  H   UNL A   1      40.848  30.359  29.968  1.00  0.00     0.167 HD
ATOM     24  C   UNL A   1      44.885  28.976  30.934  1.00  0.00     0.031 A 
ATOM     25  C   UNL A   1      38.711  32.168  29.997  1.00  0.00     0.031 A 
ATOM     26  C   UNL A   1      44.799  30.322  31.442  1.00  0.00     0.049 A 
ATOM     27  C   UNL A   1      39.839  32.832  30.732  1.00  0.00     0.074 A 
ATOM     28  C   UNL A   1      45.785  31.069  32.063  1.00  0.00     0.029 A 
ATOM     29  N   UNL A   1      43.664  31.118  31.397  1.00  0.00    -0.354 N 
ATOM     30  N   UNL A   1      41.053  32.385  30.946  1.00  0.00    -0.248 NA
ATOM     31  C   UNL A   1      39.572  34.162  31.293  1.00  0.00     0.031 C 
ATOM     32  C   UNL A   1      45.232  32.295  32.444  1.00  0.00     0.029 A 
ATOM     33  C   UNL A   1      43.915  32.333  32.013  1.00  0.00     0.049 A 
ATOM     34  H   UNL A   1      42.807  30.858  30.989  1.00  0.00     0.167 HD
ATOM     35  C   UNL A   1      41.696  33.382  31.667  1.00  0.00     0.074 A 
ATOM     36  C   UNL A   1      40.748  34.468  31.820  1.00  0.00     0.031 C 
ATOM     37  C   UNL A   1      42.956  33.396  32.166  1.00  0.00     0.031 A 
BRANCH  24  38
ATOM     38  C   UNL A   1      46.170  28.227  31.162  1.00  0.00    -0.014 A 
ATOM     39  C   UNL A   1      46.370  27.459  32.323  1.00  0.00     0.010 A 
ATOM     40  C   UNL A   1      47.146  28.201  30.148  1.00  0.00     0.010 A 
ATOM     41  C   UNL A   1      47.528  26.688  32.470  1.00  0.00     0.020 A 
ATOM     42  C   UNL A   1      48.295  27.415  30.283  1.00  0.00     0.020 A 
ATOM     43  C   UNL A   1      48.480  26.667  31.447  1.00  0.00     0.054 A 
BRANCH  43  44
ATOM     44  S   UNL A   1      49.939  25.604  31.636  1.00  0.00     0.124 S 
ATOM     45  O   UNL A   1      50.947  26.555  32.098  1.00  0.00    -0.237 OA
ATOM     46  O   UNL A   1      49.497  24.628  32.628  1.00  0.00    -0.237 OA
ATOM     47  O   UNL A   1      50.157  25.070  30.294  1.00  0.00    -0.744 OA
ENDBRANCH  43  44
ENDBRANCH  24  38
BRANCH  25  48
ATOM     48  C   UNL A   1      37.389  32.833  29.858  1.00  0.00    -0.014 A 
ATOM     49  C   UNL A   1      36.417  32.726  30.866  1.00  0.00     0.010 A 
ATOM     50  C   UNL A   1      37.097  33.582  28.702  1.00  0.00     0.010 A 
ATOM     51  C   UNL A   1      35.167  33.333  30.710  1.00  0.00     0.020 A 
ATOM     52  C   UNL A   1      35.863  34.216  28.556  1.00  0.00     0.020 A 
ATOM     53  C   UNL A   1      34.897  34.070  29.553  1.00  0.00     0.054 A 
BRANCH  53  54
ATOM     54  S   UNL A   1      33.279  34.872  29.376  1.00  0.00     0.124 S 
ATOM     55  O   UNL A   1      32.568  33.927  28.521  1.00  0.00    -0.237 OA
ATOM     56  O   UNL A   1      32.811  34.953  30.758  1.00  0.00    -0.237 OA
ATOM     57  O   UNL A   1      33.602  36.157  28.760  1.00  0.00    -0.744 OA
ENDBRANCH  53  54
ENDBRANCH  25  48
BRANCH  37  58
ATOM     58  C   UNL A   1      43.380  34.628  32.914  1.00  0.00    -0.014 A 
ATOM     59  C   UNL A   1      43.317  34.676  34.318  1.00  0.00     0.010 A 
ATOM     60  C   UNL A   1      43.875  35.739  32.209  1.00  0.00     0.010 A 
ATOM     61  C   UNL A   1      43.712  35.828  35.003  1.00  0.00     0.020 A 
ATOM     62  C   UNL A   1      44.296  36.882  32.891  1.00  0.00     0.020 A 
ATOM     63  C   UNL A   1      44.197  36.924  34.284  1.00  0.00     0.054 A 
BRANCH  63  64
ATOM     64  S   UNL A   1      44.738  38.395  35.197  1.00  0.00     0.124 S 
ATOM     65  O   UNL A   1      43.978  38.277  36.438  1.00  0.00    -0.237 OA
ATOM     66  O   UNL A   1      46.178  38.187  35.318  1.00  0.00    -0.237 OA
ATOM     67  O   UNL A   1      44.345  39.504  34.329  1.00  0.00    -0.744 OA
ENDBRANCH  63  64
ENDBRANCH  37  58
ENDBRANCH  11  12
ENDBRANCH   4   6
ENDBRANCH   1   2
BRANCH   1  68
ATOM     68  C   UNL A   1      41.616  20.813  26.575  1.00  0.00     0.042 C 
BRANCH  68  69
ATOM     69  C   UNL A   1      42.839  21.695  26.371  1.00  0.00     0.118 C 
BRANCH  69  70
ATOM     70  N   UNL A   1      43.332  21.647  25.003  1.00  0.00    -0.352 N 
ATOM     71  C   UNL A   1      44.090  22.554  24.310  1.00  0.00     0.251 C 
ATOM     72  H   UNL A   1      43.083  20.840  24.497  1.00  0.00     0.163 HD
ATOM     73  O   UNL A   1      44.224  22.439  23.094  1.00  0.00    -0.269 OA
BRANCH  71  74
ATOM     74  C   UNL A   1      44.743  23.679  25.011  1.00  0.00     0.042 A 
ATOM     75  C   UNL A   1      46.036  23.543  25.535  1.00  0.00     0.016 A 
ATOM     76  C   UNL A   1      44.056  24.901  25.066  1.00  0.00     0.042 A 
ATOM     77  C   UNL A   1      46.651  24.607  26.205  1.00  0.00     0.031 A 
ATOM     78  C   UNL A   1      44.709  25.949  25.717  1.00  0.00     0.066 A 
ATOM     79  C   UNL A   1      45.970  25.828  26.289  1.00  0.00     0.089 A 
ATOM     80  N   UNL A   1      44.359  27.253  25.947  1.00  0.00    -0.342 N 
ATOM     81  N   UNL A   1      46.367  27.011  26.855  1.00  0.00    -0.233 NA
ATOM     82  C   UNL A   1      45.386  27.862  26.628  1.00  0.00     0.110 A 
ATOM     83  H   UNL A   1      43.516  27.680  25.674  1.00  0.00     0.168 HD
BRANCH  82  84
ATOM     84  C   UNL A   1      45.381  29.312  26.999  1.00  0.00     0.055 C 
ATOM     85  C   UNL A   1      46.403  30.091  26.156  1.00  0.00     0.011 C 
ATOM     86  C   UNL A   1      43.980  29.929  26.893  1.00  0.00     0.011 C 
ATOM     87  C   UNL A   1      46.405  31.576  26.503  1.00  0.00     0.001 C 
ATOM     88  C   UNL A   1      43.996  31.417  27.238  1.00  0.00     0.001 C 
ATOM     89  C   UNL A   1      45.008  32.179  26.388  1.00  0.00     0.000 C 
ENDBRANCH  82  84
ENDBRANCH  71  74
ENDBRANCH  69  70
ENDBRANCH  68  69
ENDBRANCH   1  68
TORSDOF 14
ENDMDL
MODEL 3
REMARK VINA RESULT:     -11.6      4.097     11.113
REMARK SMILES O=C(NCCCNC(=O)c1ccc2nc(C3CCCCC3)[nH]c2c1)c1ccc(-c2c3nc(c(-c4ccc(S(=O)(=O)[O-])cc4)c4ccc([nH]4)c(-c4ccc(S(=O)(=O)[O-])cc4)c4nc(c(-c5ccc(S(=O)(=O)[O-])cc5)c5ccc2[nH]5)C=C4)C=C3)cc1
REMARK SMILES IDX 4 1 3 2 1 3 2 4 25 6 26 7 84 8 27 9 83 10 28 11 29 12 30 13
REMARK SMILES IDX 77 14 31 15 82 16 76 17 78 18 32 19 81 20 75 21 74 22 33 24
REMARK SMILES IDX 63 25 44 26 62 27 45 28 48 29 61 30 79 31 46 32 47 33 60 35
REMARK SMILES IDX 80 36 49 37 34 38 35 39 43 40 36 41 42 42 37 43 38 44 39 45
REMARK SMILES IDX 40 46 41 47 64 48 65 49 73 50 66 51 72 52 67 53 68 54 69 55
REMARK SMILES IDX 70 56 71 57 50 58 51 59 59 60 52 61 58 62 53 63 54 64 55 65
REMARK SMILES IDX 56 66 57 67 5 68 6 69 7 70 8 71 9 73 10 74 11 75 24 76 12 77
REMARK SMILES IDX 23 78 13 79 22 80 14 81 15 82 16 84 17 85 21 86 18 87 20 88
REMARK SMILES IDX 19 89
REMARK H PARENT 3 5 78 23 48 34 7 72 22 83
REMARK Flexibility Score: inf
ROOT
ATOM      1  C   UNL A   1      40.571  21.404  27.315  1.00  0.00     0.118 C 
ENDROOT
BRANCH   1   2
ATOM      2  N   UNL A   1      39.523  21.716  26.352  1.00  0.00    -0.352 N 
ATOM      3  O   UNL A   1      37.849  22.888  25.413  1.00  0.00    -0.269 OA
ATOM      4  C   UNL A   1      38.833  22.886  26.149  1.00  0.00     0.251 C 
ATOM      5  H   UNL A   1      39.271  20.974  25.756  1.00  0.00     0.163 HD
BRANCH   4   6
ATOM      6  C   UNL A   1      39.261  24.134  26.819  1.00  0.00     0.039 A 
ATOM      7  C   UNL A   1      38.906  24.386  28.146  1.00  0.00     0.014 A 
ATOM      8  C   UNL A   1      40.062  25.045  26.125  1.00  0.00     0.014 A 
ATOM      9  C   UNL A   1      39.227  25.605  28.729  1.00  0.00     0.010 A 
ATOM     10  C   UNL A   1      40.470  26.230  26.749  1.00  0.00     0.010 A 
ATOM     11  C   UNL A   1      40.041  26.526  28.050  1.00  0.00    -0.014 A 
BRANCH  11  12
ATOM     12  C   UNL A   1      40.521  27.729  28.776  1.00  0.00     0.031 A 
ATOM     13  C   UNL A   1      39.624  28.908  29.028  1.00  0.00     0.074 A 
ATOM     14  C   UNL A   1      41.792  27.729  29.227  1.00  0.00     0.049 A 
ATOM     15  N   UNL A   1      39.896  30.017  29.667  1.00  0.00    -0.248 NA
ATOM     16  C   UNL A   1      38.253  28.843  28.496  1.00  0.00     0.031 C 
ATOM     17  C   UNL A   1      42.759  26.644  29.021  1.00  0.00     0.029 A 
ATOM     18  N   UNL A   1      42.487  28.652  29.962  1.00  0.00    -0.354 N 
ATOM     19  C   UNL A   1      38.744  30.792  29.596  1.00  0.00     0.074 A 
ATOM     20  C   UNL A   1      37.771  30.031  28.842  1.00  0.00     0.031 C 
ATOM     21  C   UNL A   1      43.902  26.945  29.654  1.00  0.00     0.029 A 
ATOM     22  C   UNL A   1      43.777  28.268  30.249  1.00  0.00     0.049 A 
ATOM     23  H   UNL A   1      42.102  29.509  30.256  1.00  0.00     0.167 HD
ATOM     24  C   UNL A   1      38.525  32.025  30.115  1.00  0.00     0.031 A 
ATOM     25  C   UNL A   1      44.762  28.916  30.896  1.00  0.00     0.031 A 
ATOM     26  C   UNL A   1      39.498  32.768  30.875  1.00  0.00     0.049 A 
ATOM     27  C   UNL A   1      44.492  30.289  31.438  1.00  0.00     0.074 A 
ATOM     28  C   UNL A   1      39.347  34.000  31.489  1.00  0.00     0.029 A 
ATOM     29  N   UNL A   1      40.800  32.358  31.116  1.00  0.00    -0.354 N 
ATOM     30  N   UNL A   1      43.375  30.976  31.409  1.00  0.00    -0.248 NA
ATOM     31  C   UNL A   1      45.612  30.974  32.094  1.00  0.00     0.031 C 
ATOM     32  C   UNL A   1      40.574  34.360  32.055  1.00  0.00     0.029 A 
ATOM     33  C   UNL A   1      41.475  33.329  31.838  1.00  0.00     0.049 A 
ATOM     34  H   UNL A   1      41.188  31.504  30.818  1.00  0.00     0.167 HD
ATOM     35  C   UNL A   1      43.660  32.176  32.047  1.00  0.00     0.074 A 
ATOM     36  C   UNL A   1      45.041  32.105  32.480  1.00  0.00     0.031 C 
ATOM     37  C   UNL A   1      42.852  33.246  32.249  1.00  0.00     0.031 A 
BRANCH  24  38
ATOM     38  C   UNL A   1      37.190  32.675  29.868  1.00  0.00    -0.014 A 
ATOM     39  C   UNL A   1      36.192  32.688  30.859  1.00  0.00     0.010 A 
ATOM     40  C   UNL A   1      36.973  33.379  28.669  1.00  0.00     0.010 A 
ATOM     41  C   UNL A   1      34.998  33.385  30.649  1.00  0.00     0.020 A 
ATOM     42  C   UNL A   1      35.789  34.095  28.465  1.00  0.00     0.020 A 
ATOM     43  C   UNL A   1      34.806  34.087  29.456  1.00  0.00     0.054 A 
BRANCH  43  44
ATOM     44  S   UNL A   1      33.275  35.039  29.241  1.00  0.00     0.124 S 
ATOM     45  O   UNL A   1      32.732  35.046  30.597  1.00  0.00    -0.237 OA
ATOM     46  O   UNL A   1      33.764  36.327  28.756  1.00  0.00    -0.237 OA
ATOM     47  O   UNL A   1      32.513  34.259  28.270  1.00  0.00    -0.744 OA
ENDBRANCH  43  44
ENDBRANCH  24  38
BRANCH  25  48
ATOM     48  C   UNL A   1      46.107  28.293  31.016  1.00  0.00    -0.014 A 
ATOM     49  C   UNL A   1      47.100  28.526  30.051  1.00  0.00     0.010 A 
ATOM     50  C   UNL A   1      46.398  27.457  32.111  1.00  0.00     0.010 A 
ATOM     51  C   UNL A   1      48.351  27.912  30.163  1.00  0.00     0.020 A 
ATOM     52  C   UNL A   1      47.656  26.867  32.243  1.00  0.00     0.020 A 
ATOM     53  C   UNL A   1      48.619  27.083  31.256  1.00  0.00     0.054 A 
BRANCH  53  54
ATOM     54  S   UNL A   1      50.255  26.312  31.398  1.00  0.00     0.124 S 
ATOM     55  O   UNL A   1      50.374  26.123  32.841  1.00  0.00    -0.237 OA
ATOM     56  O   UNL A   1      50.102  25.092  30.610  1.00  0.00    -0.237 OA
ATOM     57  O   UNL A   1      51.152  27.310  30.819  1.00  0.00    -0.744 OA
ENDBRANCH  53  54
ENDBRANCH  25  48
BRANCH  37  58
ATOM     58  C   UNL A   1      43.445  34.419  32.978  1.00  0.00    -0.014 A 
ATOM     59  C   UNL A   1      44.029  35.485  32.272  1.00  0.00     0.010 A 
ATOM     60  C   UNL A   1      43.389  34.471  34.382  1.00  0.00     0.010 A 
ATOM     61  C   UNL A   1      44.578  36.570  32.961  1.00  0.00     0.020 A 
ATOM     62  C   UNL A   1      43.913  35.565  35.072  1.00  0.00     0.020 A 
ATOM     63  C   UNL A   1      44.518  36.601  34.357  1.00  0.00     0.054 A 
BRANCH  63  64
ATOM     64  S   UNL A   1      45.205  38.036  35.228  1.00  0.00     0.124 S 
ATOM     65  O   UNL A   1      45.521  38.937  34.123  1.00  0.00    -0.237 OA
ATOM     66  O   UNL A   1      44.098  38.453  36.084  1.00  0.00    -0.237 OA
ATOM     67  O   UNL A   1      46.361  37.490  35.936  1.00  0.00    -0.744 OA
ENDBRANCH  63  64
ENDBRANCH  37  58
ENDBRANCH  11  12
ENDBRANCH   4   6
ENDBRANCH   1   2
BRANCH   1  68
ATOM     68  C   UNL A   1      41.871  20.975  26.651  1.00  0.00     0.042 C 
BRANCH  68  69
ATOM     69  C   UNL A   1      42.761  22.133  26.225  1.00  0.00     0.118 C 
BRANCH  69  70
ATOM     70  N   UNL A   1      43.354  21.922  24.913  1.00  0.00    -0.352 N 
ATOM     71  C   UNL A   1      44.229  22.705  24.207  1.00  0.00     0.251 C 
ATOM     72  H   UNL A   1      43.086  21.088  24.464  1.00  0.00     0.163 HD
ATOM     73  O   UNL A   1      44.448  22.465  23.023  1.00  0.00    -0.269 OA
BRANCH  71  74
ATOM     74  C   UNL A   1      44.907  23.846  24.856  1.00  0.00     0.042 A 
ATOM     75  C   UNL A   1      46.276  23.792  25.155  1.00  0.00     0.016 A 
ATOM     76  C   UNL A   1      44.153  25.006  25.093  1.00  0.00     0.042 A 
ATOM     77  C   UNL A   1      46.916  24.871  25.775  1.00  0.00     0.031 A 
ATOM     78  C   UNL A   1      44.829  26.073  25.688  1.00  0.00     0.066 A 
ATOM     79  C   UNL A   1      46.173  26.028  26.039  1.00  0.00     0.089 A 
ATOM     80  N   UNL A   1      44.428  27.333  26.047  1.00  0.00    -0.342 N 
ATOM     81  N   UNL A   1      46.572  27.213  26.601  1.00  0.00    -0.233 NA
ATOM     82  C   UNL A   1      45.508  27.991  26.585  1.00  0.00     0.110 A 
ATOM     83  H   UNL A   1      43.523  27.702  25.939  1.00  0.00     0.168 HD
BRANCH  82  84
ATOM     84  C   UNL A   1      45.461  29.419  27.034  1.00  0.00     0.055 C 
ATOM     85  C   UNL A   1      46.380  30.291  26.165  1.00  0.00     0.011 C 
ATOM     86  C   UNL A   1      44.028  29.966  27.062  1.00  0.00     0.011 C 
ATOM     87  C   UNL A   1      46.336  31.755  26.593  1.00  0.00     0.001 C 
ATOM     88  C   UNL A   1      43.998  31.434  27.486  1.00  0.00     0.001 C 
ATOM     89  C   UNL A   1      44.907  32.290  26.610  1.00  0.00     0.000 C 
ENDBRANCH  82  84
ENDBRANCH  71  74
ENDBRANCH  69  70
ENDBRANCH  68  69
ENDBRANCH   1  68
TORSDOF 14
ENDMDL
