MODEL 1
REMARK VINA RESULT:     -12.2      0.000      0.000
REMARK SMILES CC(C)[C@H](NC(=O)c1cc2cc(Cl)ccc2n1C)C(=O)N[C@@H](C(=O)NCCCNC(=O)c1ccc(-c2c3nc(c(-c4ccc(S(=O)(=O)[O-])cc4)c4ccc([nH]4)c(-c4ccc(S(=O)(=O)[O-])cc4)c4nc(c(-c5ccc(S(=O)(=O)[O-])cc5)c5ccc2[nH]5)C=C4)C=C3)cc1)c1ccccc1
REMARK SMILES IDX 26 1 25 2 23 3 24 4 22 6 21 7 19 8 20 9 4 11 2 12 1 13 3 14
REMARK SMILES IDX 5 15 6 16 7 18 8 19 9 20 17 21 10 22 16 23 18 24 11 25 15 26
REMARK SMILES IDX 12 27 14 28 13 29 92 30 93 31 97 32 94 33 96 34 95 35 27 36
REMARK SMILES IDX 28 37 29 38 30 39 31 41 32 42 33 43 91 44 34 45 90 46 35 47
REMARK SMILES IDX 36 48 37 49 84 50 38 51 89 52 83 53 85 54 39 55 88 56 82 57
REMARK SMILES IDX 81 58 40 60 70 61 51 62 69 63 52 64 55 65 68 66 86 67 53 68
REMARK SMILES IDX 54 69 67 71 87 72 56 73 41 74 42 75 50 76 43 77 49 78 44 79
REMARK SMILES IDX 45 80 46 81 47 82 48 83 71 84 72 85 80 86 73 87 79 88 74 89
REMARK SMILES IDX 75 90 76 91 77 92 78 93 57 94 58 95 66 96 59 97 65 98 60 99
REMARK SMILES IDX 61 100 62 101 63 102 64 103
REMARK H PARENT 25 5 21 10 5 17 29 40 85 59 55 70
REMARK Flexibility Score: inf
ROOT
ATOM      1  C   UNL A   1      33.979  28.373  26.278  1.00  0.00     0.117 C 
ENDROOT
BRANCH   1   2
ATOM      2  N   UNL A   1      33.988  28.751  24.877  1.00  0.00    -0.354 N 
ATOM      3  C   UNL A   1      33.550  28.061  23.780  1.00  0.00     0.247 C 
ATOM      4  O   UNL A   1      33.401  28.734  22.754  1.00  0.00    -0.272 OA
ATOM      5  H   UNL A   1      34.369  29.640  24.688  1.00  0.00     0.163 HD
BRANCH   3   6
ATOM      6  C   UNL A   1      33.128  26.553  23.875  1.00  0.00     0.202 C 
BRANCH   6   7
ATOM      7  N   UNL A   1      33.310  25.880  22.598  1.00  0.00    -0.339 N 
ATOM      8  C   UNL A   1      33.368  24.584  22.226  1.00  0.00     0.243 C 
ATOM      9  O   UNL A   1      33.489  24.411  21.005  1.00  0.00    -0.273 OA
ATOM     10  H   UNL A   1      33.414  26.504  21.843  1.00  0.00     0.164 HD
BRANCH   8  11
ATOM     11  C   UNL A   1      33.262  23.351  23.172  1.00  0.00     0.174 C 
BRANCH  11  12
ATOM     12  C   UNL A   1      31.873  22.690  23.291  1.00  0.00     0.015 C 
ATOM     13  C   UNL A   1      30.712  23.565  22.810  1.00  0.00     0.010 C 
ATOM     14  C   UNL A   1      31.850  21.395  22.456  1.00  0.00     0.010 C 
ENDBRANCH  11  12
BRANCH  11  15
ATOM     15  N   UNL A   1      34.116  23.423  24.384  1.00  0.00    -0.339 N 
ATOM     16  C   UNL A   1      34.498  22.628  25.428  1.00  0.00     0.268 C 
ATOM     17  H   UNL A   1      34.532  24.312  24.459  1.00  0.00     0.164 HD
ATOM     18  O   UNL A   1      34.951  23.198  26.419  1.00  0.00    -0.268 OA
BRANCH  16  19
ATOM     19  C   UNL A   1      34.346  21.197  25.395  1.00  0.00     0.107 A 
ATOM     20  C   UNL A   1      33.347  20.450  26.005  1.00  0.00     0.042 A 
ATOM     21  N   UNL A   1      35.280  20.270  24.977  1.00  0.00    -0.340 N 
ATOM     22  C   UNL A   1      33.513  19.090  25.629  1.00  0.00     0.002 A 
ATOM     23  C   UNL A   1      34.705  19.014  24.910  1.00  0.00     0.048 A 
ATOM     24  C   UNL A   1      36.684  20.527  24.740  1.00  0.00     0.150 C 
ATOM     25  C   UNL A   1      32.739  17.927  25.802  1.00  0.00     0.030 A 
ATOM     26  C   UNL A   1      35.144  17.822  24.314  1.00  0.00     0.028 A 
ATOM     27  C   UNL A   1      33.152  16.745  25.181  1.00  0.00     0.041 A 
ATOM     28  C   UNL A   1      34.330  16.692  24.442  1.00  0.00     0.023 A 
ATOM     29  Cl  UNL A   1      32.168  15.335  25.312  1.00  0.00    -0.084 Cl
ENDBRANCH  16  19
ENDBRANCH  11  15
ENDBRANCH   8  11
ENDBRANCH   6   7
BRANCH   6  30
ATOM     30  C   UNL A   1      31.679  26.430  24.348  1.00  0.00    -0.016 A 
ATOM     31  C   UNL A   1      31.394  25.772  25.553  1.00  0.00     0.006 A 
ATOM     32  C   UNL A   1      30.609  27.032  23.665  1.00  0.00     0.006 A 
ATOM     33  C   UNL A   1      30.092  25.684  26.049  1.00  0.00     0.000 A 
ATOM     34  C   UNL A   1      29.305  26.954  24.163  1.00  0.00     0.000 A 
ATOM     35  C   UNL A   1      29.046  26.276  25.352  1.00  0.00     0.000 A 
ENDBRANCH   6  30
ENDBRANCH   3   6
ENDBRANCH   1   2
BRANCH   1  36
ATOM     36  C   UNL A   1      33.247  29.376  27.165  1.00  0.00     0.042 C 
BRANCH  36  37
ATOM     37  C   UNL A   1      33.676  30.829  26.944  1.00  0.00     0.118 C 
BRANCH  37  38
ATOM     38  N   UNL A   1      33.822  31.581  28.177  1.00  0.00    -0.352 N 
ATOM     39  C   UNL A   1      34.805  31.718  29.122  1.00  0.00     0.251 C 
ATOM     40  H   UNL A   1      33.025  32.120  28.383  1.00  0.00     0.163 HD
ATOM     41  O   UNL A   1      34.559  32.521  30.027  1.00  0.00    -0.269 OA
BRANCH  39  42
ATOM     42  C   UNL A   1      36.112  30.994  29.139  1.00  0.00     0.039 A 
ATOM     43  C   UNL A   1      36.274  29.611  29.185  1.00  0.00     0.014 A 
ATOM     44  C   UNL A   1      37.277  31.788  29.144  1.00  0.00     0.014 A 
ATOM     45  C   UNL A   1      37.551  29.042  29.257  1.00  0.00     0.010 A 
ATOM     46  C   UNL A   1      38.558  31.220  29.204  1.00  0.00     0.010 A 
ATOM     47  C   UNL A   1      38.702  29.837  29.281  1.00  0.00    -0.014 A 
BRANCH  47  48
ATOM     48  C   UNL A   1      39.992  29.140  29.391  1.00  0.00     0.031 A 
ATOM     49  C   UNL A   1      40.617  29.001  30.739  1.00  0.00     0.074 A 
ATOM     50  C   UNL A   1      40.649  28.509  28.398  1.00  0.00     0.049 A 
ATOM     51  N   UNL A   1      41.758  29.463  31.146  1.00  0.00    -0.248 NA
ATOM     52  C   UNL A   1      39.901  28.193  31.736  1.00  0.00     0.031 C 
ATOM     53  C   UNL A   1      40.136  28.094  27.094  1.00  0.00     0.029 A 
ATOM     54  N   UNL A   1      41.932  28.017  28.413  1.00  0.00    -0.354 N 
ATOM     55  C   UNL A   1      41.972  28.913  32.407  1.00  0.00     0.074 A 
ATOM     56  C   UNL A   1      40.777  28.172  32.742  1.00  0.00     0.031 C 
ATOM     57  C   UNL A   1      41.016  27.233  26.536  1.00  0.00     0.029 A 
ATOM     58  C   UNL A   1      42.215  27.170  27.361  1.00  0.00     0.049 A 
ATOM     59  H   UNL A   1      42.588  28.249  29.108  1.00  0.00     0.167 HD
ATOM     60  C   UNL A   1      43.156  28.983  33.071  1.00  0.00     0.031 A 
ATOM     61  C   UNL A   1      43.327  26.424  27.181  1.00  0.00     0.031 A 
ATOM     62  C   UNL A   1      44.125  29.842  32.460  1.00  0.00     0.049 A 
ATOM     63  C   UNL A   1      44.474  26.991  27.931  1.00  0.00     0.074 A 
ATOM     64  C   UNL A   1      44.351  31.197  32.383  1.00  0.00     0.029 A 
ATOM     65  N   UNL A   1      45.004  29.237  31.600  1.00  0.00    -0.354 N 
ATOM     66  N   UNL A   1      44.995  28.164  27.699  1.00  0.00    -0.248 NA
ATOM     67  C   UNL A   1      45.020  26.295  29.093  1.00  0.00     0.031 C 
ATOM     68  C   UNL A   1      45.221  31.397  31.273  1.00  0.00     0.029 A 
ATOM     69  C   UNL A   1      45.442  30.157  30.676  1.00  0.00     0.049 A 
ATOM     70  H   UNL A   1      45.279  28.293  31.638  1.00  0.00     0.167 HD
ATOM     71  C   UNL A   1      45.650  28.501  28.866  1.00  0.00     0.074 A 
ATOM     72  C   UNL A   1      45.785  27.260  29.607  1.00  0.00     0.031 C 
ATOM     73  C   UNL A   1      45.710  29.793  29.295  1.00  0.00     0.031 A 
BRANCH  60  74
ATOM     74  C   UNL A   1      43.558  28.070  34.192  1.00  0.00    -0.014 A 
ATOM     75  C   UNL A   1      44.114  26.797  33.953  1.00  0.00     0.010 A 
ATOM     76  C   UNL A   1      43.607  28.570  35.507  1.00  0.00     0.010 A 
ATOM     77  C   UNL A   1      44.658  26.034  34.993  1.00  0.00     0.020 A 
ATOM     78  C   UNL A   1      44.173  27.825  36.549  1.00  0.00     0.020 A 
ATOM     79  C   UNL A   1      44.685  26.554  36.287  1.00  0.00     0.054 A 
BRANCH  79  80
ATOM     80  S   UNL A   1      45.488  25.610  37.612  1.00  0.00     0.124 S 
ATOM     81  O   UNL A   1      46.611  24.999  36.906  1.00  0.00    -0.237 OA
ATOM     82  O   UNL A   1      45.842  26.644  38.583  1.00  0.00    -0.237 OA
ATOM     83  O   UNL A   1      44.444  24.687  38.048  1.00  0.00    -0.744 OA
ENDBRANCH  79  80
ENDBRANCH  60  74
BRANCH  61  84
ATOM     84  C   UNL A   1      43.403  25.105  26.513  1.00  0.00    -0.014 A 
ATOM     85  C   UNL A   1      43.196  23.928  27.261  1.00  0.00     0.010 A 
ATOM     86  C   UNL A   1      43.913  24.982  25.209  1.00  0.00     0.010 A 
ATOM     87  C   UNL A   1      43.510  22.672  26.740  1.00  0.00     0.020 A 
ATOM     88  C   UNL A   1      44.246  23.724  24.685  1.00  0.00     0.020 A 
ATOM     89  C   UNL A   1      44.058  22.579  25.462  1.00  0.00     0.054 A 
BRANCH  89  90
ATOM     90  S   UNL A   1      44.586  20.946  24.877  1.00  0.00     0.124 S 
ATOM     91  O   UNL A   1      45.883  20.792  25.530  1.00  0.00    -0.237 OA
ATOM     92  O   UNL A   1      43.523  20.078  25.379  1.00  0.00    -0.237 OA
ATOM     93  O   UNL A   1      44.632  21.095  23.424  1.00  0.00    -0.744 OA
ENDBRANCH  89  90
ENDBRANCH  61  84
BRANCH  73  94
ATOM     94  C   UNL A   1      45.668  30.895  28.268  1.00  0.00    -0.014 A 
ATOM     95  C   UNL A   1      46.885  31.448  27.827  1.00  0.00     0.010 A 
ATOM     96  C   UNL A   1      44.466  31.474  27.824  1.00  0.00     0.010 A 
ATOM     97  C   UNL A   1      46.903  32.559  26.978  1.00  0.00     0.020 A 
ATOM     98  C   UNL A   1      44.477  32.573  26.956  1.00  0.00     0.020 A 
ATOM     99  C   UNL A   1      45.696  33.124  26.556  1.00  0.00     0.054 A 
BRANCH  99 100
ATOM    100  S   UNL A   1      45.738  34.580  25.475  1.00  0.00     0.124 S 
ATOM    101  O   UNL A   1      45.238  35.634  26.355  1.00  0.00    -0.237 OA
ATOM    102  O   UNL A   1      47.151  34.686  25.117  1.00  0.00    -0.237 OA
ATOM    103  O   UNL A   1      44.850  34.226  24.370  1.00  0.00    -0.744 OA
ENDBRANCH  99 100
ENDBRANCH  73  94
ENDBRANCH  47  48
ENDBRANCH  39  42
ENDBRANCH  37  38
ENDBRANCH  36  37
ENDBRANCH   1  36
TORSDOF 19
ENDMDL
MODEL 2
REMARK VINA RESULT:     -12.0      5.599      9.926
REMARK SMILES CC(C)[C@H](NC(=O)c1cc2cc(Cl)ccc2n1C)C(=O)N[C@@H](C(=O)NCCCNC(=O)c1ccc(-c2c3nc(c(-c4ccc(S(=O)(=O)[O-])cc4)c4ccc([nH]4)c(-c4ccc(S(=O)(=O)[O-])cc4)c4nc(c(-c5ccc(S(=O)(=O)[O-])cc5)c5ccc2[nH]5)C=C4)C=C3)cc1)c1ccccc1
REMARK SMILES IDX 26 1 25 2 23 3 24 4 22 6 21 7 19 8 20 9 4 11 2 12 1 13 3 14
REMARK SMILES IDX 5 15 6 16 7 18 8 19 9 20 17 21 10 22 16 23 18 24 11 25 15 26
REMARK SMILES IDX 12 27 14 28 13 29 92 30 93 31 97 32 94 33 96 34 95 35 27 36
REMARK SMILES IDX 28 37 29 38 30 39 31 41 32 42 33 43 91 44 34 45 90 46 35 47
REMARK SMILES IDX 36 48 37 49 84 50 38 51 89 52 83 53 85 54 39 55 88 56 82 57
REMARK SMILES IDX 81 58 40 60 70 61 51 62 69 63 52 64 55 65 68 66 86 67 53 68
REMARK SMILES IDX 54 69 67 71 87 72 56 73 41 74 42 75 50 76 43 77 49 78 44 79
REMARK SMILES IDX 45 80 46 81 47 82 48 83 71 84 72 85 80 86 73 87 79 88 74 89
REMARK SMILES IDX 75 90 76 91 77 92 78 93 57 94 58 95 66 96 59 97 65 98 60 99
REMARK SMILES IDX 61 100 62 101 63 102 64 103
REMARK H PARENT 25 5 21 10 5 17 29 40 85 59 55 70
REMARK Flexibility Score: inf
ROOT
ATOM      1  C   UNL A   1      34.933  33.155  32.187  1.00  0.00     0.117 C 
ENDROOT
BRANCH   1   2
ATOM      2  N   UNL A   1      35.357  31.804  31.876  1.00  0.00    -0.354 N 
ATOM      3  C   UNL A   1      36.467  31.117  32.285  1.00  0.00     0.247 C 
ATOM      4  O   UNL A   1      36.427  29.893  32.116  1.00  0.00    -0.272 OA
ATOM      5  H   UNL A   1      34.754  31.306  31.277  1.00  0.00     0.163 HD
BRANCH   3   6
ATOM      6  C   UNL A   1      37.637  31.829  33.051  1.00  0.00     0.202 C 
BRANCH   6   7
ATOM      7  N   UNL A   1      37.120  32.716  34.082  1.00  0.00    -0.339 N 
ATOM      8  C   UNL A   1      37.698  33.465  35.045  1.00  0.00     0.243 C 
ATOM      9  O   UNL A   1      36.900  34.138  35.712  1.00  0.00    -0.273 OA
ATOM     10  H   UNL A   1      36.137  32.784  34.077  1.00  0.00     0.164 HD
BRANCH   8  11
ATOM     11  C   UNL A   1      39.224  33.565  35.338  1.00  0.00     0.174 C 
BRANCH  11  12
ATOM     12  C   UNL A   1      39.884  32.334  35.993  1.00  0.00     0.015 C 
ATOM     13  C   UNL A   1      41.092  31.782  35.229  1.00  0.00     0.010 C 
ATOM     14  C   UNL A   1      40.365  32.704  37.409  1.00  0.00     0.010 C 
ENDBRANCH  11  12
BRANCH  11  15
ATOM     15  N   UNL A   1      39.691  34.916  35.741  1.00  0.00    -0.339 N 
ATOM     16  C   UNL A   1      40.815  35.689  35.657  1.00  0.00     0.268 C 
ATOM     17  H   UNL A   1      38.975  35.400  36.213  1.00  0.00     0.164 HD
ATOM     18  O   UNL A   1      40.895  36.634  36.440  1.00  0.00    -0.268 OA
BRANCH  16  19
ATOM     19  C   UNL A   1      41.876  35.398  34.728  1.00  0.00     0.107 A 
ATOM     20  C   UNL A   1      41.772  35.301  33.347  1.00  0.00     0.042 A 
ATOM     21  N   UNL A   1      43.134  34.914  35.027  1.00  0.00    -0.340 N 
ATOM     22  C   UNL A   1      43.074  35.109  32.814  1.00  0.00     0.002 A 
ATOM     23  C   UNL A   1      43.934  34.945  33.899  1.00  0.00     0.048 A 
ATOM     24  C   UNL A   1      43.549  34.353  36.295  1.00  0.00     0.150 C 
ATOM     25  C   UNL A   1      43.605  35.097  31.509  1.00  0.00     0.030 A 
ATOM     26  C   UNL A   1      45.321  34.809  33.741  1.00  0.00     0.028 A 
ATOM     27  C   UNL A   1      44.989  34.998  31.346  1.00  0.00     0.041 A 
ATOM     28  C   UNL A   1      45.837  34.865  32.442  1.00  0.00     0.023 A 
ATOM     29  Cl  UNL A   1      45.658  35.070  29.759  1.00  0.00    -0.084 Cl
ENDBRANCH  16  19
ENDBRANCH  11  15
ENDBRANCH   8  11
ENDBRANCH   6   7
BRANCH   6  30
ATOM     30  C   UNL A   1      38.527  32.599  32.074  1.00  0.00    -0.016 A 
ATOM     31  C   UNL A   1      38.077  33.811  31.530  1.00  0.00     0.006 A 
ATOM     32  C   UNL A   1      39.832  32.188  31.758  1.00  0.00     0.006 A 
ATOM     33  C   UNL A   1      38.878  34.573  30.678  1.00  0.00     0.000 A 
ATOM     34  C   UNL A   1      40.641  32.952  30.912  1.00  0.00     0.000 A 
ATOM     35  C   UNL A   1      40.162  34.142  30.368  1.00  0.00     0.000 A 
ENDBRANCH   6  30
ENDBRANCH   3   6
ENDBRANCH   1   2
BRANCH   1  36
ATOM     36  C   UNL A   1      34.021  33.759  31.123  1.00  0.00     0.042 C 
BRANCH  36  37
ATOM     37  C   UNL A   1      34.684  33.908  29.751  1.00  0.00     0.118 C 
BRANCH  37  38
ATOM     38  N   UNL A   1      34.188  32.964  28.766  1.00  0.00    -0.352 N 
ATOM     39  C   UNL A   1      34.648  31.794  28.223  1.00  0.00     0.251 C 
ATOM     40  H   UNL A   1      33.313  33.229  28.401  1.00  0.00     0.163 HD
ATOM     41  O   UNL A   1      33.882  31.244  27.424  1.00  0.00    -0.269 OA
BRANCH  39  42
ATOM     42  C   UNL A   1      35.964  31.150  28.514  1.00  0.00     0.039 A 
ATOM     43  C   UNL A   1      37.185  31.811  28.625  1.00  0.00     0.014 A 
ATOM     44  C   UNL A   1      35.967  29.746  28.653  1.00  0.00     0.014 A 
ATOM     45  C   UNL A   1      38.369  31.097  28.843  1.00  0.00     0.010 A 
ATOM     46  C   UNL A   1      37.150  29.029  28.884  1.00  0.00     0.010 A 
ATOM     47  C   UNL A   1      38.367  29.702  28.961  1.00  0.00    -0.014 A 
BRANCH  47  48
ATOM     48  C   UNL A   1      39.668  29.047  29.156  1.00  0.00     0.031 A 
ATOM     49  C   UNL A   1      40.188  28.890  30.546  1.00  0.00     0.074 A 
ATOM     50  C   UNL A   1      40.426  28.470  28.202  1.00  0.00     0.049 A 
ATOM     51  N   UNL A   1      41.276  29.378  31.056  1.00  0.00    -0.248 NA
ATOM     52  C   UNL A   1      39.425  28.028  31.459  1.00  0.00     0.031 C 
ATOM     53  C   UNL A   1      40.035  28.077  26.851  1.00  0.00     0.029 A 
ATOM     54  N   UNL A   1      41.721  28.022  28.308  1.00  0.00    -0.354 N 
ATOM     55  C   UNL A   1      41.408  28.798  32.315  1.00  0.00     0.074 A 
ATOM     56  C   UNL A   1      40.218  28.007  32.532  1.00  0.00     0.031 C 
ATOM     57  C   UNL A   1      40.987  27.263  26.342  1.00  0.00     0.029 A 
ATOM     58  C   UNL A   1      42.118  27.217  27.260  1.00  0.00     0.049 A 
ATOM     59  H   UNL A   1      42.310  28.255  29.060  1.00  0.00     0.167 HD
ATOM     60  C   UNL A   1      42.531  28.889  33.074  1.00  0.00     0.031 A 
ATOM     61  C   UNL A   1      43.268  26.516  27.150  1.00  0.00     0.031 A 
ATOM     62  C   UNL A   1      43.514  29.800  32.568  1.00  0.00     0.049 A 
ATOM     63  C   UNL A   1      44.329  27.099  28.006  1.00  0.00     0.074 A 
ATOM     64  C   UNL A   1      43.696  31.163  32.546  1.00  0.00     0.029 A 
ATOM     65  N   UNL A   1      44.481  29.251  31.766  1.00  0.00    -0.354 N 
ATOM     66  N   UNL A   1      44.823  28.296  27.849  1.00  0.00    -0.248 NA
ATOM     67  C   UNL A   1      44.806  26.388  29.189  1.00  0.00     0.031 C 
ATOM     68  C   UNL A   1      44.643  31.427  31.516  1.00  0.00     0.029 A 
ATOM     69  C   UNL A   1      44.957  30.213  30.905  1.00  0.00     0.049 A 
ATOM     70  H   UNL A   1      44.786  28.317  31.800  1.00  0.00     0.167 HD
ATOM     71  C   UNL A   1      45.370  28.621  29.074  1.00  0.00     0.074 A 
ATOM     72  C   UNL A   1      45.491  27.363  29.789  1.00  0.00     0.031 C 
ATOM     73  C   UNL A   1      45.348  29.901  29.541  1.00  0.00     0.031 A 
BRANCH  60  74
ATOM     74  C   UNL A   1      42.876  27.957  34.199  1.00  0.00    -0.014 A 
ATOM     75  C   UNL A   1      43.345  26.649  33.966  1.00  0.00     0.010 A 
ATOM     76  C   UNL A   1      42.964  28.461  35.511  1.00  0.00     0.010 A 
ATOM     77  C   UNL A   1      43.840  25.857  35.007  1.00  0.00     0.020 A 
ATOM     78  C   UNL A   1      43.483  27.684  36.555  1.00  0.00     0.020 A 
ATOM     79  C   UNL A   1      43.908  26.380  36.298  1.00  0.00     0.054 A 
BRANCH  79  80
ATOM     80  S   UNL A   1      44.651  25.392  37.626  1.00  0.00     0.124 S 
ATOM     81  O   UNL A   1      43.848  25.786  38.779  1.00  0.00    -0.237 OA
ATOM     82  O   UNL A   1      44.455  24.019  37.162  1.00  0.00    -0.237 OA
ATOM     83  O   UNL A   1      46.040  25.843  37.643  1.00  0.00    -0.744 OA
ENDBRANCH  79  80
ENDBRANCH  60  74
BRANCH  61  84
ATOM     84  C   UNL A   1      43.446  25.221  26.455  1.00  0.00    -0.014 A 
ATOM     85  C   UNL A   1      42.910  24.045  27.018  1.00  0.00     0.010 A 
ATOM     86  C   UNL A   1      44.338  25.095  25.376  1.00  0.00     0.010 A 
ATOM     87  C   UNL A   1      43.271  22.784  26.542  1.00  0.00     0.020 A 
ATOM     88  C   UNL A   1      44.717  23.830  24.904  1.00  0.00     0.020 A 
ATOM     89  C   UNL A   1      44.193  22.682  25.502  1.00  0.00     0.054 A 
BRANCH  89  90
ATOM     90  S   UNL A   1      44.744  21.026  25.009  1.00  0.00     0.124 S 
ATOM     91  O   UNL A   1      44.528  21.049  23.565  1.00  0.00    -0.237 OA
ATOM     92  O   UNL A   1      46.141  21.024  25.436  1.00  0.00    -0.237 OA
ATOM     93  O   UNL A   1      43.864  20.131  25.757  1.00  0.00    -0.744 OA
ENDBRANCH  89  90
ENDBRANCH  61  84
BRANCH  73  94
ATOM     94  C   UNL A   1      45.347  31.031  28.544  1.00  0.00    -0.014 A 
ATOM     95  C   UNL A   1      44.116  31.619  28.198  1.00  0.00     0.010 A 
ATOM     96  C   UNL A   1      46.504  31.438  27.857  1.00  0.00     0.010 A 
ATOM     97  C   UNL A   1      44.038  32.578  27.183  1.00  0.00     0.020 A 
ATOM     98  C   UNL A   1      46.436  32.414  26.855  1.00  0.00     0.020 A 
ATOM     99  C   UNL A   1      45.200  32.962  26.508  1.00  0.00     0.054 A 
BRANCH  99 100
ATOM    100  S   UNL A   1      45.077  34.189  25.177  1.00  0.00     0.124 S 
ATOM    101  O   UNL A   1      44.179  35.186  25.755  1.00  0.00    -0.237 OA
ATOM    102  O   UNL A   1      46.461  34.624  25.000  1.00  0.00    -0.237 OA
ATOM    103  O   UNL A   1      44.522  33.436  24.053  1.00  0.00    -0.744 OA
ENDBRANCH  99 100
ENDBRANCH  73  94
ENDBRANCH  47  48
ENDBRANCH  39  42
ENDBRANCH  37  38
ENDBRANCH  36  37
ENDBRANCH   1  36
TORSDOF 19
ENDMDL
MODEL 3
REMARK VINA RESULT:     -11.7      3.138      9.453
REMARK SMILES CC(C)[C@H](NC(=O)c1cc2cc(Cl)ccc2n1C)C(=O)N[C@@H](C(=O)NCCCNC(=O)c1ccc(-c2c3nc(c(-c4ccc(S(=O)(=O)[O-])cc4)c4ccc([nH]4)c(-c4ccc(S(=O)(=O)[O-])cc4)c4nc(c(-c5ccc(S(=O)(=O)[O-])cc5)c5ccc2[nH]5)C=C4)C=C3)cc1)c1ccccc1
REMARK SMILES IDX 26 1 25 2 23 3 24 4 22 6 21 7 19 8 20 9 4 11 2 12 1 13 3 14
REMARK SMILES IDX 5 15 6 16 7 18 8 19 9 20 17 21 10 22 16 23 18 24 11 25 15 26
REMARK SMILES IDX 12 27 14 28 13 29 92 30 93 31 97 32 94 33 96 34 95 35 27 36
REMARK SMILES IDX 28 37 29 38 30 39 31 41 32 42 33 43 91 44 34 45 90 46 35 47
REMARK SMILES IDX 36 48 37 49 84 50 38 51 89 52 83 53 85 54 39 55 88 56 82 57
REMARK SMILES IDX 81 58 40 60 70 61 51 62 69 63 52 64 55 65 68 66 86 67 53 68
REMARK SMILES IDX 54 69 67 71 87 72 56 73 41 74 42 75 50 76 43 77 49 78 44 79
REMARK SMILES IDX 45 80 46 81 47 82 48 83 71 84 72 85 80 86 73 87 79 88 74 89
REMARK SMILES IDX 75 90 76 91 77 92 78 93 57 94 58 95 66 96 59 97 65 98 60 99
REMARK SMILES IDX 61 100 62 101 63 102 64 103
REMARK H PARENT 25 5 21 10 5 17 29 40 85 59 55 70
REMARK Flexibility Score: inf
ROOT
ATOM      1  C   UNL A   1      37.101  22.666  25.037  1.00  0.00     0.117 C 
ENDROOT
BRANCH   1   2
ATOM      2  N   UNL A   1      36.803  22.638  23.618  1.00  0.00    -0.354 N 
ATOM      3  C   UNL A   1      35.695  23.078  22.946  1.00  0.00     0.247 C 
ATOM      4  O   UNL A   1      35.832  23.207  21.724  1.00  0.00    -0.272 OA
ATOM      5  H   UNL A   1      37.506  22.242  23.052  1.00  0.00     0.163 HD
BRANCH   3   6
ATOM      6  C   UNL A   1      34.398  23.525  23.707  1.00  0.00     0.202 C 
BRANCH   6   7
ATOM      7  N   UNL A   1      33.385  22.481  23.667  1.00  0.00    -0.339 N 
ATOM      8  C   UNL A   1      32.557  21.949  24.590  1.00  0.00     0.243 C 
ATOM      9  O   UNL A   1      31.786  21.089  24.144  1.00  0.00    -0.273 OA
ATOM     10  H   UNL A   1      33.282  22.076  22.775  1.00  0.00     0.164 HD
BRANCH   8  11
ATOM     11  C   UNL A   1      32.481  22.347  26.094  1.00  0.00     0.174 C 
BRANCH  11  12
ATOM     12  C   UNL A   1      33.511  21.688  27.035  1.00  0.00     0.015 C 
ATOM     13  C   UNL A   1      34.427  20.667  26.355  1.00  0.00     0.010 C 
ATOM     14  C   UNL A   1      34.411  22.777  27.649  1.00  0.00     0.010 C 
ENDBRANCH  11  12
BRANCH  11  15
ATOM     15  N   UNL A   1      31.107  22.583  26.604  1.00  0.00    -0.339 N 
ATOM     16  C   UNL A   1      30.209  23.607  26.719  1.00  0.00     0.268 C 
ATOM     17  H   UNL A   1      30.728  21.752  26.972  1.00  0.00     0.164 HD
ATOM     18  O   UNL A   1      29.298  23.454  27.532  1.00  0.00    -0.268 OA
BRANCH  16  19
ATOM     19  C   UNL A   1      30.335  24.824  25.961  1.00  0.00     0.107 A 
ATOM     20  C   UNL A   1      29.735  25.113  24.743  1.00  0.00     0.042 A 
ATOM     21  N   UNL A   1      31.257  25.833  26.154  1.00  0.00    -0.340 N 
ATOM     22  C   UNL A   1      30.038  26.459  24.404  1.00  0.00     0.002 A 
ATOM     23  C   UNL A   1      30.944  26.920  25.358  1.00  0.00     0.048 A 
ATOM     24  C   UNL A   1      32.443  25.753  26.979  1.00  0.00     0.150 C 
ATOM     25  C   UNL A   1      29.596  27.338  23.396  1.00  0.00     0.030 A 
ATOM     26  C   UNL A   1      31.402  28.246  25.375  1.00  0.00     0.028 A 
ATOM     27  C   UNL A   1      30.020  28.668  23.428  1.00  0.00     0.041 A 
ATOM     28  C   UNL A   1      30.902  29.120  24.405  1.00  0.00     0.023 A 
ATOM     29  Cl  UNL A   1      29.417  29.774  22.251  1.00  0.00    -0.084 Cl
ENDBRANCH  16  19
ENDBRANCH  11  15
ENDBRANCH   8  11
ENDBRANCH   6   7
BRANCH   6  30
ATOM     30  C   UNL A   1      33.854  24.828  23.120  1.00  0.00    -0.016 A 
ATOM     31  C   UNL A   1      34.263  26.057  23.657  1.00  0.00     0.006 A 
ATOM     32  C   UNL A   1      33.018  24.855  21.991  1.00  0.00     0.006 A 
ATOM     33  C   UNL A   1      33.834  27.271  23.117  1.00  0.00     0.000 A 
ATOM     34  C   UNL A   1      32.593  26.069  21.443  1.00  0.00     0.000 A 
ATOM     35  C   UNL A   1      32.997  27.277  22.008  1.00  0.00     0.000 A 
ENDBRANCH   6  30
ENDBRANCH   3   6
ENDBRANCH   1   2
BRANCH   1  36
ATOM     36  C   UNL A   1      38.023  21.533  25.479  1.00  0.00     0.042 C 
BRANCH  36  37
ATOM     37  C   UNL A   1      39.103  21.966  26.474  1.00  0.00     0.118 C 
BRANCH  37  38
ATOM     38  N   UNL A   1      40.441  21.960  25.910  1.00  0.00    -0.352 N 
ATOM     39  C   UNL A   1      41.521  22.802  25.960  1.00  0.00     0.251 C 
ATOM     40  H   UNL A   1      40.612  21.162  25.360  1.00  0.00     0.163 HD
ATOM     41  O   UNL A   1      42.530  22.404  25.369  1.00  0.00    -0.269 OA
BRANCH  39  42
ATOM     42  C   UNL A   1      41.572  24.123  26.656  1.00  0.00     0.039 A 
ATOM     43  C   UNL A   1      42.159  24.367  27.896  1.00  0.00     0.014 A 
ATOM     44  C   UNL A   1      40.937  25.205  26.011  1.00  0.00     0.014 A 
ATOM     45  C   UNL A   1      42.095  25.637  28.481  1.00  0.00     0.010 A 
ATOM     46  C   UNL A   1      40.882  26.481  26.589  1.00  0.00     0.010 A 
ATOM     47  C   UNL A   1      41.447  26.701  27.843  1.00  0.00    -0.014 A 
BRANCH  47  48
ATOM     48  C   UNL A   1      41.409  27.984  28.559  1.00  0.00     0.031 A 
ATOM     49  C   UNL A   1      42.444  29.011  28.242  1.00  0.00     0.074 A 
ATOM     50  C   UNL A   1      40.461  28.390  29.428  1.00  0.00     0.049 A 
ATOM     51  N   UNL A   1      43.332  29.526  29.033  1.00  0.00    -0.248 NA
ATOM     52  C   UNL A   1      42.444  29.573  26.884  1.00  0.00     0.031 C 
ATOM     53  C   UNL A   1      39.127  27.832  29.636  1.00  0.00     0.029 A 
ATOM     54  N   UNL A   1      40.487  29.486  30.254  1.00  0.00    -0.354 N 
ATOM     55  C   UNL A   1      43.931  30.562  28.321  1.00  0.00     0.074 A 
ATOM     56  C   UNL A   1      43.378  30.521  26.987  1.00  0.00     0.031 C 
ATOM     57  C   UNL A   1      38.398  28.710  30.361  1.00  0.00     0.029 A 
ATOM     58  C   UNL A   1      39.259  29.800  30.801  1.00  0.00     0.049 A 
ATOM     59  H   UNL A   1      41.305  30.000  30.440  1.00  0.00     0.167 HD
ATOM     60  C   UNL A   1      44.759  31.483  28.881  1.00  0.00     0.031 A 
ATOM     61  C   UNL A   1      38.936  30.892  31.528  1.00  0.00     0.031 A 
ATOM     62  C   UNL A   1      45.135  31.195  30.233  1.00  0.00     0.049 A 
ATOM     63  C   UNL A   1      40.139  31.482  32.164  1.00  0.00     0.074 A 
ATOM     64  C   UNL A   1      46.019  30.353  30.866  1.00  0.00     0.029 A 
ATOM     65  N   UNL A   1      44.357  31.768  31.205  1.00  0.00    -0.354 N 
ATOM     66  N   UNL A   1      40.872  30.873  33.055  1.00  0.00    -0.248 NA
ATOM     67  C   UNL A   1      40.659  32.772  31.719  1.00  0.00     0.031 C 
ATOM     68  C   UNL A   1      45.583  30.255  32.219  1.00  0.00     0.029 A 
ATOM     69  C   UNL A   1      44.408  30.997  32.343  1.00  0.00     0.049 A 
ATOM     70  H   UNL A   1      43.842  32.601  31.105  1.00  0.00     0.167 HD
ATOM     71  C   UNL A   1      42.095  31.510  33.008  1.00  0.00     0.074 A 
ATOM     72  C   UNL A   1      41.853  32.763  32.315  1.00  0.00     0.031 C 
ATOM     73  C   UNL A   1      43.256  30.827  33.211  1.00  0.00     0.031 A 
BRANCH  60  74
ATOM     74  C   UNL A   1      45.071  32.822  28.281  1.00  0.00    -0.014 A 
ATOM     75  C   UNL A   1      44.103  33.842  28.189  1.00  0.00     0.010 A 
ATOM     76  C   UNL A   1      46.411  33.166  28.017  1.00  0.00     0.010 A 
ATOM     77  C   UNL A   1      44.449  35.142  27.806  1.00  0.00     0.020 A 
ATOM     78  C   UNL A   1      46.770  34.472  27.657  1.00  0.00     0.020 A 
ATOM     79  C   UNL A   1      45.783  35.450  27.542  1.00  0.00     0.054 A 
BRANCH  79  80
ATOM     80  S   UNL A   1      46.245  37.161  27.151  1.00  0.00     0.124 S 
ATOM     81  O   UNL A   1      44.939  37.801  27.016  1.00  0.00    -0.237 OA
ATOM     82  O   UNL A   1      47.026  37.565  28.319  1.00  0.00    -0.237 OA
ATOM     83  O   UNL A   1      47.010  37.028  25.914  1.00  0.00    -0.744 OA
ENDBRANCH  79  80
ENDBRANCH  60  74
BRANCH  61  84
ATOM     84  C   UNL A   1      37.622  31.573  31.555  1.00  0.00    -0.014 A 
ATOM     85  C   UNL A   1      37.264  32.447  30.509  1.00  0.00     0.010 A 
ATOM     86  C   UNL A   1      36.824  31.561  32.712  1.00  0.00     0.010 A 
ATOM     87  C   UNL A   1      36.165  33.300  30.620  1.00  0.00     0.020 A 
ATOM     88  C   UNL A   1      35.727  32.427  32.836  1.00  0.00     0.020 A 
ATOM     89  C   UNL A   1      35.416  33.303  31.795  1.00  0.00     0.054 A 
BRANCH  89  90
ATOM     90  S   UNL A   1      34.086  34.524  31.956  1.00  0.00     0.124 S 
ATOM     91  O   UNL A   1      33.581  34.608  30.589  1.00  0.00    -0.237 OA
ATOM     92  O   UNL A   1      33.193  33.886  32.918  1.00  0.00    -0.237 OA
ATOM     93  O   UNL A   1      34.771  35.721  32.442  1.00  0.00    -0.744 OA
ENDBRANCH  89  90
ENDBRANCH  61  84
BRANCH  73  94
ATOM     94  C   UNL A   1      43.227  29.605  34.093  1.00  0.00    -0.014 A 
ATOM     95  C   UNL A   1      43.315  28.338  33.486  1.00  0.00     0.010 A 
ATOM     96  C   UNL A   1      42.996  29.673  35.477  1.00  0.00     0.010 A 
ATOM     97  C   UNL A   1      43.160  27.169  34.238  1.00  0.00     0.020 A 
ATOM     98  C   UNL A   1      42.861  28.506  36.240  1.00  0.00     0.020 A 
ATOM     99  C   UNL A   1      42.922  27.260  35.612  1.00  0.00     0.054 A 
BRANCH  99 100
ATOM    100  S   UNL A   1      42.698  25.735  36.568  1.00  0.00     0.124 S 
ATOM    101  O   UNL A   1      42.070  26.225  37.793  1.00  0.00    -0.237 OA
ATOM    102  O   UNL A   1      41.837  24.928  35.706  1.00  0.00    -0.237 OA
ATOM    103  O   UNL A   1      44.056  25.220  36.735  1.00  0.00    -0.744 OA
ENDBRANCH  99 100
ENDBRANCH  73  94
ENDBRANCH  47  48
ENDBRANCH  39  42
ENDBRANCH  37  38
ENDBRANCH  36  37
ENDBRANCH   1  36
TORSDOF 19
ENDMDL
