MODEL 1
REMARK VINA RESULT:     -12.2      0.000      0.000
REMARK SMILES O=C(NCCCNC(=O)c1ccc(-c2c3nc(c(-c4ccc(S(=O)(=O)[O-])cc4)c4ccc([nH]4)c(-c4ccc(S(=O)(=O)[O-])cc4)c4nc(c(-c5ccc(S(=O)(=O)[O-])cc5)c5ccc2[nH]5)C=C4)C=C3)cc1)c1ccc(NS(=O)(=O)C2=Cc3ccccc3CC2)cc1
REMARK SMILES IDX 5 1 4 2 3 3 1 4 2 5 70 7 71 8 89 9 72 10 88 11 73 12 74 13
REMARK SMILES IDX 75 15 76 16 77 17 78 18 79 19 87 20 80 21 86 22 81 23 85 24
REMARK SMILES IDX 82 25 84 26 83 27 6 28 7 29 8 30 9 32 10 33 11 34 69 35
REMARK SMILES IDX 12 36 68 37 13 38 14 39 15 40 62 41 16 42 67 43 61 44 63 45
REMARK SMILES IDX 17 46 66 47 60 48 59 49 18 51 48 52 29 53 47 54 30 55 33 56
REMARK SMILES IDX 46 57 64 58 31 59 32 60 45 62 65 63 34 64 19 65 20 66 28 67
REMARK SMILES IDX 21 68 27 69 22 70 23 71 24 72 25 73 26 74 49 75 50 76 58 77
REMARK SMILES IDX 51 78 57 79 52 80 53 81 54 82 55 83 56 84 35 85 36 86 44 87
REMARK SMILES IDX 37 88 43 89 38 90 39 91 40 92 41 93 42 94
REMARK H PARENT 3 6 74 14 7 31 63 50 33 61
REMARK Flexibility Score: inf
ROOT
ATOM      1  C   UNL A   1      35.404  22.503  25.580  1.00  0.00     0.042 C 
ENDROOT
BRANCH   1   2
ATOM      2  C   UNL A   1      34.691  21.847  26.752  1.00  0.00     0.118 C 
BRANCH   2   3
ATOM      3  N   UNL A   1      34.171  20.531  26.408  1.00  0.00    -0.352 N 
ATOM      4  O   UNL A   1      32.637  19.040  25.699  1.00  0.00    -0.269 OA
ATOM      5  C   UNL A   1      33.044  20.198  25.701  1.00  0.00     0.251 C 
ATOM      6  H   UNL A   1      34.705  19.769  26.730  1.00  0.00     0.163 HD
BRANCH   5   7
ATOM      7  C   UNL A   1      32.336  21.221  24.904  1.00  0.00     0.039 A 
ATOM      8  C   UNL A   1      31.507  22.151  25.534  1.00  0.00     0.016 A 
ATOM      9  C   UNL A   1      32.604  21.343  23.538  1.00  0.00     0.016 A 
ATOM     10  C   UNL A   1      30.918  23.173  24.795  1.00  0.00     0.027 A 
ATOM     11  C   UNL A   1      32.003  22.369  22.798  1.00  0.00     0.027 A 
ATOM     12  C   UNL A   1      31.141  23.279  23.421  1.00  0.00     0.049 A 
BRANCH  12  13
ATOM     13  N   UNL A   1      30.702  24.437  22.708  1.00  0.00    -0.280 N 
ATOM     14  H   UNL A   1      29.997  24.348  22.027  1.00  0.00     0.180 HD
BRANCH  13  15
ATOM     15  S   UNL A   1      31.377  25.970  23.016  1.00  0.00     0.258 S 
ATOM     16  O   UNL A   1      32.677  25.667  23.591  1.00  0.00    -0.202 OA
ATOM     17  O   UNL A   1      31.323  26.662  21.746  1.00  0.00    -0.202 OA
BRANCH  15  18
ATOM     18  C   UNL A   1      30.375  26.825  24.190  1.00  0.00     0.066 C 
ATOM     19  C   UNL A   1      30.755  26.745  25.484  1.00  0.00     0.026 C 
ATOM     20  C   UNL A   1      29.863  28.170  23.735  1.00  0.00     0.055 C 
ATOM     21  C   UNL A   1      31.704  27.820  25.895  1.00  0.00    -0.021 A 
ATOM     22  C   UNL A   1      30.956  29.235  23.911  1.00  0.00     0.041 C 
ATOM     23  C   UNL A   1      32.493  27.636  27.035  1.00  0.00     0.008 A 
ATOM     24  C   UNL A   1      31.812  29.010  25.143  1.00  0.00    -0.040 A 
ATOM     25  C   UNL A   1      33.422  28.610  27.403  1.00  0.00     0.001 A 
ATOM     26  C   UNL A   1      32.761  29.969  25.513  1.00  0.00     0.004 A 
ATOM     27  C   UNL A   1      33.565  29.766  26.635  1.00  0.00     0.000 A 
ENDBRANCH  15  18
ENDBRANCH  13  15
ENDBRANCH  12  13
ENDBRANCH   5   7
ENDBRANCH   2   3
ENDBRANCH   1   2
BRANCH   1  28
ATOM     28  C   UNL A   1      36.638  23.304  25.971  1.00  0.00     0.118 C 
BRANCH  28  29
ATOM     29  N   UNL A   1      37.843  22.488  26.053  1.00  0.00    -0.352 N 
ATOM     30  C   UNL A   1      39.126  22.834  26.407  1.00  0.00     0.251 C 
ATOM     31  H   UNL A   1      37.719  21.541  25.818  1.00  0.00     0.163 HD
ATOM     32  O   UNL A   1      40.035  22.026  26.239  1.00  0.00    -0.269 OA
BRANCH  30  33
ATOM     33  C   UNL A   1      39.415  24.177  26.957  1.00  0.00     0.039 A 
ATOM     34  C   UNL A   1      39.050  24.464  28.275  1.00  0.00     0.014 A 
ATOM     35  C   UNL A   1      40.045  25.153  26.182  1.00  0.00     0.014 A 
ATOM     36  C   UNL A   1      39.390  25.698  28.836  1.00  0.00     0.010 A 
ATOM     37  C   UNL A   1      40.470  26.338  26.770  1.00  0.00     0.010 A 
ATOM     38  C   UNL A   1      40.143  26.628  28.102  1.00  0.00    -0.014 A 
BRANCH  38  39
ATOM     39  C   UNL A   1      40.592  27.913  28.697  1.00  0.00     0.031 A 
ATOM     40  C   UNL A   1      41.992  28.044  29.237  1.00  0.00     0.074 A 
ATOM     41  C   UNL A   1      39.720  28.931  28.831  1.00  0.00     0.049 A 
ATOM     42  N   UNL A   1      42.537  29.044  29.881  1.00  0.00    -0.248 NA
ATOM     43  C   UNL A   1      42.885  26.888  29.057  1.00  0.00     0.031 C 
ATOM     44  C   UNL A   1      38.320  28.916  28.395  1.00  0.00     0.029 A 
ATOM     45  N   UNL A   1      39.880  30.179  29.381  1.00  0.00    -0.354 N 
ATOM     46  C   UNL A   1      43.822  28.626  30.209  1.00  0.00     0.074 A 
ATOM     47  C   UNL A   1      43.958  27.266  29.734  1.00  0.00     0.031 C 
ATOM     48  C   UNL A   1      37.761  30.106  28.668  1.00  0.00     0.029 A 
ATOM     49  C   UNL A   1      38.745  30.954  29.334  1.00  0.00     0.049 A 
ATOM     50  H   UNL A   1      40.727  30.489  29.773  1.00  0.00     0.167 HD
ATOM     51  C   UNL A   1      44.808  29.316  30.829  1.00  0.00     0.031 A 
ATOM     52  C   UNL A   1      38.518  32.204  29.779  1.00  0.00     0.031 A 
ATOM     53  C   UNL A   1      44.683  30.677  31.273  1.00  0.00     0.049 A 
ATOM     54  C   UNL A   1      39.633  32.959  30.449  1.00  0.00     0.074 A 
ATOM     55  C   UNL A   1      45.645  31.487  31.852  1.00  0.00     0.029 A 
ATOM     56  N   UNL A   1      43.525  31.434  31.182  1.00  0.00    -0.354 N 
ATOM     57  N   UNL A   1      40.859  32.564  30.699  1.00  0.00    -0.248 NA
ATOM     58  C   UNL A   1      39.336  34.329  30.887  1.00  0.00     0.031 C 
ATOM     59  C   UNL A   1      45.057  32.723  32.144  1.00  0.00     0.029 A 
ATOM     60  C   UNL A   1      43.741  32.696  31.708  1.00  0.00     0.049 A 
ATOM     61  H   UNL A   1      42.673  31.120  30.799  1.00  0.00     0.167 HD
ATOM     62  C   UNL A   1      41.486  33.645  31.308  1.00  0.00     0.074 A 
ATOM     63  C   UNL A   1      40.508  34.713  31.374  1.00  0.00     0.031 C 
ATOM     64  C   UNL A   1      42.756  33.745  31.770  1.00  0.00     0.031 A 
BRANCH  51  65
ATOM     65  C   UNL A   1      46.111  28.598  31.062  1.00  0.00    -0.014 A 
ATOM     66  C   UNL A   1      46.332  27.863  32.242  1.00  0.00     0.010 A 
ATOM     67  C   UNL A   1      47.122  28.648  30.086  1.00  0.00     0.010 A 
ATOM     68  C   UNL A   1      47.558  27.235  32.464  1.00  0.00     0.020 A 
ATOM     69  C   UNL A   1      48.343  27.997  30.294  1.00  0.00     0.020 A 
ATOM     70  C   UNL A   1      48.560  27.313  31.492  1.00  0.00     0.054 A 
BRANCH  70  71
ATOM     71  S   UNL A   1      50.144  26.487  31.803  1.00  0.00     0.124 S 
ATOM     72  O   UNL A   1      50.371  26.795  33.214  1.00  0.00    -0.237 OA
ATOM     73  O   UNL A   1      49.843  25.088  31.507  1.00  0.00    -0.237 OA
ATOM     74  O   UNL A   1      51.062  27.134  30.869  1.00  0.00    -0.744 OA
ENDBRANCH  70  71
ENDBRANCH  51  65
BRANCH  52  75
ATOM     75  C   UNL A   1      37.184  32.829  29.582  1.00  0.00    -0.014 A 
ATOM     76  C   UNL A   1      36.358  33.097  30.688  1.00  0.00     0.010 A 
ATOM     77  C   UNL A   1      36.744  33.187  28.295  1.00  0.00     0.010 A 
ATOM     78  C   UNL A   1      35.111  33.704  30.509  1.00  0.00     0.020 A 
ATOM     79  C   UNL A   1      35.508  33.814  28.116  1.00  0.00     0.020 A 
ATOM     80  C   UNL A   1      34.695  34.061  29.224  1.00  0.00     0.054 A 
BRANCH  80  81
ATOM     81  S   UNL A   1      33.104  34.911  29.021  1.00  0.00     0.124 S 
ATOM     82  O   UNL A   1      32.535  34.811  30.362  1.00  0.00    -0.237 OA
ATOM     83  O   UNL A   1      33.511  36.251  28.604  1.00  0.00    -0.237 OA
ATOM     84  O   UNL A   1      32.429  34.125  27.991  1.00  0.00    -0.744 OA
ENDBRANCH  80  81
ENDBRANCH  52  75
BRANCH  64  85
ATOM     85  C   UNL A   1      43.171  35.061  32.366  1.00  0.00    -0.014 A 
ATOM     86  C   UNL A   1      43.638  36.109  31.554  1.00  0.00     0.010 A 
ATOM     87  C   UNL A   1      43.043  35.267  33.751  1.00  0.00     0.010 A 
ATOM     88  C   UNL A   1      43.994  37.335  32.121  1.00  0.00     0.020 A 
ATOM     89  C   UNL A   1      43.377  36.499  34.320  1.00  0.00     0.020 A 
ATOM     90  C   UNL A   1      43.864  37.521  33.501  1.00  0.00     0.054 A 
BRANCH  90  91
ATOM     91  S   UNL A   1      44.289  39.135  34.210  1.00  0.00     0.124 S 
ATOM     92  O   UNL A   1      43.284  40.006  33.607  1.00  0.00    -0.237 OA
ATOM     93  O   UNL A   1      44.145  38.906  35.644  1.00  0.00    -0.237 OA
ATOM     94  O   UNL A   1      45.661  39.359  33.757  1.00  0.00    -0.744 OA
ENDBRANCH  90  91
ENDBRANCH  64  85
ENDBRANCH  38  39
ENDBRANCH  30  33
ENDBRANCH  28  29
ENDBRANCH   1  28
TORSDOF 16
ENDMDL
MODEL 2
REMARK VINA RESULT:     -12.2      3.419      4.156
REMARK SMILES O=C(NCCCNC(=O)c1ccc(-c2c3nc(c(-c4ccc(S(=O)(=O)[O-])cc4)c4ccc([nH]4)c(-c4ccc(S(=O)(=O)[O-])cc4)c4nc(c(-c5ccc(S(=O)(=O)[O-])cc5)c5ccc2[nH]5)C=C4)C=C3)cc1)c1ccc(NS(=O)(=O)C2=Cc3ccccc3CC2)cc1
REMARK SMILES IDX 5 1 4 2 3 3 1 4 2 5 70 7 71 8 89 9 72 10 88 11 73 12 74 13
REMARK SMILES IDX 75 15 76 16 77 17 78 18 79 19 87 20 80 21 86 22 81 23 85 24
REMARK SMILES IDX 82 25 84 26 83 27 6 28 7 29 8 30 9 32 10 33 11 34 69 35
REMARK SMILES IDX 12 36 68 37 13 38 14 39 15 40 62 41 16 42 67 43 61 44 63 45
REMARK SMILES IDX 17 46 66 47 60 48 59 49 18 51 48 52 29 53 47 54 30 55 33 56
REMARK SMILES IDX 46 57 64 58 31 59 32 60 45 62 65 63 34 64 19 65 20 66 28 67
REMARK SMILES IDX 21 68 27 69 22 70 23 71 24 72 25 73 26 74 49 75 50 76 58 77
REMARK SMILES IDX 51 78 57 79 52 80 53 81 54 82 55 83 56 84 35 85 36 86 44 87
REMARK SMILES IDX 37 88 43 89 38 90 39 91 40 92 41 93 42 94
REMARK H PARENT 3 6 74 14 7 31 63 50 33 61
REMARK Flexibility Score: inf
ROOT
ATOM      1  C   UNL A   1      37.510  23.251  25.509  1.00  0.00     0.042 C 
ENDROOT
BRANCH   1   2
ATOM      2  C   UNL A   1      36.270  22.634  26.138  1.00  0.00     0.118 C 
BRANCH   2   3
ATOM      3  N   UNL A   1      36.076  21.253  25.722  1.00  0.00    -0.352 N 
ATOM      4  O   UNL A   1      34.956  19.493  24.870  1.00  0.00    -0.269 OA
ATOM      5  C   UNL A   1      35.096  20.711  24.932  1.00  0.00     0.251 C 
ATOM      6  H   UNL A   1      36.746  20.613  26.058  1.00  0.00     0.163 HD
BRANCH   5   7
ATOM      7  C   UNL A   1      34.227  21.587  24.119  1.00  0.00     0.039 A 
ATOM      8  C   UNL A   1      32.839  21.448  24.178  1.00  0.00     0.016 A 
ATOM      9  C   UNL A   1      34.790  22.643  23.396  1.00  0.00     0.016 A 
ATOM     10  C   UNL A   1      32.020  22.338  23.487  1.00  0.00     0.027 A 
ATOM     11  C   UNL A   1      33.960  23.529  22.696  1.00  0.00     0.027 A 
ATOM     12  C   UNL A   1      32.570  23.368  22.724  1.00  0.00     0.049 A 
BRANCH  12  13
ATOM     13  N   UNL A   1      31.730  24.392  22.186  1.00  0.00    -0.280 N 
ATOM     14  H   UNL A   1      30.803  24.176  21.938  1.00  0.00     0.180 HD
BRANCH  13  15
ATOM     15  S   UNL A   1      32.306  25.980  21.968  1.00  0.00     0.258 S 
ATOM     16  O   UNL A   1      33.728  25.803  21.728  1.00  0.00    -0.202 OA
ATOM     17  O   UNL A   1      31.485  26.530  20.910  1.00  0.00    -0.202 OA
BRANCH  15  18
ATOM     18  C   UNL A   1      32.047  26.904  23.448  1.00  0.00     0.066 C 
ATOM     19  C   UNL A   1      31.018  26.515  24.232  1.00  0.00     0.026 C 
ATOM     20  C   UNL A   1      33.305  27.321  24.170  1.00  0.00     0.055 C 
ATOM     21  C   UNL A   1      31.393  25.486  25.244  1.00  0.00    -0.021 A 
ATOM     22  C   UNL A   1      33.842  26.151  25.009  1.00  0.00     0.041 C 
ATOM     23  C   UNL A   1      30.392  24.700  25.823  1.00  0.00     0.008 A 
ATOM     24  C   UNL A   1      32.743  25.300  25.614  1.00  0.00    -0.040 A 
ATOM     25  C   UNL A   1      30.733  23.698  26.733  1.00  0.00     0.001 A 
ATOM     26  C   UNL A   1      33.071  24.279  26.513  1.00  0.00     0.004 A 
ATOM     27  C   UNL A   1      32.069  23.479  27.065  1.00  0.00     0.000 A 
ENDBRANCH  15  18
ENDBRANCH  13  15
ENDBRANCH  12  13
ENDBRANCH   5   7
ENDBRANCH   2   3
ENDBRANCH   1   2
BRANCH   1  28
ATOM     28  C   UNL A   1      38.398  24.004  26.491  1.00  0.00     0.118 C 
BRANCH  28  29
ATOM     29  N   UNL A   1      39.813  23.919  26.157  1.00  0.00    -0.352 N 
ATOM     30  C   UNL A   1      40.858  24.743  26.505  1.00  0.00     0.251 C 
ATOM     31  H   UNL A   1      40.061  23.151  25.593  1.00  0.00     0.163 HD
ATOM     32  O   UNL A   1      41.951  24.588  25.969  1.00  0.00    -0.269 OA
BRANCH  30  33
ATOM     33  C   UNL A   1      40.660  25.825  27.495  1.00  0.00     0.039 A 
ATOM     34  C   UNL A   1      39.717  25.652  28.512  1.00  0.00     0.014 A 
ATOM     35  C   UNL A   1      41.399  27.007  27.426  1.00  0.00     0.014 A 
ATOM     36  C   UNL A   1      39.577  26.628  29.502  1.00  0.00     0.010 A 
ATOM     37  C   UNL A   1      41.331  27.929  28.465  1.00  0.00     0.010 A 
ATOM     38  C   UNL A   1      40.415  27.754  29.512  1.00  0.00    -0.014 A 
BRANCH  38  39
ATOM     39  C   UNL A   1      40.349  28.767  30.596  1.00  0.00     0.031 A 
ATOM     40  C   UNL A   1      41.257  28.651  31.792  1.00  0.00     0.074 A 
ATOM     41  C   UNL A   1      39.418  29.741  30.548  1.00  0.00     0.049 A 
ATOM     42  N   UNL A   1      41.281  29.374  32.883  1.00  0.00    -0.248 NA
ATOM     43  C   UNL A   1      42.244  27.560  31.773  1.00  0.00     0.031 C 
ATOM     44  C   UNL A   1      38.444  29.936  29.469  1.00  0.00     0.029 A 
ATOM     45  N   UNL A   1      39.132  30.748  31.435  1.00  0.00    -0.354 N 
ATOM     46  C   UNL A   1      42.260  28.806  33.689  1.00  0.00     0.074 A 
ATOM     47  C   UNL A   1      42.774  27.653  32.983  1.00  0.00     0.031 C 
ATOM     48  C   UNL A   1      37.691  31.013  29.746  1.00  0.00     0.029 A 
ATOM     49  C   UNL A   1      38.096  31.561  31.036  1.00  0.00     0.049 A 
ATOM     50  H   UNL A   1      39.622  30.877  32.280  1.00  0.00     0.167 HD
ATOM     51  C   UNL A   1      42.709  29.218  34.899  1.00  0.00     0.031 A 
ATOM     52  C   UNL A   1      37.533  32.623  31.641  1.00  0.00     0.031 A 
ATOM     53  C   UNL A   1      42.220  30.382  35.586  1.00  0.00     0.049 A 
ATOM     54  C   UNL A   1      38.059  33.074  32.975  1.00  0.00     0.074 A 
ATOM     55  C   UNL A   1      42.655  30.921  36.785  1.00  0.00     0.029 A 
ATOM     56  N   UNL A   1      41.189  31.191  35.134  1.00  0.00    -0.354 N 
ATOM     57  N   UNL A   1      39.025  32.556  33.696  1.00  0.00    -0.248 NA
ATOM     58  C   UNL A   1      37.425  34.257  33.572  1.00  0.00     0.031 C 
ATOM     59  C   UNL A   1      41.862  32.036  37.075  1.00  0.00     0.029 A 
ATOM     60  C   UNL A   1      40.962  32.216  36.036  1.00  0.00     0.049 A 
ATOM     61  H   UNL A   1      40.692  31.056  34.294  1.00  0.00     0.167 HD
ATOM     62  C   UNL A   1      39.127  33.362  34.823  1.00  0.00     0.074 A 
ATOM     63  C   UNL A   1      38.135  34.409  34.681  1.00  0.00     0.031 C 
ATOM     64  C   UNL A   1      39.967  33.246  35.881  1.00  0.00     0.031 A 
BRANCH  51  65
ATOM     65  C   UNL A   1      43.787  28.394  35.551  1.00  0.00    -0.014 A 
ATOM     66  C   UNL A   1      45.136  28.795  35.502  1.00  0.00     0.010 A 
ATOM     67  C   UNL A   1      43.449  27.212  36.231  1.00  0.00     0.010 A 
ATOM     68  C   UNL A   1      46.131  28.002  36.076  1.00  0.00     0.020 A 
ATOM     69  C   UNL A   1      44.441  26.428  36.831  1.00  0.00     0.020 A 
ATOM     70  C   UNL A   1      45.778  26.818  36.729  1.00  0.00     0.054 A 
BRANCH  70  71
ATOM     71  S   UNL A   1      47.089  25.806  37.468  1.00  0.00     0.124 S 
ATOM     72  O   UNL A   1      47.703  26.747  38.403  1.00  0.00    -0.237 OA
ATOM     73  O   UNL A   1      46.343  24.709  38.081  1.00  0.00    -0.237 OA
ATOM     74  O   UNL A   1      47.920  25.429  36.328  1.00  0.00    -0.744 OA
ENDBRANCH  70  71
ENDBRANCH  51  65
BRANCH  52  75
ATOM     75  C   UNL A   1      36.420  33.349  30.973  1.00  0.00    -0.014 A 
ATOM     76  C   UNL A   1      35.216  33.585  31.660  1.00  0.00     0.010 A 
ATOM     77  C   UNL A   1      36.568  33.836  29.662  1.00  0.00     0.010 A 
ATOM     78  C   UNL A   1      34.175  34.285  31.044  1.00  0.00     0.020 A 
ATOM     79  C   UNL A   1      35.537  34.557  29.052  1.00  0.00     0.020 A 
ATOM     80  C   UNL A   1      34.344  34.769  29.744  1.00  0.00     0.054 A 
BRANCH  80  81
ATOM     81  S   UNL A   1      33.006  35.737  28.989  1.00  0.00     0.124 S 
ATOM     82  O   UNL A   1      32.232  36.147  30.156  1.00  0.00    -0.237 OA
ATOM     83  O   UNL A   1      33.734  36.803  28.304  1.00  0.00    -0.237 OA
ATOM     84  O   UNL A   1      32.350  34.775  28.105  1.00  0.00    -0.744 OA
ENDBRANCH  80  81
ENDBRANCH  52  75
BRANCH  64  85
ATOM     85  C   UNL A   1      39.868  34.291  36.957  1.00  0.00    -0.014 A 
ATOM     86  C   UNL A   1      40.542  35.519  36.839  1.00  0.00     0.010 A 
ATOM     87  C   UNL A   1      39.048  34.060  38.076  1.00  0.00     0.010 A 
ATOM     88  C   UNL A   1      40.418  36.490  37.836  1.00  0.00     0.020 A 
ATOM     89  C   UNL A   1      38.903  35.036  39.064  1.00  0.00     0.020 A 
ATOM     90  C   UNL A   1      39.600  36.241  38.944  1.00  0.00     0.054 A 
BRANCH  90  91
ATOM     91  S   UNL A   1      39.418  37.533  40.203  1.00  0.00     0.124 S 
ATOM     92  O   UNL A   1      40.786  38.027  40.332  1.00  0.00    -0.237 OA
ATOM     93  O   UNL A   1      38.471  38.456  39.585  1.00  0.00    -0.237 OA
ATOM     94  O   UNL A   1      38.903  36.811  41.366  1.00  0.00    -0.744 OA
ENDBRANCH  90  91
ENDBRANCH  64  85
ENDBRANCH  38  39
ENDBRANCH  30  33
ENDBRANCH  28  29
ENDBRANCH   1  28
TORSDOF 16
ENDMDL
MODEL 3
REMARK VINA RESULT:     -11.9      3.602      4.435
REMARK SMILES O=C(NCCCNC(=O)c1ccc(-c2c3nc(c(-c4ccc(S(=O)(=O)[O-])cc4)c4ccc([nH]4)c(-c4ccc(S(=O)(=O)[O-])cc4)c4nc(c(-c5ccc(S(=O)(=O)[O-])cc5)c5ccc2[nH]5)C=C4)C=C3)cc1)c1ccc(NS(=O)(=O)C2=Cc3ccccc3CC2)cc1
REMARK SMILES IDX 5 1 4 2 3 3 1 4 2 5 70 7 71 8 89 9 72 10 88 11 73 12 74 13
REMARK SMILES IDX 75 15 76 16 77 17 78 18 79 19 87 20 80 21 86 22 81 23 85 24
REMARK SMILES IDX 82 25 84 26 83 27 6 28 7 29 8 30 9 32 10 33 11 34 69 35
REMARK SMILES IDX 12 36 68 37 13 38 14 39 15 40 62 41 16 42 67 43 61 44 63 45
REMARK SMILES IDX 17 46 66 47 60 48 59 49 18 51 48 52 29 53 47 54 30 55 33 56
REMARK SMILES IDX 46 57 64 58 31 59 32 60 45 62 65 63 34 64 19 65 20 66 28 67
REMARK SMILES IDX 21 68 27 69 22 70 23 71 24 72 25 73 26 74 49 75 50 76 58 77
REMARK SMILES IDX 51 78 57 79 52 80 53 81 54 82 55 83 56 84 35 85 36 86 44 87
REMARK SMILES IDX 37 88 43 89 38 90 39 91 40 92 41 93 42 94
REMARK H PARENT 3 6 74 14 7 31 63 50 33 61
REMARK Flexibility Score: inf
ROOT
ATOM      1  C   UNL A   1      39.875  21.986  26.726  1.00  0.00     0.042 C 
ENDROOT
BRANCH   1   2
ATOM      2  C   UNL A   1      38.706  22.078  25.757  1.00  0.00     0.118 C 
BRANCH   2   3
ATOM      3  N   UNL A   1      38.195  20.765  25.390  1.00  0.00    -0.352 N 
ATOM      4  O   UNL A   1      36.623  19.224  24.909  1.00  0.00    -0.269 OA
ATOM      5  C   UNL A   1      36.945  20.408  24.955  1.00  0.00     0.251 C 
ATOM      6  H   UNL A   1      38.841  20.025  25.466  1.00  0.00     0.163 HD
BRANCH   5   7
ATOM      7  C   UNL A   1      35.991  21.441  24.503  1.00  0.00     0.039 A 
ATOM      8  C   UNL A   1      36.379  22.385  23.550  1.00  0.00     0.016 A 
ATOM      9  C   UNL A   1      34.660  21.389  24.926  1.00  0.00     0.016 A 
ATOM     10  C   UNL A   1      35.451  23.296  23.053  1.00  0.00     0.027 A 
ATOM     11  C   UNL A   1      33.733  22.313  24.428  1.00  0.00     0.027 A 
ATOM     12  C   UNL A   1      34.130  23.284  23.502  1.00  0.00     0.049 A 
BRANCH  12  13
ATOM     13  N   UNL A   1      33.140  24.081  22.847  1.00  0.00    -0.280 N 
ATOM     14  H   UNL A   1      32.431  23.640  22.326  1.00  0.00     0.180 HD
BRANCH  13  15
ATOM     15  S   UNL A   1      33.164  25.780  22.953  1.00  0.00     0.258 S 
ATOM     16  O   UNL A   1      33.981  26.043  24.125  1.00  0.00    -0.202 OA
ATOM     17  O   UNL A   1      33.640  26.226  21.660  1.00  0.00    -0.202 OA
BRANCH  15  18
ATOM     18  C   UNL A   1      31.523  26.374  23.207  1.00  0.00     0.066 C 
ATOM     19  C   UNL A   1      31.020  26.250  24.455  1.00  0.00     0.026 C 
ATOM     20  C   UNL A   1      31.187  27.656  22.485  1.00  0.00     0.055 C 
ATOM     21  C   UNL A   1      31.306  27.422  25.333  1.00  0.00    -0.021 A 
ATOM     22  C   UNL A   1      31.730  28.859  23.271  1.00  0.00     0.041 C 
ATOM     23  C   UNL A   1      31.229  27.272  26.720  1.00  0.00     0.008 A 
ATOM     24  C   UNL A   1      31.654  28.671  24.773  1.00  0.00    -0.040 A 
ATOM     25  C   UNL A   1      31.543  28.345  27.555  1.00  0.00     0.001 A 
ATOM     26  C   UNL A   1      31.986  29.732  25.623  1.00  0.00     0.004 A 
ATOM     27  C   UNL A   1      31.934  29.567  27.008  1.00  0.00     0.000 A 
ENDBRANCH  15  18
ENDBRANCH  13  15
ENDBRANCH  12  13
ENDBRANCH   5   7
ENDBRANCH   2   3
ENDBRANCH   1   2
BRANCH   1  28
ATOM     28  C   UNL A   1      40.399  23.334  27.199  1.00  0.00     0.118 C 
BRANCH  28  29
ATOM     29  N   UNL A   1      40.969  24.132  26.122  1.00  0.00    -0.352 N 
ATOM     30  C   UNL A   1      41.275  25.472  26.078  1.00  0.00     0.251 C 
ATOM     31  H   UNL A   1      41.165  23.635  25.296  1.00  0.00     0.163 HD
ATOM     32  O   UNL A   1      41.586  25.984  25.006  1.00  0.00    -0.269 OA
BRANCH  30  33
ATOM     33  C   UNL A   1      41.204  26.298  27.304  1.00  0.00     0.039 A 
ATOM     34  C   UNL A   1      42.203  27.246  27.543  1.00  0.00     0.014 A 
ATOM     35  C   UNL A   1      40.158  26.144  28.216  1.00  0.00     0.014 A 
ATOM     36  C   UNL A   1      42.106  28.090  28.653  1.00  0.00     0.010 A 
ATOM     37  C   UNL A   1      40.011  27.049  29.261  1.00  0.00     0.010 A 
ATOM     38  C   UNL A   1      40.985  28.029  29.495  1.00  0.00    -0.014 A 
BRANCH  38  39
ATOM     39  C   UNL A   1      40.812  28.968  30.633  1.00  0.00     0.031 A 
ATOM     40  C   UNL A   1      41.661  28.819  31.869  1.00  0.00     0.074 A 
ATOM     41  C   UNL A   1      39.838  29.898  30.594  1.00  0.00     0.049 A 
ATOM     42  N   UNL A   1      41.592  29.472  33.001  1.00  0.00    -0.248 NA
ATOM     43  C   UNL A   1      42.702  27.779  31.838  1.00  0.00     0.031 C 
ATOM     44  C   UNL A   1      38.913  30.115  29.477  1.00  0.00     0.029 A 
ATOM     45  N   UNL A   1      39.456  30.833  31.523  1.00  0.00    -0.354 N 
ATOM     46  C   UNL A   1      42.555  28.901  33.824  1.00  0.00     0.074 A 
ATOM     47  C   UNL A   1      43.163  27.820  33.079  1.00  0.00     0.031 C 
ATOM     48  C   UNL A   1      38.093  31.136  29.776  1.00  0.00     0.029 A 
ATOM     49  C   UNL A   1      38.403  31.619  31.117  1.00  0.00     0.049 A 
ATOM     50  H   UNL A   1      39.893  30.931  32.400  1.00  0.00     0.167 HD
ATOM     51  C   UNL A   1      42.920  29.256  35.080  1.00  0.00     0.031 A 
ATOM     52  C   UNL A   1      37.756  32.614  31.753  1.00  0.00     0.031 A 
ATOM     53  C   UNL A   1      42.338  30.349  35.808  1.00  0.00     0.049 A 
ATOM     54  C   UNL A   1      38.188  33.004  33.140  1.00  0.00     0.074 A 
ATOM     55  C   UNL A   1      42.682  30.832  37.059  1.00  0.00     0.029 A 
ATOM     56  N   UNL A   1      41.292  31.136  35.350  1.00  0.00    -0.354 N 
ATOM     57  N   UNL A   1      39.140  32.487  33.880  1.00  0.00    -0.248 NA
ATOM     58  C   UNL A   1      37.465  34.116  33.771  1.00  0.00     0.031 C 
ATOM     59  C   UNL A   1      41.820  31.888  37.373  1.00  0.00     0.029 A 
ATOM     60  C   UNL A   1      40.967  32.091  36.298  1.00  0.00     0.049 A 
ATOM     61  H   UNL A   1      40.847  31.032  34.477  1.00  0.00     0.167 HD
ATOM     62  C   UNL A   1      39.143  33.224  35.058  1.00  0.00     0.074 A 
ATOM     63  C   UNL A   1      38.108  34.230  34.925  1.00  0.00     0.031 C 
ATOM     64  C   UNL A   1      39.932  33.081  36.151  1.00  0.00     0.031 A 
BRANCH  51  65
ATOM     65  C   UNL A   1      44.002  28.444  35.739  1.00  0.00    -0.014 A 
ATOM     66  C   UNL A   1      45.359  28.783  35.584  1.00  0.00     0.010 A 
ATOM     67  C   UNL A   1      43.660  27.336  36.533  1.00  0.00     0.010 A 
ATOM     68  C   UNL A   1      46.356  27.999  36.167  1.00  0.00     0.020 A 
ATOM     69  C   UNL A   1      44.655  26.563  37.141  1.00  0.00     0.020 A 
ATOM     70  C   UNL A   1      45.998  26.887  36.935  1.00  0.00     0.054 A 
BRANCH  70  71
ATOM     71  S   UNL A   1      47.310  25.885  37.684  1.00  0.00     0.124 S 
ATOM     72  O   UNL A   1      48.411  26.844  37.763  1.00  0.00    -0.237 OA
ATOM     73  O   UNL A   1      46.727  25.493  38.965  1.00  0.00    -0.237 OA
ATOM     74  O   UNL A   1      47.501  24.795  36.731  1.00  0.00    -0.744 OA
ENDBRANCH  70  71
ENDBRANCH  51  65
BRANCH  52  75
ATOM     75  C   UNL A   1      36.644  33.328  31.071  1.00  0.00    -0.014 A 
ATOM     76  C   UNL A   1      36.846  33.907  29.806  1.00  0.00     0.010 A 
ATOM     77  C   UNL A   1      35.372  33.406  31.666  1.00  0.00     0.010 A 
ATOM     78  C   UNL A   1      35.799  34.561  29.152  1.00  0.00     0.020 A 
ATOM     79  C   UNL A   1      34.316  34.039  31.004  1.00  0.00     0.020 A 
ATOM     80  C   UNL A   1      34.539  34.620  29.754  1.00  0.00     0.054 A 
BRANCH  80  81
ATOM     81  S   UNL A   1      33.174  35.413  28.857  1.00  0.00     0.124 S 
ATOM     82  O   UNL A   1      32.599  34.289  28.125  1.00  0.00    -0.237 OA
ATOM     83  O   UNL A   1      32.353  35.951  29.939  1.00  0.00    -0.237 OA
ATOM     84  O   UNL A   1      33.847  36.419  28.037  1.00  0.00    -0.744 OA
ENDBRANCH  80  81
ENDBRANCH  52  75
BRANCH  64  85
ATOM     85  C   UNL A   1      39.724  34.050  37.282  1.00  0.00    -0.014 A 
ATOM     86  C   UNL A   1      38.908  33.719  38.378  1.00  0.00     0.010 A 
ATOM     87  C   UNL A   1      40.397  35.285  37.272  1.00  0.00     0.010 A 
ATOM     88  C   UNL A   1      38.746  34.620  39.434  1.00  0.00     0.020 A 
ATOM     89  C   UNL A   1      40.256  36.179  38.336  1.00  0.00     0.020 A 
ATOM     90  C   UNL A   1      39.420  35.845  39.405  1.00  0.00     0.054 A 
BRANCH  90  91
ATOM     91  S   UNL A   1      39.232  36.979  40.807  1.00  0.00     0.124 S 
ATOM     92  O   UNL A   1      40.617  37.350  41.085  1.00  0.00    -0.237 OA
ATOM     93  O   UNL A   1      38.397  38.041  40.254  1.00  0.00    -0.237 OA
ATOM     94  O   UNL A   1      38.588  36.159  41.830  1.00  0.00    -0.744 OA
ENDBRANCH  90  91
ENDBRANCH  64  85
ENDBRANCH  38  39
ENDBRANCH  30  33
ENDBRANCH  28  29
ENDBRANCH   1  28
TORSDOF 16
ENDMDL
