MODEL 1
REMARK VINA RESULT:     -12.2      0.000      0.000
REMARK SMILES CC1=C(CC(=O)NCCCNC(=O)c2ccc(-c3c4nc(c(-c5ccc(S(=O)(=O)[O-])cc5)c5ccc([nH]5)c(-c5ccc(S(=O)(=O)[O-])cc5)c5nc(c(-c6ccc(S(=O)(=O)[O-])cc6)c6ccc3[nH]6)C=C5)C=C4)cc2)c2cc(F)ccc2/C1=C\c1ccc([S@@+](C)[O-])cc1
REMARK SMILES IDX 9 1 8 2 7 3 5 4 6 5 4 7 3 8 1 9 2 10 81 11 74 12 80 13 82 14
REMARK SMILES IDX 75 15 79 16 76 17 78 18 77 19 83 20 84 21 91 22 85 23 90 24
REMARK SMILES IDX 86 25 87 26 88 27 89 28 10 29 11 30 12 31 13 33 14 34 15 35
REMARK SMILES IDX 73 36 16 37 72 38 17 39 18 40 19 41 66 42 20 43 71 44 65 45
REMARK SMILES IDX 67 46 21 47 70 48 64 49 63 50 22 52 52 53 33 54 51 55 34 56
REMARK SMILES IDX 37 57 50 58 68 59 35 60 36 61 49 63 69 64 38 65 23 66 24 67
REMARK SMILES IDX 32 68 25 69 31 70 26 71 27 72 28 73 29 74 30 75 53 76 54 77
REMARK SMILES IDX 62 78 55 79 61 80 56 81 57 82 58 83 59 84 60 85 39 86 40 87
REMARK SMILES IDX 48 88 41 89 47 90 42 91 43 92 44 93 45 94 46 95
REMARK H PARENT 7 6 11 32 67 51 37 62
REMARK Flexibility Score: inf
ROOT
ATOM      1  C   UNL A   1      33.097  28.880  24.843  1.00  0.00     0.042 C 
ENDROOT
BRANCH   1   2
ATOM      2  C   UNL A   1      31.630  29.293  24.892  1.00  0.00     0.117 C 
BRANCH   2   3
ATOM      3  N   UNL A   1      31.070  29.509  23.572  1.00  0.00    -0.356 N 
ATOM      4  C   UNL A   1      30.183  28.742  22.877  1.00  0.00     0.224 C 
ATOM      5  O   UNL A   1      29.835  29.128  21.758  1.00  0.00    -0.275 OA
ATOM      6  H   UNL A   1      31.374  30.326  23.113  1.00  0.00     0.163 HD
BRANCH   4   7
ATOM      7  C   UNL A   1      29.607  27.467  23.491  1.00  0.00     0.136 C 
BRANCH   7   8
ATOM      8  C   UNL A   1      30.642  26.460  23.881  1.00  0.00    -0.027 C 
ATOM      9  C   UNL A   1      30.006  26.069  26.310  1.00  0.00     0.045 C 
ATOM     10  C   UNL A   1      30.847  25.883  25.090  1.00  0.00    -0.039 C 
ATOM     11  C   UNL A   1      32.003  24.974  25.014  1.00  0.00    -0.014 C 
ATOM     12  C   UNL A   1      31.598  25.868  22.930  1.00  0.00    -0.011 A 
ATOM     13  C   UNL A   1      32.395  24.913  23.591  1.00  0.00    -0.010 A 
ATOM     14  C   UNL A   1      32.599  24.391  26.074  1.00  0.00     0.017 C 
ATOM     15  C   UNL A   1      31.748  26.092  21.567  1.00  0.00     0.048 A 
ATOM     16  C   UNL A   1      33.296  24.135  22.876  1.00  0.00     0.012 A 
ATOM     17  C   UNL A   1      32.695  25.346  20.874  1.00  0.00     0.123 A 
ATOM     18  C   UNL A   1      33.459  24.367  21.508  1.00  0.00     0.040 A 
ATOM     19  F   UNL A   1      32.862  25.554  19.561  1.00  0.00    -0.207 F 
BRANCH  14  20
ATOM     20  C   UNL A   1      33.773  23.513  26.012  1.00  0.00    -0.025 A 
ATOM     21  C   UNL A   1      35.070  24.031  26.100  1.00  0.00     0.013 A 
ATOM     22  C   UNL A   1      33.592  22.154  25.741  1.00  0.00     0.013 A 
ATOM     23  C   UNL A   1      36.171  23.227  25.780  1.00  0.00     0.061 A 
ATOM     24  C   UNL A   1      34.693  21.349  25.439  1.00  0.00     0.061 A 
ATOM     25  C   UNL A   1      35.983  21.891  25.406  1.00  0.00     0.152 A 
BRANCH  25  26
ATOM     26  S   UNL A   1      37.348  20.943  24.690  1.00  0.00    -0.018 S 
ATOM     27  C   UNL A   1      38.699  21.558  25.711  1.00  0.00     0.346 C 
ATOM     28  O   UNL A   1      37.097  19.431  25.034  1.00  0.00    -0.612 OA
ENDBRANCH  25  26
ENDBRANCH  14  20
ENDBRANCH   7   8
ENDBRANCH   4   7
ENDBRANCH   2   3
ENDBRANCH   1   2
BRANCH   1  29
ATOM     29  C   UNL A   1      33.782  28.861  26.205  1.00  0.00     0.118 C 
BRANCH  29  30
ATOM     30  N   UNL A   1      33.664  30.126  26.920  1.00  0.00    -0.352 N 
ATOM     31  C   UNL A   1      34.508  30.708  27.835  1.00  0.00     0.251 C 
ATOM     32  H   UNL A   1      32.851  30.643  26.717  1.00  0.00     0.163 HD
ATOM     33  O   UNL A   1      34.140  31.712  28.443  1.00  0.00    -0.269 OA
BRANCH  31  34
ATOM     34  C   UNL A   1      35.836  30.118  28.114  1.00  0.00     0.039 A 
ATOM     35  C   UNL A   1      36.105  29.500  29.337  1.00  0.00     0.014 A 
ATOM     36  C   UNL A   1      36.831  30.185  27.134  1.00  0.00     0.014 A 
ATOM     37  C   UNL A   1      37.405  29.116  29.646  1.00  0.00     0.010 A 
ATOM     38  C   UNL A   1      38.119  29.720  27.416  1.00  0.00     0.010 A 
ATOM     39  C   UNL A   1      38.431  29.230  28.694  1.00  0.00    -0.014 A 
BRANCH  39  40
ATOM     40  C   UNL A   1      39.819  28.843  29.062  1.00  0.00     0.031 A 
ATOM     41  C   UNL A   1      40.376  27.503  28.656  1.00  0.00     0.074 A 
ATOM     42  C   UNL A   1      40.601  29.726  29.715  1.00  0.00     0.049 A 
ATOM     43  N   UNL A   1      41.576  27.022  28.856  1.00  0.00    -0.248 NA
ATOM     44  C   UNL A   1      39.480  26.585  27.933  1.00  0.00     0.031 C 
ATOM     45  C   UNL A   1      40.176  31.057  30.155  1.00  0.00     0.029 A 
ATOM     46  N   UNL A   1      41.916  29.652  30.103  1.00  0.00    -0.354 N 
ATOM     47  C   UNL A   1      41.572  25.743  28.312  1.00  0.00     0.074 A 
ATOM     48  C   UNL A   1      40.245  25.512  27.786  1.00  0.00     0.031 C 
ATOM     49  C   UNL A   1      41.222  31.692  30.704  1.00  0.00     0.029 A 
ATOM     50  C   UNL A   1      42.374  30.794  30.715  1.00  0.00     0.049 A 
ATOM     51  H   UNL A   1      42.476  28.856  29.957  1.00  0.00     0.167 HD
ATOM     52  C   UNL A   1      42.587  24.852  28.246  1.00  0.00     0.031 A 
ATOM     53  C   UNL A   1      43.579  31.094  31.241  1.00  0.00     0.031 A 
ATOM     54  C   UNL A   1      43.915  25.098  28.745  1.00  0.00     0.049 A 
ATOM     55  C   UNL A   1      44.684  30.079  31.170  1.00  0.00     0.074 A 
ATOM     56  C   UNL A   1      45.018  24.265  28.678  1.00  0.00     0.029 A 
ATOM     57  N   UNL A   1      44.323  26.251  29.399  1.00  0.00    -0.354 N 
ATOM     58  N   UNL A   1      44.666  28.888  30.621  1.00  0.00    -0.248 NA
ATOM     59  C   UNL A   1      45.969  30.442  31.784  1.00  0.00     0.031 C 
ATOM     60  C   UNL A   1      46.076  24.886  29.345  1.00  0.00     0.029 A 
ATOM     61  C   UNL A   1      45.653  26.136  29.766  1.00  0.00     0.049 A 
ATOM     62  H   UNL A   1      43.752  27.034  29.574  1.00  0.00     0.167 HD
ATOM     63  C   UNL A   1      45.936  28.360  30.823  1.00  0.00     0.074 A 
ATOM     64  C   UNL A   1      46.705  29.369  31.520  1.00  0.00     0.031 C 
ATOM     65  C   UNL A   1      46.412  27.142  30.466  1.00  0.00     0.031 A 
BRANCH  52  66
ATOM     66  C   UNL A   1      42.332  23.512  27.606  1.00  0.00    -0.014 A 
ATOM     67  C   UNL A   1      41.796  22.464  28.378  1.00  0.00     0.010 A 
ATOM     68  C   UNL A   1      42.766  23.245  26.296  1.00  0.00     0.010 A 
ATOM     69  C   UNL A   1      41.745  21.164  27.872  1.00  0.00     0.020 A 
ATOM     70  C   UNL A   1      42.692  21.950  25.777  1.00  0.00     0.020 A 
ATOM     71  C   UNL A   1      42.210  20.912  26.580  1.00  0.00     0.054 A 
BRANCH  71  72
ATOM     72  S   UNL A   1      42.198  19.207  25.960  1.00  0.00     0.124 S 
ATOM     73  O   UNL A   1      42.755  18.469  27.090  1.00  0.00    -0.237 OA
ATOM     74  O   UNL A   1      40.782  18.978  25.688  1.00  0.00    -0.237 OA
ATOM     75  O   UNL A   1      43.049  19.273  24.774  1.00  0.00    -0.744 OA
ENDBRANCH  71  72
ENDBRANCH  52  66
BRANCH  53  76
ATOM     76  C   UNL A   1      43.778  32.424  31.877  1.00  0.00    -0.014 A 
ATOM     77  C   UNL A   1      43.482  32.604  33.242  1.00  0.00     0.010 A 
ATOM     78  C   UNL A   1      44.167  33.535  31.110  1.00  0.00     0.010 A 
ATOM     79  C   UNL A   1      43.511  33.877  33.814  1.00  0.00     0.020 A 
ATOM     80  C   UNL A   1      44.227  34.809  31.687  1.00  0.00     0.020 A 
ATOM     81  C   UNL A   1      43.867  34.974  33.028  1.00  0.00     0.054 A 
BRANCH  81  82
ATOM     82  S   UNL A   1      43.844  36.627  33.774  1.00  0.00     0.124 S 
ATOM     83  O   UNL A   1      42.635  36.568  34.590  1.00  0.00    -0.237 OA
ATOM     84  O   UNL A   1      45.103  36.664  34.515  1.00  0.00    -0.237 OA
ATOM     85  O   UNL A   1      43.778  37.520  32.620  1.00  0.00    -0.744 OA
ENDBRANCH  81  82
ENDBRANCH  53  76
BRANCH  65  86
ATOM     86  C   UNL A   1      47.833  26.801  30.822  1.00  0.00    -0.014 A 
ATOM     87  C   UNL A   1      48.120  26.219  32.071  1.00  0.00     0.010 A 
ATOM     88  C   UNL A   1      48.894  27.188  29.986  1.00  0.00     0.010 A 
ATOM     89  C   UNL A   1      49.441  26.068  32.497  1.00  0.00     0.020 A 
ATOM     90  C   UNL A   1      50.219  27.015  30.397  1.00  0.00     0.020 A 
ATOM     91  C   UNL A   1      50.483  26.482  31.662  1.00  0.00     0.054 A 
BRANCH  91  92
ATOM     92  S   UNL A   1      52.191  26.321  32.248  1.00  0.00     0.124 S 
ATOM     93  O   UNL A   1      52.929  26.156  30.999  1.00  0.00    -0.237 OA
ATOM     94  O   UNL A   1      52.412  27.583  32.949  1.00  0.00    -0.237 OA
ATOM     95  O   UNL A   1      52.147  25.140  33.109  1.00  0.00    -0.744 OA
ENDBRANCH  91  92
ENDBRANCH  65  86
ENDBRANCH  39  40
ENDBRANCH  31  34
ENDBRANCH  29  30
ENDBRANCH   1  29
TORSDOF 16
ENDMDL
MODEL 2
REMARK VINA RESULT:     -12.1      1.660      2.322
REMARK SMILES CC1=C(CC(=O)NCCCNC(=O)c2ccc(-c3c4nc(c(-c5ccc(S(=O)(=O)[O-])cc5)c5ccc([nH]5)c(-c5ccc(S(=O)(=O)[O-])cc5)c5nc(c(-c6ccc(S(=O)(=O)[O-])cc6)c6ccc3[nH]6)C=C5)C=C4)cc2)c2cc(F)ccc2/C1=C\c1ccc([S@@+](C)[O-])cc1
REMARK SMILES IDX 9 1 8 2 7 3 5 4 6 5 4 7 3 8 1 9 2 10 81 11 74 12 80 13 82 14
REMARK SMILES IDX 75 15 79 16 76 17 78 18 77 19 83 20 84 21 91 22 85 23 90 24
REMARK SMILES IDX 86 25 87 26 88 27 89 28 10 29 11 30 12 31 13 33 14 34 15 35
REMARK SMILES IDX 73 36 16 37 72 38 17 39 18 40 19 41 66 42 20 43 71 44 65 45
REMARK SMILES IDX 67 46 21 47 70 48 64 49 63 50 22 52 52 53 33 54 51 55 34 56
REMARK SMILES IDX 37 57 50 58 68 59 35 60 36 61 49 63 69 64 38 65 23 66 24 67
REMARK SMILES IDX 32 68 25 69 31 70 26 71 27 72 28 73 29 74 30 75 53 76 54 77
REMARK SMILES IDX 62 78 55 79 61 80 56 81 57 82 58 83 59 84 60 85 39 86 40 87
REMARK SMILES IDX 48 88 41 89 47 90 42 91 43 92 44 93 45 94 46 95
REMARK H PARENT 7 6 11 32 67 51 37 62
REMARK Flexibility Score: inf
ROOT
ATOM      1  C   UNL A   1      32.238  28.142  26.773  1.00  0.00     0.042 C 
ENDROOT
BRANCH   1   2
ATOM      2  C   UNL A   1      31.447  28.965  25.763  1.00  0.00     0.117 C 
BRANCH   2   3
ATOM      3  N   UNL A   1      32.201  29.234  24.554  1.00  0.00    -0.356 N 
ATOM      4  C   UNL A   1      32.073  28.674  23.318  1.00  0.00     0.224 C 
ATOM      5  O   UNL A   1      32.828  29.066  22.423  1.00  0.00    -0.275 OA
ATOM      6  H   UNL A   1      32.906  29.918  24.638  1.00  0.00     0.163 HD
BRANCH   4   7
ATOM      7  C   UNL A   1      30.996  27.627  23.044  1.00  0.00     0.136 C 
BRANCH   7   8
ATOM      8  C   UNL A   1      31.415  26.227  23.362  1.00  0.00    -0.027 C 
ATOM      9  C   UNL A   1      33.370  25.959  21.761  1.00  0.00     0.045 C 
ATOM     10  C   UNL A   1      32.402  25.489  22.797  1.00  0.00    -0.039 C 
ATOM     11  C   UNL A   1      32.431  24.151  23.409  1.00  0.00    -0.014 C 
ATOM     12  C   UNL A   1      30.821  25.429  24.449  1.00  0.00    -0.011 A 
ATOM     13  C   UNL A   1      31.472  24.183  24.532  1.00  0.00    -0.010 A 
ATOM     14  C   UNL A   1      33.154  23.108  22.952  1.00  0.00     0.017 C 
ATOM     15  C   UNL A   1      29.818  25.764  25.349  1.00  0.00     0.048 A 
ATOM     16  C   UNL A   1      31.164  23.298  25.557  1.00  0.00     0.012 A 
ATOM     17  C   UNL A   1      29.480  24.844  26.336  1.00  0.00     0.123 A 
ATOM     18  C   UNL A   1      30.146  23.626  26.456  1.00  0.00     0.040 A 
ATOM     19  F   UNL A   1      28.508  25.144  27.207  1.00  0.00    -0.207 F 
BRANCH  14  20
ATOM     20  C   UNL A   1      33.161  21.760  23.533  1.00  0.00    -0.025 A 
ATOM     21  C   UNL A   1      34.091  21.401  24.516  1.00  0.00     0.013 A 
ATOM     22  C   UNL A   1      32.302  20.790  23.012  1.00  0.00     0.013 A 
ATOM     23  C   UNL A   1      34.256  20.056  24.867  1.00  0.00     0.061 A 
ATOM     24  C   UNL A   1      32.457  19.450  23.377  1.00  0.00     0.061 A 
ATOM     25  C   UNL A   1      33.467  19.068  24.267  1.00  0.00     0.152 A 
BRANCH  25  26
ATOM     26  S   UNL A   1      33.882  17.318  24.473  1.00  0.00    -0.018 S 
ATOM     27  C   UNL A   1      32.536  16.825  25.565  1.00  0.00     0.346 C 
ATOM     28  O   UNL A   1      33.685  16.625  23.078  1.00  0.00    -0.612 OA
ENDBRANCH  25  26
ENDBRANCH  14  20
ENDBRANCH   7   8
ENDBRANCH   4   7
ENDBRANCH   2   3
ENDBRANCH   1   2
BRANCH   1  29
ATOM     29  C   UNL A   1      33.636  28.680  27.055  1.00  0.00     0.118 C 
BRANCH  29  30
ATOM     30  N   UNL A   1      33.627  30.037  27.590  1.00  0.00    -0.352 N 
ATOM     31  C   UNL A   1      34.594  30.720  28.288  1.00  0.00     0.251 C 
ATOM     32  H   UNL A   1      32.798  30.542  27.427  1.00  0.00     0.163 HD
ATOM     33  O   UNL A   1      34.322  31.809  28.789  1.00  0.00    -0.269 OA
BRANCH  31  34
ATOM     34  C   UNL A   1      35.944  30.140  28.466  1.00  0.00     0.039 A 
ATOM     35  C   UNL A   1      36.322  29.560  29.678  1.00  0.00     0.014 A 
ATOM     36  C   UNL A   1      36.848  30.177  27.400  1.00  0.00     0.014 A 
ATOM     37  C   UNL A   1      37.646  29.186  29.881  1.00  0.00     0.010 A 
ATOM     38  C   UNL A   1      38.158  29.722  27.580  1.00  0.00     0.010 A 
ATOM     39  C   UNL A   1      38.583  29.273  28.839  1.00  0.00    -0.014 A 
BRANCH  39  40
ATOM     40  C   UNL A   1      40.000  28.898  29.094  1.00  0.00     0.031 A 
ATOM     41  C   UNL A   1      40.527  27.553  28.667  1.00  0.00     0.074 A 
ATOM     42  C   UNL A   1      40.830  29.796  29.662  1.00  0.00     0.049 A 
ATOM     43  N   UNL A   1      41.743  27.080  28.772  1.00  0.00    -0.248 NA
ATOM     44  C   UNL A   1      39.578  26.618  28.040  1.00  0.00     0.031 C 
ATOM     45  C   UNL A   1      40.437  31.134  30.111  1.00  0.00     0.029 A 
ATOM     46  N   UNL A   1      42.173  29.735  29.937  1.00  0.00    -0.354 N 
ATOM     47  C   UNL A   1      41.700  25.792  28.254  1.00  0.00     0.074 A 
ATOM     48  C   UNL A   1      40.334  25.545  27.848  1.00  0.00     0.031 C 
ATOM     49  C   UNL A   1      41.522  31.783  30.557  1.00  0.00     0.029 A 
ATOM     50  C   UNL A   1      42.676  30.891  30.486  1.00  0.00     0.049 A 
ATOM     51  H   UNL A   1      42.724  28.939  29.758  1.00  0.00     0.167 HD
ATOM     52  C   UNL A   1      42.711  24.903  28.118  1.00  0.00     0.031 A 
ATOM     53  C   UNL A   1      43.920  31.205  30.901  1.00  0.00     0.031 A 
ATOM     54  C   UNL A   1      44.075  25.165  28.497  1.00  0.00     0.049 A 
ATOM     55  C   UNL A   1      45.020  30.194  30.755  1.00  0.00     0.074 A 
ATOM     56  C   UNL A   1      45.173  24.335  28.352  1.00  0.00     0.029 A 
ATOM     57  N   UNL A   1      44.531  26.331  29.092  1.00  0.00    -0.354 N 
ATOM     58  N   UNL A   1      44.962  28.992  30.231  1.00  0.00    -0.248 NA
ATOM     59  C   UNL A   1      46.351  30.573  31.250  1.00  0.00     0.031 C 
ATOM     60  C   UNL A   1      46.280  24.972  28.913  1.00  0.00     0.029 A 
ATOM     61  C   UNL A   1      45.888  26.229  29.346  1.00  0.00     0.049 A 
ATOM     62  H   UNL A   1      43.972  27.115  29.300  1.00  0.00     0.167 HD
ATOM     63  C   UNL A   1      46.247  28.473  30.334  1.00  0.00     0.074 A 
ATOM     64  C   UNL A   1      47.067  29.498  30.944  1.00  0.00     0.031 C 
ATOM     65  C   UNL A   1      46.698  27.251  29.960  1.00  0.00     0.031 A 
BRANCH  52  66
ATOM     66  C   UNL A   1      42.410  23.551  27.527  1.00  0.00    -0.014 A 
ATOM     67  C   UNL A   1      41.947  22.516  28.361  1.00  0.00     0.010 A 
ATOM     68  C   UNL A   1      42.731  23.260  26.190  1.00  0.00     0.010 A 
ATOM     69  C   UNL A   1      41.860  21.206  27.885  1.00  0.00     0.020 A 
ATOM     70  C   UNL A   1      42.621  21.956  25.703  1.00  0.00     0.020 A 
ATOM     71  C   UNL A   1      42.215  20.932  26.563  1.00  0.00     0.054 A 
BRANCH  71  72
ATOM     72  S   UNL A   1      42.160  19.215  25.979  1.00  0.00     0.124 S 
ATOM     73  O   UNL A   1      43.003  19.272  24.789  1.00  0.00    -0.237 OA
ATOM     74  O   UNL A   1      42.710  18.476  27.111  1.00  0.00    -0.237 OA
ATOM     75  O   UNL A   1      40.738  18.988  25.729  1.00  0.00    -0.744 OA
ENDBRANCH  71  72
ENDBRANCH  52  66
BRANCH  53  76
ATOM     76  C   UNL A   1      44.164  32.548  31.493  1.00  0.00    -0.014 A 
ATOM     77  C   UNL A   1      44.009  32.746  32.878  1.00  0.00     0.010 A 
ATOM     78  C   UNL A   1      44.457  33.651  30.674  1.00  0.00     0.010 A 
ATOM     79  C   UNL A   1      44.079  34.028  33.425  1.00  0.00     0.020 A 
ATOM     80  C   UNL A   1      44.559  34.934  31.222  1.00  0.00     0.020 A 
ATOM     81  C   UNL A   1      44.337  35.117  32.590  1.00  0.00     0.054 A 
BRANCH  81  82
ATOM     82  S   UNL A   1      44.368  36.782  33.310  1.00  0.00     0.124 S 
ATOM     83  O   UNL A   1      43.133  36.792  34.089  1.00  0.00    -0.237 OA
ATOM     84  O   UNL A   1      45.604  36.773  34.089  1.00  0.00    -0.237 OA
ATOM     85  O   UNL A   1      44.378  37.658  32.141  1.00  0.00    -0.744 OA
ENDBRANCH  81  82
ENDBRANCH  53  76
BRANCH  65  86
ATOM     86  C   UNL A   1      48.146  26.922  30.199  1.00  0.00    -0.014 A 
ATOM     87  C   UNL A   1      48.544  26.378  31.435  1.00  0.00     0.010 A 
ATOM     88  C   UNL A   1      49.128  27.286  29.262  1.00  0.00     0.010 A 
ATOM     89  C   UNL A   1      49.899  26.242  31.747  1.00  0.00     0.020 A 
ATOM     90  C   UNL A   1      50.485  27.127  29.559  1.00  0.00     0.020 A 
ATOM     91  C   UNL A   1      50.861  26.631  30.811  1.00  0.00     0.054 A 
BRANCH  91  92
ATOM     92  S   UNL A   1      52.615  26.490  31.248  1.00  0.00     0.124 S 
ATOM     93  O   UNL A   1      53.265  26.582  29.944  1.00  0.00    -0.237 OA
ATOM     94  O   UNL A   1      52.819  27.633  32.136  1.00  0.00    -0.237 OA
ATOM     95  O   UNL A   1      52.701  25.184  31.899  1.00  0.00    -0.744 OA
ENDBRANCH  91  92
ENDBRANCH  65  86
ENDBRANCH  39  40
ENDBRANCH  31  34
ENDBRANCH  29  30
ENDBRANCH   1  29
TORSDOF 16
ENDMDL
MODEL 3
REMARK VINA RESULT:     -12.1      1.719      8.263
REMARK SMILES CC1=C(CC(=O)NCCCNC(=O)c2ccc(-c3c4nc(c(-c5ccc(S(=O)(=O)[O-])cc5)c5ccc([nH]5)c(-c5ccc(S(=O)(=O)[O-])cc5)c5nc(c(-c6ccc(S(=O)(=O)[O-])cc6)c6ccc3[nH]6)C=C5)C=C4)cc2)c2cc(F)ccc2/C1=C\c1ccc([S@@+](C)[O-])cc1
REMARK SMILES IDX 9 1 8 2 7 3 5 4 6 5 4 7 3 8 1 9 2 10 81 11 74 12 80 13 82 14
REMARK SMILES IDX 75 15 79 16 76 17 78 18 77 19 83 20 84 21 91 22 85 23 90 24
REMARK SMILES IDX 86 25 87 26 88 27 89 28 10 29 11 30 12 31 13 33 14 34 15 35
REMARK SMILES IDX 73 36 16 37 72 38 17 39 18 40 19 41 66 42 20 43 71 44 65 45
REMARK SMILES IDX 67 46 21 47 70 48 64 49 63 50 22 52 52 53 33 54 51 55 34 56
REMARK SMILES IDX 37 57 50 58 68 59 35 60 36 61 49 63 69 64 38 65 23 66 24 67
REMARK SMILES IDX 32 68 25 69 31 70 26 71 27 72 28 73 29 74 30 75 53 76 54 77
REMARK SMILES IDX 62 78 55 79 61 80 56 81 57 82 58 83 59 84 60 85 39 86 40 87
REMARK SMILES IDX 48 88 41 89 47 90 42 91 43 92 44 93 45 94 46 95
REMARK H PARENT 7 6 11 32 67 51 37 62
REMARK Flexibility Score: inf
ROOT
ATOM      1  C   UNL A   1      32.660  27.995  26.338  1.00  0.00     0.042 C 
ENDROOT
BRANCH   1   2
ATOM      2  C   UNL A   1      31.735  28.935  25.573  1.00  0.00     0.117 C 
BRANCH   2   3
ATOM      3  N   UNL A   1      32.245  29.265  24.256  1.00  0.00    -0.356 N 
ATOM      4  C   UNL A   1      31.907  28.738  23.045  1.00  0.00     0.224 C 
ATOM      5  O   UNL A   1      32.472  29.182  22.042  1.00  0.00    -0.275 OA
ATOM      6  H   UNL A   1      32.933  29.970  24.234  1.00  0.00     0.163 HD
BRANCH   4   7
ATOM      7  C   UNL A   1      30.828  27.662  22.937  1.00  0.00     0.136 C 
BRANCH   7   8
ATOM      8  C   UNL A   1      31.308  26.286  23.271  1.00  0.00    -0.027 C 
ATOM      9  C   UNL A   1      33.214  26.048  21.609  1.00  0.00     0.045 C 
ATOM     10  C   UNL A   1      32.300  25.570  22.688  1.00  0.00    -0.039 C 
ATOM     11  C   UNL A   1      32.398  24.248  23.329  1.00  0.00    -0.014 C 
ATOM     12  C   UNL A   1      30.780  25.493  24.395  1.00  0.00    -0.011 A 
ATOM     13  C   UNL A   1      31.477  24.273  24.483  1.00  0.00    -0.010 A 
ATOM     14  C   UNL A   1      33.141  23.220  22.869  1.00  0.00     0.017 C 
ATOM     15  C   UNL A   1      29.797  25.814  25.323  1.00  0.00     0.048 A 
ATOM     16  C   UNL A   1      31.236  23.401  25.538  1.00  0.00     0.012 A 
ATOM     17  C   UNL A   1      29.526  24.906  26.341  1.00  0.00     0.123 A 
ATOM     18  C   UNL A   1      30.239  23.714  26.464  1.00  0.00     0.040 A 
ATOM     19  F   UNL A   1      28.574  25.191  27.239  1.00  0.00    -0.207 F 
BRANCH  14  20
ATOM     20  C   UNL A   1      33.217  21.887  23.480  1.00  0.00    -0.025 A 
ATOM     21  C   UNL A   1      34.255  21.550  24.356  1.00  0.00     0.013 A 
ATOM     22  C   UNL A   1      32.303  20.907  23.086  1.00  0.00     0.013 A 
ATOM     23  C   UNL A   1      34.460  20.214  24.720  1.00  0.00     0.061 A 
ATOM     24  C   UNL A   1      32.499  19.576  23.465  1.00  0.00     0.061 A 
ATOM     25  C   UNL A   1      33.607  19.214  24.241  1.00  0.00     0.152 A 
BRANCH  25  26
ATOM     26  S   UNL A   1      34.043  17.468  24.441  1.00  0.00    -0.018 S 
ATOM     27  C   UNL A   1      32.615  16.918  25.392  1.00  0.00     0.346 C 
ATOM     28  O   UNL A   1      33.991  16.809  23.017  1.00  0.00    -0.612 OA
ENDBRANCH  25  26
ENDBRANCH  14  20
ENDBRANCH   7   8
ENDBRANCH   4   7
ENDBRANCH   2   3
ENDBRANCH   1   2
BRANCH   1  29
ATOM     29  C   UNL A   1      33.203  28.579  27.637  1.00  0.00     0.118 C 
BRANCH  29  30
ATOM     30  N   UNL A   1      33.356  30.028  27.590  1.00  0.00    -0.352 N 
ATOM     31  C   UNL A   1      34.437  30.815  27.908  1.00  0.00     0.251 C 
ATOM     32  H   UNL A   1      32.559  30.520  27.284  1.00  0.00     0.163 HD
ATOM     33  O   UNL A   1      34.303  32.036  27.950  1.00  0.00    -0.269 OA
BRANCH  31  34
ATOM     34  C   UNL A   1      35.744  30.202  28.230  1.00  0.00     0.039 A 
ATOM     35  C   UNL A   1      35.989  29.652  29.489  1.00  0.00     0.014 A 
ATOM     36  C   UNL A   1      36.744  30.177  27.253  1.00  0.00     0.014 A 
ATOM     37  C   UNL A   1      37.276  29.247  29.827  1.00  0.00     0.010 A 
ATOM     38  C   UNL A   1      38.016  29.690  27.569  1.00  0.00     0.010 A 
ATOM     39  C   UNL A   1      38.308  29.271  28.876  1.00  0.00    -0.014 A 
BRANCH  39  40
ATOM     40  C   UNL A   1      39.682  28.863  29.274  1.00  0.00     0.031 A 
ATOM     41  C   UNL A   1      40.524  29.753  30.151  1.00  0.00     0.074 A 
ATOM     42  C   UNL A   1      40.152  27.659  28.890  1.00  0.00     0.049 A 
ATOM     43  N   UNL A   1      41.723  29.535  30.627  1.00  0.00    -0.248 NA
ATOM     44  C   UNL A   1      39.953  31.051  30.550  1.00  0.00     0.031 C 
ATOM     45  C   UNL A   1      39.427  26.707  28.046  1.00  0.00     0.029 A 
ATOM     46  N   UNL A   1      41.334  27.020  29.173  1.00  0.00    -0.354 N 
ATOM     47  C   UNL A   1      42.060  30.670  31.353  1.00  0.00     0.074 A 
ATOM     48  C   UNL A   1      40.947  31.587  31.245  1.00  0.00     0.031 C 
ATOM     49  C   UNL A   1      40.155  25.587  27.924  1.00  0.00     0.029 A 
ATOM     50  C   UNL A   1      41.424  25.763  28.625  1.00  0.00     0.049 A 
ATOM     51  H   UNL A   1      42.047  27.424  29.718  1.00  0.00     0.167 HD
ATOM     52  C   UNL A   1      43.189  30.917  32.057  1.00  0.00     0.031 A 
ATOM     53  C   UNL A   1      42.416  24.850  28.664  1.00  0.00     0.031 A 
ATOM     54  C   UNL A   1      44.282  29.988  32.186  1.00  0.00     0.049 A 
ATOM     55  C   UNL A   1      43.666  25.156  29.437  1.00  0.00     0.074 A 
ATOM     56  C   UNL A   1      45.446  30.140  32.919  1.00  0.00     0.029 A 
ATOM     57  N   UNL A   1      44.352  28.746  31.575  1.00  0.00    -0.354 N 
ATOM     58  N   UNL A   1      43.949  26.225  30.144  1.00  0.00    -0.248 NA
ATOM     59  C   UNL A   1      44.730  24.142  29.423  1.00  0.00     0.031 C 
ATOM     60  C   UNL A   1      46.247  29.018  32.703  1.00  0.00     0.029 A 
ATOM     61  C   UNL A   1      45.553  28.135  31.892  1.00  0.00     0.049 A 
ATOM     62  H   UNL A   1      43.651  28.356  31.004  1.00  0.00     0.167 HD
ATOM     63  C   UNL A   1      45.222  26.010  30.660  1.00  0.00     0.074 A 
ATOM     64  C   UNL A   1      45.644  24.702  30.206  1.00  0.00     0.031 C 
ATOM     65  C   UNL A   1      45.971  26.833  31.433  1.00  0.00     0.031 A 
BRANCH  52  66
ATOM     66  C   UNL A   1      43.326  32.240  32.764  1.00  0.00    -0.014 A 
ATOM     67  C   UNL A   1      42.891  32.363  34.097  1.00  0.00     0.010 A 
ATOM     68  C   UNL A   1      43.732  33.391  32.067  1.00  0.00     0.010 A 
ATOM     69  C   UNL A   1      42.813  33.618  34.705  1.00  0.00     0.020 A 
ATOM     70  C   UNL A   1      43.679  34.645  32.680  1.00  0.00     0.020 A 
ATOM     71  C   UNL A   1      43.191  34.753  33.985  1.00  0.00     0.054 A 
BRANCH  71  72
ATOM     72  S   UNL A   1      43.021  36.383  34.765  1.00  0.00     0.124 S 
ATOM     73  O   UNL A   1      43.849  37.220  33.904  1.00  0.00    -0.237 OA
ATOM     74  O   UNL A   1      41.582  36.622  34.689  1.00  0.00    -0.237 OA
ATOM     75  O   UNL A   1      43.537  36.167  36.115  1.00  0.00    -0.744 OA
ENDBRANCH  71  72
ENDBRANCH  52  66
BRANCH  53  76
ATOM     76  C   UNL A   1      42.241  23.564  27.936  1.00  0.00    -0.014 A 
ATOM     77  C   UNL A   1      41.484  22.526  28.513  1.00  0.00     0.010 A 
ATOM     78  C   UNL A   1      42.901  23.333  26.718  1.00  0.00     0.010 A 
ATOM     79  C   UNL A   1      41.442  21.263  27.919  1.00  0.00     0.020 A 
ATOM     80  C   UNL A   1      42.836  22.077  26.103  1.00  0.00     0.020 A 
ATOM     81  C   UNL A   1      42.133  21.042  26.726  1.00  0.00     0.054 A 
BRANCH  81  82
ATOM     82  S   UNL A   1      42.112  19.380  25.999  1.00  0.00     0.124 S 
ATOM     83  O   UNL A   1      40.689  19.194  25.725  1.00  0.00    -0.237 OA
ATOM     84  O   UNL A   1      42.964  19.532  24.823  1.00  0.00    -0.237 OA
ATOM     85  O   UNL A   1      42.660  18.539  27.060  1.00  0.00    -0.744 OA
ENDBRANCH  81  82
ENDBRANCH  53  76
BRANCH  65  86
ATOM     86  C   UNL A   1      47.341  26.371  31.847  1.00  0.00    -0.014 A 
ATOM     87  C   UNL A   1      48.444  26.612  31.006  1.00  0.00     0.010 A 
ATOM     88  C   UNL A   1      47.512  25.572  32.991  1.00  0.00     0.010 A 
ATOM     89  C   UNL A   1      49.684  26.030  31.278  1.00  0.00     0.020 A 
ATOM     90  C   UNL A   1      48.759  25.009  33.282  1.00  0.00     0.020 A 
ATOM     91  C   UNL A   1      49.829  25.220  32.408  1.00  0.00     0.054 A 
BRANCH  91  92
ATOM     92  S   UNL A   1      51.433  24.436  32.722  1.00  0.00     0.124 S 
ATOM     93  O   UNL A   1      51.135  23.025  32.497  1.00  0.00    -0.237 OA
ATOM     94  O   UNL A   1      52.299  25.063  31.726  1.00  0.00    -0.237 OA
ATOM     95  O   UNL A   1      51.726  24.801  34.107  1.00  0.00    -0.744 OA
ENDBRANCH  91  92
ENDBRANCH  65  86
ENDBRANCH  39  40
ENDBRANCH  31  34
ENDBRANCH  29  30
ENDBRANCH   1  29
TORSDOF 16
ENDMDL
