MODEL 1
REMARK VINA RESULT:     -12.6      0.000      0.000
REMARK SMILES CC[C@@H]1C=CCN1S(=O)(=O)c1sc2c(c1C(=O)NCCCNC(=O)c1ccc(-c3c4nc(c(-c5ccc(S(=O)(=O)[O-])cc5)c5ccc([nH]5)c(-c5ccc(S(=O)(=O)[O-])cc5)c5nc(c(-c6ccc(S(=O)(=O)[O-])cc6)c6ccc3[nH]6)C=C5)C=C4)cc1)CC[NH2+]C2
REMARK SMILES IDX 20 1 19 2 18 3 16 4 17 5 15 7 11 8 12 9 13 10 14 11 88 12
REMARK SMILES IDX 85 13 87 14 86 15 8 18 9 19 10 20 7 21 3 22 4 23 5 24 6 25
REMARK SMILES IDX 2 26 1 27 21 28 22 29 23 30 24 32 25 33 26 34 84 35 27 36
REMARK SMILES IDX 83 37 28 38 29 39 30 40 77 41 31 42 82 43 76 44 78 45 32 46
REMARK SMILES IDX 81 47 75 48 74 49 33 51 63 52 44 53 62 54 45 55 48 56 61 57
REMARK SMILES IDX 79 58 46 59 47 60 60 62 80 63 49 64 34 65 35 66 43 67 36 68
REMARK SMILES IDX 42 69 37 70 38 71 39 72 40 73 41 74 64 75 65 76 73 77 66 78
REMARK SMILES IDX 72 79 67 80 68 81 69 82 70 83 71 84 50 85 51 86 59 87 52 88
REMARK SMILES IDX 58 89 53 90 54 91 55 92 56 93 57 94
REMARK H PARENT 18 6 87 16 87 17 22 31 78 50 48 61
REMARK Flexibility Score: inf
ROOT
ATOM      1  C   UNL A   1      38.407  22.109  26.033  1.00  0.00     0.042 C 
ENDROOT
BRANCH   1   2
ATOM      2  C   UNL A   1      37.456  23.256  25.691  1.00  0.00     0.118 C 
BRANCH   2   3
ATOM      3  N   UNL A   1      37.316  23.312  24.272  1.00  0.00    -0.352 N 
ATOM      4  C   UNL A   1      36.267  23.097  23.441  1.00  0.00     0.253 C 
ATOM      5  O   UNL A   1      36.655  22.953  22.274  1.00  0.00    -0.269 OA
ATOM      6  H   UNL A   1      38.147  23.557  23.804  1.00  0.00     0.163 HD
BRANCH   4   7
ATOM      7  C   UNL A   1      34.806  23.098  23.737  1.00  0.00     0.074 A 
ATOM      8  C   UNL A   1      33.721  24.009  23.617  1.00  0.00     0.148 A 
ATOM      9  S   UNL A   1      32.274  23.321  24.328  1.00  0.00    -0.120 S 
ATOM     10  C   UNL A   1      32.998  21.890  24.763  1.00  0.00     0.064 A 
ATOM     11  C   UNL A   1      34.306  21.831  24.363  1.00  0.00    -0.009 A 
ATOM     12  C   UNL A   1      32.234  20.807  25.460  1.00  0.00     0.308 C 
ATOM     13  C   UNL A   1      35.081  20.550  24.639  1.00  0.00     0.099 C 
ATOM     14  N   UNL A   1      33.134  19.799  26.041  1.00  0.00    -0.342 N 
ATOM     15  C   UNL A   1      34.142  19.390  25.041  1.00  0.00     0.265 C 
ATOM     16  H   UNL A   1      33.606  20.194  26.854  1.00  0.00     0.346 HD
ATOM     17  H   UNL A   1      32.589  18.983  26.319  1.00  0.00     0.346 HD
BRANCH   8  18
ATOM     18  S   UNL A   1      33.219  25.697  23.026  1.00  0.00     0.254 S 
ATOM     19  O   UNL A   1      31.789  25.649  22.819  1.00  0.00    -0.206 OA
ATOM     20  O   UNL A   1      34.025  26.018  21.870  1.00  0.00    -0.206 OA
BRANCH  18  21
ATOM     21  N   UNL A   1      33.532  26.862  24.267  1.00  0.00    -0.186 NA
ATOM     22  C   UNL A   1      32.415  27.855  24.520  1.00  0.00     0.096 C 
ATOM     23  C   UNL A   1      31.935  27.497  25.895  1.00  0.00    -0.010 C 
ATOM     24  C   UNL A   1      32.760  26.641  26.495  1.00  0.00    -0.013 C 
ATOM     25  C   UNL A   1      33.853  26.213  25.585  1.00  0.00     0.130 C 
BRANCH  22  26
ATOM     26  C   UNL A   1      32.932  29.304  24.630  1.00  0.00     0.021 C 
ATOM     27  C   UNL A   1      32.491  30.059  25.863  1.00  0.00     0.006 C 
ENDBRANCH  22  26
ENDBRANCH  18  21
ENDBRANCH   8  18
ENDBRANCH   4   7
ENDBRANCH   2   3
ENDBRANCH   1   2
BRANCH   1  28
ATOM     28  C   UNL A   1      39.569  22.568  26.872  1.00  0.00     0.118 C 
BRANCH  28  29
ATOM     29  N   UNL A   1      40.863  22.205  26.260  1.00  0.00    -0.352 N 
ATOM     30  C   UNL A   1      41.864  23.045  25.788  1.00  0.00     0.251 C 
ATOM     31  H   UNL A   1      41.040  21.241  26.175  1.00  0.00     0.163 HD
ATOM     32  O   UNL A   1      42.718  22.635  25.013  1.00  0.00    -0.269 OA
BRANCH  30  33
ATOM     33  C   UNL A   1      41.855  24.448  26.239  1.00  0.00     0.039 A 
ATOM     34  C   UNL A   1      41.204  25.492  25.578  1.00  0.00     0.014 A 
ATOM     35  C   UNL A   1      42.451  24.675  27.463  1.00  0.00     0.014 A 
ATOM     36  C   UNL A   1      41.141  26.730  26.219  1.00  0.00     0.010 A 
ATOM     37  C   UNL A   1      41.966  25.678  28.228  1.00  0.00     0.010 A 
ATOM     38  C   UNL A   1      41.537  26.802  27.562  1.00  0.00    -0.014 A 
BRANCH  38  39
ATOM     39  C   UNL A   1      41.476  27.990  28.394  1.00  0.00     0.031 A 
ATOM     40  C   UNL A   1      42.545  28.961  28.088  1.00  0.00     0.074 A 
ATOM     41  C   UNL A   1      40.367  28.312  29.106  1.00  0.00     0.049 A 
ATOM     42  N   UNL A   1      43.631  29.161  28.754  1.00  0.00    -0.248 NA
ATOM     43  C   UNL A   1      42.520  29.617  26.769  1.00  0.00     0.031 C 
ATOM     44  C   UNL A   1      39.070  27.612  29.162  1.00  0.00     0.029 A 
ATOM     45  N   UNL A   1      40.113  29.430  29.832  1.00  0.00    -0.354 N 
ATOM     46  C   UNL A   1      44.271  30.197  28.089  1.00  0.00     0.074 A 
ATOM     47  C   UNL A   1      43.715  30.210  26.761  1.00  0.00     0.031 C 
ATOM     48  C   UNL A   1      38.125  28.439  29.665  1.00  0.00     0.029 A 
ATOM     49  C   UNL A   1      38.770  29.653  30.126  1.00  0.00     0.049 A 
ATOM     50  H   UNL A   1      40.827  30.039  30.129  1.00  0.00     0.167 HD
ATOM     51  C   UNL A   1      44.924  31.174  28.781  1.00  0.00     0.031 A 
ATOM     52  C   UNL A   1      38.233  30.777  30.672  1.00  0.00     0.031 A 
ATOM     53  C   UNL A   1      45.063  30.814  30.176  1.00  0.00     0.049 A 
ATOM     54  C   UNL A   1      39.354  31.507  31.320  1.00  0.00     0.074 A 
ATOM     55  C   UNL A   1      45.597  29.736  30.855  1.00  0.00     0.029 A 
ATOM     56  N   UNL A   1      44.202  31.427  31.060  1.00  0.00    -0.354 N 
ATOM     57  N   UNL A   1      40.028  31.031  32.333  1.00  0.00    -0.248 NA
ATOM     58  C   UNL A   1      40.046  32.515  30.532  1.00  0.00     0.031 C 
ATOM     59  C   UNL A   1      44.676  29.478  31.915  1.00  0.00     0.029 A 
ATOM     60  C   UNL A   1      43.691  30.467  31.893  1.00  0.00     0.049 A 
ATOM     61  H   UNL A   1      43.991  32.389  31.088  1.00  0.00     0.167 HD
ATOM     62  C   UNL A   1      41.354  31.330  32.048  1.00  0.00     0.074 A 
ATOM     63  C   UNL A   1      41.293  32.322  30.973  1.00  0.00     0.031 C 
ATOM     64  C   UNL A   1      42.373  30.533  32.494  1.00  0.00     0.031 A 
BRANCH  51  65
ATOM     65  C   UNL A   1      45.002  32.619  28.330  1.00  0.00    -0.014 A 
ATOM     66  C   UNL A   1      46.267  33.136  27.984  1.00  0.00     0.010 A 
ATOM     67  C   UNL A   1      43.959  33.553  28.494  1.00  0.00     0.010 A 
ATOM     68  C   UNL A   1      46.499  34.515  27.927  1.00  0.00     0.020 A 
ATOM     69  C   UNL A   1      44.168  34.929  28.394  1.00  0.00     0.020 A 
ATOM     70  C   UNL A   1      45.449  35.402  28.154  1.00  0.00     0.054 A 
BRANCH  70  71
ATOM     71  S   UNL A   1      45.781  37.177  28.198  1.00  0.00     0.124 S 
ATOM     72  O   UNL A   1      47.226  37.203  28.401  1.00  0.00    -0.237 OA
ATOM     73  O   UNL A   1      45.316  37.608  26.882  1.00  0.00    -0.237 OA
ATOM     74  O   UNL A   1      44.978  37.647  29.324  1.00  0.00    -0.744 OA
ENDBRANCH  70  71
ENDBRANCH  51  65
BRANCH  52  75
ATOM     75  C   UNL A   1      36.922  31.416  30.362  1.00  0.00    -0.014 A 
ATOM     76  C   UNL A   1      36.310  32.310  31.263  1.00  0.00     0.010 A 
ATOM     77  C   UNL A   1      36.409  31.370  29.049  1.00  0.00     0.010 A 
ATOM     78  C   UNL A   1      35.273  33.169  30.847  1.00  0.00     0.020 A 
ATOM     79  C   UNL A   1      35.373  32.218  28.629  1.00  0.00     0.020 A 
ATOM     80  C   UNL A   1      34.827  33.134  29.524  1.00  0.00     0.054 A 
BRANCH  80  81
ATOM     81  S   UNL A   1      33.623  34.369  28.941  1.00  0.00     0.124 S 
ATOM     82  O   UNL A   1      34.485  35.402  28.374  1.00  0.00    -0.237 OA
ATOM     83  O   UNL A   1      32.827  33.611  27.979  1.00  0.00    -0.237 OA
ATOM     84  O   UNL A   1      32.911  34.756  30.158  1.00  0.00    -0.744 OA
ENDBRANCH  80  81
ENDBRANCH  52  75
BRANCH  64  85
ATOM     85  C   UNL A   1      42.077  29.492  33.553  1.00  0.00    -0.014 A 
ATOM     86  C   UNL A   1      41.633  28.182  33.284  1.00  0.00     0.010 A 
ATOM     87  C   UNL A   1      42.430  29.818  34.875  1.00  0.00     0.010 A 
ATOM     88  C   UNL A   1      41.524  27.235  34.318  1.00  0.00     0.020 A 
ATOM     89  C   UNL A   1      42.342  28.878  35.902  1.00  0.00     0.020 A 
ATOM     90  C   UNL A   1      41.880  27.593  35.623  1.00  0.00     0.054 A 
BRANCH  90  91
ATOM     91  S   UNL A   1      41.771  26.364  36.956  1.00  0.00     0.124 S 
ATOM     92  O   UNL A   1      40.473  26.659  37.554  1.00  0.00    -0.237 OA
ATOM     93  O   UNL A   1      41.860  25.096  36.236  1.00  0.00    -0.237 OA
ATOM     94  O   UNL A   1      42.925  26.666  37.803  1.00  0.00    -0.744 OA
ENDBRANCH  90  91
ENDBRANCH  64  85
ENDBRANCH  38  39
ENDBRANCH  30  33
ENDBRANCH  28  29
ENDBRANCH   1  28
TORSDOF 16
ENDMDL
MODEL 2
REMARK VINA RESULT:     -12.2      2.939      8.507
REMARK SMILES CC[C@@H]1C=CCN1S(=O)(=O)c1sc2c(c1C(=O)NCCCNC(=O)c1ccc(-c3c4nc(c(-c5ccc(S(=O)(=O)[O-])cc5)c5ccc([nH]5)c(-c5ccc(S(=O)(=O)[O-])cc5)c5nc(c(-c6ccc(S(=O)(=O)[O-])cc6)c6ccc3[nH]6)C=C5)C=C4)cc1)CC[NH2+]C2
REMARK SMILES IDX 20 1 19 2 18 3 16 4 17 5 15 7 11 8 12 9 13 10 14 11 88 12
REMARK SMILES IDX 85 13 87 14 86 15 8 18 9 19 10 20 7 21 3 22 4 23 5 24 6 25
REMARK SMILES IDX 2 26 1 27 21 28 22 29 23 30 24 32 25 33 26 34 84 35 27 36
REMARK SMILES IDX 83 37 28 38 29 39 30 40 77 41 31 42 82 43 76 44 78 45 32 46
REMARK SMILES IDX 81 47 75 48 74 49 33 51 63 52 44 53 62 54 45 55 48 56 61 57
REMARK SMILES IDX 79 58 46 59 47 60 60 62 80 63 49 64 34 65 35 66 43 67 36 68
REMARK SMILES IDX 42 69 37 70 38 71 39 72 40 73 41 74 64 75 65 76 73 77 66 78
REMARK SMILES IDX 72 79 67 80 68 81 69 82 70 83 71 84 50 85 51 86 59 87 52 88
REMARK SMILES IDX 58 89 53 90 54 91 55 92 56 93 57 94
REMARK H PARENT 18 6 87 16 87 17 22 31 78 50 48 61
REMARK Flexibility Score: inf
ROOT
ATOM      1  C   UNL A   1      31.555  32.026  26.858  1.00  0.00     0.042 C 
ENDROOT
BRANCH   1   2
ATOM      2  C   UNL A   1      31.774  30.518  26.748  1.00  0.00     0.118 C 
BRANCH   2   3
ATOM      3  N   UNL A   1      32.379  30.245  25.484  1.00  0.00    -0.352 N 
ATOM      4  C   UNL A   1      32.206  29.254  24.576  1.00  0.00     0.253 C 
ATOM      5  O   UNL A   1      33.145  29.230  23.769  1.00  0.00    -0.269 OA
ATOM      6  H   UNL A   1      33.055  30.909  25.220  1.00  0.00     0.163 HD
BRANCH   4   7
ATOM      7  C   UNL A   1      31.062  28.315  24.402  1.00  0.00     0.074 A 
ATOM      8  C   UNL A   1      30.802  26.936  24.637  1.00  0.00     0.148 A 
ATOM      9  S   UNL A   1      29.214  26.509  24.029  1.00  0.00    -0.120 S 
ATOM     10  C   UNL A   1      28.852  28.040  23.493  1.00  0.00     0.064 A 
ATOM     11  C   UNL A   1      29.846  28.936  23.782  1.00  0.00    -0.009 A 
ATOM     12  C   UNL A   1      27.545  28.348  22.831  1.00  0.00     0.308 C 
ATOM     13  C   UNL A   1      29.625  30.394  23.407  1.00  0.00     0.099 C 
ATOM     14  N   UNL A   1      27.579  29.651  22.149  1.00  0.00    -0.342 N 
ATOM     15  C   UNL A   1      28.147  30.674  23.050  1.00  0.00     0.265 C 
ATOM     16  H   UNL A   1      28.156  29.580  21.312  1.00  0.00     0.346 HD
ATOM     17  H   UNL A   1      26.629  29.920  21.893  1.00  0.00     0.346 HD
BRANCH   8  18
ATOM     18  S   UNL A   1      31.505  25.357  25.316  1.00  0.00     0.254 S 
ATOM     19  O   UNL A   1      30.395  24.624  25.881  1.00  0.00    -0.206 OA
ATOM     20  O   UNL A   1      32.576  25.704  26.224  1.00  0.00    -0.206 OA
BRANCH  18  21
ATOM     21  N   UNL A   1      32.156  24.410  24.022  1.00  0.00    -0.186 NA
ATOM     22  C   UNL A   1      33.171  25.119  23.147  1.00  0.00     0.096 C 
ATOM     23  C   UNL A   1      34.451  24.395  23.440  1.00  0.00    -0.010 C 
ATOM     24  C   UNL A   1      34.236  23.283  24.141  1.00  0.00    -0.013 C 
ATOM     25  C   UNL A   1      32.805  23.146  24.516  1.00  0.00     0.130 C 
BRANCH  22  26
ATOM     26  C   UNL A   1      32.908  24.894  21.644  1.00  0.00     0.021 C 
ATOM     27  C   UNL A   1      32.028  25.926  20.977  1.00  0.00     0.006 C 
ENDBRANCH  22  26
ENDBRANCH  18  21
ENDBRANCH   8  18
ENDBRANCH   4   7
ENDBRANCH   2   3
ENDBRANCH   1   2
BRANCH   1  28
ATOM     28  C   UNL A   1      32.817  32.756  27.233  1.00  0.00     0.118 C 
BRANCH  28  29
ATOM     29  N   UNL A   1      32.535  34.117  27.731  1.00  0.00    -0.352 N 
ATOM     30  C   UNL A   1      33.093  34.775  28.820  1.00  0.00     0.251 C 
ATOM     31  H   UNL A   1      31.862  34.627  27.223  1.00  0.00     0.163 HD
ATOM     32  O   UNL A   1      32.544  35.748  29.319  1.00  0.00    -0.269 OA
BRANCH  30  33
ATOM     33  C   UNL A   1      34.360  34.253  29.363  1.00  0.00     0.039 A 
ATOM     34  C   UNL A   1      34.478  33.531  30.553  1.00  0.00     0.014 A 
ATOM     35  C   UNL A   1      35.461  34.419  28.548  1.00  0.00     0.014 A 
ATOM     36  C   UNL A   1      35.715  32.957  30.846  1.00  0.00     0.010 A 
ATOM     37  C   UNL A   1      36.439  33.488  28.606  1.00  0.00     0.010 A 
ATOM     38  C   UNL A   1      36.697  32.950  29.845  1.00  0.00    -0.014 A 
BRANCH  38  39
ATOM     39  C   UNL A   1      38.010  32.341  29.960  1.00  0.00     0.031 A 
ATOM     40  C   UNL A   1      38.036  30.941  29.492  1.00  0.00     0.074 A 
ATOM     41  C   UNL A   1      39.132  33.082  30.137  1.00  0.00     0.049 A 
ATOM     42  N   UNL A   1      38.031  29.876  30.220  1.00  0.00    -0.248 NA
ATOM     43  C   UNL A   1      37.804  30.690  28.059  1.00  0.00     0.031 C 
ATOM     44  C   UNL A   1      39.269  34.549  30.208  1.00  0.00     0.029 A 
ATOM     45  N   UNL A   1      40.428  32.680  30.149  1.00  0.00    -0.354 N 
ATOM     46  C   UNL A   1      38.110  28.826  29.315  1.00  0.00     0.074 A 
ATOM     47  C   UNL A   1      37.664  29.363  28.056  1.00  0.00     0.031 C 
ATOM     48  C   UNL A   1      40.560  34.899  30.005  1.00  0.00     0.029 A 
ATOM     49  C   UNL A   1      41.365  33.694  29.966  1.00  0.00     0.049 A 
ATOM     50  H   UNL A   1      40.687  31.739  30.279  1.00  0.00     0.167 HD
ATOM     51  C   UNL A   1      38.868  27.726  29.586  1.00  0.00     0.031 A 
ATOM     52  C   UNL A   1      42.700  33.539  29.755  1.00  0.00     0.031 A 
ATOM     53  C   UNL A   1      39.297  27.721  30.969  1.00  0.00     0.049 A 
ATOM     54  C   UNL A   1      43.043  32.170  30.221  1.00  0.00     0.074 A 
ATOM     55  C   UNL A   1      38.653  27.791  32.188  1.00  0.00     0.029 A 
ATOM     56  N   UNL A   1      40.603  28.091  31.210  1.00  0.00    -0.354 N 
ATOM     57  N   UNL A   1      42.938  31.790  31.466  1.00  0.00    -0.248 NA
ATOM     58  C   UNL A   1      43.012  31.097  29.239  1.00  0.00     0.031 C 
ATOM     59  C   UNL A   1      39.465  28.654  32.983  1.00  0.00     0.029 A 
ATOM     60  C   UNL A   1      40.608  28.982  32.251  1.00  0.00     0.049 A 
ATOM     61  H   UNL A   1      41.395  27.769  30.720  1.00  0.00     0.167 HD
ATOM     62  C   UNL A   1      42.382  30.518  31.402  1.00  0.00     0.074 A 
ATOM     63  C   UNL A   1      42.535  30.110  30.004  1.00  0.00     0.031 C 
ATOM     64  C   UNL A   1      41.586  30.040  32.407  1.00  0.00     0.031 A 
BRANCH  51  65
ATOM     65  C   UNL A   1      39.610  26.933  28.529  1.00  0.00    -0.014 A 
ATOM     66  C   UNL A   1      39.497  25.527  28.557  1.00  0.00     0.010 A 
ATOM     67  C   UNL A   1      40.616  27.471  27.701  1.00  0.00     0.010 A 
ATOM     68  C   UNL A   1      40.417  24.710  27.889  1.00  0.00     0.020 A 
ATOM     69  C   UNL A   1      41.510  26.666  26.994  1.00  0.00     0.020 A 
ATOM     70  C   UNL A   1      41.430  25.288  27.129  1.00  0.00     0.054 A 
BRANCH  70  71
ATOM     71  S   UNL A   1      42.683  24.231  26.370  1.00  0.00     0.124 S 
ATOM     72  O   UNL A   1      41.958  22.972  26.222  1.00  0.00    -0.237 OA
ATOM     73  O   UNL A   1      42.976  24.944  25.130  1.00  0.00    -0.237 OA
ATOM     74  O   UNL A   1      43.764  24.223  27.352  1.00  0.00    -0.744 OA
ENDBRANCH  70  71
ENDBRANCH  51  65
BRANCH  52  75
ATOM     75  C   UNL A   1      43.591  34.341  28.870  1.00  0.00    -0.014 A 
ATOM     76  C   UNL A   1      43.098  34.975  27.711  1.00  0.00     0.010 A 
ATOM     77  C   UNL A   1      44.873  34.724  29.319  1.00  0.00     0.010 A 
ATOM     78  C   UNL A   1      43.828  35.997  27.071  1.00  0.00     0.020 A 
ATOM     79  C   UNL A   1      45.608  35.736  28.683  1.00  0.00     0.020 A 
ATOM     80  C   UNL A   1      45.070  36.387  27.576  1.00  0.00     0.054 A 
BRANCH  80  81
ATOM     81  S   UNL A   1      45.925  37.828  26.865  1.00  0.00     0.124 S 
ATOM     82  O   UNL A   1      44.815  38.711  26.519  1.00  0.00    -0.237 OA
ATOM     83  O   UNL A   1      46.769  38.277  27.969  1.00  0.00    -0.237 OA
ATOM     84  O   UNL A   1      46.650  37.269  25.724  1.00  0.00    -0.744 OA
ENDBRANCH  80  81
ENDBRANCH  52  75
BRANCH  64  85
ATOM     85  C   UNL A   1      41.556  30.777  33.729  1.00  0.00    -0.014 A 
ATOM     86  C   UNL A   1      40.735  31.889  34.005  1.00  0.00     0.010 A 
ATOM     87  C   UNL A   1      42.280  30.203  34.790  1.00  0.00     0.010 A 
ATOM     88  C   UNL A   1      40.662  32.421  35.305  1.00  0.00     0.020 A 
ATOM     89  C   UNL A   1      42.198  30.715  36.085  1.00  0.00     0.020 A 
ATOM     90  C   UNL A   1      41.398  31.828  36.337  1.00  0.00     0.054 A 
BRANCH  90  91
ATOM     91  S   UNL A   1      41.282  32.493  38.023  1.00  0.00     0.124 S 
ATOM     92  O   UNL A   1      42.210  31.643  38.764  1.00  0.00    -0.237 OA
ATOM     93  O   UNL A   1      41.699  33.883  37.854  1.00  0.00    -0.237 OA
ATOM     94  O   UNL A   1      39.872  32.317  38.370  1.00  0.00    -0.744 OA
ENDBRANCH  90  91
ENDBRANCH  64  85
ENDBRANCH  38  39
ENDBRANCH  30  33
ENDBRANCH  28  29
ENDBRANCH   1  28
TORSDOF 16
ENDMDL
MODEL 3
REMARK VINA RESULT:     -12.1      1.747      2.248
REMARK SMILES CC[C@@H]1C=CCN1S(=O)(=O)c1sc2c(c1C(=O)NCCCNC(=O)c1ccc(-c3c4nc(c(-c5ccc(S(=O)(=O)[O-])cc5)c5ccc([nH]5)c(-c5ccc(S(=O)(=O)[O-])cc5)c5nc(c(-c6ccc(S(=O)(=O)[O-])cc6)c6ccc3[nH]6)C=C5)C=C4)cc1)CC[NH2+]C2
REMARK SMILES IDX 20 1 19 2 18 3 16 4 17 5 15 7 11 8 12 9 13 10 14 11 88 12
REMARK SMILES IDX 85 13 87 14 86 15 8 18 9 19 10 20 7 21 3 22 4 23 5 24 6 25
REMARK SMILES IDX 2 26 1 27 21 28 22 29 23 30 24 32 25 33 26 34 84 35 27 36
REMARK SMILES IDX 83 37 28 38 29 39 30 40 77 41 31 42 82 43 76 44 78 45 32 46
REMARK SMILES IDX 81 47 75 48 74 49 33 51 63 52 44 53 62 54 45 55 48 56 61 57
REMARK SMILES IDX 79 58 46 59 47 60 60 62 80 63 49 64 34 65 35 66 43 67 36 68
REMARK SMILES IDX 42 69 37 70 38 71 39 72 40 73 41 74 64 75 65 76 73 77 66 78
REMARK SMILES IDX 72 79 67 80 68 81 69 82 70 83 71 84 50 85 51 86 59 87 52 88
REMARK SMILES IDX 58 89 53 90 54 91 55 92 56 93 57 94
REMARK H PARENT 18 6 87 16 87 17 22 31 78 50 48 61
REMARK Flexibility Score: inf
ROOT
ATOM      1  C   UNL A   1      37.025  22.129  24.500  1.00  0.00     0.042 C 
ENDROOT
BRANCH   1   2
ATOM      2  C   UNL A   1      36.704  20.766  25.114  1.00  0.00     0.118 C 
BRANCH   2   3
ATOM      3  N   UNL A   1      35.606  20.927  26.010  1.00  0.00    -0.352 N 
ATOM      4  C   UNL A   1      34.299  21.231  25.820  1.00  0.00     0.253 C 
ATOM      5  O   UNL A   1      33.767  21.570  26.886  1.00  0.00    -0.269 OA
ATOM      6  H   UNL A   1      35.845  20.788  26.955  1.00  0.00     0.163 HD
BRANCH   4   7
ATOM      7  C   UNL A   1      33.471  21.131  24.584  1.00  0.00     0.074 A 
ATOM      8  C   UNL A   1      32.717  22.015  23.764  1.00  0.00     0.148 A 
ATOM      9  S   UNL A   1      31.876  21.110  22.519  1.00  0.00    -0.120 S 
ATOM     10  C   UNL A   1      32.467  19.632  22.995  1.00  0.00     0.064 A 
ATOM     11  C   UNL A   1      33.341  19.740  24.043  1.00  0.00    -0.009 A 
ATOM     12  C   UNL A   1      32.092  18.372  22.278  1.00  0.00     0.308 C 
ATOM     13  C   UNL A   1      34.013  18.470  24.546  1.00  0.00     0.099 C 
ATOM     14  N   UNL A   1      32.448  17.179  23.061  1.00  0.00    -0.342 N 
ATOM     15  C   UNL A   1      33.836  17.298  23.553  1.00  0.00     0.265 C 
ATOM     16  H   UNL A   1      31.814  17.093  23.855  1.00  0.00     0.346 HD
ATOM     17  H   UNL A   1      32.373  16.354  22.467  1.00  0.00     0.346 HD
BRANCH   8  18
ATOM     18  S   UNL A   1      32.223  23.785  23.498  1.00  0.00     0.254 S 
ATOM     19  O   UNL A   1      30.850  23.764  23.046  1.00  0.00    -0.206 OA
ATOM     20  O   UNL A   1      33.186  24.383  22.602  1.00  0.00    -0.206 OA
BRANCH  18  21
ATOM     21  N   UNL A   1      32.266  24.630  25.008  1.00  0.00    -0.186 NA
ATOM     22  C   UNL A   1      32.076  26.132  24.916  1.00  0.00     0.096 C 
ATOM     23  C   UNL A   1      30.751  26.357  25.582  1.00  0.00    -0.010 C 
ATOM     24  C   UNL A   1      30.326  25.263  26.210  1.00  0.00    -0.013 C 
ATOM     25  C   UNL A   1      31.238  24.114  25.976  1.00  0.00     0.130 C 
BRANCH  22  26
ATOM     26  C   UNL A   1      33.101  26.907  25.768  1.00  0.00     0.021 C 
ATOM     27  C   UNL A   1      33.762  28.080  25.082  1.00  0.00     0.006 C 
ENDBRANCH  22  26
ENDBRANCH  18  21
ENDBRANCH   8  18
ENDBRANCH   4   7
ENDBRANCH   2   3
ENDBRANCH   1   2
BRANCH   1  28
ATOM     28  C   UNL A   1      37.944  22.941  25.374  1.00  0.00     0.118 C 
BRANCH  28  29
ATOM     29  N   UNL A   1      39.017  22.113  25.959  1.00  0.00    -0.352 N 
ATOM     30  C   UNL A   1      40.218  22.524  26.524  1.00  0.00     0.251 C 
ATOM     31  H   UNL A   1      38.861  21.141  25.948  1.00  0.00     0.163 HD
ATOM     32  O   UNL A   1      41.151  21.743  26.662  1.00  0.00    -0.269 OA
BRANCH  30  33
ATOM     33  C   UNL A   1      40.337  23.934  26.937  1.00  0.00     0.039 A 
ATOM     34  C   UNL A   1      39.352  24.905  26.747  1.00  0.00     0.014 A 
ATOM     35  C   UNL A   1      41.475  24.240  27.656  1.00  0.00     0.014 A 
ATOM     36  C   UNL A   1      39.542  26.150  27.346  1.00  0.00     0.010 A 
ATOM     37  C   UNL A   1      41.394  25.221  28.582  1.00  0.00     0.010 A 
ATOM     38  C   UNL A   1      40.587  26.290  28.271  1.00  0.00    -0.014 A 
BRANCH  38  39
ATOM     39  C   UNL A   1      40.883  27.491  29.029  1.00  0.00     0.031 A 
ATOM     40  C   UNL A   1      41.911  28.335  28.389  1.00  0.00     0.074 A 
ATOM     41  C   UNL A   1      40.062  27.944  30.008  1.00  0.00     0.049 A 
ATOM     42  N   UNL A   1      43.157  28.427  28.711  1.00  0.00    -0.248 NA
ATOM     43  C   UNL A   1      41.577  28.968  27.100  1.00  0.00     0.031 C 
ATOM     44  C   UNL A   1      38.772  27.390  30.461  1.00  0.00     0.029 A 
ATOM     45  N   UNL A   1      40.137  29.095  30.723  1.00  0.00    -0.354 N 
ATOM     46  C   UNL A   1      43.680  29.377  27.844  1.00  0.00     0.074 A 
ATOM     47  C   UNL A   1      42.772  29.427  26.728  1.00  0.00     0.031 C 
ATOM     48  C   UNL A   1      38.096  28.323  31.170  1.00  0.00     0.029 A 
ATOM     49  C   UNL A   1      38.963  29.467  31.373  1.00  0.00     0.049 A 
ATOM     50  H   UNL A   1      40.963  29.628  30.778  1.00  0.00     0.167 HD
ATOM     51  C   UNL A   1      44.597  30.288  28.278  1.00  0.00     0.031 A 
ATOM     52  C   UNL A   1      38.718  30.651  31.995  1.00  0.00     0.031 A 
ATOM     53  C   UNL A   1      45.092  29.939  29.592  1.00  0.00     0.049 A 
ATOM     54  C   UNL A   1      40.045  31.267  32.266  1.00  0.00     0.074 A 
ATOM     55  C   UNL A   1      45.687  28.821  30.143  1.00  0.00     0.029 A 
ATOM     56  N   UNL A   1      44.584  30.657  30.653  1.00  0.00    -0.354 N 
ATOM     57  N   UNL A   1      40.928  30.737  33.068  1.00  0.00    -0.248 NA
ATOM     58  C   UNL A   1      40.580  32.180  31.268  1.00  0.00     0.031 C 
ATOM     59  C   UNL A   1      45.087  28.683  31.431  1.00  0.00     0.029 A 
ATOM     60  C   UNL A   1      44.239  29.772  31.640  1.00  0.00     0.049 A 
ATOM     61  H   UNL A   1      44.486  31.637  30.694  1.00  0.00     0.167 HD
ATOM     62  C   UNL A   1      42.142  30.886  32.408  1.00  0.00     0.074 A 
ATOM     63  C   UNL A   1      41.875  31.861  31.348  1.00  0.00     0.031 C 
ATOM     64  C   UNL A   1      43.161  29.991  32.585  1.00  0.00     0.031 A 
BRANCH  51  65
ATOM     65  C   UNL A   1      44.685  31.708  27.755  1.00  0.00    -0.014 A 
ATOM     66  C   UNL A   1      45.820  32.064  26.997  1.00  0.00     0.010 A 
ATOM     67  C   UNL A   1      43.864  32.765  28.199  1.00  0.00     0.010 A 
ATOM     68  C   UNL A   1      46.173  33.404  26.801  1.00  0.00     0.020 A 
ATOM     69  C   UNL A   1      44.182  34.104  27.971  1.00  0.00     0.020 A 
ATOM     70  C   UNL A   1      45.360  34.414  27.310  1.00  0.00     0.054 A 
BRANCH  70  71
ATOM     71  S   UNL A   1      45.886  36.136  27.157  1.00  0.00     0.124 S 
ATOM     72  O   UNL A   1      46.566  36.352  28.431  1.00  0.00    -0.237 OA
ATOM     73  O   UNL A   1      46.744  36.091  25.977  1.00  0.00    -0.237 OA
ATOM     74  O   UNL A   1      44.630  36.862  26.983  1.00  0.00    -0.744 OA
ENDBRANCH  70  71
ENDBRANCH  51  65
BRANCH  52  75
ATOM     75  C   UNL A   1      37.444  31.424  32.037  1.00  0.00    -0.014 A 
ATOM     76  C   UNL A   1      36.874  31.835  33.259  1.00  0.00     0.010 A 
ATOM     77  C   UNL A   1      36.934  32.008  30.859  1.00  0.00     0.010 A 
ATOM     78  C   UNL A   1      35.885  32.838  33.303  1.00  0.00     0.020 A 
ATOM     79  C   UNL A   1      35.946  33.002  30.893  1.00  0.00     0.020 A 
ATOM     80  C   UNL A   1      35.443  33.433  32.118  1.00  0.00     0.054 A 
BRANCH  80  81
ATOM     81  S   UNL A   1      34.307  34.853  32.188  1.00  0.00     0.124 S 
ATOM     82  O   UNL A   1      33.140  34.288  32.858  1.00  0.00    -0.237 OA
ATOM     83  O   UNL A   1      35.067  35.833  32.959  1.00  0.00    -0.237 OA
ATOM     84  O   UNL A   1      34.105  35.201  30.781  1.00  0.00    -0.744 OA
ENDBRANCH  80  81
ENDBRANCH  52  75
BRANCH  64  85
ATOM     85  C   UNL A   1      43.078  29.006  33.732  1.00  0.00    -0.014 A 
ATOM     86  C   UNL A   1      43.667  29.203  34.997  1.00  0.00     0.010 A 
ATOM     87  C   UNL A   1      42.219  27.907  33.560  1.00  0.00     0.010 A 
ATOM     88  C   UNL A   1      43.417  28.306  36.051  1.00  0.00     0.020 A 
ATOM     89  C   UNL A   1      41.951  27.023  34.607  1.00  0.00     0.020 A 
ATOM     90  C   UNL A   1      42.559  27.220  35.846  1.00  0.00     0.054 A 
BRANCH  90  91
ATOM     91  S   UNL A   1      42.209  26.077  37.213  1.00  0.00     0.124 S 
ATOM     92  O   UNL A   1      42.574  24.782  36.647  1.00  0.00    -0.237 OA
ATOM     93  O   UNL A   1      43.080  26.567  38.278  1.00  0.00    -0.237 OA
ATOM     94  O   UNL A   1      40.779  26.261  37.463  1.00  0.00    -0.744 OA
ENDBRANCH  90  91
ENDBRANCH  64  85
ENDBRANCH  38  39
ENDBRANCH  30  33
ENDBRANCH  28  29
ENDBRANCH   1  28
TORSDOF 16
ENDMDL
