MODEL 1
REMARK VINA RESULT:      -9.7      0.000      0.000
REMARK SMILES CC[C@@H](C)CN(CC)C(=O)N1CC[C@@](CC)(C(=O)NCCCNC(=O)c2ccc(-c3c4nc(c(-c5ccc(S(=O)(=O)[O-])cc5)c5ccc([nH]5)c(-c5ccc(S(=O)(=O)[O-])cc5)c5nc(c(-c6ccc(S(=O)(=O)[O-])cc6)c6ccc3[nH]6)C=C5)C=C4)cc2)C1
REMARK SMILES IDX 20 1 19 2 17 3 18 4 14 6 11 7 12 8 86 9 13 10 9 11 10 12
REMARK SMILES IDX 6 13 5 14 3 15 4 16 2 17 1 18 7 19 8 20 15 21 16 22 21 23
REMARK SMILES IDX 22 24 23 25 24 26 25 28 26 29 27 30 85 31 28 32 84 33 29 34
REMARK SMILES IDX 30 35 31 36 78 37 32 38 83 39 77 40 79 41 33 42 82 43 76 44
REMARK SMILES IDX 75 45 34 47 64 48 45 49 63 50 46 51 49 52 62 53 80 54 47 55
REMARK SMILES IDX 48 56 61 58 81 59 50 60 35 61 36 62 44 63 37 64 43 65 38 66
REMARK SMILES IDX 39 67 40 68 41 69 42 70 65 71 66 72 74 73 67 74 73 75 68 76
REMARK SMILES IDX 69 77 70 78 71 79 72 80 51 81 52 82 60 83 53 84 59 85 54 86
REMARK SMILES IDX 55 87 56 88 57 89 58 90
REMARK H PARENT 19 5 23 27 79 46 49 57
REMARK Flexibility Score: inf
ROOT
ATOM      1  C   UNL A   1      31.842  30.348  26.279  1.00  0.00     0.117 C 
ENDROOT
BRANCH   1   2
ATOM      2  N   UNL A   1      32.683  30.113  25.122  1.00  0.00    -0.355 N 
ATOM      3  C   UNL A   1      32.858  29.022  24.328  1.00  0.00     0.228 C 
ATOM      4  O   UNL A   1      33.519  29.216  23.304  1.00  0.00    -0.274 OA
ATOM      5  H   UNL A   1      33.230  30.888  24.861  1.00  0.00     0.163 HD
BRANCH   3   6
ATOM      6  C   UNL A   1      32.227  27.654  24.644  1.00  0.00     0.068 C 
ATOM      7  N   UNL A   1      33.474  25.642  24.112  1.00  0.00    -0.324 N 
ATOM      8  C   UNL A   1      34.018  26.182  25.330  1.00  0.00     0.122 C 
ATOM      9  C   UNL A   1      32.616  26.650  23.504  1.00  0.00     0.138 C 
ATOM     10  C   UNL A   1      32.849  26.974  25.886  1.00  0.00     0.040 C 
BRANCH   7  11
ATOM     11  C   UNL A   1      34.009  24.659  23.318  1.00  0.00     0.320 C 
ATOM     12  O   UNL A   1      34.076  24.825  22.098  1.00  0.00    -0.248 OA
BRANCH  11  13
ATOM     13  N   UNL A   1      34.298  23.430  23.896  1.00  0.00    -0.325 N 
BRANCH  13  14
ATOM     14  C   UNL A   1      33.204  22.456  24.014  1.00  0.00     0.124 C 
BRANCH  14  15
ATOM     15  C   UNL A   1      33.302  21.543  25.273  1.00  0.00     0.005 C 
ATOM     16  C   UNL A   1      32.761  20.154  24.917  1.00  0.00     0.009 C 
BRANCH  15  17
ATOM     17  C   UNL A   1      32.555  22.149  26.482  1.00  0.00     0.002 C 
ATOM     18  C   UNL A   1      33.363  22.302  27.762  1.00  0.00     0.004 C 
ENDBRANCH  15  17
ENDBRANCH  14  15
ENDBRANCH  13  14
BRANCH  13  19
ATOM     19  C   UNL A   1      35.603  22.997  24.391  1.00  0.00     0.118 C 
ATOM     20  C   UNL A   1      36.617  22.954  23.250  1.00  0.00     0.027 C 
ENDBRANCH  13  19
ENDBRANCH  11  13
ENDBRANCH   7  11
BRANCH   6  21
ATOM     21  C   UNL A   1      30.675  27.738  24.646  1.00  0.00     0.015 C 
ATOM     22  C   UNL A   1      29.959  28.383  23.472  1.00  0.00     0.005 C 
ENDBRANCH   6  21
ENDBRANCH   3   6
ENDBRANCH   1   2
BRANCH   1  23
ATOM     23  C   UNL A   1      31.740  31.815  26.648  1.00  0.00     0.042 C 
BRANCH  23  24
ATOM     24  C   UNL A   1      33.036  32.383  27.199  1.00  0.00     0.118 C 
BRANCH  24  25
ATOM     25  N   UNL A   1      32.869  33.726  27.743  1.00  0.00    -0.352 N 
ATOM     26  C   UNL A   1      33.493  34.347  28.794  1.00  0.00     0.251 C 
ATOM     27  H   UNL A   1      32.199  34.279  27.277  1.00  0.00     0.163 HD
ATOM     28  O   UNL A   1      33.032  35.400  29.233  1.00  0.00    -0.269 OA
BRANCH  26  29
ATOM     29  C   UNL A   1      34.696  33.749  29.406  1.00  0.00     0.039 A 
ATOM     30  C   UNL A   1      35.954  34.271  29.096  1.00  0.00     0.014 A 
ATOM     31  C   UNL A   1      34.586  32.666  30.278  1.00  0.00     0.014 A 
ATOM     32  C   UNL A   1      37.089  33.744  29.715  1.00  0.00     0.010 A 
ATOM     33  C   UNL A   1      35.695  32.233  30.989  1.00  0.00     0.010 A 
ATOM     34  C   UNL A   1      36.965  32.747  30.697  1.00  0.00    -0.014 A 
BRANCH  34  35
ATOM     35  C   UNL A   1      38.149  32.202  31.406  1.00  0.00     0.031 A 
ATOM     36  C   UNL A   1      38.527  32.742  32.763  1.00  0.00     0.074 A 
ATOM     37  C   UNL A   1      38.916  31.271  30.807  1.00  0.00     0.049 A 
ATOM     38  N   UNL A   1      39.548  32.428  33.519  1.00  0.00    -0.248 NA
ATOM     39  C   UNL A   1      37.670  33.799  33.329  1.00  0.00     0.031 C 
ATOM     40  C   UNL A   1      38.690  30.716  29.468  1.00  0.00     0.029 A 
ATOM     41  N   UNL A   1      40.045  30.625  31.243  1.00  0.00    -0.354 N 
ATOM     42  C   UNL A   1      39.466  33.261  34.629  1.00  0.00     0.074 A 
ATOM     43  C   UNL A   1      38.338  34.139  34.421  1.00  0.00     0.031 C 
ATOM     44  C   UNL A   1      39.623  29.787  29.213  1.00  0.00     0.029 A 
ATOM     45  C   UNL A   1      40.540  29.709  30.345  1.00  0.00     0.049 A 
ATOM     46  H   UNL A   1      40.461  30.800  32.118  1.00  0.00     0.167 HD
ATOM     47  C   UNL A   1      40.243  33.278  35.737  1.00  0.00     0.031 A 
ATOM     48  C   UNL A   1      41.613  28.899  30.422  1.00  0.00     0.031 A 
ATOM     49  C   UNL A   1      41.349  32.383  35.950  1.00  0.00     0.049 A 
ATOM     50  C   UNL A   1      42.448  28.921  31.673  1.00  0.00     0.074 A 
ATOM     51  C   UNL A   1      42.158  32.266  37.066  1.00  0.00     0.029 A 
ATOM     52  N   UNL A   1      41.801  31.452  35.027  1.00  0.00    -0.354 N 
ATOM     53  N   UNL A   1      42.307  29.661  32.746  1.00  0.00    -0.248 NA
ATOM     54  C   UNL A   1      43.575  27.981  31.730  1.00  0.00     0.031 C 
ATOM     55  C   UNL A   1      43.136  31.306  36.796  1.00  0.00     0.029 A 
ATOM     56  C   UNL A   1      42.894  30.773  35.539  1.00  0.00     0.049 A 
ATOM     57  H   UNL A   1      41.404  31.296  34.140  1.00  0.00     0.167 HD
ATOM     58  C   UNL A   1      43.310  29.256  33.621  1.00  0.00     0.074 A 
ATOM     59  C   UNL A   1      44.034  28.190  32.956  1.00  0.00     0.031 C 
ATOM     60  C   UNL A   1      43.605  29.719  34.861  1.00  0.00     0.031 A 
BRANCH  47  61
ATOM     61  C   UNL A   1      39.926  34.295  36.803  1.00  0.00    -0.014 A 
ATOM     62  C   UNL A   1      39.130  33.963  37.916  1.00  0.00     0.010 A 
ATOM     63  C   UNL A   1      40.466  35.590  36.713  1.00  0.00     0.010 A 
ATOM     64  C   UNL A   1      38.852  34.918  38.898  1.00  0.00     0.020 A 
ATOM     65  C   UNL A   1      40.217  36.539  37.710  1.00  0.00     0.020 A 
ATOM     66  C   UNL A   1      39.400  36.199  38.790  1.00  0.00     0.054 A 
BRANCH  66  67
ATOM     67  S   UNL A   1      39.054  37.405  40.100  1.00  0.00     0.124 S 
ATOM     68  O   UNL A   1      40.377  37.975  40.340  1.00  0.00    -0.237 OA
ATOM     69  O   UNL A   1      38.091  38.300  39.463  1.00  0.00    -0.237 OA
ATOM     70  O   UNL A   1      38.520  36.591  41.189  1.00  0.00    -0.744 OA
ENDBRANCH  66  67
ENDBRANCH  47  61
BRANCH  48  71
ATOM     71  C   UNL A   1      41.946  27.990  29.290  1.00  0.00    -0.014 A 
ATOM     72  C   UNL A   1      41.271  26.767  29.127  1.00  0.00     0.010 A 
ATOM     73  C   UNL A   1      42.940  28.348  28.362  1.00  0.00     0.010 A 
ATOM     74  C   UNL A   1      41.603  25.907  28.076  1.00  0.00     0.020 A 
ATOM     75  C   UNL A   1      43.252  27.508  27.290  1.00  0.00     0.020 A 
ATOM     76  C   UNL A   1      42.592  26.285  27.161  1.00  0.00     0.054 A 
BRANCH  76  77
ATOM     77  S   UNL A   1      42.977  25.174  25.780  1.00  0.00     0.124 S 
ATOM     78  O   UNL A   1      44.343  25.565  25.448  1.00  0.00    -0.237 OA
ATOM     79  O   UNL A   1      42.824  23.854  26.386  1.00  0.00    -0.237 OA
ATOM     80  O   UNL A   1      41.968  25.512  24.778  1.00  0.00    -0.744 OA
ENDBRANCH  76  77
ENDBRANCH  48  71
BRANCH  60  81
ATOM     81  C   UNL A   1      44.733  29.046  35.598  1.00  0.00    -0.014 A 
ATOM     82  C   UNL A   1      46.050  29.535  35.530  1.00  0.00     0.010 A 
ATOM     83  C   UNL A   1      44.459  27.920  36.396  1.00  0.00     0.010 A 
ATOM     84  C   UNL A   1      47.082  28.875  36.203  1.00  0.00     0.020 A 
ATOM     85  C   UNL A   1      45.482  27.280  37.100  1.00  0.00     0.020 A 
ATOM     86  C   UNL A   1      46.791  27.750  36.980  1.00  0.00     0.054 A 
BRANCH  86  87
ATOM     87  S   UNL A   1      48.145  26.918  37.853  1.00  0.00     0.124 S 
ATOM     88  O   UNL A   1      49.318  27.429  37.149  1.00  0.00    -0.237 OA
ATOM     89  O   UNL A   1      47.980  27.391  39.225  1.00  0.00    -0.237 OA
ATOM     90  O   UNL A   1      47.867  25.497  37.652  1.00  0.00    -0.744 OA
ENDBRANCH  86  87
ENDBRANCH  60  81
ENDBRANCH  34  35
ENDBRANCH  26  29
ENDBRANCH  24  25
ENDBRANCH  23  24
ENDBRANCH   1  23
TORSDOF 20
ENDMDL
MODEL 2
REMARK VINA RESULT:      -9.5      0.702      8.224
REMARK SMILES CC[C@@H](C)CN(CC)C(=O)N1CC[C@@](CC)(C(=O)NCCCNC(=O)c2ccc(-c3c4nc(c(-c5ccc(S(=O)(=O)[O-])cc5)c5ccc([nH]5)c(-c5ccc(S(=O)(=O)[O-])cc5)c5nc(c(-c6ccc(S(=O)(=O)[O-])cc6)c6ccc3[nH]6)C=C5)C=C4)cc2)C1
REMARK SMILES IDX 20 1 19 2 17 3 18 4 14 6 11 7 12 8 86 9 13 10 9 11 10 12
REMARK SMILES IDX 6 13 5 14 3 15 4 16 2 17 1 18 7 19 8 20 15 21 16 22 21 23
REMARK SMILES IDX 22 24 23 25 24 26 25 28 26 29 27 30 85 31 28 32 84 33 29 34
REMARK SMILES IDX 30 35 31 36 78 37 32 38 83 39 77 40 79 41 33 42 82 43 76 44
REMARK SMILES IDX 75 45 34 47 64 48 45 49 63 50 46 51 49 52 62 53 80 54 47 55
REMARK SMILES IDX 48 56 61 58 81 59 50 60 35 61 36 62 44 63 37 64 43 65 38 66
REMARK SMILES IDX 39 67 40 68 41 69 42 70 65 71 66 72 74 73 67 74 73 75 68 76
REMARK SMILES IDX 69 77 70 78 71 79 72 80 51 81 52 82 60 83 53 84 59 85 54 86
REMARK SMILES IDX 55 87 56 88 57 89 58 90
REMARK H PARENT 19 5 23 27 79 46 49 57
REMARK Flexibility Score: inf
ROOT
ATOM      1  C   UNL A   1      31.769  30.211  26.160  1.00  0.00     0.117 C 
ENDROOT
BRANCH   1   2
ATOM      2  N   UNL A   1      32.685  30.020  25.052  1.00  0.00    -0.355 N 
ATOM      3  C   UNL A   1      32.839  29.003  24.162  1.00  0.00     0.228 C 
ATOM      4  O   UNL A   1      33.599  29.239  23.218  1.00  0.00    -0.274 OA
ATOM      5  H   UNL A   1      33.313  30.766  24.918  1.00  0.00     0.163 HD
BRANCH   3   6
ATOM      6  C   UNL A   1      32.076  27.671  24.279  1.00  0.00     0.068 C 
ATOM      7  N   UNL A   1      33.284  25.598  23.924  1.00  0.00    -0.324 N 
ATOM      8  C   UNL A   1      33.595  26.061  25.251  1.00  0.00     0.122 C 
ATOM      9  C   UNL A   1      32.634  26.680  23.199  1.00  0.00     0.138 C 
ATOM     10  C   UNL A   1      32.385  26.912  25.590  1.00  0.00     0.040 C 
BRANCH   7  11
ATOM     11  C   UNL A   1      33.914  24.606  23.214  1.00  0.00     0.320 C 
ATOM     12  O   UNL A   1      33.935  24.654  21.982  1.00  0.00    -0.248 OA
BRANCH  11  13
ATOM     13  N   UNL A   1      34.355  23.483  23.899  1.00  0.00    -0.325 N 
BRANCH  13  14
ATOM     14  C   UNL A   1      33.472  22.309  23.927  1.00  0.00     0.124 C 
BRANCH  14  15
ATOM     15  C   UNL A   1      33.094  21.835  25.363  1.00  0.00     0.005 C 
ATOM     16  C   UNL A   1      33.430  20.345  25.494  1.00  0.00     0.009 C 
BRANCH  15  17
ATOM     17  C   UNL A   1      31.608  22.111  25.686  1.00  0.00     0.002 C 
ATOM     18  C   UNL A   1      31.305  23.438  26.365  1.00  0.00     0.004 C 
ENDBRANCH  15  17
ENDBRANCH  14  15
ENDBRANCH  13  14
BRANCH  13  19
ATOM     19  C   UNL A   1      35.634  23.345  24.592  1.00  0.00     0.118 C 
ATOM     20  C   UNL A   1      36.657  22.658  23.690  1.00  0.00     0.027 C 
ENDBRANCH  13  19
ENDBRANCH  11  13
ENDBRANCH   7  11
BRANCH   6  21
ATOM     21  C   UNL A   1      30.565  27.860  23.967  1.00  0.00     0.015 C 
ATOM     22  C   UNL A   1      29.594  26.731  24.264  1.00  0.00     0.005 C 
ENDBRANCH   6  21
ENDBRANCH   3   6
ENDBRANCH   1   2
BRANCH   1  23
ATOM     23  C   UNL A   1      31.618  31.666  26.558  1.00  0.00     0.042 C 
BRANCH  23  24
ATOM     24  C   UNL A   1      32.898  32.270  27.107  1.00  0.00     0.118 C 
BRANCH  24  25
ATOM     25  N   UNL A   1      32.712  33.640  27.573  1.00  0.00    -0.352 N 
ATOM     26  C   UNL A   1      33.309  34.321  28.603  1.00  0.00     0.251 C 
ATOM     27  H   UNL A   1      32.049  34.162  27.064  1.00  0.00     0.163 HD
ATOM     28  O   UNL A   1      32.834  35.394  28.973  1.00  0.00    -0.269 OA
BRANCH  26  29
ATOM     29  C   UNL A   1      34.503  33.765  29.271  1.00  0.00     0.039 A 
ATOM     30  C   UNL A   1      35.756  34.326  29.015  1.00  0.00     0.014 A 
ATOM     31  C   UNL A   1      34.388  32.683  30.144  1.00  0.00     0.014 A 
ATOM     32  C   UNL A   1      36.878  33.839  29.688  1.00  0.00     0.010 A 
ATOM     33  C   UNL A   1      35.477  32.289  30.906  1.00  0.00     0.010 A 
ATOM     34  C   UNL A   1      36.742  32.842  30.669  1.00  0.00    -0.014 A 
BRANCH  34  35
ATOM     35  C   UNL A   1      37.910  32.340  31.434  1.00  0.00     0.031 A 
ATOM     36  C   UNL A   1      38.718  31.184  30.899  1.00  0.00     0.074 A 
ATOM     37  C   UNL A   1      38.205  32.881  32.632  1.00  0.00     0.049 A 
ATOM     38  N   UNL A   1      39.743  30.576  31.440  1.00  0.00    -0.248 NA
ATOM     39  C   UNL A   1      38.300  30.611  29.607  1.00  0.00     0.031 C 
ATOM     40  C   UNL A   1      37.458  33.961  33.284  1.00  0.00     0.029 A 
ATOM     41  N   UNL A   1      39.211  32.595  33.519  1.00  0.00    -0.354 N 
ATOM     42  C   UNL A   1      40.070  29.542  30.570  1.00  0.00     0.074 A 
ATOM     43  C   UNL A   1      39.099  29.561  29.501  1.00  0.00     0.031 C 
ATOM     44  C   UNL A   1      38.057  34.272  34.444  1.00  0.00     0.029 A 
ATOM     45  C   UNL A   1      39.200  33.387  34.643  1.00  0.00     0.049 A 
ATOM     46  H   UNL A   1      39.880  31.888  33.366  1.00  0.00     0.167 HD
ATOM     47  C   UNL A   1      41.103  28.670  30.639  1.00  0.00     0.031 A 
ATOM     48  C   UNL A   1      40.017  33.400  35.713  1.00  0.00     0.031 A 
ATOM     49  C   UNL A   1      42.082  28.674  31.693  1.00  0.00     0.049 A 
ATOM     50  C   UNL A   1      41.171  32.436  35.756  1.00  0.00     0.074 A 
ATOM     51  C   UNL A   1      43.209  27.882  31.823  1.00  0.00     0.029 A 
ATOM     52  N   UNL A   1      42.051  29.510  32.799  1.00  0.00    -0.354 N 
ATOM     53  N   UNL A   1      41.511  31.517  34.883  1.00  0.00    -0.248 NA
ATOM     54  C   UNL A   1      42.063  32.526  36.918  1.00  0.00     0.031 C 
ATOM     55  C   UNL A   1      43.827  28.198  33.036  1.00  0.00     0.029 A 
ATOM     56  C   UNL A   1      43.125  29.237  33.628  1.00  0.00     0.049 A 
ATOM     57  H   UNL A   1      41.366  30.198  32.968  1.00  0.00     0.167 HD
ATOM     58  C   UNL A   1      42.675  30.939  35.377  1.00  0.00     0.074 A 
ATOM     59  C   UNL A   1      42.990  31.629  36.612  1.00  0.00     0.031 C 
ATOM     60  C   UNL A   1      43.419  29.931  34.856  1.00  0.00     0.031 A 
BRANCH  47  61
ATOM     61  C   UNL A   1      41.228  27.640  29.546  1.00  0.00    -0.014 A 
ATOM     62  C   UNL A   1      42.406  27.520  28.784  1.00  0.00     0.010 A 
ATOM     63  C   UNL A   1      40.166  26.749  29.305  1.00  0.00     0.010 A 
ATOM     64  C   UNL A   1      42.504  26.555  27.779  1.00  0.00     0.020 A 
ATOM     65  C   UNL A   1      40.274  25.760  28.323  1.00  0.00     0.020 A 
ATOM     66  C   UNL A   1      41.438  25.678  27.556  1.00  0.00     0.054 A 
BRANCH  66  67
ATOM     67  S   UNL A   1      41.611  24.409  26.273  1.00  0.00     0.124 S 
ATOM     68  O   UNL A   1      40.550  23.472  26.631  1.00  0.00    -0.237 OA
ATOM     69  O   UNL A   1      41.390  25.168  25.044  1.00  0.00    -0.237 OA
ATOM     70  O   UNL A   1      42.971  23.910  26.458  1.00  0.00    -0.744 OA
ENDBRANCH  66  67
ENDBRANCH  47  61
BRANCH  48  71
ATOM     71  C   UNL A   1      39.783  34.368  36.820  1.00  0.00    -0.014 A 
ATOM     72  C   UNL A   1      39.060  33.989  37.967  1.00  0.00     0.010 A 
ATOM     73  C   UNL A   1      40.288  35.678  36.737  1.00  0.00     0.010 A 
ATOM     74  C   UNL A   1      38.825  34.909  38.993  1.00  0.00     0.020 A 
ATOM     75  C   UNL A   1      40.084  36.590  37.775  1.00  0.00     0.020 A 
ATOM     76  C   UNL A   1      39.340  36.204  38.891  1.00  0.00     0.054 A 
BRANCH  76  77
ATOM     77  S   UNL A   1      39.058  37.369  40.254  1.00  0.00     0.124 S 
ATOM     78  O   UNL A   1      40.417  37.786  40.583  1.00  0.00    -0.237 OA
ATOM     79  O   UNL A   1      38.215  38.385  39.630  1.00  0.00    -0.237 OA
ATOM     80  O   UNL A   1      38.391  36.553  41.267  1.00  0.00    -0.744 OA
ENDBRANCH  76  77
ENDBRANCH  48  71
BRANCH  60  81
ATOM     81  C   UNL A   1      44.671  29.543  35.600  1.00  0.00    -0.014 A 
ATOM     82  C   UNL A   1      44.656  28.549  36.594  1.00  0.00     0.010 A 
ATOM     83  C   UNL A   1      45.887  30.168  35.272  1.00  0.00     0.010 A 
ATOM     84  C   UNL A   1      45.826  28.227  37.286  1.00  0.00     0.020 A 
ATOM     85  C   UNL A   1      47.067  29.822  35.935  1.00  0.00     0.020 A 
ATOM     86  C   UNL A   1      47.024  28.869  36.954  1.00  0.00     0.054 A 
BRANCH  86  87
ATOM     87  S   UNL A   1      48.531  28.427  37.859  1.00  0.00     0.124 S 
ATOM     88  O   UNL A   1      49.571  28.712  36.873  1.00  0.00    -0.237 OA
ATOM     89  O   UNL A   1      48.491  29.328  39.008  1.00  0.00    -0.237 OA
ATOM     90  O   UNL A   1      48.344  27.012  38.175  1.00  0.00    -0.744 OA
ENDBRANCH  86  87
ENDBRANCH  60  81
ENDBRANCH  34  35
ENDBRANCH  26  29
ENDBRANCH  24  25
ENDBRANCH  23  24
ENDBRANCH   1  23
TORSDOF 20
ENDMDL
MODEL 3
REMARK VINA RESULT:      -9.3      4.524     10.174
REMARK SMILES CC[C@@H](C)CN(CC)C(=O)N1CC[C@@](CC)(C(=O)NCCCNC(=O)c2ccc(-c3c4nc(c(-c5ccc(S(=O)(=O)[O-])cc5)c5ccc([nH]5)c(-c5ccc(S(=O)(=O)[O-])cc5)c5nc(c(-c6ccc(S(=O)(=O)[O-])cc6)c6ccc3[nH]6)C=C5)C=C4)cc2)C1
REMARK SMILES IDX 20 1 19 2 17 3 18 4 14 6 11 7 12 8 86 9 13 10 9 11 10 12
REMARK SMILES IDX 6 13 5 14 3 15 4 16 2 17 1 18 7 19 8 20 15 21 16 22 21 23
REMARK SMILES IDX 22 24 23 25 24 26 25 28 26 29 27 30 85 31 28 32 84 33 29 34
REMARK SMILES IDX 30 35 31 36 78 37 32 38 83 39 77 40 79 41 33 42 82 43 76 44
REMARK SMILES IDX 75 45 34 47 64 48 45 49 63 50 46 51 49 52 62 53 80 54 47 55
REMARK SMILES IDX 48 56 61 58 81 59 50 60 35 61 36 62 44 63 37 64 43 65 38 66
REMARK SMILES IDX 39 67 40 68 41 69 42 70 65 71 66 72 74 73 67 74 73 75 68 76
REMARK SMILES IDX 69 77 70 78 71 79 72 80 51 81 52 82 60 83 53 84 59 85 54 86
REMARK SMILES IDX 55 87 56 88 57 89 58 90
REMARK H PARENT 19 5 23 27 79 46 49 57
REMARK Flexibility Score: inf
ROOT
ATOM      1  C   UNL A   1      43.038  21.540  26.819  1.00  0.00     0.117 C 
ENDROOT
BRANCH   1   2
ATOM      2  N   UNL A   1      44.294  21.608  26.097  1.00  0.00    -0.355 N 
ATOM      3  C   UNL A   1      45.296  22.528  26.094  1.00  0.00     0.228 C 
ATOM      4  O   UNL A   1      46.322  22.189  25.498  1.00  0.00    -0.274 OA
ATOM      5  H   UNL A   1      44.452  20.844  25.497  1.00  0.00     0.163 HD
BRANCH   3   6
ATOM      6  C   UNL A   1      45.191  23.875  26.833  1.00  0.00     0.068 C 
ATOM      7  N   UNL A   1      45.818  25.903  25.659  1.00  0.00    -0.324 N 
ATOM      8  C   UNL A   1      44.503  25.529  25.210  1.00  0.00     0.122 C 
ATOM      9  C   UNL A   1      46.392  24.781  26.390  1.00  0.00     0.138 C 
ATOM     10  C   UNL A   1      43.977  24.719  26.380  1.00  0.00     0.040 C 
BRANCH   7  11
ATOM     11  C   UNL A   1      46.659  26.835  25.105  1.00  0.00     0.320 C 
ATOM     12  O   UNL A   1      46.589  27.084  23.899  1.00  0.00    -0.248 OA
BRANCH  11  13
ATOM     13  N   UNL A   1      47.687  27.342  25.887  1.00  0.00    -0.325 N 
BRANCH  13  14
ATOM     14  C   UNL A   1      47.333  27.915  27.193  1.00  0.00     0.124 C 
BRANCH  14  15
ATOM     15  C   UNL A   1      46.822  29.385  27.121  1.00  0.00     0.005 C 
ATOM     16  C   UNL A   1      47.876  30.305  27.747  1.00  0.00     0.009 C 
BRANCH  15  17
ATOM     17  C   UNL A   1      45.448  29.550  27.809  1.00  0.00     0.002 C 
ATOM     18  C   UNL A   1      44.589  30.708  27.323  1.00  0.00     0.004 C 
ENDBRANCH  15  17
ENDBRANCH  14  15
ENDBRANCH  13  14
BRANCH  13  19
ATOM     19  C   UNL A   1      49.107  27.348  25.544  1.00  0.00     0.118 C 
ATOM     20  C   UNL A   1      49.856  26.294  26.357  1.00  0.00     0.027 C 
ENDBRANCH  13  19
ENDBRANCH  11  13
ENDBRANCH   7  11
BRANCH   6  21
ATOM     21  C   UNL A   1      45.326  23.684  28.369  1.00  0.00     0.015 C 
ATOM     22  C   UNL A   1      46.202  24.634  29.167  1.00  0.00     0.005 C 
ENDBRANCH   6  21
ENDBRANCH   3   6
ENDBRANCH   1   2
BRANCH   1  23
ATOM     23  C   UNL A   1      41.836  21.827  25.944  1.00  0.00     0.042 C 
BRANCH  23  24
ATOM     24  C   UNL A   1      40.519  21.759  26.697  1.00  0.00     0.118 C 
BRANCH  24  25
ATOM     25  N   UNL A   1      39.386  22.173  25.877  1.00  0.00    -0.352 N 
ATOM     26  C   UNL A   1      38.621  23.311  25.921  1.00  0.00     0.251 C 
ATOM     27  H   UNL A   1      39.128  21.531  25.175  1.00  0.00     0.163 HD
ATOM     28  O   UNL A   1      37.564  23.352  25.293  1.00  0.00    -0.269 OA
BRANCH  26  29
ATOM     29  C   UNL A   1      39.054  24.469  26.728  1.00  0.00     0.039 A 
ATOM     30  C   UNL A   1      38.592  24.602  28.039  1.00  0.00     0.014 A 
ATOM     31  C   UNL A   1      39.908  25.431  26.188  1.00  0.00     0.014 A 
ATOM     32  C   UNL A   1      39.044  25.667  28.823  1.00  0.00     0.010 A 
ATOM     33  C   UNL A   1      40.456  26.408  27.005  1.00  0.00     0.010 A 
ATOM     34  C   UNL A   1      40.010  26.556  28.324  1.00  0.00    -0.014 A 
BRANCH  34  35
ATOM     35  C   UNL A   1      40.544  27.667  29.151  1.00  0.00     0.031 A 
ATOM     36  C   UNL A   1      39.706  28.899  29.386  1.00  0.00     0.074 A 
ATOM     37  C   UNL A   1      41.798  27.594  29.638  1.00  0.00     0.049 A 
ATOM     38  N   UNL A   1      40.012  29.990  30.041  1.00  0.00    -0.248 NA
ATOM     39  C   UNL A   1      38.365  28.927  28.776  1.00  0.00     0.031 C 
ATOM     40  C   UNL A   1      42.729  26.481  29.424  1.00  0.00     0.029 A 
ATOM     41  N   UNL A   1      42.511  28.474  30.411  1.00  0.00    -0.354 N 
ATOM     42  C   UNL A   1      38.917  30.835  29.899  1.00  0.00     0.074 A 
ATOM     43  C   UNL A   1      37.967  30.161  29.044  1.00  0.00     0.031 C 
ATOM     44  C   UNL A   1      43.870  26.728  30.085  1.00  0.00     0.029 A 
ATOM     45  C   UNL A   1      43.773  28.033  30.731  1.00  0.00     0.049 A 
ATOM     46  H   UNL A   1      42.152  29.341  30.710  1.00  0.00     0.167 HD
ATOM     47  C   UNL A   1      38.707  32.052  30.452  1.00  0.00     0.031 A 
ATOM     48  C   UNL A   1      44.744  28.613  31.461  1.00  0.00     0.031 A 
ATOM     49  C   UNL A   1      39.646  32.706  31.324  1.00  0.00     0.049 A 
ATOM     50  C   UNL A   1      44.479  29.957  32.083  1.00  0.00     0.074 A 
ATOM     51  C   UNL A   1      39.503  33.906  31.996  1.00  0.00     0.029 A 
ATOM     52  N   UNL A   1      40.902  32.213  31.645  1.00  0.00    -0.354 N 
ATOM     53  N   UNL A   1      43.404  30.705  32.002  1.00  0.00    -0.248 NA
ATOM     54  C   UNL A   1      45.549  30.523  32.913  1.00  0.00     0.031 C 
ATOM     55  C   UNL A   1      40.696  34.169  32.675  1.00  0.00     0.029 A 
ATOM     56  C   UNL A   1      41.555  33.098  32.485  1.00  0.00     0.049 A 
ATOM     57  H   UNL A   1      41.274  31.360  31.323  1.00  0.00     0.167 HD
ATOM     58  C   UNL A   1      43.658  31.819  32.796  1.00  0.00     0.074 A 
ATOM     59  C   UNL A   1      44.979  31.632  33.364  1.00  0.00     0.031 C 
ATOM     60  C   UNL A   1      42.871  32.897  33.036  1.00  0.00     0.031 A 
BRANCH  47  61
ATOM     61  C   UNL A   1      37.413  32.756  30.131  1.00  0.00    -0.014 A 
ATOM     62  C   UNL A   1      37.328  33.684  29.076  1.00  0.00     0.010 A 
ATOM     63  C   UNL A   1      36.255  32.454  30.869  1.00  0.00     0.010 A 
ATOM     64  C   UNL A   1      36.118  34.321  28.789  1.00  0.00     0.020 A 
ATOM     65  C   UNL A   1      35.034  33.065  30.564  1.00  0.00     0.020 A 
ATOM     66  C   UNL A   1      34.978  34.006  29.534  1.00  0.00     0.054 A 
BRANCH  66  67
ATOM     67  S   UNL A   1      33.412  34.819  29.112  1.00  0.00     0.124 S 
ATOM     68  O   UNL A   1      32.782  34.955  30.423  1.00  0.00    -0.237 OA
ATOM     69  O   UNL A   1      33.858  36.067  28.497  1.00  0.00    -0.237 OA
ATOM     70  O   UNL A   1      32.764  33.876  28.205  1.00  0.00    -0.744 OA
ENDBRANCH  66  67
ENDBRANCH  47  61
BRANCH  48  71
ATOM     71  C   UNL A   1      46.048  27.920  31.655  1.00  0.00    -0.014 A 
ATOM     72  C   UNL A   1      47.131  28.169  30.792  1.00  0.00     0.010 A 
ATOM     73  C   UNL A   1      46.217  27.009  32.713  1.00  0.00     0.010 A 
ATOM     74  C   UNL A   1      48.346  27.499  30.966  1.00  0.00     0.020 A 
ATOM     75  C   UNL A   1      47.439  26.363  32.911  1.00  0.00     0.020 A 
ATOM     76  C   UNL A   1      48.493  26.601  32.027  1.00  0.00     0.054 A 
BRANCH  76  77
ATOM     77  S   UNL A   1      50.092  25.774  32.260  1.00  0.00     0.124 S 
ATOM     78  O   UNL A   1      49.887  25.066  33.519  1.00  0.00    -0.237 OA
ATOM     79  O   UNL A   1      50.188  24.935  31.068  1.00  0.00    -0.237 OA
ATOM     80  O   UNL A   1      51.044  26.882  32.312  1.00  0.00    -0.744 OA
ENDBRANCH  76  77
ENDBRANCH  48  71
BRANCH  60  81
ATOM     81  C   UNL A   1      43.400  33.938  33.988  1.00  0.00    -0.014 A 
ATOM     82  C   UNL A   1      44.147  35.039  33.532  1.00  0.00     0.010 A 
ATOM     83  C   UNL A   1      43.118  33.822  35.361  1.00  0.00     0.010 A 
ATOM     84  C   UNL A   1      44.647  35.976  34.440  1.00  0.00     0.020 A 
ATOM     85  C   UNL A   1      43.585  34.777  36.268  1.00  0.00     0.020 A 
ATOM     86  C   UNL A   1      44.366  35.836  35.803  1.00  0.00     0.054 A 
BRANCH  86  87
ATOM     87  S   UNL A   1      45.018  37.070  36.960  1.00  0.00     0.124 S 
ATOM     88  O   UNL A   1      43.840  37.894  37.218  1.00  0.00    -0.237 OA
ATOM     89  O   UNL A   1      45.469  36.250  38.081  1.00  0.00    -0.237 OA
ATOM     90  O   UNL A   1      46.084  37.725  36.205  1.00  0.00    -0.744 OA
ENDBRANCH  86  87
ENDBRANCH  60  81
ENDBRANCH  34  35
ENDBRANCH  26  29
ENDBRANCH  24  25
ENDBRANCH  23  24
ENDBRANCH   1  23
TORSDOF 20
ENDMDL
