MODEL 1
REMARK VINA RESULT:     -12.6      0.000      0.000
REMARK SMILES C[C@]1(c2ccccc2C(=O)NCCCNC(=O)c2ccc(-c3c4nc(c(-c5ccc(S(=O)(=O)[O-])cc5)c5ccc([nH]5)c(-c5ccc(S(=O)(=O)[O-])cc5)c5nc(c(-c6ccc(S(=O)(=O)[O-])cc6)c6ccc3[nH]6)C=C5)C=C4)cc2)NN=C(c2ccccc2)S1
REMARK SMILES IDX 13 1 12 2 11 3 9 4 10 5 8 7 3 8 4 9 5 10 7 11 6 12 2 13 1 14
REMARK SMILES IDX 78 15 87 16 79 17 80 19 81 20 82 21 86 22 83 23 85 24 84 25
REMARK SMILES IDX 14 26 15 27 16 28 17 30 18 31 19 32 77 33 20 34 76 35 21 36
REMARK SMILES IDX 22 37 23 38 70 39 24 40 75 41 69 42 71 43 25 44 74 45 68 46
REMARK SMILES IDX 67 47 26 49 56 50 37 51 55 52 38 53 41 54 54 55 72 56 39 57
REMARK SMILES IDX 40 58 53 60 73 61 42 62 27 63 28 64 36 65 29 66 35 67 30 68
REMARK SMILES IDX 31 69 32 70 33 71 34 72 57 73 58 74 66 75 59 76 65 77 60 78
REMARK SMILES IDX 61 79 62 80 63 81 64 82 43 83 44 84 52 85 45 86 51 87 46 88
REMARK SMILES IDX 47 89 48 90 49 91 50 92
REMARK H PARENT 11 6 78 18 15 29 71 48 41 59
REMARK Flexibility Score: inf
ROOT
ATOM      1  C   UNL A   1      37.855  23.451  25.959  1.00  0.00     0.042 C 
ENDROOT
BRANCH   1   2
ATOM      2  C   UNL A   1      37.126  22.166  25.500  1.00  0.00     0.118 C 
BRANCH   2   3
ATOM      3  N   UNL A   1      36.223  22.252  24.358  1.00  0.00    -0.352 N 
ATOM      4  C   UNL A   1      35.154  23.047  23.988  1.00  0.00     0.251 C 
ATOM      5  O   UNL A   1      34.902  23.051  22.775  1.00  0.00    -0.269 OA
ATOM      6  H   UNL A   1      36.427  21.571  23.677  1.00  0.00     0.163 HD
BRANCH   4   7
ATOM      7  C   UNL A   1      34.268  23.911  24.856  1.00  0.00     0.046 A 
ATOM      8  C   UNL A   1      32.909  23.703  25.243  1.00  0.00     0.002 A 
ATOM      9  C   UNL A   1      32.244  24.758  25.934  1.00  0.00     0.008 A 
ATOM     10  C   UNL A   1      32.823  26.008  26.134  1.00  0.00     0.000 A 
ATOM     11  C   UNL A   1      34.815  25.207  25.053  1.00  0.00     0.014 A 
ATOM     12  C   UNL A   1      34.102  26.243  25.667  1.00  0.00     0.001 A 
BRANCH   8  13
ATOM     13  C   UNL A   1      32.070  22.444  24.987  1.00  0.00     0.129 C 
ATOM     14  C   UNL A   1      30.618  22.801  25.352  1.00  0.00     0.054 C 
ATOM     15  N   UNL A   1      32.068  21.972  23.575  1.00  0.00    -0.288 NA
ATOM     16  S   UNL A   1      32.734  21.010  25.852  1.00  0.00    -0.070 SA
ATOM     17  N   UNL A   1      32.327  20.633  23.335  1.00  0.00    -0.171 NA
ATOM     18  H   UNL A   1      31.888  22.594  22.834  1.00  0.00     0.185 HD
ATOM     19  C   UNL A   1      32.718  20.053  24.423  1.00  0.00     0.126 C 
BRANCH  19  20
ATOM     20  C   UNL A   1      33.269  18.713  24.631  1.00  0.00     0.009 A 
ATOM     21  C   UNL A   1      32.814  18.014  25.750  1.00  0.00     0.011 A 
ATOM     22  C   UNL A   1      33.820  18.025  23.535  1.00  0.00     0.011 A 
ATOM     23  C   UNL A   1      32.841  16.620  25.739  1.00  0.00     0.001 A 
ATOM     24  C   UNL A   1      33.834  16.632  23.528  1.00  0.00     0.001 A 
ATOM     25  C   UNL A   1      33.325  15.933  24.623  1.00  0.00     0.000 A 
ENDBRANCH  19  20
ENDBRANCH   8  13
ENDBRANCH   4   7
ENDBRANCH   2   3
ENDBRANCH   1   2
BRANCH   1  26
ATOM     26  C   UNL A   1      39.154  23.341  26.769  1.00  0.00     0.118 C 
BRANCH  26  27
ATOM     27  N   UNL A   1      40.261  23.925  26.024  1.00  0.00    -0.352 N 
ATOM     28  C   UNL A   1      40.906  25.134  26.135  1.00  0.00     0.251 C 
ATOM     29  H   UNL A   1      40.613  23.346  25.309  1.00  0.00     0.163 HD
ATOM     30  O   UNL A   1      41.506  25.541  25.138  1.00  0.00    -0.269 OA
BRANCH  28  31
ATOM     31  C   UNL A   1      40.949  25.955  27.382  1.00  0.00     0.039 A 
ATOM     32  C   UNL A   1      39.913  25.783  28.315  1.00  0.00     0.014 A 
ATOM     33  C   UNL A   1      41.858  26.997  27.587  1.00  0.00     0.014 A 
ATOM     34  C   UNL A   1      39.780  26.641  29.417  1.00  0.00     0.010 A 
ATOM     35  C   UNL A   1      41.756  27.822  28.724  1.00  0.00     0.010 A 
ATOM     36  C   UNL A   1      40.698  27.679  29.636  1.00  0.00    -0.014 A 
BRANCH  36  37
ATOM     37  C   UNL A   1      40.505  28.634  30.772  1.00  0.00     0.031 A 
ATOM     38  C   UNL A   1      41.360  28.538  32.016  1.00  0.00     0.074 A 
ATOM     39  C   UNL A   1      39.574  29.608  30.698  1.00  0.00     0.049 A 
ATOM     40  N   UNL A   1      41.354  29.295  33.087  1.00  0.00    -0.248 NA
ATOM     41  C   UNL A   1      42.340  27.443  32.069  1.00  0.00     0.031 C 
ATOM     42  C   UNL A   1      38.659  29.817  29.576  1.00  0.00     0.029 A 
ATOM     43  N   UNL A   1      39.243  30.607  31.585  1.00  0.00    -0.354 N 
ATOM     44  C   UNL A   1      42.317  28.765  33.941  1.00  0.00     0.074 A 
ATOM     45  C   UNL A   1      42.853  27.591  33.283  1.00  0.00     0.031 C 
ATOM     46  C   UNL A   1      37.889  30.888  29.830  1.00  0.00     0.029 A 
ATOM     47  C   UNL A   1      38.229  31.427  31.144  1.00  0.00     0.049 A 
ATOM     48  H   UNL A   1      39.690  30.724  32.454  1.00  0.00     0.167 HD
ATOM     49  C   UNL A   1      42.738  29.215  35.149  1.00  0.00     0.031 A 
ATOM     50  C   UNL A   1      37.636  32.490  31.724  1.00  0.00     0.031 A 
ATOM     51  C   UNL A   1      42.217  30.382  35.813  1.00  0.00     0.049 A 
ATOM     52  C   UNL A   1      38.110  32.969  33.070  1.00  0.00     0.074 A 
ATOM     53  C   UNL A   1      42.609  30.931  37.023  1.00  0.00     0.029 A 
ATOM     54  N   UNL A   1      41.192  31.180  35.328  1.00  0.00    -0.354 N 
ATOM     55  N   UNL A   1      39.059  32.481  33.831  1.00  0.00    -0.248 NA
ATOM     56  C   UNL A   1      37.443  34.155  33.627  1.00  0.00     0.031 C 
ATOM     57  C   UNL A   1      41.790  32.034  37.292  1.00  0.00     0.029 A 
ATOM     58  C   UNL A   1      40.925  32.205  36.222  1.00  0.00     0.049 A 
ATOM     59  H   UNL A   1      40.722  31.038  34.475  1.00  0.00     0.167 HD
ATOM     60  C   UNL A   1      39.120  33.314  34.944  1.00  0.00     0.074 A 
ATOM     61  C   UNL A   1      38.124  34.347  34.750  1.00  0.00     0.031 C 
ATOM     62  C   UNL A   1      39.931  33.230  36.028  1.00  0.00     0.031 A 
BRANCH  49  63
ATOM     63  C   UNL A   1      43.824  28.430  35.842  1.00  0.00    -0.014 A 
ATOM     64  C   UNL A   1      45.182  28.750  35.659  1.00  0.00     0.010 A 
ATOM     65  C   UNL A   1      43.485  27.381  36.717  1.00  0.00     0.010 A 
ATOM     66  C   UNL A   1      46.180  28.003  36.291  1.00  0.00     0.020 A 
ATOM     67  C   UNL A   1      44.479  26.650  37.375  1.00  0.00     0.020 A 
ATOM     68  C   UNL A   1      45.822  26.952  37.140  1.00  0.00     0.054 A 
BRANCH  68  69
ATOM     69  S   UNL A   1      47.139  26.000  37.947  1.00  0.00     0.124 S 
ATOM     70  O   UNL A   1      47.324  26.741  39.192  1.00  0.00    -0.237 OA
ATOM     71  O   UNL A   1      46.541  24.676  38.087  1.00  0.00    -0.237 OA
ATOM     72  O   UNL A   1      48.254  26.081  37.003  1.00  0.00    -0.744 OA
ENDBRANCH  68  69
ENDBRANCH  49  63
BRANCH  50  73
ATOM     73  C   UNL A   1      36.525  33.190  31.018  1.00  0.00    -0.014 A 
ATOM     74  C   UNL A   1      35.208  33.126  31.506  1.00  0.00     0.010 A 
ATOM     75  C   UNL A   1      36.788  33.943  29.859  1.00  0.00     0.010 A 
ATOM     76  C   UNL A   1      34.173  33.793  30.842  1.00  0.00     0.020 A 
ATOM     77  C   UNL A   1      35.761  34.632  29.208  1.00  0.00     0.020 A 
ATOM     78  C   UNL A   1      34.457  34.546  29.700  1.00  0.00     0.054 A 
BRANCH  78  79
ATOM     79  S   UNL A   1      33.110  35.458  28.894  1.00  0.00     0.124 S 
ATOM     80  O   UNL A   1      32.382  36.000  30.036  1.00  0.00    -0.237 OA
ATOM     81  O   UNL A   1      33.833  36.435  28.081  1.00  0.00    -0.237 OA
ATOM     82  O   UNL A   1      32.408  34.426  28.133  1.00  0.00    -0.744 OA
ENDBRANCH  78  79
ENDBRANCH  50  73
BRANCH  62  83
ATOM     83  C   UNL A   1      39.803  34.302  37.080  1.00  0.00    -0.014 A 
ATOM     84  C   UNL A   1      40.414  35.559  36.923  1.00  0.00     0.010 A 
ATOM     85  C   UNL A   1      39.018  34.062  38.223  1.00  0.00     0.010 A 
ATOM     86  C   UNL A   1      40.272  36.543  37.906  1.00  0.00     0.020 A 
ATOM     87  C   UNL A   1      38.851  35.052  39.196  1.00  0.00     0.020 A 
ATOM     88  C   UNL A   1      39.492  36.282  39.038  1.00  0.00     0.054 A 
BRANCH  88  89
ATOM     89  S   UNL A   1      39.293  37.587  40.284  1.00  0.00     0.124 S 
ATOM     90  O   UNL A   1      38.308  38.461  39.654  1.00  0.00    -0.237 OA
ATOM     91  O   UNL A   1      38.820  36.846  41.452  1.00  0.00    -0.237 OA
ATOM     92  O   UNL A   1      40.635  38.151  40.413  1.00  0.00    -0.744 OA
ENDBRANCH  88  89
ENDBRANCH  62  83
ENDBRANCH  36  37
ENDBRANCH  28  31
ENDBRANCH  26  27
ENDBRANCH   1  26
TORSDOF 15
ENDMDL
MODEL 2
REMARK VINA RESULT:     -12.5      3.889      5.479
REMARK SMILES C[C@]1(c2ccccc2C(=O)NCCCNC(=O)c2ccc(-c3c4nc(c(-c5ccc(S(=O)(=O)[O-])cc5)c5ccc([nH]5)c(-c5ccc(S(=O)(=O)[O-])cc5)c5nc(c(-c6ccc(S(=O)(=O)[O-])cc6)c6ccc3[nH]6)C=C5)C=C4)cc2)NN=C(c2ccccc2)S1
REMARK SMILES IDX 13 1 12 2 11 3 9 4 10 5 8 7 3 8 4 9 5 10 7 11 6 12 2 13 1 14
REMARK SMILES IDX 78 15 87 16 79 17 80 19 81 20 82 21 86 22 83 23 85 24 84 25
REMARK SMILES IDX 14 26 15 27 16 28 17 30 18 31 19 32 77 33 20 34 76 35 21 36
REMARK SMILES IDX 22 37 23 38 70 39 24 40 75 41 69 42 71 43 25 44 74 45 68 46
REMARK SMILES IDX 67 47 26 49 56 50 37 51 55 52 38 53 41 54 54 55 72 56 39 57
REMARK SMILES IDX 40 58 53 60 73 61 42 62 27 63 28 64 36 65 29 66 35 67 30 68
REMARK SMILES IDX 31 69 32 70 33 71 34 72 57 73 58 74 66 75 59 76 65 77 60 78
REMARK SMILES IDX 61 79 62 80 63 81 64 82 43 83 44 84 52 85 45 86 51 87 46 88
REMARK SMILES IDX 47 89 48 90 49 91 50 92
REMARK H PARENT 11 6 78 18 15 29 71 48 41 59
REMARK Flexibility Score: inf
ROOT
ATOM      1  C   UNL A   1      36.020  23.857  25.404  1.00  0.00     0.042 C 
ENDROOT
BRANCH   1   2
ATOM      2  C   UNL A   1      35.574  23.060  26.653  1.00  0.00     0.118 C 
BRANCH   2   3
ATOM      3  N   UNL A   1      34.174  23.132  27.057  1.00  0.00    -0.352 N 
ATOM      4  C   UNL A   1      32.962  22.722  26.534  1.00  0.00     0.251 C 
ATOM      5  O   UNL A   1      32.042  22.628  27.359  1.00  0.00    -0.269 OA
ATOM      6  H   UNL A   1      34.065  23.589  27.921  1.00  0.00     0.163 HD
BRANCH   4   7
ATOM      7  C   UNL A   1      32.616  22.363  25.106  1.00  0.00     0.046 A 
ATOM      8  C   UNL A   1      31.777  23.058  24.182  1.00  0.00     0.002 A 
ATOM      9  C   UNL A   1      31.477  22.419  22.944  1.00  0.00     0.008 A 
ATOM     10  C   UNL A   1      31.866  21.113  22.658  1.00  0.00     0.000 A 
ATOM     11  C   UNL A   1      32.970  21.024  24.792  1.00  0.00     0.014 A 
ATOM     12  C   UNL A   1      32.589  20.403  23.597  1.00  0.00     0.001 A 
BRANCH   8  13
ATOM     13  C   UNL A   1      31.149  24.444  24.385  1.00  0.00     0.129 C 
ATOM     14  C   UNL A   1      30.222  24.686  23.180  1.00  0.00     0.054 C 
ATOM     15  N   UNL A   1      30.322  24.580  25.615  1.00  0.00    -0.288 NA
ATOM     16  S   UNL A   1      32.400  25.715  24.641  1.00  0.00    -0.070 SA
ATOM     17  N   UNL A   1      30.553  25.669  26.438  1.00  0.00    -0.171 NA
ATOM     18  H   UNL A   1      29.631  23.915  25.836  1.00  0.00     0.185 HD
ATOM     19  C   UNL A   1      31.618  26.297  26.058  1.00  0.00     0.126 C 
BRANCH  19  20
ATOM     20  C   UNL A   1      32.355  27.382  26.708  1.00  0.00     0.009 A 
ATOM     21  C   UNL A   1      33.717  27.478  26.418  1.00  0.00     0.011 A 
ATOM     22  C   UNL A   1      31.645  28.501  27.179  1.00  0.00     0.011 A 
ATOM     23  C   UNL A   1      34.351  28.715  26.527  1.00  0.00     0.001 A 
ATOM     24  C   UNL A   1      32.284  29.736  27.276  1.00  0.00     0.001 A 
ATOM     25  C   UNL A   1      33.631  29.843  26.930  1.00  0.00     0.000 A 
ENDBRANCH  19  20
ENDBRANCH   8  13
ENDBRANCH   4   7
ENDBRANCH   2   3
ENDBRANCH   1   2
BRANCH   1  26
ATOM     26  C   UNL A   1      37.170  23.330  24.535  1.00  0.00     0.118 C 
BRANCH  26  27
ATOM     27  N   UNL A   1      38.072  22.516  25.338  1.00  0.00    -0.352 N 
ATOM     28  C   UNL A   1      39.126  22.848  26.156  1.00  0.00     0.251 C 
ATOM     29  H   UNL A   1      37.895  21.549  25.284  1.00  0.00     0.163 HD
ATOM     30  O   UNL A   1      39.964  21.971  26.372  1.00  0.00    -0.269 OA
BRANCH  28  31
ATOM     31  C   UNL A   1      39.294  24.178  26.815  1.00  0.00     0.039 A 
ATOM     32  C   UNL A   1      40.054  25.150  26.143  1.00  0.00     0.014 A 
ATOM     33  C   UNL A   1      38.888  24.444  28.126  1.00  0.00     0.014 A 
ATOM     34  C   UNL A   1      40.412  26.352  26.772  1.00  0.00     0.010 A 
ATOM     35  C   UNL A   1      39.201  25.675  28.736  1.00  0.00     0.010 A 
ATOM     36  C   UNL A   1      39.996  26.631  28.082  1.00  0.00    -0.014 A 
BRANCH  36  37
ATOM     37  C   UNL A   1      40.445  27.882  28.771  1.00  0.00     0.031 A 
ATOM     38  C   UNL A   1      41.849  28.001  29.320  1.00  0.00     0.074 A 
ATOM     39  C   UNL A   1      39.606  28.931  28.901  1.00  0.00     0.049 A 
ATOM     40  N   UNL A   1      42.422  29.016  29.921  1.00  0.00    -0.248 NA
ATOM     41  C   UNL A   1      42.719  26.822  29.186  1.00  0.00     0.031 C 
ATOM     42  C   UNL A   1      38.217  28.963  28.443  1.00  0.00     0.029 A 
ATOM     43  N   UNL A   1      39.801  30.176  29.454  1.00  0.00    -0.354 N 
ATOM     44  C   UNL A   1      43.709  28.597  30.244  1.00  0.00     0.074 A 
ATOM     45  C   UNL A   1      43.817  27.218  29.816  1.00  0.00     0.031 C 
ATOM     46  C   UNL A   1      37.693  30.170  28.713  1.00  0.00     0.029 A 
ATOM     47  C   UNL A   1      38.693  30.991  29.390  1.00  0.00     0.049 A 
ATOM     48  H   UNL A   1      40.653  30.457  29.859  1.00  0.00     0.167 HD
ATOM     49  C   UNL A   1      44.720  29.292  30.823  1.00  0.00     0.031 A 
ATOM     50  C   UNL A   1      38.497  32.254  29.823  1.00  0.00     0.031 A 
ATOM     51  C   UNL A   1      44.629  30.665  31.250  1.00  0.00     0.049 A 
ATOM     52  C   UNL A   1      39.628  33.005  30.471  1.00  0.00     0.074 A 
ATOM     53  C   UNL A   1      45.614  31.459  31.814  1.00  0.00     0.029 A 
ATOM     54  N   UNL A   1      43.489  31.449  31.164  1.00  0.00    -0.354 N 
ATOM     55  N   UNL A   1      40.852  32.604  30.716  1.00  0.00    -0.248 NA
ATOM     56  C   UNL A   1      39.356  34.390  30.887  1.00  0.00     0.031 C 
ATOM     57  C   UNL A   1      45.056  32.708  32.111  1.00  0.00     0.029 A 
ATOM     58  C   UNL A   1      43.739  32.711  31.680  1.00  0.00     0.049 A 
ATOM     59  H   UNL A   1      42.627  31.152  30.792  1.00  0.00     0.167 HD
ATOM     60  C   UNL A   1      41.502  33.692  31.291  1.00  0.00     0.074 A 
ATOM     61  C   UNL A   1      40.541  34.775  31.341  1.00  0.00     0.031 C 
ATOM     62  C   UNL A   1      42.780  33.785  31.733  1.00  0.00     0.031 A 
BRANCH  49  63
ATOM     63  C   UNL A   1      46.027  28.569  31.035  1.00  0.00    -0.014 A 
ATOM     64  C   UNL A   1      47.111  28.752  30.156  1.00  0.00     0.010 A 
ATOM     65  C   UNL A   1      46.189  27.722  32.148  1.00  0.00     0.010 A 
ATOM     66  C   UNL A   1      48.310  28.062  30.353  1.00  0.00     0.020 A 
ATOM     67  C   UNL A   1      47.398  27.052  32.365  1.00  0.00     0.020 A 
ATOM     68  C   UNL A   1      48.443  27.209  31.453  1.00  0.00     0.054 A 
BRANCH  68  69
ATOM     69  S   UNL A   1      50.011  26.326  31.682  1.00  0.00     0.124 S 
ATOM     70  O   UNL A   1      50.602  27.051  32.803  1.00  0.00    -0.237 OA
ATOM     71  O   UNL A   1      49.575  24.964  31.975  1.00  0.00    -0.237 OA
ATOM     72  O   UNL A   1      50.696  26.496  30.401  1.00  0.00    -0.744 OA
ENDBRANCH  68  69
ENDBRANCH  49  63
BRANCH  50  73
ATOM     73  C   UNL A   1      37.165  32.897  29.640  1.00  0.00    -0.014 A 
ATOM     74  C   UNL A   1      36.303  33.090  30.734  1.00  0.00     0.010 A 
ATOM     75  C   UNL A   1      36.762  33.337  28.366  1.00  0.00     0.010 A 
ATOM     76  C   UNL A   1      35.058  33.701  30.555  1.00  0.00     0.020 A 
ATOM     77  C   UNL A   1      35.530  33.973  28.189  1.00  0.00     0.020 A 
ATOM     78  C   UNL A   1      34.681  34.145  29.284  1.00  0.00     0.054 A 
BRANCH  78  79
ATOM     79  S   UNL A   1      33.091  34.997  29.088  1.00  0.00     0.124 S 
ATOM     80  O   UNL A   1      32.533  34.915  30.433  1.00  0.00    -0.237 OA
ATOM     81  O   UNL A   1      33.499  36.330  28.650  1.00  0.00    -0.237 OA
ATOM     82  O   UNL A   1      32.401  34.203  28.072  1.00  0.00    -0.744 OA
ENDBRANCH  78  79
ENDBRANCH  50  73
BRANCH  62  83
ATOM     83  C   UNL A   1      43.234  35.112  32.285  1.00  0.00    -0.014 A 
ATOM     84  C   UNL A   1      43.130  35.409  33.656  1.00  0.00     0.010 A 
ATOM     85  C   UNL A   1      43.818  36.059  31.424  1.00  0.00     0.010 A 
ATOM     86  C   UNL A   1      43.569  36.642  34.148  1.00  0.00     0.020 A 
ATOM     87  C   UNL A   1      44.283  37.282  31.915  1.00  0.00     0.020 A 
ATOM     88  C   UNL A   1      44.141  37.572  33.274  1.00  0.00     0.054 A 
BRANCH  88  89
ATOM     89  S   UNL A   1      44.736  39.152  33.941  1.00  0.00     0.124 S 
ATOM     90  O   UNL A   1      45.782  39.509  32.988  1.00  0.00    -0.237 OA
ATOM     91  O   UNL A   1      43.538  39.988  33.902  1.00  0.00    -0.237 OA
ATOM     92  O   UNL A   1      45.204  38.808  35.282  1.00  0.00    -0.744 OA
ENDBRANCH  88  89
ENDBRANCH  62  83
ENDBRANCH  36  37
ENDBRANCH  28  31
ENDBRANCH  26  27
ENDBRANCH   1  26
TORSDOF 15
ENDMDL
MODEL 3
REMARK VINA RESULT:     -12.5      3.531      9.728
REMARK SMILES C[C@]1(c2ccccc2C(=O)NCCCNC(=O)c2ccc(-c3c4nc(c(-c5ccc(S(=O)(=O)[O-])cc5)c5ccc([nH]5)c(-c5ccc(S(=O)(=O)[O-])cc5)c5nc(c(-c6ccc(S(=O)(=O)[O-])cc6)c6ccc3[nH]6)C=C5)C=C4)cc2)NN=C(c2ccccc2)S1
REMARK SMILES IDX 13 1 12 2 11 3 9 4 10 5 8 7 3 8 4 9 5 10 7 11 6 12 2 13 1 14
REMARK SMILES IDX 78 15 87 16 79 17 80 19 81 20 82 21 86 22 83 23 85 24 84 25
REMARK SMILES IDX 14 26 15 27 16 28 17 30 18 31 19 32 77 33 20 34 76 35 21 36
REMARK SMILES IDX 22 37 23 38 70 39 24 40 75 41 69 42 71 43 25 44 74 45 68 46
REMARK SMILES IDX 67 47 26 49 56 50 37 51 55 52 38 53 41 54 54 55 72 56 39 57
REMARK SMILES IDX 40 58 53 60 73 61 42 62 27 63 28 64 36 65 29 66 35 67 30 68
REMARK SMILES IDX 31 69 32 70 33 71 34 72 57 73 58 74 66 75 59 76 65 77 60 78
REMARK SMILES IDX 61 79 62 80 63 81 64 82 43 83 44 84 52 85 45 86 51 87 46 88
REMARK SMILES IDX 47 89 48 90 49 91 50 92
REMARK H PARENT 11 6 78 18 15 29 71 48 41 59
REMARK Flexibility Score: inf
ROOT
ATOM      1  C   UNL A   1      32.756  27.964  26.914  1.00  0.00     0.042 C 
ENDROOT
BRANCH   1   2
ATOM      2  C   UNL A   1      31.401  27.350  26.490  1.00  0.00     0.118 C 
BRANCH   2   3
ATOM      3  N   UNL A   1      31.196  25.920  26.689  1.00  0.00    -0.352 N 
ATOM      4  C   UNL A   1      31.954  24.773  26.542  1.00  0.00     0.251 C 
ATOM      5  O   UNL A   1      31.545  23.792  27.179  1.00  0.00    -0.269 OA
ATOM      6  H   UNL A   1      30.287  25.720  27.009  1.00  0.00     0.163 HD
BRANCH   4   7
ATOM      7  C   UNL A   1      33.210  24.562  25.726  1.00  0.00     0.046 A 
ATOM      8  C   UNL A   1      33.364  24.519  24.307  1.00  0.00     0.002 A 
ATOM      9  C   UNL A   1      34.635  24.137  23.786  1.00  0.00     0.008 A 
ATOM     10  C   UNL A   1      35.677  23.694  24.596  1.00  0.00     0.000 A 
ATOM     11  C   UNL A   1      34.285  24.078  26.518  1.00  0.00     0.014 A 
ATOM     12  C   UNL A   1      35.492  23.637  25.964  1.00  0.00     0.001 A 
BRANCH   8  13
ATOM     13  C   UNL A   1      32.287  24.842  23.262  1.00  0.00     0.129 C 
ATOM     14  C   UNL A   1      32.642  24.034  22.001  1.00  0.00     0.054 C 
ATOM     15  N   UNL A   1      30.903  24.463  23.656  1.00  0.00    -0.288 NA
ATOM     16  S   UNL A   1      32.121  26.616  22.999  1.00  0.00    -0.070 SA
ATOM     17  N   UNL A   1      29.902  25.410  23.515  1.00  0.00    -0.171 NA
ATOM     18  H   UNL A   1      30.704  23.565  24.006  1.00  0.00     0.185 HD
ATOM     19  C   UNL A   1      30.417  26.561  23.222  1.00  0.00     0.126 C 
BRANCH  19  20
ATOM     20  C   UNL A   1      29.792  27.883  23.153  1.00  0.00     0.009 A 
ATOM     21  C   UNL A   1      30.487  28.870  22.453  1.00  0.00     0.011 A 
ATOM     22  C   UNL A   1      28.403  27.991  23.350  1.00  0.00     0.011 A 
ATOM     23  C   UNL A   1      29.778  29.928  21.885  1.00  0.00     0.001 A 
ATOM     24  C   UNL A   1      27.702  29.046  22.772  1.00  0.00     0.001 A 
ATOM     25  C   UNL A   1      28.390  30.001  22.023  1.00  0.00     0.000 A 
ENDBRANCH  19  20
ENDBRANCH   8  13
ENDBRANCH   4   7
ENDBRANCH   2   3
ENDBRANCH   1   2
BRANCH   1  26
ATOM     26  C   UNL A   1      33.544  28.829  25.921  1.00  0.00     0.118 C 
BRANCH  26  27
ATOM     27  N   UNL A   1      33.635  30.198  26.409  1.00  0.00    -0.352 N 
ATOM     28  C   UNL A   1      34.387  30.768  27.410  1.00  0.00     0.251 C 
ATOM     29  H   UNL A   1      33.050  30.833  25.936  1.00  0.00     0.163 HD
ATOM     30  O   UNL A   1      33.973  31.827  27.886  1.00  0.00    -0.269 OA
BRANCH  28  31
ATOM     31  C   UNL A   1      35.673  30.206  27.922  1.00  0.00     0.039 A 
ATOM     32  C   UNL A   1      35.688  29.690  29.229  1.00  0.00     0.014 A 
ATOM     33  C   UNL A   1      36.889  30.323  27.242  1.00  0.00     0.014 A 
ATOM     34  C   UNL A   1      36.890  29.317  29.847  1.00  0.00     0.010 A 
ATOM     35  C   UNL A   1      38.088  29.895  27.843  1.00  0.00     0.010 A 
ATOM     36  C   UNL A   1      38.112  29.418  29.164  1.00  0.00    -0.014 A 
BRANCH  36  37
ATOM     37  C   UNL A   1      39.397  29.088  29.857  1.00  0.00     0.031 A 
ATOM     38  C   UNL A   1      39.824  29.842  31.096  1.00  0.00     0.074 A 
ATOM     39  C   UNL A   1      40.190  28.099  29.393  1.00  0.00     0.049 A 
ATOM     40  N   UNL A   1      40.889  29.676  31.843  1.00  0.00    -0.248 NA
ATOM     41  C   UNL A   1      38.947  30.933  31.548  1.00  0.00     0.031 C 
ATOM     42  C   UNL A   1      39.927  27.295  28.200  1.00  0.00     0.029 A 
ATOM     43  N   UNL A   1      41.379  27.600  29.873  1.00  0.00    -0.354 N 
ATOM     44  C   UNL A   1      40.815  30.641  32.843  1.00  0.00     0.074 A 
ATOM     45  C   UNL A   1      39.625  31.423  32.577  1.00  0.00     0.031 C 
ATOM     46  C   UNL A   1      40.909  26.391  28.053  1.00  0.00     0.029 A 
ATOM     47  C   UNL A   1      41.891  26.566  29.120  1.00  0.00     0.049 A 
ATOM     48  H   UNL A   1      41.824  27.949  30.679  1.00  0.00     0.167 HD
ATOM     49  C   UNL A   1      41.641  30.853  33.898  1.00  0.00     0.031 A 
ATOM     50  C   UNL A   1      43.018  25.839  29.266  1.00  0.00     0.031 A 
ATOM     51  C   UNL A   1      42.825  30.082  34.176  1.00  0.00     0.049 A 
ATOM     52  C   UNL A   1      43.927  26.096  30.437  1.00  0.00     0.074 A 
ATOM     53  C   UNL A   1      43.702  30.204  35.242  1.00  0.00     0.029 A 
ATOM     54  N   UNL A   1      43.302  29.047  33.387  1.00  0.00    -0.354 N 
ATOM     55  N   UNL A   1      43.805  26.979  31.398  1.00  0.00    -0.248 NA
ATOM     56  C   UNL A   1      45.119  25.242  30.554  1.00  0.00     0.031 C 
ATOM     57  C   UNL A   1      44.733  29.274  35.073  1.00  0.00     0.029 A 
ATOM     58  C   UNL A   1      44.469  28.534  33.932  1.00  0.00     0.049 A 
ATOM     59  H   UNL A   1      42.875  28.724  32.562  1.00  0.00     0.167 HD
ATOM     60  C   UNL A   1      44.890  26.773  32.245  1.00  0.00     0.074 A 
ATOM     61  C   UNL A   1      45.648  25.668  31.693  1.00  0.00     0.031 C 
ATOM     62  C   UNL A   1      45.223  27.437  33.379  1.00  0.00     0.031 A 
BRANCH  49  63
ATOM     63  C   UNL A   1      41.292  31.981  34.837  1.00  0.00    -0.014 A 
ATOM     64  C   UNL A   1      40.474  31.764  35.961  1.00  0.00     0.010 A 
ATOM     65  C   UNL A   1      41.815  33.269  34.615  1.00  0.00     0.010 A 
ATOM     66  C   UNL A   1      40.142  32.820  36.814  1.00  0.00     0.020 A 
ATOM     67  C   UNL A   1      41.509  34.323  35.482  1.00  0.00     0.020 A 
ATOM     68  C   UNL A   1      40.655  34.096  36.564  1.00  0.00     0.054 A 
BRANCH  68  69
ATOM     69  S   UNL A   1      40.207  35.448  37.687  1.00  0.00     0.124 S 
ATOM     70  O   UNL A   1      41.440  35.626  38.450  1.00  0.00    -0.237 OA
ATOM     71  O   UNL A   1      39.874  36.533  36.769  1.00  0.00    -0.237 OA
ATOM     72  O   UNL A   1      39.078  34.909  38.446  1.00  0.00    -0.744 OA
ENDBRANCH  68  69
ENDBRANCH  49  63
BRANCH  50  73
ATOM     73  C   UNL A   1      43.343  24.777  28.271  1.00  0.00    -0.014 A 
ATOM     74  C   UNL A   1      42.812  23.482  28.401  1.00  0.00     0.010 A 
ATOM     75  C   UNL A   1      44.176  25.068  27.175  1.00  0.00     0.010 A 
ATOM     76  C   UNL A   1      43.117  22.495  27.459  1.00  0.00     0.020 A 
ATOM     77  C   UNL A   1      44.461  24.091  26.217  1.00  0.00     0.020 A 
ATOM     78  C   UNL A   1      43.935  22.807  26.369  1.00  0.00     0.054 A 
BRANCH  78  79
ATOM     79  S   UNL A   1      44.261  21.528  25.123  1.00  0.00     0.124 S 
ATOM     80  O   UNL A   1      45.636  21.148  25.428  1.00  0.00    -0.237 OA
ATOM     81  O   UNL A   1      43.243  20.524  25.426  1.00  0.00    -0.237 OA
ATOM     82  O   UNL A   1      44.070  22.231  23.855  1.00  0.00    -0.744 OA
ENDBRANCH  78  79
ENDBRANCH  50  73
BRANCH  62  83
ATOM     83  C   UNL A   1      46.448  26.973  34.126  1.00  0.00    -0.014 A 
ATOM     84  C   UNL A   1      47.716  27.526  33.870  1.00  0.00     0.010 A 
ATOM     85  C   UNL A   1      46.319  25.999  35.134  1.00  0.00     0.010 A 
ATOM     86  C   UNL A   1      48.836  27.090  34.584  1.00  0.00     0.020 A 
ATOM     87  C   UNL A   1      47.430  25.579  35.868  1.00  0.00     0.020 A 
ATOM     88  C   UNL A   1      48.686  26.117  35.578  1.00  0.00     0.054 A 
BRANCH  88  89
ATOM     89  S   UNL A   1      50.148  25.590  36.515  1.00  0.00     0.124 S 
ATOM     90  O   UNL A   1      50.676  26.864  36.995  1.00  0.00    -0.237 OA
ATOM     91  O   UNL A   1      49.576  24.720  37.541  1.00  0.00    -0.237 OA
ATOM     92  O   UNL A   1      50.972  24.909  35.519  1.00  0.00    -0.744 OA
ENDBRANCH  88  89
ENDBRANCH  62  83
ENDBRANCH  36  37
ENDBRANCH  28  31
ENDBRANCH  26  27
ENDBRANCH   1  26
TORSDOF 15
ENDMDL
