MODEL 1
REMARK VINA RESULT:     -11.2      0.000      0.000
REMARK SMILES CC1(C)C(C(=O)Nc2ccc(CC(=O)NCCCNC(=O)c3ccc(-c4c5nc(c(-c6ccc(S(=O)(=O)[O-])cc6)c6ccc([nH]6)c(-c6ccc(S(=O)(=O)[O-])cc6)c6nc(c(-c7ccc(S(=O)(=O)[O-])cc7)c7ccc4[nH]7)C=C6)C=C5)cc3)cc2)C1(C)C
REMARK SMILES IDX 17 1 16 2 15 3 13 4 14 5 12 7 11 8 8 9 9 10 83 11 10 12
REMARK SMILES IDX 82 13 7 14 5 15 6 16 4 18 1 19 2 20 3 21 84 22 85 23 86 24
REMARK SMILES IDX 18 25 19 26 20 27 21 29 22 30 23 31 81 32 24 33 80 34 25 35
REMARK SMILES IDX 26 36 27 37 74 38 28 39 79 40 73 41 75 42 29 43 78 44 72 45
REMARK SMILES IDX 71 46 30 48 60 49 41 50 59 51 42 52 45 53 58 54 76 55 43 56
REMARK SMILES IDX 44 57 57 59 77 60 46 61 31 62 32 63 40 64 33 65 39 66 34 67
REMARK SMILES IDX 35 68 36 69 37 70 38 71 61 72 62 73 70 74 63 75 69 76 64 77
REMARK SMILES IDX 65 78 66 79 67 80 68 81 47 82 48 83 56 84 49 85 55 86 50 87
REMARK SMILES IDX 51 88 52 89 53 90 54 91
REMARK H PARENT 15 6 7 17 19 28 75 47 45 58
REMARK Flexibility Score: inf
ROOT
ATOM      1  C   UNL A   1      32.408  27.674  26.677  1.00  0.00     0.042 C 
ENDROOT
BRANCH   1   2
ATOM      2  C   UNL A   1      31.474  28.523  25.817  1.00  0.00     0.117 C 
BRANCH   2   3
ATOM      3  N   UNL A   1      31.671  28.293  24.399  1.00  0.00    -0.356 N 
ATOM      4  C   UNL A   1      31.085  27.380  23.570  1.00  0.00     0.224 C 
ATOM      5  O   UNL A   1      31.441  27.356  22.389  1.00  0.00    -0.275 OA
ATOM      6  H   UNL A   1      32.328  28.886  23.967  1.00  0.00     0.163 HD
BRANCH   4   7
ATOM      7  C   UNL A   1      29.977  26.476  24.067  1.00  0.00     0.135 C 
BRANCH   7   8
ATOM      8  C   UNL A   1      30.417  25.128  24.576  1.00  0.00    -0.039 A 
ATOM      9  C   UNL A   1      31.612  22.750  25.430  1.00  0.00     0.041 A 
ATOM     10  C   UNL A   1      31.051  23.611  26.372  1.00  0.00     0.026 A 
ATOM     11  C   UNL A   1      31.333  22.942  24.093  1.00  0.00     0.026 A 
ATOM     12  C   UNL A   1      30.435  24.799  25.939  1.00  0.00     0.006 A 
ATOM     13  C   UNL A   1      30.859  24.170  23.665  1.00  0.00     0.006 A 
BRANCH   9  14
ATOM     14  N   UNL A   1      32.546  21.770  25.797  1.00  0.00    -0.326 N 
ATOM     15  C   UNL A   1      33.581  21.352  24.974  1.00  0.00     0.228 C 
ATOM     16  O   UNL A   1      33.589  20.198  24.556  1.00  0.00    -0.274 OA
ATOM     17  H   UNL A   1      32.462  21.356  26.687  1.00  0.00     0.169 HD
BRANCH  15  18
ATOM     18  C   UNL A   1      34.864  22.138  24.867  1.00  0.00     0.091 C 
ATOM     19  C   UNL A   1      36.634  22.837  23.100  1.00  0.00     0.012 C 
ATOM     20  C   UNL A   1      35.301  23.128  23.771  1.00  0.00    -0.017 C 
ATOM     21  C   UNL A   1      34.428  23.863  22.788  1.00  0.00     0.012 C 
ATOM     22  C   UNL A   1      35.253  23.552  25.266  1.00  0.00    -0.017 C 
ATOM     23  C   UNL A   1      36.563  23.723  26.009  1.00  0.00     0.012 C 
ATOM     24  C   UNL A   1      34.234  24.537  25.783  1.00  0.00     0.012 C 
ENDBRANCH  15  18
ENDBRANCH   9  14
ENDBRANCH   7   8
ENDBRANCH   4   7
ENDBRANCH   2   3
ENDBRANCH   1   2
BRANCH   1  25
ATOM     25  C   UNL A   1      33.742  28.330  26.986  1.00  0.00     0.118 C 
BRANCH  25  26
ATOM     26  N   UNL A   1      33.594  29.728  27.346  1.00  0.00    -0.352 N 
ATOM     27  C   UNL A   1      34.442  30.552  28.040  1.00  0.00     0.251 C 
ATOM     28  H   UNL A   1      32.756  30.149  27.045  1.00  0.00     0.163 HD
ATOM     29  O   UNL A   1      34.034  31.646  28.416  1.00  0.00    -0.269 OA
BRANCH  27  30
ATOM     30  C   UNL A   1      35.827  30.126  28.349  1.00  0.00     0.039 A 
ATOM     31  C   UNL A   1      36.786  30.193  27.335  1.00  0.00     0.014 A 
ATOM     32  C   UNL A   1      36.177  29.629  29.608  1.00  0.00     0.014 A 
ATOM     33  C   UNL A   1      38.102  29.807  27.597  1.00  0.00     0.010 A 
ATOM     34  C   UNL A   1      37.506  29.324  29.891  1.00  0.00     0.010 A 
ATOM     35  C   UNL A   1      38.481  29.398  28.886  1.00  0.00    -0.014 A 
BRANCH  35  36
ATOM     36  C   UNL A   1      39.888  29.042  29.196  1.00  0.00     0.031 A 
ATOM     37  C   UNL A   1      40.805  30.053  29.834  1.00  0.00     0.074 A 
ATOM     38  C   UNL A   1      40.355  27.825  28.855  1.00  0.00     0.049 A 
ATOM     39  N   UNL A   1      42.072  29.939  30.137  1.00  0.00    -0.248 NA
ATOM     40  C   UNL A   1      40.228  31.370  30.152  1.00  0.00     0.031 C 
ATOM     41  C   UNL A   1      39.576  26.772  28.201  1.00  0.00     0.029 A 
ATOM     42  N   UNL A   1      41.600  27.268  29.009  1.00  0.00    -0.354 N 
ATOM     43  C   UNL A   1      42.448  31.170  30.665  1.00  0.00     0.074 A 
ATOM     44  C   UNL A   1      41.289  32.031  30.594  1.00  0.00     0.031 C 
ATOM     45  C   UNL A   1      40.351  25.688  28.036  1.00  0.00     0.029 A 
ATOM     46  C   UNL A   1      41.692  25.983  28.529  1.00  0.00     0.049 A 
ATOM     47  H   UNL A   1      42.356  27.744  29.425  1.00  0.00     0.167 HD
ATOM     48  C   UNL A   1      43.645  31.542  31.179  1.00  0.00     0.031 A 
ATOM     49  C   UNL A   1      42.740  25.137  28.482  1.00  0.00     0.031 A 
ATOM     50  C   UNL A   1      44.794  30.680  31.251  1.00  0.00     0.049 A 
ATOM     51  C   UNL A   1      44.064  25.583  29.040  1.00  0.00     0.074 A 
ATOM     52  C   UNL A   1      46.036  30.946  31.802  1.00  0.00     0.029 A 
ATOM     53  N   UNL A   1      44.846  29.385  30.755  1.00  0.00    -0.354 N 
ATOM     54  N   UNL A   1      44.381  26.728  29.597  1.00  0.00    -0.248 NA
ATOM     55  C   UNL A   1      45.170  24.618  28.974  1.00  0.00     0.031 C 
ATOM     56  C   UNL A   1      46.857  29.835  31.585  1.00  0.00     0.029 A 
ATOM     57  C   UNL A   1      46.107  28.850  30.960  1.00  0.00     0.049 A 
ATOM     58  H   UNL A   1      44.098  28.916  30.320  1.00  0.00     0.167 HD
ATOM     59  C   UNL A   1      45.715  26.609  29.972  1.00  0.00     0.074 A 
ATOM     60  C   UNL A   1      46.139  25.277  29.594  1.00  0.00     0.031 C 
ATOM     61  C   UNL A   1      46.516  27.523  30.576  1.00  0.00     0.031 A 
BRANCH  48  62
ATOM     62  C   UNL A   1      43.774  32.954  31.695  1.00  0.00    -0.014 A 
ATOM     63  C   UNL A   1      44.278  33.984  30.879  1.00  0.00     0.010 A 
ATOM     64  C   UNL A   1      43.345  33.264  32.999  1.00  0.00     0.010 A 
ATOM     65  C   UNL A   1      44.391  35.287  31.373  1.00  0.00     0.020 A 
ATOM     66  C   UNL A   1      43.428  34.571  33.486  1.00  0.00     0.020 A 
ATOM     67  C   UNL A   1      43.967  35.572  32.674  1.00  0.00     0.054 A 
BRANCH  67  68
ATOM     68  S   UNL A   1      44.105  37.277  33.278  1.00  0.00     0.124 S 
ATOM     69  O   UNL A   1      43.805  38.048  32.074  1.00  0.00    -0.237 OA
ATOM     70  O   UNL A   1      43.088  37.328  34.326  1.00  0.00    -0.237 OA
ATOM     71  O   UNL A   1      45.485  37.369  33.748  1.00  0.00    -0.744 OA
ENDBRANCH  67  68
ENDBRANCH  48  62
BRANCH  49  72
ATOM     72  C   UNL A   1      42.574  23.779  27.894  1.00  0.00    -0.014 A 
ATOM     73  C   UNL A   1      42.194  22.693  28.703  1.00  0.00     0.010 A 
ATOM     74  C   UNL A   1      42.782  23.565  26.519  1.00  0.00     0.010 A 
ATOM     75  C   UNL A   1      42.048  21.416  28.153  1.00  0.00     0.020 A 
ATOM     76  C   UNL A   1      42.606  22.295  25.960  1.00  0.00     0.020 A 
ATOM     77  C   UNL A   1      42.254  21.226  26.784  1.00  0.00     0.054 A 
BRANCH  77  78
ATOM     78  S   UNL A   1      42.018  19.567  26.091  1.00  0.00     0.124 S 
ATOM     79  O   UNL A   1      42.852  19.616  24.894  1.00  0.00    -0.237 OA
ATOM     80  O   UNL A   1      42.502  18.704  27.165  1.00  0.00    -0.237 OA
ATOM     81  O   UNL A   1      40.578  19.497  25.846  1.00  0.00    -0.744 OA
ENDBRANCH  77  78
ENDBRANCH  49  72
BRANCH  61  82
ATOM     82  C   UNL A   1      47.926  27.103  30.899  1.00  0.00    -0.014 A 
ATOM     83  C   UNL A   1      48.225  26.382  32.069  1.00  0.00     0.010 A 
ATOM     84  C   UNL A   1      48.960  27.387  29.987  1.00  0.00     0.010 A 
ATOM     85  C   UNL A   1      49.537  25.984  32.337  1.00  0.00     0.020 A 
ATOM     86  C   UNL A   1      50.267  26.962  30.236  1.00  0.00     0.020 A 
ATOM     87  C   UNL A   1      50.551  26.275  31.417  1.00  0.00     0.054 A 
BRANCH  87  88
ATOM     88  S   UNL A   1      52.237  25.707  31.768  1.00  0.00     0.124 S 
ATOM     89  O   UNL A   1      52.019  24.307  32.122  1.00  0.00    -0.237 OA
ATOM     90  O   UNL A   1      52.922  25.934  30.497  1.00  0.00    -0.237 OA
ATOM     91  O   UNL A   1      52.673  26.567  32.866  1.00  0.00    -0.744 OA
ENDBRANCH  87  88
ENDBRANCH  61  82
ENDBRANCH  35  36
ENDBRANCH  27  30
ENDBRANCH  25  26
ENDBRANCH   1  25
TORSDOF 16
ENDMDL
MODEL 2
REMARK VINA RESULT:     -11.1      2.516      9.168
REMARK SMILES CC1(C)C(C(=O)Nc2ccc(CC(=O)NCCCNC(=O)c3ccc(-c4c5nc(c(-c6ccc(S(=O)(=O)[O-])cc6)c6ccc([nH]6)c(-c6ccc(S(=O)(=O)[O-])cc6)c6nc(c(-c7ccc(S(=O)(=O)[O-])cc7)c7ccc4[nH]7)C=C6)C=C5)cc3)cc2)C1(C)C
REMARK SMILES IDX 17 1 16 2 15 3 13 4 14 5 12 7 11 8 8 9 9 10 83 11 10 12
REMARK SMILES IDX 82 13 7 14 5 15 6 16 4 18 1 19 2 20 3 21 84 22 85 23 86 24
REMARK SMILES IDX 18 25 19 26 20 27 21 29 22 30 23 31 81 32 24 33 80 34 25 35
REMARK SMILES IDX 26 36 27 37 74 38 28 39 79 40 73 41 75 42 29 43 78 44 72 45
REMARK SMILES IDX 71 46 30 48 60 49 41 50 59 51 42 52 45 53 58 54 76 55 43 56
REMARK SMILES IDX 44 57 57 59 77 60 46 61 31 62 32 63 40 64 33 65 39 66 34 67
REMARK SMILES IDX 35 68 36 69 37 70 38 71 61 72 62 73 70 74 63 75 69 76 64 77
REMARK SMILES IDX 65 78 66 79 67 80 68 81 47 82 48 83 56 84 49 85 55 86 50 87
REMARK SMILES IDX 51 88 52 89 53 90 54 91
REMARK H PARENT 15 6 7 17 19 28 75 47 45 58
REMARK Flexibility Score: inf
ROOT
ATOM      1  C   UNL A   1      35.125  23.588  24.919  1.00  0.00     0.042 C 
ENDROOT
BRANCH   1   2
ATOM      2  C   UNL A   1      35.110  22.097  24.586  1.00  0.00     0.117 C 
BRANCH   2   3
ATOM      3  N   UNL A   1      33.980  21.413  25.184  1.00  0.00    -0.356 N 
ATOM      4  C   UNL A   1      32.773  21.075  24.642  1.00  0.00     0.224 C 
ATOM      5  O   UNL A   1      31.948  20.513  25.367  1.00  0.00    -0.275 OA
ATOM      6  H   UNL A   1      34.101  21.152  26.126  1.00  0.00     0.163 HD
BRANCH   4   7
ATOM      7  C   UNL A   1      32.485  21.313  23.174  1.00  0.00     0.135 C 
BRANCH   7   8
ATOM      8  C   UNL A   1      32.097  22.722  22.809  1.00  0.00    -0.039 A 
ATOM      9  C   UNL A   1      31.491  25.434  22.511  1.00  0.00     0.041 A 
ATOM     10  C   UNL A   1      32.573  24.895  21.819  1.00  0.00     0.026 A 
ATOM     11  C   UNL A   1      30.582  24.584  23.105  1.00  0.00     0.026 A 
ATOM     12  C   UNL A   1      32.868  23.526  21.957  1.00  0.00     0.006 A 
ATOM     13  C   UNL A   1      30.943  23.273  23.363  1.00  0.00     0.006 A 
BRANCH   9  14
ATOM     14  N   UNL A   1      31.368  26.816  22.718  1.00  0.00    -0.326 N 
ATOM     15  C   UNL A   1      30.770  27.372  23.840  1.00  0.00     0.228 C 
ATOM     16  O   UNL A   1      29.731  28.011  23.713  1.00  0.00    -0.274 OA
ATOM     17  H   UNL A   1      31.725  27.424  22.030  1.00  0.00     0.169 HD
BRANCH  15  18
ATOM     18  C   UNL A   1      31.527  27.526  25.136  1.00  0.00     0.091 C 
ATOM     19  C   UNL A   1      33.820  26.918  26.192  1.00  0.00     0.012 C 
ATOM     20  C   UNL A   1      33.007  27.891  25.353  1.00  0.00    -0.017 C 
ATOM     21  C   UNL A   1      33.941  28.576  24.390  1.00  0.00     0.012 C 
ATOM     22  C   UNL A   1      31.869  28.726  26.003  1.00  0.00    -0.017 C 
ATOM     23  C   UNL A   1      31.636  28.588  27.495  1.00  0.00     0.012 C 
ATOM     24  C   UNL A   1      31.562  30.135  25.561  1.00  0.00     0.012 C 
ENDBRANCH  15  18
ENDBRANCH   9  14
ENDBRANCH   7   8
ENDBRANCH   4   7
ENDBRANCH   2   3
ENDBRANCH   1   2
BRANCH   1  25
ATOM     25  C   UNL A   1      36.384  24.058  25.625  1.00  0.00     0.118 C 
BRANCH  25  26
ATOM     26  N   UNL A   1      37.387  23.012  25.711  1.00  0.00    -0.352 N 
ATOM     27  C   UNL A   1      38.684  23.071  26.152  1.00  0.00     0.251 C 
ATOM     28  H   UNL A   1      37.090  22.124  25.404  1.00  0.00     0.163 HD
ATOM     29  O   UNL A   1      39.426  22.116  25.946  1.00  0.00    -0.269 OA
BRANCH  27  30
ATOM     30  C   UNL A   1      39.191  24.274  26.852  1.00  0.00     0.039 A 
ATOM     31  C   UNL A   1      39.970  25.184  26.133  1.00  0.00     0.014 A 
ATOM     32  C   UNL A   1      38.941  24.491  28.210  1.00  0.00     0.014 A 
ATOM     33  C   UNL A   1      40.456  26.331  26.762  1.00  0.00     0.010 A 
ATOM     34  C   UNL A   1      39.355  25.676  28.814  1.00  0.00     0.010 A 
ATOM     35  C   UNL A   1      40.127  26.604  28.100  1.00  0.00    -0.014 A 
BRANCH  35  36
ATOM     36  C   UNL A   1      40.585  27.849  28.766  1.00  0.00     0.031 A 
ATOM     37  C   UNL A   1      41.969  27.931  29.355  1.00  0.00     0.074 A 
ATOM     38  C   UNL A   1      39.735  28.887  28.887  1.00  0.00     0.049 A 
ATOM     39  N   UNL A   1      42.527  28.915  30.011  1.00  0.00    -0.248 NA
ATOM     40  C   UNL A   1      42.829  26.746  29.205  1.00  0.00     0.031 C 
ATOM     41  C   UNL A   1      38.358  28.916  28.391  1.00  0.00     0.029 A 
ATOM     42  N   UNL A   1      39.902  30.119  29.469  1.00  0.00    -0.354 N 
ATOM     43  C   UNL A   1      43.794  28.464  30.366  1.00  0.00     0.074 A 
ATOM     44  C   UNL A   1      43.903  27.101  29.896  1.00  0.00     0.031 C 
ATOM     45  C   UNL A   1      37.816  30.114  28.663  1.00  0.00     0.029 A 
ATOM     46  C   UNL A   1      38.789  30.922  29.392  1.00  0.00     0.049 A 
ATOM     47  H   UNL A   1      40.742  30.402  29.901  1.00  0.00     0.167 HD
ATOM     48  C   UNL A   1      44.783  29.131  31.008  1.00  0.00     0.031 A 
ATOM     49  C   UNL A   1      38.570  32.165  29.863  1.00  0.00     0.031 A 
ATOM     50  C   UNL A   1      44.670  30.490  31.469  1.00  0.00     0.049 A 
ATOM     51  C   UNL A   1      39.676  32.876  30.592  1.00  0.00     0.074 A 
ATOM     52  C   UNL A   1      45.633  31.272  32.083  1.00  0.00     0.029 A 
ATOM     53  N   UNL A   1      43.526  31.268  31.371  1.00  0.00    -0.354 N 
ATOM     54  N   UNL A   1      40.891  32.456  30.858  1.00  0.00    -0.248 NA
ATOM     55  C   UNL A   1      39.388  34.233  31.074  1.00  0.00     0.031 C 
ATOM     56  C   UNL A   1      45.053  32.502  32.411  1.00  0.00     0.029 A 
ATOM     57  C   UNL A   1      43.749  32.511  31.940  1.00  0.00     0.049 A 
ATOM     58  H   UNL A   1      42.680  30.979  30.960  1.00  0.00     0.167 HD
ATOM     59  C   UNL A   1      41.519  33.510  31.514  1.00  0.00     0.074 A 
ATOM     60  C   UNL A   1      40.557  34.589  31.589  1.00  0.00     0.031 C 
ATOM     61  C   UNL A   1      42.780  33.575  32.010  1.00  0.00     0.031 A 
BRANCH  48  62
ATOM     62  C   UNL A   1      46.074  28.393  31.261  1.00  0.00    -0.014 A 
ATOM     63  C   UNL A   1      46.208  27.512  32.350  1.00  0.00     0.010 A 
ATOM     64  C   UNL A   1      47.153  28.548  30.372  1.00  0.00     0.010 A 
ATOM     65  C   UNL A   1      47.411  26.835  32.570  1.00  0.00     0.020 A 
ATOM     66  C   UNL A   1      48.347  27.850  30.570  1.00  0.00     0.020 A 
ATOM     67  C   UNL A   1      48.474  27.010  31.679  1.00  0.00     0.054 A 
BRANCH  67  68
ATOM     68  S   UNL A   1      50.015  26.100  31.978  1.00  0.00     0.124 S 
ATOM     69  O   UNL A   1      51.024  27.080  31.583  1.00  0.00    -0.237 OA
ATOM     70  O   UNL A   1      49.945  25.813  33.408  1.00  0.00    -0.237 OA
ATOM     71  O   UNL A   1      49.905  24.934  31.104  1.00  0.00    -0.744 OA
ENDBRANCH  67  68
ENDBRANCH  48  62
BRANCH  49  72
ATOM     72  C   UNL A   1      37.249  32.819  29.648  1.00  0.00    -0.014 A 
ATOM     73  C   UNL A   1      36.286  32.837  30.673  1.00  0.00     0.010 A 
ATOM     74  C   UNL A   1      36.951  33.441  28.421  1.00  0.00     0.010 A 
ATOM     75  C   UNL A   1      35.043  33.443  30.467  1.00  0.00     0.020 A 
ATOM     76  C   UNL A   1      35.721  34.074  28.223  1.00  0.00     0.020 A 
ATOM     77  C   UNL A   1      34.769  34.059  29.243  1.00  0.00     0.054 A 
BRANCH  77  78
ATOM     78  S   UNL A   1      33.163  34.873  29.019  1.00  0.00     0.124 S 
ATOM     79  O   UNL A   1      33.555  36.177  28.494  1.00  0.00    -0.237 OA
ATOM     80  O   UNL A   1      32.490  33.986  28.073  1.00  0.00    -0.237 OA
ATOM     81  O   UNL A   1      32.593  34.886  30.364  1.00  0.00    -0.744 OA
ENDBRANCH  77  78
ENDBRANCH  49  72
BRANCH  61  82
ATOM     82  C   UNL A   1      43.207  34.871  32.648  1.00  0.00    -0.014 A 
ATOM     83  C   UNL A   1      43.872  35.867  31.910  1.00  0.00     0.010 A 
ATOM     84  C   UNL A   1      42.889  35.117  33.998  1.00  0.00     0.010 A 
ATOM     85  C   UNL A   1      44.239  37.070  32.517  1.00  0.00     0.020 A 
ATOM     86  C   UNL A   1      43.226  36.332  34.600  1.00  0.00     0.020 A 
ATOM     87  C   UNL A   1      43.912  37.296  33.859  1.00  0.00     0.054 A 
BRANCH  87  88
ATOM     88  S   UNL A   1      44.360  38.885  34.611  1.00  0.00     0.124 S 
ATOM     89  O   UNL A   1      44.315  38.571  36.036  1.00  0.00    -0.237 OA
ATOM     90  O   UNL A   1      45.692  39.134  34.063  1.00  0.00    -0.237 OA
ATOM     91  O   UNL A   1      43.320  39.797  34.140  1.00  0.00    -0.744 OA
ENDBRANCH  87  88
ENDBRANCH  61  82
ENDBRANCH  35  36
ENDBRANCH  27  30
ENDBRANCH  25  26
ENDBRANCH   1  25
TORSDOF 16
ENDMDL
MODEL 3
REMARK VINA RESULT:     -11.1      4.442     10.192
REMARK SMILES CC1(C)C(C(=O)Nc2ccc(CC(=O)NCCCNC(=O)c3ccc(-c4c5nc(c(-c6ccc(S(=O)(=O)[O-])cc6)c6ccc([nH]6)c(-c6ccc(S(=O)(=O)[O-])cc6)c6nc(c(-c7ccc(S(=O)(=O)[O-])cc7)c7ccc4[nH]7)C=C6)C=C5)cc3)cc2)C1(C)C
REMARK SMILES IDX 17 1 16 2 15 3 13 4 14 5 12 7 11 8 8 9 9 10 83 11 10 12
REMARK SMILES IDX 82 13 7 14 5 15 6 16 4 18 1 19 2 20 3 21 84 22 85 23 86 24
REMARK SMILES IDX 18 25 19 26 20 27 21 29 22 30 23 31 81 32 24 33 80 34 25 35
REMARK SMILES IDX 26 36 27 37 74 38 28 39 79 40 73 41 75 42 29 43 78 44 72 45
REMARK SMILES IDX 71 46 30 48 60 49 41 50 59 51 42 52 45 53 58 54 76 55 43 56
REMARK SMILES IDX 44 57 57 59 77 60 46 61 31 62 32 63 40 64 33 65 39 66 34 67
REMARK SMILES IDX 35 68 36 69 37 70 38 71 61 72 62 73 70 74 63 75 69 76 64 77
REMARK SMILES IDX 65 78 66 79 67 80 68 81 47 82 48 83 56 84 49 85 55 86 50 87
REMARK SMILES IDX 51 88 52 89 53 90 54 91
REMARK H PARENT 15 6 7 17 19 28 75 47 45 58
REMARK Flexibility Score: inf
ROOT
ATOM      1  C   UNL A   1      39.941  22.354  26.519  1.00  0.00     0.042 C 
ENDROOT
BRANCH   1   2
ATOM      2  C   UNL A   1      38.579  23.040  26.598  1.00  0.00     0.117 C 
BRANCH   2   3
ATOM      3  N   UNL A   1      38.009  23.285  25.287  1.00  0.00    -0.356 N 
ATOM      4  C   UNL A   1      37.231  22.480  24.506  1.00  0.00     0.224 C 
ATOM      5  O   UNL A   1      36.886  22.902  23.400  1.00  0.00    -0.275 OA
ATOM      6  H   UNL A   1      38.215  24.167  24.901  1.00  0.00     0.163 HD
BRANCH   4   7
ATOM      7  C   UNL A   1      36.742  21.139  25.014  1.00  0.00     0.135 C 
BRANCH   7   8
ATOM      8  C   UNL A   1      35.286  21.082  25.398  1.00  0.00    -0.039 A 
ATOM      9  C   UNL A   1      32.563  21.357  25.963  1.00  0.00     0.041 A 
ATOM     10  C   UNL A   1      32.968  20.485  24.953  1.00  0.00     0.026 A 
ATOM     11  C   UNL A   1      33.504  21.854  26.839  1.00  0.00     0.026 A 
ATOM     12  C   UNL A   1      34.339  20.336  24.681  1.00  0.00     0.006 A 
ATOM     13  C   UNL A   1      34.843  21.826  26.489  1.00  0.00     0.006 A 
BRANCH   9  14
ATOM     14  N   UNL A   1      31.245  21.832  26.036  1.00  0.00    -0.326 N 
ATOM     15  C   UNL A   1      30.922  23.167  26.227  1.00  0.00     0.228 C 
ATOM     16  O   UNL A   1      30.354  23.507  27.260  1.00  0.00    -0.274 OA
ATOM     17  H   UNL A   1      30.510  21.183  25.946  1.00  0.00     0.169 HD
BRANCH  15  18
ATOM     18  C   UNL A   1      30.916  24.146  25.078  1.00  0.00     0.091 C 
ATOM     19  C   UNL A   1      29.783  26.367  24.355  1.00  0.00     0.012 C 
ATOM     20  C   UNL A   1      30.905  25.685  25.121  1.00  0.00    -0.017 C 
ATOM     21  C   UNL A   1      31.310  26.581  26.262  1.00  0.00     0.012 C 
ATOM     22  C   UNL A   1      32.016  24.909  24.359  1.00  0.00    -0.017 C 
ATOM     23  C   UNL A   1      31.980  24.904  22.843  1.00  0.00     0.012 C 
ATOM     24  C   UNL A   1      33.445  24.882  24.841  1.00  0.00     0.012 C 
ENDBRANCH  15  18
ENDBRANCH   9  14
ENDBRANCH   7   8
ENDBRANCH   4   7
ENDBRANCH   2   3
ENDBRANCH   1   2
BRANCH   1  25
ATOM     25  C   UNL A   1      41.094  23.189  27.047  1.00  0.00     0.118 C 
BRANCH  25  26
ATOM     26  N   UNL A   1      41.771  23.917  25.990  1.00  0.00    -0.352 N 
ATOM     27  C   UNL A   1      42.013  25.261  25.863  1.00  0.00     0.251 C 
ATOM     28  H   UNL A   1      42.107  23.361  25.249  1.00  0.00     0.163 HD
ATOM     29  O   UNL A   1      42.420  25.694  24.790  1.00  0.00    -0.269 OA
BRANCH  27  30
ATOM     30  C   UNL A   1      41.774  26.183  26.998  1.00  0.00     0.039 A 
ATOM     31  C   UNL A   1      40.724  25.900  27.876  1.00  0.00     0.014 A 
ATOM     32  C   UNL A   1      42.544  27.335  27.181  1.00  0.00     0.014 A 
ATOM     33  C   UNL A   1      40.479  26.745  28.960  1.00  0.00     0.010 A 
ATOM     34  C   UNL A   1      42.351  28.130  28.308  1.00  0.00     0.010 A 
ATOM     35  C   UNL A   1      41.309  27.851  29.204  1.00  0.00    -0.014 A 
BRANCH  35  36
ATOM     36  C   UNL A   1      41.099  28.724  30.385  1.00  0.00     0.031 A 
ATOM     37  C   UNL A   1      41.957  28.563  31.612  1.00  0.00     0.074 A 
ATOM     38  C   UNL A   1      40.100  29.629  30.372  1.00  0.00     0.049 A 
ATOM     39  N   UNL A   1      41.892  29.201  32.752  1.00  0.00    -0.248 NA
ATOM     40  C   UNL A   1      43.010  27.535  31.559  1.00  0.00     0.031 C 
ATOM     41  C   UNL A   1      39.177  29.855  29.258  1.00  0.00     0.029 A 
ATOM     42  N   UNL A   1      39.689  30.524  31.328  1.00  0.00    -0.354 N 
ATOM     43  C   UNL A   1      42.881  28.644  33.555  1.00  0.00     0.074 A 
ATOM     44  C   UNL A   1      43.498  27.583  32.791  1.00  0.00     0.031 C 
ATOM     45  C   UNL A   1      38.330  30.845  29.581  1.00  0.00     0.029 A 
ATOM     46  C   UNL A   1      38.616  31.292  30.941  1.00  0.00     0.049 A 
ATOM     47  H   UNL A   1      40.123  30.609  32.209  1.00  0.00     0.167 HD
ATOM     48  C   UNL A   1      43.255  28.997  34.809  1.00  0.00     0.031 A 
ATOM     49  C   UNL A   1      37.932  32.242  31.607  1.00  0.00     0.031 A 
ATOM     50  C   UNL A   1      42.641  30.057  35.564  1.00  0.00     0.049 A 
ATOM     51  C   UNL A   1      38.353  32.601  33.005  1.00  0.00     0.074 A 
ATOM     52  C   UNL A   1      42.982  30.527  36.820  1.00  0.00     0.029 A 
ATOM     53  N   UNL A   1      41.558  30.811  35.135  1.00  0.00    -0.354 N 
ATOM     54  N   UNL A   1      39.335  32.109  33.722  1.00  0.00    -0.248 NA
ATOM     55  C   UNL A   1      37.581  33.652  33.681  1.00  0.00     0.031 C 
ATOM     56  C   UNL A   1      42.067  31.524  37.177  1.00  0.00     0.029 A 
ATOM     57  C   UNL A   1      41.199  31.722  36.114  1.00  0.00     0.049 A 
ATOM     58  H   UNL A   1      41.110  30.713  34.265  1.00  0.00     0.167 HD
ATOM     59  C   UNL A   1      39.315  32.811  34.923  1.00  0.00     0.074 A 
ATOM     60  C   UNL A   1      38.235  33.771  34.828  1.00  0.00     0.031 C 
ATOM     61  C   UNL A   1      40.119  32.671  36.007  1.00  0.00     0.031 A 
BRANCH  48  62
ATOM     62  C   UNL A   1      44.377  28.218  35.449  1.00  0.00    -0.014 A 
ATOM     63  C   UNL A   1      45.716  28.633  35.323  1.00  0.00     0.010 A 
ATOM     64  C   UNL A   1      44.085  27.081  36.225  1.00  0.00     0.010 A 
ATOM     65  C   UNL A   1      46.744  27.900  35.923  1.00  0.00     0.020 A 
ATOM     66  C   UNL A   1      45.107  26.364  36.852  1.00  0.00     0.020 A 
ATOM     67  C   UNL A   1      46.433  26.769  36.682  1.00  0.00     0.054 A 
BRANCH  67  68
ATOM     68  S   UNL A   1      47.787  25.852  37.468  1.00  0.00     0.124 S 
ATOM     69  O   UNL A   1      48.815  26.882  37.592  1.00  0.00    -0.237 OA
ATOM     70  O   UNL A   1      47.187  25.410  38.725  1.00  0.00    -0.237 OA
ATOM     71  O   UNL A   1      48.086  24.786  36.514  1.00  0.00    -0.744 OA
ENDBRANCH  67  68
ENDBRANCH  48  62
BRANCH  49  72
ATOM     72  C   UNL A   1      36.785  32.930  30.951  1.00  0.00    -0.014 A 
ATOM     73  C   UNL A   1      37.008  33.923  29.981  1.00  0.00     0.010 A 
ATOM     74  C   UNL A   1      35.461  32.586  31.283  1.00  0.00     0.010 A 
ATOM     75  C   UNL A   1      35.931  34.575  29.374  1.00  0.00     0.020 A 
ATOM     76  C   UNL A   1      34.382  33.214  30.655  1.00  0.00     0.020 A 
ATOM     77  C   UNL A   1      34.625  34.215  29.713  1.00  0.00     0.054 A 
BRANCH  77  78
ATOM     78  S   UNL A   1      33.247  35.049  28.879  1.00  0.00     0.124 S 
ATOM     79  O   UNL A   1      32.709  33.983  28.040  1.00  0.00    -0.237 OA
ATOM     80  O   UNL A   1      32.403  35.460  29.998  1.00  0.00    -0.237 OA
ATOM     81  O   UNL A   1      33.892  36.145  28.160  1.00  0.00    -0.744 OA
ENDBRANCH  77  78
ENDBRANCH  49  72
BRANCH  61  82
ATOM     82  C   UNL A   1      39.886  33.602  37.168  1.00  0.00    -0.014 A 
ATOM     83  C   UNL A   1      40.409  34.908  37.175  1.00  0.00     0.010 A 
ATOM     84  C   UNL A   1      39.083  33.181  38.245  1.00  0.00     0.010 A 
ATOM     85  C   UNL A   1      40.162  35.762  38.253  1.00  0.00     0.020 A 
ATOM     86  C   UNL A   1      38.807  34.042  39.308  1.00  0.00     0.020 A 
ATOM     87  C   UNL A   1      39.360  35.324  39.313  1.00  0.00     0.054 A 
BRANCH  87  88
ATOM     88  S   UNL A   1      39.017  36.468  40.677  1.00  0.00     0.124 S 
ATOM     89  O   UNL A   1      38.669  37.695  39.966  1.00  0.00    -0.237 OA
ATOM     90  O   UNL A   1      37.914  35.812  41.376  1.00  0.00    -0.237 OA
ATOM     91  O   UNL A   1      40.276  36.513  41.418  1.00  0.00    -0.744 OA
ENDBRANCH  87  88
ENDBRANCH  61  82
ENDBRANCH  35  36
ENDBRANCH  27  30
ENDBRANCH  25  26
ENDBRANCH   1  25
TORSDOF 16
ENDMDL
