MODEL 1
REMARK VINA RESULT:     -12.0      0.000      0.000
REMARK SMILES O=C(CCn1ccnc1)N[C@H]1C=C[C@H](C(=O)NCCCNC(=O)c2ccc(-c3c4nc(c(-c5ccc(S(=O)(=O)[O-])cc5)c5ccc([nH]5)c(-c5ccc(S(=O)(=O)[O-])cc5)c5nc(c(-c6ccc(S(=O)(=O)[O-])cc6)c6ccc3[nH]6)C=C5)C=C4)cc2)C1
REMARK SMILES IDX 18 1 17 2 15 3 16 4 14 6 11 7 12 8 84 9 13 10 10 11 1 12
REMARK SMILES IDX 2 13 3 15 4 16 5 17 6 18 9 19 7 20 8 21 19 22 20 23 21 24
REMARK SMILES IDX 22 25 23 27 24 28 25 29 83 30 26 31 82 32 27 33 28 34 29 35
REMARK SMILES IDX 76 36 30 37 81 38 75 39 77 40 31 41 80 42 74 43 73 44 32 46
REMARK SMILES IDX 62 47 43 48 61 49 44 50 47 51 60 52 78 53 45 54 46 55 59 57
REMARK SMILES IDX 79 58 48 59 33 60 34 61 42 62 35 63 41 64 36 65 37 66 38 67
REMARK SMILES IDX 39 68 40 69 63 70 64 71 72 72 65 73 71 74 66 75 67 76 68 77
REMARK SMILES IDX 69 78 70 79 49 80 50 81 58 82 51 83 57 84 52 85 53 86 54 87
REMARK SMILES IDX 55 88 56 89
REMARK H PARENT 17 5 10 14 21 26 77 45 47 56
REMARK Flexibility Score: inf
ROOT
ATOM      1  C   UNL A   1      35.079  21.689  25.303  1.00  0.00     0.117 C 
ENDROOT
BRANCH   1   2
ATOM      2  N   UNL A   1      34.950  22.091  23.910  1.00  0.00    -0.356 N 
ATOM      3  C   UNL A   1      34.333  23.194  23.377  1.00  0.00     0.227 C 
ATOM      4  O   UNL A   1      34.449  23.406  22.171  1.00  0.00    -0.274 OA
ATOM      5  H   UNL A   1      35.367  21.484  23.256  1.00  0.00     0.163 HD
BRANCH   3   6
ATOM      6  C   UNL A   1      33.537  24.102  24.315  1.00  0.00     0.103 C 
ATOM      7  C   UNL A   1      32.340  26.039  23.361  1.00  0.00     0.106 C 
ATOM      8  C   UNL A   1      33.544  26.452  24.147  1.00  0.00    -0.006 C 
ATOM      9  C   UNL A   1      32.222  24.542  23.665  1.00  0.00     0.047 C 
ATOM     10  C   UNL A   1      34.203  25.401  24.646  1.00  0.00    -0.016 C 
BRANCH   7  11
ATOM     11  N   UNL A   1      31.232  26.864  23.791  1.00  0.00    -0.350 N 
ATOM     12  O   UNL A   1      30.665  27.800  21.768  1.00  0.00    -0.275 OA
ATOM     13  C   UNL A   1      30.482  27.674  22.976  1.00  0.00     0.222 C 
ATOM     14  H   UNL A   1      30.997  26.843  24.747  1.00  0.00     0.164 HD
BRANCH  13  15
ATOM     15  C   UNL A   1      29.381  28.451  23.671  1.00  0.00     0.122 C 
BRANCH  15  16
ATOM     16  C   UNL A   1      28.181  28.753  22.774  1.00  0.00     0.133 C 
BRANCH  16  17
ATOM     17  N   UNL A   1      28.026  30.162  22.466  1.00  0.00    -0.337 N 
ATOM     18  C   UNL A   1      28.366  30.776  21.292  1.00  0.00     0.107 A 
ATOM     19  C   UNL A   1      27.635  31.135  23.343  1.00  0.00     0.199 A 
ATOM     20  C   UNL A   1      28.226  32.120  21.541  1.00  0.00     0.130 A 
ATOM     21  N   UNL A   1      27.767  32.330  22.815  1.00  0.00    -0.245 NA
ENDBRANCH  16  17
ENDBRANCH  15  16
ENDBRANCH  13  15
ENDBRANCH   7  11
ENDBRANCH   3   6
ENDBRANCH   1   2
BRANCH   1  22
ATOM     22  C   UNL A   1      36.021  22.574  26.124  1.00  0.00     0.042 C 
BRANCH  22  23
ATOM     23  C   UNL A   1      37.416  22.696  25.528  1.00  0.00     0.118 C 
BRANCH  23  24
ATOM     24  N   UNL A   1      38.378  21.767  26.125  1.00  0.00    -0.352 N 
ATOM     25  C   UNL A   1      39.617  22.042  26.665  1.00  0.00     0.251 C 
ATOM     26  H   UNL A   1      38.102  20.823  26.145  1.00  0.00     0.163 HD
ATOM     27  O   UNL A   1      40.441  21.137  26.799  1.00  0.00    -0.269 OA
BRANCH  25  28
ATOM     28  C   UNL A   1      39.954  23.422  27.060  1.00  0.00     0.039 A 
ATOM     29  C   UNL A   1      39.020  24.456  26.939  1.00  0.00     0.014 A 
ATOM     30  C   UNL A   1      41.222  23.678  27.577  1.00  0.00     0.014 A 
ATOM     31  C   UNL A   1      39.340  25.720  27.434  1.00  0.00     0.010 A 
ATOM     32  C   UNL A   1      41.483  24.878  28.192  1.00  0.00     0.010 A 
ATOM     33  C   UNL A   1      40.566  25.918  28.089  1.00  0.00    -0.014 A 
BRANCH  33  34
ATOM     34  C   UNL A   1      40.846  27.170  28.790  1.00  0.00     0.031 A 
ATOM     35  C   UNL A   1      41.978  27.953  28.224  1.00  0.00     0.074 A 
ATOM     36  C   UNL A   1      40.019  27.714  29.708  1.00  0.00     0.049 A 
ATOM     37  N   UNL A   1      43.140  28.153  28.749  1.00  0.00    -0.248 NA
ATOM     38  C   UNL A   1      41.857  28.449  26.842  1.00  0.00     0.031 C 
ATOM     39  C   UNL A   1      38.698  27.233  30.131  1.00  0.00     0.029 A 
ATOM     40  N   UNL A   1      40.128  28.899  30.371  1.00  0.00    -0.354 N 
ATOM     41  C   UNL A   1      43.814  29.003  27.875  1.00  0.00     0.074 A 
ATOM     42  C   UNL A   1      43.068  28.972  26.642  1.00  0.00     0.031 C 
ATOM     43  C   UNL A   1      38.039  28.222  30.772  1.00  0.00     0.029 A 
ATOM     44  C   UNL A   1      38.946  29.339  30.961  1.00  0.00     0.049 A 
ATOM     45  H   UNL A   1      40.972  29.403  30.427  1.00  0.00     0.167 HD
ATOM     46  C   UNL A   1      44.772  29.866  28.317  1.00  0.00     0.031 A 
ATOM     47  C   UNL A   1      38.719  30.546  31.538  1.00  0.00     0.031 A 
ATOM     48  C   UNL A   1      45.162  29.565  29.674  1.00  0.00     0.049 A 
ATOM     49  C   UNL A   1      40.042  31.121  31.873  1.00  0.00     0.074 A 
ATOM     50  C   UNL A   1      45.695  28.468  30.319  1.00  0.00     0.029 A 
ATOM     51  N   UNL A   1      44.631  30.367  30.657  1.00  0.00    -0.354 N 
ATOM     52  N   UNL A   1      40.836  30.618  32.776  1.00  0.00    -0.248 NA
ATOM     53  C   UNL A   1      40.677  32.007  30.911  1.00  0.00     0.031 C 
ATOM     54  C   UNL A   1      45.054  28.443  31.593  1.00  0.00     0.029 A 
ATOM     55  C   UNL A   1      44.226  29.564  31.688  1.00  0.00     0.049 A 
ATOM     56  H   UNL A   1      44.554  31.349  30.624  1.00  0.00     0.167 HD
ATOM     57  C   UNL A   1      42.108  30.751  32.240  1.00  0.00     0.074 A 
ATOM     58  C   UNL A   1      41.959  31.719  31.156  1.00  0.00     0.031 C 
ATOM     59  C   UNL A   1      43.092  29.853  32.542  1.00  0.00     0.031 A 
BRANCH  46  60
ATOM     60  C   UNL A   1      45.041  31.226  27.707  1.00  0.00    -0.014 A 
ATOM     61  C   UNL A   1      46.363  31.542  27.323  1.00  0.00     0.010 A 
ATOM     62  C   UNL A   1      44.124  32.296  27.752  1.00  0.00     0.010 A 
ATOM     63  C   UNL A   1      46.762  32.866  27.093  1.00  0.00     0.020 A 
ATOM     64  C   UNL A   1      44.500  33.613  27.479  1.00  0.00     0.020 A 
ATOM     65  C   UNL A   1      45.828  33.894  27.189  1.00  0.00     0.054 A 
BRANCH  65  66
ATOM     66  S   UNL A   1      46.371  35.608  26.992  1.00  0.00     0.124 S 
ATOM     67  O   UNL A   1      45.544  36.299  27.975  1.00  0.00    -0.237 OA
ATOM     68  O   UNL A   1      47.794  35.518  27.309  1.00  0.00    -0.237 OA
ATOM     69  O   UNL A   1      46.067  35.904  25.594  1.00  0.00    -0.744 OA
ENDBRANCH  65  66
ENDBRANCH  46  60
BRANCH  47  70
ATOM     70  C   UNL A   1      37.468  31.342  31.608  1.00  0.00    -0.014 A 
ATOM     71  C   UNL A   1      36.758  31.457  32.819  1.00  0.00     0.010 A 
ATOM     72  C   UNL A   1      37.131  32.230  30.566  1.00  0.00     0.010 A 
ATOM     73  C   UNL A   1      35.813  32.478  33.014  1.00  0.00     0.020 A 
ATOM     74  C   UNL A   1      36.182  33.246  30.750  1.00  0.00     0.020 A 
ATOM     75  C   UNL A   1      35.551  33.385  31.985  1.00  0.00     0.054 A 
BRANCH  75  76
ATOM     76  S   UNL A   1      34.499  34.831  32.316  1.00  0.00     0.124 S 
ATOM     77  O   UNL A   1      33.386  34.245  33.057  1.00  0.00    -0.237 OA
ATOM     78  O   UNL A   1      35.385  35.699  33.087  1.00  0.00    -0.237 OA
ATOM     79  O   UNL A   1      34.164  35.326  30.981  1.00  0.00    -0.744 OA
ENDBRANCH  75  76
ENDBRANCH  47  70
BRANCH  59  80
ATOM     80  C   UNL A   1      42.894  28.938  33.729  1.00  0.00    -0.014 A 
ATOM     81  C   UNL A   1      43.304  29.239  35.043  1.00  0.00     0.010 A 
ATOM     82  C   UNL A   1      42.141  27.769  33.517  1.00  0.00     0.010 A 
ATOM     83  C   UNL A   1      43.001  28.373  36.106  1.00  0.00     0.020 A 
ATOM     84  C   UNL A   1      41.816  26.915  34.572  1.00  0.00     0.020 A 
ATOM     85  C   UNL A   1      42.260  27.213  35.860  1.00  0.00     0.054 A 
BRANCH  85  86
ATOM     86  S   UNL A   1      41.846  26.106  37.237  1.00  0.00     0.124 S 
ATOM     87  O   UNL A   1      40.518  26.568  37.629  1.00  0.00    -0.237 OA
ATOM     88  O   UNL A   1      41.894  24.783  36.618  1.00  0.00    -0.237 OA
ATOM     89  O   UNL A   1      42.901  26.358  38.217  1.00  0.00    -0.744 OA
ENDBRANCH  85  86
ENDBRANCH  59  80
ENDBRANCH  33  34
ENDBRANCH  25  28
ENDBRANCH  23  24
ENDBRANCH  22  23
ENDBRANCH   1  22
TORSDOF 17
ENDMDL
MODEL 2
REMARK VINA RESULT:     -11.7      3.107      7.546
REMARK SMILES O=C(CCn1ccnc1)N[C@H]1C=C[C@H](C(=O)NCCCNC(=O)c2ccc(-c3c4nc(c(-c5ccc(S(=O)(=O)[O-])cc5)c5ccc([nH]5)c(-c5ccc(S(=O)(=O)[O-])cc5)c5nc(c(-c6ccc(S(=O)(=O)[O-])cc6)c6ccc3[nH]6)C=C5)C=C4)cc2)C1
REMARK SMILES IDX 18 1 17 2 15 3 16 4 14 6 11 7 12 8 84 9 13 10 10 11 1 12
REMARK SMILES IDX 2 13 3 15 4 16 5 17 6 18 9 19 7 20 8 21 19 22 20 23 21 24
REMARK SMILES IDX 22 25 23 27 24 28 25 29 83 30 26 31 82 32 27 33 28 34 29 35
REMARK SMILES IDX 76 36 30 37 81 38 75 39 77 40 31 41 80 42 74 43 73 44 32 46
REMARK SMILES IDX 62 47 43 48 61 49 44 50 47 51 60 52 78 53 45 54 46 55 59 57
REMARK SMILES IDX 79 58 48 59 33 60 34 61 42 62 35 63 41 64 36 65 37 66 38 67
REMARK SMILES IDX 39 68 40 69 63 70 64 71 72 72 65 73 71 74 66 75 67 76 68 77
REMARK SMILES IDX 69 78 70 79 49 80 50 81 58 82 51 83 57 84 52 85 53 86 54 87
REMARK SMILES IDX 55 88 56 89
REMARK H PARENT 17 5 10 14 21 26 77 45 47 56
REMARK Flexibility Score: inf
ROOT
ATOM      1  C   UNL A   1      36.411  20.726  25.043  1.00  0.00     0.117 C 
ENDROOT
BRANCH   1   2
ATOM      2  N   UNL A   1      35.176  19.954  25.055  1.00  0.00    -0.356 N 
ATOM      3  C   UNL A   1      33.926  20.308  24.616  1.00  0.00     0.227 C 
ATOM      4  O   UNL A   1      33.043  19.451  24.607  1.00  0.00    -0.274 OA
ATOM      5  H   UNL A   1      35.250  19.047  25.431  1.00  0.00     0.163 HD
BRANCH   3   6
ATOM      6  C   UNL A   1      33.701  21.749  24.157  1.00  0.00     0.103 C 
ATOM      7  C   UNL A   1      31.611  22.890  24.809  1.00  0.00     0.106 C 
ATOM      8  C   UNL A   1      31.631  22.538  23.356  1.00  0.00    -0.006 C 
ATOM      9  C   UNL A   1      33.041  22.577  25.263  1.00  0.00     0.047 C 
ATOM     10  C   UNL A   1      32.754  21.901  23.008  1.00  0.00    -0.016 C 
BRANCH   7  11
ATOM     11  N   UNL A   1      31.198  24.272  24.920  1.00  0.00    -0.350 N 
ATOM     12  O   UNL A   1      30.607  24.302  27.142  1.00  0.00    -0.275 OA
ATOM     13  C   UNL A   1      30.733  24.872  26.062  1.00  0.00     0.222 C 
ATOM     14  H   UNL A   1      31.254  24.828  24.108  1.00  0.00     0.164 HD
BRANCH  13  15
ATOM     15  C   UNL A   1      30.350  26.332  25.917  1.00  0.00     0.122 C 
BRANCH  15  16
ATOM     16  C   UNL A   1      31.443  27.196  25.289  1.00  0.00     0.133 C 
BRANCH  16  17
ATOM     17  N   UNL A   1      31.054  27.798  24.028  1.00  0.00    -0.337 N 
ATOM     18  C   UNL A   1      30.371  28.973  23.869  1.00  0.00     0.107 A 
ATOM     19  C   UNL A   1      31.191  27.230  22.792  1.00  0.00     0.199 A 
ATOM     20  C   UNL A   1      30.064  29.027  22.530  1.00  0.00     0.130 A 
ATOM     21  N   UNL A   1      30.582  27.943  21.872  1.00  0.00    -0.245 NA
ENDBRANCH  16  17
ENDBRANCH  15  16
ENDBRANCH  13  15
ENDBRANCH   7  11
ENDBRANCH   3   6
ENDBRANCH   1   2
BRANCH   1  22
ATOM     22  C   UNL A   1      37.669  19.887  24.802  1.00  0.00     0.042 C 
BRANCH  22  23
ATOM     23  C   UNL A   1      38.851  20.298  25.667  1.00  0.00     0.118 C 
BRANCH  23  24
ATOM     24  N   UNL A   1      39.903  19.281  25.721  1.00  0.00    -0.352 N 
ATOM     25  C   UNL A   1      41.253  19.452  25.945  1.00  0.00     0.251 C 
ATOM     26  H   UNL A   1      39.607  18.354  25.580  1.00  0.00     0.163 HD
ATOM     27  O   UNL A   1      42.046  18.570  25.614  1.00  0.00    -0.269 OA
BRANCH  25  28
ATOM     28  C   UNL A   1      41.741  20.699  26.563  1.00  0.00     0.039 A 
ATOM     29  C   UNL A   1      42.298  21.720  25.786  1.00  0.00     0.014 A 
ATOM     30  C   UNL A   1      41.621  20.852  27.943  1.00  0.00     0.014 A 
ATOM     31  C   UNL A   1      42.638  22.927  26.396  1.00  0.00     0.010 A 
ATOM     32  C   UNL A   1      41.819  22.084  28.517  1.00  0.00     0.010 A 
ATOM     33  C   UNL A   1      42.367  23.115  27.761  1.00  0.00    -0.014 A 
BRANCH  33  34
ATOM     34  C   UNL A   1      42.525  24.430  28.382  1.00  0.00     0.031 A 
ATOM     35  C   UNL A   1      41.426  25.387  28.085  1.00  0.00     0.074 A 
ATOM     36  C   UNL A   1      43.437  24.699  29.340  1.00  0.00     0.049 A 
ATOM     37  N   UNL A   1      41.479  26.447  27.349  1.00  0.00    -0.248 NA
ATOM     38  C   UNL A   1      40.066  25.047  28.537  1.00  0.00     0.031 C 
ATOM     39  C   UNL A   1      44.373  23.768  29.983  1.00  0.00     0.029 A 
ATOM     40  N   UNL A   1      43.634  25.849  30.043  1.00  0.00    -0.354 N 
ATOM     41  C   UNL A   1      40.223  27.040  27.442  1.00  0.00     0.074 A 
ATOM     42  C   UNL A   1      39.352  26.036  27.999  1.00  0.00     0.031 C 
ATOM     43  C   UNL A   1      44.847  24.317  31.123  1.00  0.00     0.029 A 
ATOM     44  C   UNL A   1      44.393  25.693  31.200  1.00  0.00     0.049 A 
ATOM     45  H   UNL A   1      43.270  26.718  29.756  1.00  0.00     0.167 HD
ATOM     46  C   UNL A   1      40.060  28.387  27.305  1.00  0.00     0.031 A 
ATOM     47  C   UNL A   1      44.610  26.619  32.168  1.00  0.00     0.031 A 
ATOM     48  C   UNL A   1      41.253  29.010  26.785  1.00  0.00     0.049 A 
ATOM     49  C   UNL A   1      44.327  27.944  31.570  1.00  0.00     0.074 A 
ATOM     50  C   UNL A   1      42.010  28.873  25.639  1.00  0.00     0.029 A 
ATOM     51  N   UNL A   1      42.054  29.658  27.697  1.00  0.00    -0.354 N 
ATOM     52  N   UNL A   1      45.050  28.475  30.625  1.00  0.00    -0.248 NA
ATOM     53  C   UNL A   1      42.992  28.501  31.718  1.00  0.00     0.031 C 
ATOM     54  C   UNL A   1      43.361  29.026  26.068  1.00  0.00     0.029 A 
ATOM     55  C   UNL A   1      43.355  29.325  27.433  1.00  0.00     0.049 A 
ATOM     56  H   UNL A   1      41.745  30.257  28.415  1.00  0.00     0.167 HD
ATOM     57  C   UNL A   1      44.136  29.093  29.786  1.00  0.00     0.074 A 
ATOM     58  C   UNL A   1      42.907  29.182  30.571  1.00  0.00     0.031 C 
ATOM     59  C   UNL A   1      44.382  29.212  28.447  1.00  0.00     0.031 A 
BRANCH  46  60
ATOM     60  C   UNL A   1      39.008  29.197  28.035  1.00  0.00    -0.014 A 
ATOM     61  C   UNL A   1      37.763  29.410  27.402  1.00  0.00     0.010 A 
ATOM     62  C   UNL A   1      39.279  29.982  29.174  1.00  0.00     0.010 A 
ATOM     63  C   UNL A   1      36.888  30.419  27.828  1.00  0.00     0.020 A 
ATOM     64  C   UNL A   1      38.393  30.958  29.636  1.00  0.00     0.020 A 
ATOM     65  C   UNL A   1      37.220  31.196  28.936  1.00  0.00     0.054 A 
BRANCH  65  66
ATOM     66  S   UNL A   1      36.135  32.562  29.418  1.00  0.00     0.124 S 
ATOM     67  O   UNL A   1      35.087  31.866  30.156  1.00  0.00    -0.237 OA
ATOM     68  O   UNL A   1      37.029  33.396  30.216  1.00  0.00    -0.237 OA
ATOM     69  O   UNL A   1      35.727  33.141  28.140  1.00  0.00    -0.744 OA
ENDBRANCH  65  66
ENDBRANCH  46  60
BRANCH  47  70
ATOM     70  C   UNL A   1      44.812  26.435  33.627  1.00  0.00    -0.014 A 
ATOM     71  C   UNL A   1      45.249  27.505  34.431  1.00  0.00     0.010 A 
ATOM     72  C   UNL A   1      44.291  25.298  34.279  1.00  0.00     0.010 A 
ATOM     73  C   UNL A   1      45.089  27.478  35.826  1.00  0.00     0.020 A 
ATOM     74  C   UNL A   1      44.137  25.260  35.672  1.00  0.00     0.020 A 
ATOM     75  C   UNL A   1      44.507  26.365  36.436  1.00  0.00     0.054 A 
BRANCH  75  76
ATOM     76  S   UNL A   1      44.099  26.429  38.207  1.00  0.00     0.124 S 
ATOM     77  O   UNL A   1      42.640  26.396  38.194  1.00  0.00    -0.237 OA
ATOM     78  O   UNL A   1      44.753  25.231  38.728  1.00  0.00    -0.237 OA
ATOM     79  O   UNL A   1      44.688  27.692  38.650  1.00  0.00    -0.744 OA
ENDBRANCH  75  76
ENDBRANCH  47  70
BRANCH  59  80
ATOM     80  C   UNL A   1      45.795  28.994  27.952  1.00  0.00    -0.014 A 
ATOM     81  C   UNL A   1      46.356  27.731  27.678  1.00  0.00     0.010 A 
ATOM     82  C   UNL A   1      46.545  30.141  27.634  1.00  0.00     0.010 A 
ATOM     83  C   UNL A   1      47.646  27.622  27.136  1.00  0.00     0.020 A 
ATOM     84  C   UNL A   1      47.819  30.040  27.073  1.00  0.00     0.020 A 
ATOM     85  C   UNL A   1      48.371  28.781  26.840  1.00  0.00     0.054 A 
BRANCH  85  86
ATOM     86  S   UNL A   1      50.028  28.641  26.115  1.00  0.00     0.124 S 
ATOM     87  O   UNL A   1      50.667  27.647  26.972  1.00  0.00    -0.237 OA
ATOM     88  O   UNL A   1      49.751  28.209  24.747  1.00  0.00    -0.237 OA
ATOM     89  O   UNL A   1      50.573  29.994  26.228  1.00  0.00    -0.744 OA
ENDBRANCH  85  86
ENDBRANCH  59  80
ENDBRANCH  33  34
ENDBRANCH  25  28
ENDBRANCH  23  24
ENDBRANCH  22  23
ENDBRANCH   1  22
TORSDOF 17
ENDMDL
MODEL 3
REMARK VINA RESULT:     -11.7      1.648      2.244
REMARK SMILES O=C(CCn1ccnc1)N[C@H]1C=C[C@H](C(=O)NCCCNC(=O)c2ccc(-c3c4nc(c(-c5ccc(S(=O)(=O)[O-])cc5)c5ccc([nH]5)c(-c5ccc(S(=O)(=O)[O-])cc5)c5nc(c(-c6ccc(S(=O)(=O)[O-])cc6)c6ccc3[nH]6)C=C5)C=C4)cc2)C1
REMARK SMILES IDX 18 1 17 2 15 3 16 4 14 6 11 7 12 8 84 9 13 10 10 11 1 12
REMARK SMILES IDX 2 13 3 15 4 16 5 17 6 18 9 19 7 20 8 21 19 22 20 23 21 24
REMARK SMILES IDX 22 25 23 27 24 28 25 29 83 30 26 31 82 32 27 33 28 34 29 35
REMARK SMILES IDX 76 36 30 37 81 38 75 39 77 40 31 41 80 42 74 43 73 44 32 46
REMARK SMILES IDX 62 47 43 48 61 49 44 50 47 51 60 52 78 53 45 54 46 55 59 57
REMARK SMILES IDX 79 58 48 59 33 60 34 61 42 62 35 63 41 64 36 65 37 66 38 67
REMARK SMILES IDX 39 68 40 69 63 70 64 71 72 72 65 73 71 74 66 75 67 76 68 77
REMARK SMILES IDX 69 78 70 79 49 80 50 81 58 82 51 83 57 84 52 85 53 86 54 87
REMARK SMILES IDX 55 88 56 89
REMARK H PARENT 17 5 10 14 21 26 77 45 47 56
REMARK Flexibility Score: inf
ROOT
ATOM      1  C   UNL A   1      37.197  22.276  25.411  1.00  0.00     0.117 C 
ENDROOT
BRANCH   1   2
ATOM      2  N   UNL A   1      36.104  21.803  26.248  1.00  0.00    -0.356 N 
ATOM      3  C   UNL A   1      34.755  22.017  26.118  1.00  0.00     0.227 C 
ATOM      4  O   UNL A   1      33.991  21.417  26.873  1.00  0.00    -0.274 OA
ATOM      5  H   UNL A   1      36.371  21.249  27.017  1.00  0.00     0.163 HD
BRANCH   3   6
ATOM      6  C   UNL A   1      34.276  22.986  25.038  1.00  0.00     0.103 C 
ATOM      7  C   UNL A   1      32.633  24.726  25.646  1.00  0.00     0.106 C 
ATOM      8  C   UNL A   1      32.028  23.648  24.804  1.00  0.00    -0.006 C 
ATOM      9  C   UNL A   1      34.131  24.403  25.600  1.00  0.00     0.047 C 
ATOM     10  C   UNL A   1      32.913  22.696  24.493  1.00  0.00    -0.016 C 
BRANCH   7  11
ATOM     11  N   UNL A   1      32.240  25.998  25.079  1.00  0.00    -0.350 N 
ATOM     12  O   UNL A   1      30.078  26.093  25.856  1.00  0.00    -0.275 OA
ATOM     13  C   UNL A   1      31.008  26.584  25.223  1.00  0.00     0.222 C 
ATOM     14  H   UNL A   1      32.912  26.482  24.546  1.00  0.00     0.164 HD
BRANCH  13  15
ATOM     15  C   UNL A   1      30.839  27.915  24.519  1.00  0.00     0.122 C 
BRANCH  15  16
ATOM     16  C   UNL A   1      30.360  27.791  23.072  1.00  0.00     0.133 C 
BRANCH  16  17
ATOM     17  N   UNL A   1      29.158  28.552  22.791  1.00  0.00    -0.337 N 
ATOM     18  C   UNL A   1      29.091  29.733  22.103  1.00  0.00     0.107 A 
ATOM     19  C   UNL A   1      27.909  28.285  23.276  1.00  0.00     0.199 A 
ATOM     20  C   UNL A   1      27.796  30.164  22.264  1.00  0.00     0.130 A 
ATOM     21  N   UNL A   1      27.071  29.255  22.990  1.00  0.00    -0.245 NA
ENDBRANCH  16  17
ENDBRANCH  15  16
ENDBRANCH  13  15
ENDBRANCH   7  11
ENDBRANCH   3   6
ENDBRANCH   1   2
BRANCH   1  22
ATOM     22  C   UNL A   1      38.403  21.333  25.366  1.00  0.00     0.042 C 
BRANCH  22  23
ATOM     23  C   UNL A   1      39.457  21.641  26.419  1.00  0.00     0.118 C 
BRANCH  23  24
ATOM     24  N   UNL A   1      40.749  21.013  26.137  1.00  0.00    -0.352 N 
ATOM     25  C   UNL A   1      41.986  21.611  26.010  1.00  0.00     0.251 C 
ATOM     26  H   UNL A   1      40.734  20.036  26.024  1.00  0.00     0.163 HD
ATOM     27  O   UNL A   1      42.898  21.018  25.432  1.00  0.00    -0.269 OA
BRANCH  25  28
ATOM     28  C   UNL A   1      42.203  22.966  26.551  1.00  0.00     0.039 A 
ATOM     29  C   UNL A   1      41.935  24.102  25.780  1.00  0.00     0.014 A 
ATOM     30  C   UNL A   1      42.667  23.097  27.858  1.00  0.00     0.014 A 
ATOM     31  C   UNL A   1      42.042  25.362  26.370  1.00  0.00     0.010 A 
ATOM     32  C   UNL A   1      42.634  24.322  28.479  1.00  0.00     0.010 A 
ATOM     33  C   UNL A   1      42.364  25.464  27.733  1.00  0.00    -0.014 A 
BRANCH  33  34
ATOM     34  C   UNL A   1      42.289  26.750  28.425  1.00  0.00     0.031 A 
ATOM     35  C   UNL A   1      43.435  27.660  28.160  1.00  0.00     0.074 A 
ATOM     36  C   UNL A   1      41.179  27.199  29.050  1.00  0.00     0.049 A 
ATOM     37  N   UNL A   1      44.372  28.009  28.978  1.00  0.00    -0.248 NA
ATOM     38  C   UNL A   1      43.653  28.119  26.778  1.00  0.00     0.031 C 
ATOM     39  C   UNL A   1      39.858  26.563  29.111  1.00  0.00     0.029 A 
ATOM     40  N   UNL A   1      40.960  28.396  29.661  1.00  0.00    -0.354 N 
ATOM     41  C   UNL A   1      45.162  28.924  28.286  1.00  0.00     0.074 A 
ATOM     42  C   UNL A   1      44.802  28.786  26.897  1.00  0.00     0.031 C 
ATOM     43  C   UNL A   1      38.935  27.471  29.497  1.00  0.00     0.029 A 
ATOM     44  C   UNL A   1      39.617  28.694  29.878  1.00  0.00     0.049 A 
ATOM     45  H   UNL A   1      41.690  29.001  29.927  1.00  0.00     0.167 HD
ATOM     46  C   UNL A   1      45.850  29.905  28.937  1.00  0.00     0.031 A 
ATOM     47  C   UNL A   1      39.099  29.870  30.313  1.00  0.00     0.031 A 
ATOM     48  C   UNL A   1      45.875  29.672  30.361  1.00  0.00     0.049 A 
ATOM     49  C   UNL A   1      40.199  30.609  30.975  1.00  0.00     0.074 A 
ATOM     50  C   UNL A   1      46.327  28.657  31.180  1.00  0.00     0.029 A 
ATOM     51  N   UNL A   1      44.999  30.414  31.119  1.00  0.00    -0.354 N 
ATOM     52  N   UNL A   1      40.758  30.219  32.085  1.00  0.00    -0.248 NA
ATOM     53  C   UNL A   1      40.972  31.554  30.187  1.00  0.00     0.031 C 
ATOM     54  C   UNL A   1      45.361  28.569  32.225  1.00  0.00     0.029 A 
ATOM     55  C   UNL A   1      44.416  29.580  32.034  1.00  0.00     0.049 A 
ATOM     56  H   UNL A   1      44.822  31.378  31.020  1.00  0.00     0.167 HD
ATOM     57  C   UNL A   1      42.106  30.502  31.919  1.00  0.00     0.074 A 
ATOM     58  C   UNL A   1      42.157  31.431  30.792  1.00  0.00     0.031 C 
ATOM     59  C   UNL A   1      43.062  29.737  32.524  1.00  0.00     0.031 A 
BRANCH  46  60
ATOM     60  C   UNL A   1      46.121  31.280  28.363  1.00  0.00    -0.014 A 
ATOM     61  C   UNL A   1      45.056  32.205  28.300  1.00  0.00     0.010 A 
ATOM     62  C   UNL A   1      47.283  31.607  27.635  1.00  0.00     0.010 A 
ATOM     63  C   UNL A   1      45.118  33.340  27.479  1.00  0.00     0.020 A 
ATOM     64  C   UNL A   1      47.374  32.758  26.850  1.00  0.00     0.020 A 
ATOM     65  C   UNL A   1      46.274  33.598  26.747  1.00  0.00     0.054 A 
BRANCH  65  66
ATOM     66  S   UNL A   1      46.310  35.006  25.611  1.00  0.00     0.124 S 
ATOM     67  O   UNL A   1      47.737  35.130  25.333  1.00  0.00    -0.237 OA
ATOM     68  O   UNL A   1      45.486  34.529  24.505  1.00  0.00    -0.237 OA
ATOM     69  O   UNL A   1      45.724  36.091  26.395  1.00  0.00    -0.744 OA
ENDBRANCH  65  66
ENDBRANCH  46  60
BRANCH  47  70
ATOM     70  C   UNL A   1      37.796  30.506  29.995  1.00  0.00    -0.014 A 
ATOM     71  C   UNL A   1      36.946  30.953  31.025  1.00  0.00     0.010 A 
ATOM     72  C   UNL A   1      37.519  30.945  28.684  1.00  0.00     0.010 A 
ATOM     73  C   UNL A   1      35.916  31.873  30.770  1.00  0.00     0.020 A 
ATOM     74  C   UNL A   1      36.487  31.856  28.420  1.00  0.00     0.020 A 
ATOM     75  C   UNL A   1      35.711  32.342  29.470  1.00  0.00     0.054 A 
BRANCH  75  76
ATOM     76  S   UNL A   1      34.530  33.694  29.185  1.00  0.00     0.124 S 
ATOM     77  O   UNL A   1      33.637  33.123  28.181  1.00  0.00    -0.237 OA
ATOM     78  O   UNL A   1      33.947  33.893  30.510  1.00  0.00    -0.237 OA
ATOM     79  O   UNL A   1      35.372  34.793  28.714  1.00  0.00    -0.744 OA
ENDBRANCH  75  76
ENDBRANCH  47  70
BRANCH  59  80
ATOM     80  C   UNL A   1      42.644  28.819  33.651  1.00  0.00    -0.014 A 
ATOM     81  C   UNL A   1      42.048  27.556  33.467  1.00  0.00     0.010 A 
ATOM     82  C   UNL A   1      42.990  29.211  34.957  1.00  0.00     0.010 A 
ATOM     83  C   UNL A   1      41.772  26.727  34.566  1.00  0.00     0.020 A 
ATOM     84  C   UNL A   1      42.739  28.382  36.051  1.00  0.00     0.020 A 
ATOM     85  C   UNL A   1      42.118  27.149  35.854  1.00  0.00     0.054 A 
BRANCH  85  86
ATOM     86  S   UNL A   1      41.785  26.068  37.272  1.00  0.00     0.124 S 
ATOM     87  O   UNL A   1      40.470  26.522  37.716  1.00  0.00    -0.237 OA
ATOM     88  O   UNL A   1      41.823  24.732  36.680  1.00  0.00    -0.237 OA
ATOM     89  O   UNL A   1      42.881  26.356  38.195  1.00  0.00    -0.744 OA
ENDBRANCH  85  86
ENDBRANCH  59  80
ENDBRANCH  33  34
ENDBRANCH  25  28
ENDBRANCH  23  24
ENDBRANCH  22  23
ENDBRANCH   1  22
TORSDOF 17
ENDMDL
