MODEL 1
REMARK VINA RESULT:     -11.2      0.000      0.000
REMARK SMILES CC1(C(=O)N2CC(CC(=O)NCCCNC(=O)c3ccc(-c4c5nc(c(-c6ccc(S(=O)(=O)[O-])cc6)c6ccc([nH]6)c(-c6ccc(S(=O)(=O)[O-])cc6)c6nc(c(-c7ccc(S(=O)(=O)[O-])cc7)c7ccc4[nH]7)C=C6)C=C5)cc3)C2)CCCC1
REMARK SMILES IDX 13 1 12 2 11 3 9 4 10 5 8 7 7 8 3 9 4 10 5 11 6 12 78 13
REMARK SMILES IDX 2 14 1 15 79 16 82 17 80 18 81 19 14 20 15 21 16 22 17 24
REMARK SMILES IDX 18 25 19 26 77 27 20 28 76 29 21 30 22 31 23 32 70 33 24 34
REMARK SMILES IDX 75 35 69 36 71 37 25 38 74 39 68 40 67 41 26 43 56 44 37 45
REMARK SMILES IDX 55 46 38 47 41 48 54 49 72 50 39 51 40 52 53 54 73 55 42 56
REMARK SMILES IDX 27 57 28 58 36 59 29 60 35 61 30 62 31 63 32 64 33 65 34 66
REMARK SMILES IDX 57 67 58 68 66 69 59 70 65 71 60 72 61 73 62 74 63 75 64 76
REMARK SMILES IDX 43 77 44 78 52 79 45 80 51 81 46 82 47 83 48 84 49 85 50 86
REMARK H PARENT 11 6 15 23 71 42 41 53
REMARK Flexibility Score: inf
ROOT
ATOM      1  C   UNL A   1      33.745  27.993  25.534  1.00  0.00     0.042 C 
ENDROOT
BRANCH   1   2
ATOM      2  C   UNL A   1      33.671  26.521  25.132  1.00  0.00     0.117 C 
BRANCH   2   3
ATOM      3  N   UNL A   1      32.968  25.733  26.128  1.00  0.00    -0.356 N 
ATOM      4  C   UNL A   1      31.730  25.167  26.093  1.00  0.00     0.220 C 
ATOM      5  O   UNL A   1      31.314  24.617  27.115  1.00  0.00    -0.275 OA
ATOM      6  H   UNL A   1      33.467  25.582  26.964  1.00  0.00     0.163 HD
BRANCH   4   7
ATOM      7  C   UNL A   1      30.880  25.213  24.840  1.00  0.00     0.107 C 
BRANCH   7   8
ATOM      8  C   UNL A   1      29.834  26.321  24.852  1.00  0.00     0.037 C 
ATOM      9  C   UNL A   1      28.225  28.686  23.123  1.00  0.00     0.228 C 
ATOM     10  O   UNL A   1      27.002  28.545  23.166  1.00  0.00    -0.274 OA
ATOM     11  N   UNL A   1      29.050  27.651  23.477  1.00  0.00    -0.342 N 
ATOM     12  C   UNL A   1      28.726  26.268  23.783  1.00  0.00     0.125 C 
ATOM     13  C   UNL A   1      30.278  27.652  24.229  1.00  0.00     0.125 C 
BRANCH   9  14
ATOM     14  C   UNL A   1      28.893  29.928  22.475  1.00  0.00     0.047 C 
ATOM     15  C   UNL A   1      30.335  29.732  21.980  1.00  0.00     0.022 C 
ATOM     16  C   UNL A   1      28.845  31.147  23.415  1.00  0.00     0.016 C 
ATOM     17  C   UNL A   1      27.976  30.391  21.327  1.00  0.00     0.016 C 
ATOM     18  C   UNL A   1      28.808  32.367  22.498  1.00  0.00     0.001 C 
ATOM     19  C   UNL A   1      28.196  31.892  21.184  1.00  0.00     0.001 C 
ENDBRANCH   9  14
ENDBRANCH   7   8
ENDBRANCH   4   7
ENDBRANCH   2   3
ENDBRANCH   1   2
BRANCH   1  20
ATOM     20  C   UNL A   1      33.703  28.247  27.035  1.00  0.00     0.118 C 
BRANCH  20  21
ATOM     21  N   UNL A   1      33.638  29.662  27.356  1.00  0.00    -0.352 N 
ATOM     22  C   UNL A   1      34.538  30.475  28.002  1.00  0.00     0.251 C 
ATOM     23  H   UNL A   1      32.813  30.113  27.065  1.00  0.00     0.163 HD
ATOM     24  O   UNL A   1      34.173  31.603  28.339  1.00  0.00    -0.269 OA
BRANCH  22  25
ATOM     25  C   UNL A   1      35.916  30.023  28.316  1.00  0.00     0.039 A 
ATOM     26  C   UNL A   1      36.883  30.077  27.305  1.00  0.00     0.014 A 
ATOM     27  C   UNL A   1      36.259  29.499  29.565  1.00  0.00     0.014 A 
ATOM     28  C   UNL A   1      38.195  29.669  27.565  1.00  0.00     0.010 A 
ATOM     29  C   UNL A   1      37.585  29.168  29.848  1.00  0.00     0.010 A 
ATOM     30  C   UNL A   1      38.569  29.245  28.850  1.00  0.00    -0.014 A 
BRANCH  30  31
ATOM     31  C   UNL A   1      39.978  28.887  29.169  1.00  0.00     0.031 A 
ATOM     32  C   UNL A   1      40.900  29.898  29.800  1.00  0.00     0.074 A 
ATOM     33  C   UNL A   1      40.447  27.668  28.836  1.00  0.00     0.049 A 
ATOM     34  N   UNL A   1      42.172  29.786  30.087  1.00  0.00    -0.248 NA
ATOM     35  C   UNL A   1      40.325  31.212  30.130  1.00  0.00     0.031 C 
ATOM     36  C   UNL A   1      39.667  26.608  28.190  1.00  0.00     0.029 A 
ATOM     37  N   UNL A   1      41.695  27.115  28.985  1.00  0.00    -0.354 N 
ATOM     38  C   UNL A   1      42.554  31.015  30.614  1.00  0.00     0.074 A 
ATOM     39  C   UNL A   1      41.389  31.873  30.565  1.00  0.00     0.031 C 
ATOM     40  C   UNL A   1      40.448  25.528  28.022  1.00  0.00     0.029 A 
ATOM     41  C   UNL A   1      41.792  25.830  28.504  1.00  0.00     0.049 A 
ATOM     42  H   UNL A   1      42.450  27.593  29.398  1.00  0.00     0.167 HD
ATOM     43  C   UNL A   1      43.758  31.393  31.108  1.00  0.00     0.031 A 
ATOM     44  C   UNL A   1      42.844  24.990  28.444  1.00  0.00     0.031 A 
ATOM     45  C   UNL A   1      44.914  30.537  31.165  1.00  0.00     0.049 A 
ATOM     46  C   UNL A   1      44.173  25.438  28.984  1.00  0.00     0.074 A 
ATOM     47  C   UNL A   1      46.161  30.811  31.697  1.00  0.00     0.029 A 
ATOM     48  N   UNL A   1      44.967  29.242  30.671  1.00  0.00    -0.354 N 
ATOM     49  N   UNL A   1      44.496  26.584  29.532  1.00  0.00    -0.248 NA
ATOM     50  C   UNL A   1      45.280  24.474  28.904  1.00  0.00     0.031 C 
ATOM     51  C   UNL A   1      46.985  29.703  31.478  1.00  0.00     0.029 A 
ATOM     52  C   UNL A   1      46.234  28.715  30.863  1.00  0.00     0.049 A 
ATOM     53  H   UNL A   1      44.216  28.768  30.246  1.00  0.00     0.167 HD
ATOM     54  C   UNL A   1      45.836  26.472  29.886  1.00  0.00     0.074 A 
ATOM     55  C   UNL A   1      46.258  25.139  29.504  1.00  0.00     0.031 C 
ATOM     56  C   UNL A   1      46.643  27.389  30.473  1.00  0.00     0.031 A 
BRANCH  43  57
ATOM     57  C   UNL A   1      43.889  32.804  31.621  1.00  0.00    -0.014 A 
ATOM     58  C   UNL A   1      43.559  33.129  32.949  1.00  0.00     0.010 A 
ATOM     59  C   UNL A   1      44.395  33.811  30.777  1.00  0.00     0.010 A 
ATOM     60  C   UNL A   1      43.689  34.442  33.411  1.00  0.00     0.020 A 
ATOM     61  C   UNL A   1      44.553  35.120  31.243  1.00  0.00     0.020 A 
ATOM     62  C   UNL A   1      44.182  35.430  32.553  1.00  0.00     0.054 A 
BRANCH  62  63
ATOM     63  S   UNL A   1      44.359  37.121  33.186  1.00  0.00     0.124 S 
ATOM     64  O   UNL A   1      43.801  36.998  34.531  1.00  0.00    -0.237 OA
ATOM     65  O   UNL A   1      45.801  37.338  33.122  1.00  0.00    -0.237 OA
ATOM     66  O   UNL A   1      43.569  37.925  32.257  1.00  0.00    -0.744 OA
ENDBRANCH  62  63
ENDBRANCH  43  57
BRANCH  44  67
ATOM     67  C   UNL A   1      42.675  23.633  27.856  1.00  0.00    -0.014 A 
ATOM     68  C   UNL A   1      42.193  22.571  28.640  1.00  0.00     0.010 A 
ATOM     69  C   UNL A   1      42.981  23.400  26.502  1.00  0.00     0.010 A 
ATOM     70  C   UNL A   1      42.032  21.298  28.086  1.00  0.00     0.020 A 
ATOM     71  C   UNL A   1      42.795  22.135  25.937  1.00  0.00     0.020 A 
ATOM     72  C   UNL A   1      42.331  21.089  26.737  1.00  0.00     0.054 A 
BRANCH  72  73
ATOM     73  S   UNL A   1      42.058  19.442  26.025  1.00  0.00     0.124 S 
ATOM     74  O   UNL A   1      42.507  18.567  27.102  1.00  0.00    -0.237 OA
ATOM     75  O   UNL A   1      40.619  19.445  25.769  1.00  0.00    -0.237 OA
ATOM     76  O   UNL A   1      42.895  19.445  24.827  1.00  0.00    -0.744 OA
ENDBRANCH  72  73
ENDBRANCH  44  67
BRANCH  56  77
ATOM     77  C   UNL A   1      48.061  26.976  30.769  1.00  0.00    -0.014 A 
ATOM     78  C   UNL A   1      49.106  27.263  29.873  1.00  0.00     0.010 A 
ATOM     79  C   UNL A   1      48.357  26.334  31.985  1.00  0.00     0.010 A 
ATOM     80  C   UNL A   1      50.418  26.887  30.175  1.00  0.00     0.020 A 
ATOM     81  C   UNL A   1      49.672  25.982  32.302  1.00  0.00     0.020 A 
ATOM     82  C   UNL A   1      50.692  26.248  31.388  1.00  0.00     0.054 A 
BRANCH  82  83
ATOM     83  S   UNL A   1      52.409  25.807  31.774  1.00  0.00     0.124 S 
ATOM     84  O   UNL A   1      52.719  26.725  32.866  1.00  0.00    -0.237 OA
ATOM     85  O   UNL A   1      52.303  24.398  32.147  1.00  0.00    -0.237 OA
ATOM     86  O   UNL A   1      53.122  26.063  30.524  1.00  0.00    -0.744 OA
ENDBRANCH  82  83
ENDBRANCH  56  77
ENDBRANCH  30  31
ENDBRANCH  22  25
ENDBRANCH  20  21
ENDBRANCH   1  20
TORSDOF 15
ENDMDL
MODEL 2
REMARK VINA RESULT:     -11.1      1.784      4.092
REMARK SMILES CC1(C(=O)N2CC(CC(=O)NCCCNC(=O)c3ccc(-c4c5nc(c(-c6ccc(S(=O)(=O)[O-])cc6)c6ccc([nH]6)c(-c6ccc(S(=O)(=O)[O-])cc6)c6nc(c(-c7ccc(S(=O)(=O)[O-])cc7)c7ccc4[nH]7)C=C6)C=C5)cc3)C2)CCCC1
REMARK SMILES IDX 13 1 12 2 11 3 9 4 10 5 8 7 7 8 3 9 4 10 5 11 6 12 78 13
REMARK SMILES IDX 2 14 1 15 79 16 82 17 80 18 81 19 14 20 15 21 16 22 17 24
REMARK SMILES IDX 18 25 19 26 77 27 20 28 76 29 21 30 22 31 23 32 70 33 24 34
REMARK SMILES IDX 75 35 69 36 71 37 25 38 74 39 68 40 67 41 26 43 56 44 37 45
REMARK SMILES IDX 55 46 38 47 41 48 54 49 72 50 39 51 40 52 53 54 73 55 42 56
REMARK SMILES IDX 27 57 28 58 36 59 29 60 35 61 30 62 31 63 32 64 33 65 34 66
REMARK SMILES IDX 57 67 58 68 66 69 59 70 65 71 60 72 61 73 62 74 63 75 64 76
REMARK SMILES IDX 43 77 44 78 52 79 45 80 51 81 46 82 47 83 48 84 49 85 50 86
REMARK H PARENT 11 6 15 23 71 42 41 53
REMARK Flexibility Score: inf
ROOT
ATOM      1  C   UNL A   1      33.076  27.924  25.724  1.00  0.00     0.042 C 
ENDROOT
BRANCH   1   2
ATOM      2  C   UNL A   1      31.614  27.513  25.552  1.00  0.00     0.117 C 
BRANCH   2   3
ATOM      3  N   UNL A   1      31.167  27.702  24.183  1.00  0.00    -0.356 N 
ATOM      4  C   UNL A   1      31.176  26.846  23.125  1.00  0.00     0.220 C 
ATOM      5  O   UNL A   1      30.824  27.277  22.026  1.00  0.00    -0.275 OA
ATOM      6  H   UNL A   1      30.796  28.594  23.989  1.00  0.00     0.163 HD
BRANCH   4   7
ATOM      7  C   UNL A   1      31.612  25.404  23.285  1.00  0.00     0.107 C 
BRANCH   7   8
ATOM      8  C   UNL A   1      33.104  25.188  23.060  1.00  0.00     0.037 C 
ATOM      9  C   UNL A   1      35.751  23.191  23.484  1.00  0.00     0.228 C 
ATOM     10  O   UNL A   1      36.303  22.916  22.418  1.00  0.00    -0.274 OA
ATOM     11  N   UNL A   1      34.481  23.707  23.489  1.00  0.00    -0.342 N 
ATOM     12  C   UNL A   1      33.540  23.870  22.392  1.00  0.00     0.125 C 
ATOM     13  C   UNL A   1      33.900  24.748  24.296  1.00  0.00     0.125 C 
BRANCH   9  14
ATOM     14  C   UNL A   1      36.347  22.780  24.856  1.00  0.00     0.047 C 
ATOM     15  C   UNL A   1      35.331  22.363  25.932  1.00  0.00     0.022 C 
ATOM     16  C   UNL A   1      37.258  23.885  25.426  1.00  0.00     0.016 C 
ATOM     17  C   UNL A   1      37.363  21.653  24.592  1.00  0.00     0.016 C 
ATOM     18  C   UNL A   1      38.296  23.157  26.276  1.00  0.00     0.001 C 
ATOM     19  C   UNL A   1      38.405  21.748  25.700  1.00  0.00     0.001 C 
ENDBRANCH   9  14
ENDBRANCH   7   8
ENDBRANCH   4   7
ENDBRANCH   2   3
ENDBRANCH   1   2
BRANCH   1  20
ATOM     20  C   UNL A   1      33.479  28.262  27.153  1.00  0.00     0.118 C 
BRANCH  20  21
ATOM     21  N   UNL A   1      33.429  29.689  27.419  1.00  0.00    -0.352 N 
ATOM     22  C   UNL A   1      34.344  30.519  28.020  1.00  0.00     0.251 C 
ATOM     23  H   UNL A   1      32.603  30.135  27.121  1.00  0.00     0.163 HD
ATOM     24  O   UNL A   1      33.992  31.663  28.317  1.00  0.00    -0.269 OA
BRANCH  22  25
ATOM     25  C   UNL A   1      35.722  30.070  28.334  1.00  0.00     0.039 A 
ATOM     26  C   UNL A   1      36.687  30.120  27.321  1.00  0.00     0.014 A 
ATOM     27  C   UNL A   1      36.068  29.550  29.583  1.00  0.00     0.014 A 
ATOM     28  C   UNL A   1      38.001  29.714  27.580  1.00  0.00     0.010 A 
ATOM     29  C   UNL A   1      37.395  29.221  29.865  1.00  0.00     0.010 A 
ATOM     30  C   UNL A   1      38.377  29.295  28.865  1.00  0.00    -0.014 A 
BRANCH  30  31
ATOM     31  C   UNL A   1      39.786  28.939  29.183  1.00  0.00     0.031 A 
ATOM     32  C   UNL A   1      40.707  29.950  29.814  1.00  0.00     0.074 A 
ATOM     33  C   UNL A   1      40.257  27.721  28.848  1.00  0.00     0.049 A 
ATOM     34  N   UNL A   1      41.980  29.840  30.101  1.00  0.00    -0.248 NA
ATOM     35  C   UNL A   1      40.130  31.263  30.147  1.00  0.00     0.031 C 
ATOM     36  C   UNL A   1      39.479  26.660  28.201  1.00  0.00     0.029 A 
ATOM     37  N   UNL A   1      41.506  27.169  28.996  1.00  0.00    -0.354 N 
ATOM     38  C   UNL A   1      42.359  31.069  30.630  1.00  0.00     0.074 A 
ATOM     39  C   UNL A   1      41.193  31.925  30.582  1.00  0.00     0.031 C 
ATOM     40  C   UNL A   1      40.261  25.582  28.031  1.00  0.00     0.029 A 
ATOM     41  C   UNL A   1      41.604  25.886  28.514  1.00  0.00     0.049 A 
ATOM     42  H   UNL A   1      42.260  27.649  29.409  1.00  0.00     0.167 HD
ATOM     43  C   UNL A   1      43.563  31.448  31.123  1.00  0.00     0.031 A 
ATOM     44  C   UNL A   1      42.658  25.047  28.452  1.00  0.00     0.031 A 
ATOM     45  C   UNL A   1      44.721  30.594  31.178  1.00  0.00     0.049 A 
ATOM     46  C   UNL A   1      43.987  25.496  28.992  1.00  0.00     0.074 A 
ATOM     47  C   UNL A   1      45.968  30.870  31.710  1.00  0.00     0.029 A 
ATOM     48  N   UNL A   1      44.776  29.300  30.683  1.00  0.00    -0.354 N 
ATOM     49  N   UNL A   1      44.308  26.643  29.541  1.00  0.00    -0.248 NA
ATOM     50  C   UNL A   1      45.095  24.534  28.910  1.00  0.00     0.031 C 
ATOM     51  C   UNL A   1      46.793  29.763  31.489  1.00  0.00     0.029 A 
ATOM     52  C   UNL A   1      46.043  28.774  30.873  1.00  0.00     0.049 A 
ATOM     53  H   UNL A   1      44.025  28.825  30.258  1.00  0.00     0.167 HD
ATOM     54  C   UNL A   1      45.649  26.532  29.894  1.00  0.00     0.074 A 
ATOM     55  C   UNL A   1      46.073  25.200  29.510  1.00  0.00     0.031 C 
ATOM     56  C   UNL A   1      46.455  27.450  30.482  1.00  0.00     0.031 A 
BRANCH  43  57
ATOM     57  C   UNL A   1      43.693  32.859  31.637  1.00  0.00    -0.014 A 
ATOM     58  C   UNL A   1      43.498  33.158  32.998  1.00  0.00     0.010 A 
ATOM     59  C   UNL A   1      44.061  33.894  30.757  1.00  0.00     0.010 A 
ATOM     60  C   UNL A   1      43.625  34.471  33.461  1.00  0.00     0.020 A 
ATOM     61  C   UNL A   1      44.216  35.204  31.221  1.00  0.00     0.020 A 
ATOM     62  C   UNL A   1      43.979  35.487  32.568  1.00  0.00     0.054 A 
BRANCH  62  63
ATOM     63  S   UNL A   1      44.156  37.178  33.200  1.00  0.00     0.124 S 
ATOM     64  O   UNL A   1      42.914  37.347  33.953  1.00  0.00    -0.237 OA
ATOM     65  O   UNL A   1      45.371  37.094  34.005  1.00  0.00    -0.237 OA
ATOM     66  O   UNL A   1      44.266  37.991  31.992  1.00  0.00    -0.744 OA
ENDBRANCH  62  63
ENDBRANCH  43  57
BRANCH  44  67
ATOM     67  C   UNL A   1      42.491  23.691  27.862  1.00  0.00    -0.014 A 
ATOM     68  C   UNL A   1      43.127  23.356  26.654  1.00  0.00     0.010 A 
ATOM     69  C   UNL A   1      41.708  22.721  28.514  1.00  0.00     0.010 A 
ATOM     70  C   UNL A   1      42.972  22.081  26.102  1.00  0.00     0.020 A 
ATOM     71  C   UNL A   1      41.574  21.436  27.980  1.00  0.00     0.020 A 
ATOM     72  C   UNL A   1      42.199  21.128  26.771  1.00  0.00     0.054 A 
BRANCH  72  73
ATOM     73  S   UNL A   1      42.061  19.461  26.066  1.00  0.00     0.124 S 
ATOM     74  O   UNL A   1      40.623  19.341  25.851  1.00  0.00    -0.237 OA
ATOM     75  O   UNL A   1      42.876  19.562  24.858  1.00  0.00    -0.237 OA
ATOM     76  O   UNL A   1      42.614  18.602  27.111  1.00  0.00    -0.744 OA
ENDBRANCH  72  73
ENDBRANCH  44  67
BRANCH  56  77
ATOM     77  C   UNL A   1      47.873  27.038  30.776  1.00  0.00    -0.014 A 
ATOM     78  C   UNL A   1      48.925  27.377  29.907  1.00  0.00     0.010 A 
ATOM     79  C   UNL A   1      48.162  26.345  31.966  1.00  0.00     0.010 A 
ATOM     80  C   UNL A   1      50.238  27.001  30.208  1.00  0.00     0.020 A 
ATOM     81  C   UNL A   1      49.476  25.992  32.283  1.00  0.00     0.020 A 
ATOM     82  C   UNL A   1      50.505  26.310  31.394  1.00  0.00     0.054 A 
BRANCH  82  83
ATOM     83  S   UNL A   1      52.222  25.871  31.782  1.00  0.00     0.124 S 
ATOM     84  O   UNL A   1      52.084  24.495  32.248  1.00  0.00    -0.237 OA
ATOM     85  O   UNL A   1      52.894  26.036  30.495  1.00  0.00    -0.237 OA
ATOM     86  O   UNL A   1      52.604  26.840  32.807  1.00  0.00    -0.744 OA
ENDBRANCH  82  83
ENDBRANCH  56  77
ENDBRANCH  30  31
ENDBRANCH  22  25
ENDBRANCH  20  21
ENDBRANCH   1  20
TORSDOF 15
ENDMDL
MODEL 3
REMARK VINA RESULT:     -11.0      1.364      3.309
REMARK SMILES CC1(C(=O)N2CC(CC(=O)NCCCNC(=O)c3ccc(-c4c5nc(c(-c6ccc(S(=O)(=O)[O-])cc6)c6ccc([nH]6)c(-c6ccc(S(=O)(=O)[O-])cc6)c6nc(c(-c7ccc(S(=O)(=O)[O-])cc7)c7ccc4[nH]7)C=C6)C=C5)cc3)C2)CCCC1
REMARK SMILES IDX 13 1 12 2 11 3 9 4 10 5 8 7 7 8 3 9 4 10 5 11 6 12 78 13
REMARK SMILES IDX 2 14 1 15 79 16 82 17 80 18 81 19 14 20 15 21 16 22 17 24
REMARK SMILES IDX 18 25 19 26 77 27 20 28 76 29 21 30 22 31 23 32 70 33 24 34
REMARK SMILES IDX 75 35 69 36 71 37 25 38 74 39 68 40 67 41 26 43 56 44 37 45
REMARK SMILES IDX 55 46 38 47 41 48 54 49 72 50 39 51 40 52 53 54 73 55 42 56
REMARK SMILES IDX 27 57 28 58 36 59 29 60 35 61 30 62 31 63 32 64 33 65 34 66
REMARK SMILES IDX 57 67 58 68 66 69 59 70 65 71 60 72 61 73 62 74 63 75 64 76
REMARK SMILES IDX 43 77 44 78 52 79 45 80 51 81 46 82 47 83 48 84 49 85 50 86
REMARK H PARENT 11 6 15 23 71 42 41 53
REMARK Flexibility Score: inf
ROOT
ATOM      1  C   UNL A   1      33.656  28.143  25.240  1.00  0.00     0.042 C 
ENDROOT
BRANCH   1   2
ATOM      2  C   UNL A   1      32.568  29.009  24.608  1.00  0.00     0.117 C 
BRANCH   2   3
ATOM      3  N   UNL A   1      32.164  28.493  23.312  1.00  0.00    -0.356 N 
ATOM      4  C   UNL A   1      31.054  27.794  22.948  1.00  0.00     0.220 C 
ATOM      5  O   UNL A   1      30.982  27.382  21.789  1.00  0.00    -0.275 OA
ATOM      6  H   UNL A   1      32.794  28.679  22.579  1.00  0.00     0.163 HD
BRANCH   4   7
ATOM      7  C   UNL A   1      29.937  27.523  23.935  1.00  0.00     0.107 C 
BRANCH   7   8
ATOM      8  C   UNL A   1      30.063  26.182  24.646  1.00  0.00     0.037 C 
ATOM      9  C   UNL A   1      32.016  24.085  26.369  1.00  0.00     0.228 C 
ATOM     10  O   UNL A   1      31.526  23.779  27.456  1.00  0.00    -0.274 OA
ATOM     11  N   UNL A   1      31.541  25.171  25.681  1.00  0.00    -0.342 N 
ATOM     12  C   UNL A   1      30.589  26.189  26.095  1.00  0.00     0.125 C 
ATOM     13  C   UNL A   1      31.300  25.351  24.273  1.00  0.00     0.125 C 
BRANCH   9  14
ATOM     14  C   UNL A   1      33.308  23.419  25.825  1.00  0.00     0.047 C 
ATOM     15  C   UNL A   1      33.102  22.302  24.790  1.00  0.00     0.022 C 
ATOM     16  C   UNL A   1      34.191  22.888  26.971  1.00  0.00     0.016 C 
ATOM     17  C   UNL A   1      34.193  24.543  25.253  1.00  0.00     0.016 C 
ATOM     18  C   UNL A   1      35.623  22.963  26.448  1.00  0.00     0.001 C 
ATOM     19  C   UNL A   1      35.633  24.064  25.392  1.00  0.00     0.001 C 
ENDBRANCH   9  14
ENDBRANCH   7   8
ENDBRANCH   4   7
ENDBRANCH   2   3
ENDBRANCH   1   2
BRANCH   1  20
ATOM     20  C   UNL A   1      33.811  28.311  26.746  1.00  0.00     0.118 C 
BRANCH  20  21
ATOM     21  N   UNL A   1      33.716  29.699  27.161  1.00  0.00    -0.352 N 
ATOM     22  C   UNL A   1      34.585  30.476  27.888  1.00  0.00     0.251 C 
ATOM     23  H   UNL A   1      32.894  30.160  26.875  1.00  0.00     0.163 HD
ATOM     24  O   UNL A   1      34.193  31.574  28.290  1.00  0.00    -0.269 OA
BRANCH  22  25
ATOM     25  C   UNL A   1      35.958  30.021  28.215  1.00  0.00     0.039 A 
ATOM     26  C   UNL A   1      36.947  30.122  27.229  1.00  0.00     0.014 A 
ATOM     27  C   UNL A   1      36.277  29.447  29.448  1.00  0.00     0.014 A 
ATOM     28  C   UNL A   1      38.256  29.712  27.502  1.00  0.00     0.010 A 
ATOM     29  C   UNL A   1      37.599  29.114  29.747  1.00  0.00     0.010 A 
ATOM     30  C   UNL A   1      38.604  29.238  28.776  1.00  0.00    -0.014 A 
BRANCH  30  31
ATOM     31  C   UNL A   1      40.008  28.876  29.111  1.00  0.00     0.031 A 
ATOM     32  C   UNL A   1      40.926  29.884  29.751  1.00  0.00     0.074 A 
ATOM     33  C   UNL A   1      40.477  27.655  28.785  1.00  0.00     0.049 A 
ATOM     34  N   UNL A   1      42.194  29.768  30.053  1.00  0.00    -0.248 NA
ATOM     35  C   UNL A   1      40.352  31.201  30.073  1.00  0.00     0.031 C 
ATOM     36  C   UNL A   1      39.701  26.596  28.132  1.00  0.00     0.029 A 
ATOM     37  N   UNL A   1      41.721  27.098  28.949  1.00  0.00    -0.354 N 
ATOM     38  C   UNL A   1      42.574  30.998  30.583  1.00  0.00     0.074 A 
ATOM     39  C   UNL A   1      41.412  31.859  30.520  1.00  0.00     0.031 C 
ATOM     40  C   UNL A   1      40.480  25.514  27.974  1.00  0.00     0.029 A 
ATOM     41  C   UNL A   1      41.819  25.812  28.471  1.00  0.00     0.049 A 
ATOM     42  H   UNL A   1      42.473  27.575  29.370  1.00  0.00     0.167 HD
ATOM     43  C   UNL A   1      43.773  31.372  31.090  1.00  0.00     0.031 A 
ATOM     44  C   UNL A   1      42.870  24.969  28.424  1.00  0.00     0.031 A 
ATOM     45  C   UNL A   1      44.926  30.513  31.162  1.00  0.00     0.049 A 
ATOM     46  C   UNL A   1      44.194  25.413  28.979  1.00  0.00     0.074 A 
ATOM     47  C   UNL A   1      46.168  30.784  31.708  1.00  0.00     0.029 A 
ATOM     48  N   UNL A   1      44.981  29.217  30.670  1.00  0.00    -0.354 N 
ATOM     49  N   UNL A   1      44.514  26.559  29.529  1.00  0.00    -0.248 NA
ATOM     50  C   UNL A   1      45.299  24.445  28.914  1.00  0.00     0.031 C 
ATOM     51  C   UNL A   1      46.991  29.672  31.499  1.00  0.00     0.029 A 
ATOM     52  C   UNL A   1      46.243  28.685  30.877  1.00  0.00     0.049 A 
ATOM     53  H   UNL A   1      44.233  28.745  30.237  1.00  0.00     0.167 HD
ATOM     54  C   UNL A   1      45.850  26.443  29.899  1.00  0.00     0.074 A 
ATOM     55  C   UNL A   1      46.272  25.108  29.524  1.00  0.00     0.031 C 
ATOM     56  C   UNL A   1      46.653  27.358  30.494  1.00  0.00     0.031 A 
BRANCH  43  57
ATOM     57  C   UNL A   1      43.904  32.784  31.602  1.00  0.00    -0.014 A 
ATOM     58  C   UNL A   1      44.105  33.862  30.722  1.00  0.00     0.010 A 
ATOM     59  C   UNL A   1      43.777  33.042  32.980  1.00  0.00     0.010 A 
ATOM     60  C   UNL A   1      44.222  35.166  31.213  1.00  0.00     0.020 A 
ATOM     61  C   UNL A   1      43.865  34.348  33.473  1.00  0.00     0.020 A 
ATOM     62  C   UNL A   1      44.105  35.400  32.586  1.00  0.00     0.054 A 
BRANCH  62  63
ATOM     63  S   UNL A   1      44.241  37.104  33.192  1.00  0.00     0.124 S 
ATOM     64  O   UNL A   1      42.881  37.366  33.659  1.00  0.00    -0.237 OA
ATOM     65  O   UNL A   1      45.253  36.993  34.238  1.00  0.00    -0.237 OA
ATOM     66  O   UNL A   1      44.649  37.862  32.012  1.00  0.00    -0.744 OA
ENDBRANCH  62  63
ENDBRANCH  43  57
BRANCH  44  67
ATOM     67  C   UNL A   1      42.703  23.611  27.836  1.00  0.00    -0.014 A 
ATOM     68  C   UNL A   1      42.164  22.564  28.602  1.00  0.00     0.010 A 
ATOM     69  C   UNL A   1      43.069  23.364  26.500  1.00  0.00     0.010 A 
ATOM     70  C   UNL A   1      42.006  21.290  28.048  1.00  0.00     0.020 A 
ATOM     71  C   UNL A   1      42.886  22.099  25.934  1.00  0.00     0.020 A 
ATOM     72  C   UNL A   1      42.364  21.067  26.716  1.00  0.00     0.054 A 
BRANCH  72  73
ATOM     73  S   UNL A   1      42.094  19.421  26.001  1.00  0.00     0.124 S 
ATOM     74  O   UNL A   1      42.586  18.545  27.059  1.00  0.00    -0.237 OA
ATOM     75  O   UNL A   1      40.649  19.405  25.786  1.00  0.00    -0.237 OA
ATOM     76  O   UNL A   1      42.897  19.444  24.780  1.00  0.00    -0.744 OA
ENDBRANCH  72  73
ENDBRANCH  44  67
BRANCH  56  77
ATOM     77  C   UNL A   1      48.066  26.941  30.806  1.00  0.00    -0.014 A 
ATOM     78  C   UNL A   1      49.117  27.195  29.907  1.00  0.00     0.010 A 
ATOM     79  C   UNL A   1      48.352  26.329  32.041  1.00  0.00     0.010 A 
ATOM     80  C   UNL A   1      50.425  26.815  30.225  1.00  0.00     0.020 A 
ATOM     81  C   UNL A   1      49.662  25.974  32.372  1.00  0.00     0.020 A 
ATOM     82  C   UNL A   1      50.688  26.207  31.455  1.00  0.00     0.054 A 
BRANCH  82  83
ATOM     83  S   UNL A   1      52.400  25.762  31.861  1.00  0.00     0.124 S 
ATOM     84  O   UNL A   1      53.081  25.992  30.591  1.00  0.00    -0.237 OA
ATOM     85  O   UNL A   1      52.730  26.700  32.931  1.00  0.00    -0.237 OA
ATOM     86  O   UNL A   1      52.306  24.363  32.273  1.00  0.00    -0.744 OA
ENDBRANCH  82  83
ENDBRANCH  56  77
ENDBRANCH  30  31
ENDBRANCH  22  25
ENDBRANCH  20  21
ENDBRANCH   1  20
TORSDOF 15
ENDMDL
