MODEL 1
REMARK VINA RESULT:     -10.2      0.000      0.000
REMARK SMILES CCCOc1cncc(N[C@@](C)(C(=O)NCCCNC(=O)c2ccc(-c3c4nc(c(-c5ccc(S(=O)(=O)[O-])cc5)c5ccc([nH]5)c(-c5ccc(S(=O)(=O)[O-])cc5)c5nc(c(-c6ccc(S(=O)(=O)[O-])cc6)c6ccc3[nH]6)C=C5)C=C4)cc2)C(F)(F)F)n1
REMARK SMILES IDX 16 1 15 2 13 3 14 4 11 6 12 7 10 8 9 10 5 11 6 12 86 13 7 14
REMARK SMILES IDX 8 15 4 16 3 17 2 18 1 19 82 20 83 21 84 22 85 23 17 24 18 25
REMARK SMILES IDX 19 26 20 27 21 29 22 30 23 31 81 32 24 33 80 34 25 35 26 36
REMARK SMILES IDX 27 37 74 38 28 39 79 40 73 41 75 42 29 43 78 44 72 45 71 46
REMARK SMILES IDX 30 48 60 49 41 50 59 51 42 52 45 53 58 54 76 55 43 56 44 57
REMARK SMILES IDX 57 59 77 60 46 61 31 62 32 63 40 64 33 65 39 66 34 67 35 68
REMARK SMILES IDX 36 69 37 70 38 71 61 72 62 73 70 74 63 75 69 76 64 77 65 78
REMARK SMILES IDX 66 79 67 80 68 81 47 82 48 83 56 84 49 85 55 86 50 87 51 88
REMARK SMILES IDX 52 89 53 90 54 91
REMARK H PARENT 15 5 10 9 19 28 75 47 45 58
REMARK Flexibility Score: inf
ROOT
ATOM      1  C   UNL A   1      33.693  26.499  25.752  1.00  0.00     0.117 C 
ENDROOT
BRANCH   1   2
ATOM      2  N   UNL A   1      33.984  26.136  24.377  1.00  0.00    -0.354 N 
ATOM      3  C   UNL A   1      33.488  25.189  23.531  1.00  0.00     0.254 C 
ATOM      4  O   UNL A   1      34.068  25.133  22.442  1.00  0.00    -0.272 OA
ATOM      5  H   UNL A   1      34.688  26.690  23.970  1.00  0.00     0.163 HD
BRANCH   3   6
ATOM      6  C   UNL A   1      32.345  24.212  23.920  1.00  0.00     0.211 C 
ATOM      7  C   UNL A   1      32.211  24.063  25.447  1.00  0.00     0.055 C 
BRANCH   6   8
ATOM      8  N   UNL A   1      32.654  22.889  23.289  1.00  0.00    -0.347 N 
ATOM      9  H   UNL A   1      32.550  22.891  22.309  1.00  0.00     0.163 HD
BRANCH   8  10
ATOM     10  C   UNL A   1      33.051  21.681  23.788  1.00  0.00     0.149 A 
ATOM     11  C   UNL A   1      34.793  20.449  24.678  1.00  0.00     0.234 A 
ATOM     12  C   UNL A   1      33.934  19.412  24.993  1.00  0.00     0.179 A 
ATOM     13  N   UNL A   1      34.367  21.606  24.107  1.00  0.00    -0.193 NA
ATOM     14  N   UNL A   1      32.645  19.419  24.618  1.00  0.00    -0.255 NA
ATOM     15  C   UNL A   1      32.249  20.560  23.997  1.00  0.00     0.158 A 
BRANCH  11  16
ATOM     16  O   UNL A   1      36.119  20.340  25.020  1.00  0.00    -0.477 OA
BRANCH  16  17
ATOM     17  C   UNL A   1      36.837  21.568  24.796  1.00  0.00     0.231 C 
BRANCH  17  18
ATOM     18  C   UNL A   1      36.742  22.557  25.970  1.00  0.00     0.038 C 
ATOM     19  C   UNL A   1      37.427  23.891  25.681  1.00  0.00     0.007 C 
ENDBRANCH  17  18
ENDBRANCH  16  17
ENDBRANCH  11  16
ENDBRANCH   8  10
ENDBRANCH   6   8
BRANCH   6  20
ATOM     20  C   UNL A   1      31.059  24.949  23.453  1.00  0.00     0.420 C 
ATOM     21  F   UNL A   1      31.254  25.744  22.380  1.00  0.00    -0.168 F 
ATOM     22  F   UNL A   1      30.090  24.056  23.108  1.00  0.00    -0.168 F 
ATOM     23  F   UNL A   1      30.489  25.689  24.436  1.00  0.00    -0.168 F 
ENDBRANCH   6  20
ENDBRANCH   3   6
ENDBRANCH   1   2
BRANCH   1  24
ATOM     24  C   UNL A   1      33.545  28.001  25.937  1.00  0.00     0.042 C 
BRANCH  24  25
ATOM     25  C   UNL A   1      33.326  28.458  27.372  1.00  0.00     0.118 C 
BRANCH  25  26
ATOM     26  N   UNL A   1      33.360  29.905  27.530  1.00  0.00    -0.352 N 
ATOM     27  C   UNL A   1      34.372  30.716  27.990  1.00  0.00     0.251 C 
ATOM     28  H   UNL A   1      32.535  30.374  27.269  1.00  0.00     0.163 HD
ATOM     29  O   UNL A   1      34.147  31.908  28.195  1.00  0.00    -0.269 OA
BRANCH  27  30
ATOM     30  C   UNL A   1      35.712  30.154  28.267  1.00  0.00     0.039 A 
ATOM     31  C   UNL A   1      36.665  30.134  27.246  1.00  0.00     0.014 A 
ATOM     32  C   UNL A   1      36.037  29.661  29.533  1.00  0.00     0.014 A 
ATOM     33  C   UNL A   1      37.964  29.699  27.519  1.00  0.00     0.010 A 
ATOM     34  C   UNL A   1      37.355  29.325  29.828  1.00  0.00     0.010 A 
ATOM     35  C   UNL A   1      38.334  29.336  28.825  1.00  0.00    -0.014 A 
BRANCH  35  36
ATOM     36  C   UNL A   1      39.733  28.968  29.165  1.00  0.00     0.031 A 
ATOM     37  C   UNL A   1      40.646  29.977  29.812  1.00  0.00     0.074 A 
ATOM     38  C   UNL A   1      40.205  27.750  28.828  1.00  0.00     0.049 A 
ATOM     39  N   UNL A   1      41.912  29.864  30.119  1.00  0.00    -0.248 NA
ATOM     40  C   UNL A   1      40.067  31.293  30.130  1.00  0.00     0.031 C 
ATOM     41  C   UNL A   1      39.437  26.698  28.157  1.00  0.00     0.029 A 
ATOM     42  N   UNL A   1      41.449  27.193  28.995  1.00  0.00    -0.354 N 
ATOM     43  C   UNL A   1      42.285  31.096  30.646  1.00  0.00     0.074 A 
ATOM     44  C   UNL A   1      41.127  31.958  30.566  1.00  0.00     0.031 C 
ATOM     45  C   UNL A   1      40.214  25.615  28.001  1.00  0.00     0.029 A 
ATOM     46  C   UNL A   1      41.549  25.908  28.513  1.00  0.00     0.049 A 
ATOM     47  H   UNL A   1      42.198  27.668  29.422  1.00  0.00     0.167 HD
ATOM     48  C   UNL A   1      43.477  31.470  31.170  1.00  0.00     0.031 A 
ATOM     49  C   UNL A   1      42.598  25.062  28.477  1.00  0.00     0.031 A 
ATOM     50  C   UNL A   1      44.624  30.606  31.258  1.00  0.00     0.049 A 
ATOM     51  C   UNL A   1      43.916  25.506  29.052  1.00  0.00     0.074 A 
ATOM     52  C   UNL A   1      45.859  30.874  31.823  1.00  0.00     0.029 A 
ATOM     53  N   UNL A   1      44.680  29.311  30.767  1.00  0.00    -0.354 N 
ATOM     54  N   UNL A   1      44.227  26.653  29.608  1.00  0.00    -0.248 NA
ATOM     55  C   UNL A   1      45.020  24.536  29.008  1.00  0.00     0.031 C 
ATOM     56  C   UNL A   1      46.681  29.760  31.620  1.00  0.00     0.029 A 
ATOM     57  C   UNL A   1      45.937  28.774  30.993  1.00  0.00     0.049 A 
ATOM     58  H   UNL A   1      43.936  28.841  30.324  1.00  0.00     0.167 HD
ATOM     59  C   UNL A   1      45.554  26.531  30.009  1.00  0.00     0.074 A 
ATOM     60  C   UNL A   1      45.980  25.196  29.643  1.00  0.00     0.031 C 
ATOM     61  C   UNL A   1      46.346  27.441  30.626  1.00  0.00     0.031 A 
BRANCH  48  62
ATOM     62  C   UNL A   1      43.601  32.883  31.684  1.00  0.00    -0.014 A 
ATOM     63  C   UNL A   1      43.861  33.956  30.812  1.00  0.00     0.010 A 
ATOM     64  C   UNL A   1      43.413  33.147  33.053  1.00  0.00     0.010 A 
ATOM     65  C   UNL A   1      43.975  35.258  31.304  1.00  0.00     0.020 A 
ATOM     66  C   UNL A   1      43.494  34.452  33.545  1.00  0.00     0.020 A 
ATOM     67  C   UNL A   1      43.791  35.498  32.668  1.00  0.00     0.054 A 
BRANCH  67  68
ATOM     68  S   UNL A   1      43.920  37.202  33.274  1.00  0.00     0.124 S 
ATOM     69  O   UNL A   1      43.960  37.963  32.027  1.00  0.00    -0.237 OA
ATOM     70  O   UNL A   1      42.700  37.355  34.063  1.00  0.00    -0.237 OA
ATOM     71  O   UNL A   1      45.162  37.205  34.045  1.00  0.00    -0.744 OA
ENDBRANCH  67  68
ENDBRANCH  48  62
BRANCH  49  72
ATOM     72  C   UNL A   1      42.440  23.704  27.887  1.00  0.00    -0.014 A 
ATOM     73  C   UNL A   1      42.785  23.463  26.545  1.00  0.00     0.010 A 
ATOM     74  C   UNL A   1      41.954  22.639  28.668  1.00  0.00     0.010 A 
ATOM     75  C   UNL A   1      42.628  22.190  25.989  1.00  0.00     0.020 A 
ATOM     76  C   UNL A   1      41.825  21.357  28.126  1.00  0.00     0.020 A 
ATOM     77  C   UNL A   1      42.152  21.143  26.785  1.00  0.00     0.054 A 
BRANCH  77  78
ATOM     78  S   UNL A   1      42.002  19.488  26.055  1.00  0.00     0.124 S 
ATOM     79  O   UNL A   1      42.838  19.605  24.864  1.00  0.00    -0.237 OA
ATOM     80  O   UNL A   1      42.525  18.630  27.115  1.00  0.00    -0.237 OA
ATOM     81  O   UNL A   1      40.570  19.353  25.805  1.00  0.00    -0.744 OA
ENDBRANCH  77  78
ENDBRANCH  49  72
BRANCH  61  82
ATOM     82  C   UNL A   1      47.744  27.016  30.991  1.00  0.00    -0.014 A 
ATOM     83  C   UNL A   1      48.013  26.326  32.186  1.00  0.00     0.010 A 
ATOM     84  C   UNL A   1      48.796  27.258  30.089  1.00  0.00     0.010 A 
ATOM     85  C   UNL A   1      49.315  25.913  32.485  1.00  0.00     0.020 A 
ATOM     86  C   UNL A   1      50.092  26.820  30.369  1.00  0.00     0.020 A 
ATOM     87  C   UNL A   1      50.345  26.161  31.574  1.00  0.00     0.054 A 
BRANCH  87  88
ATOM     88  S   UNL A   1      52.016  25.572  31.964  1.00  0.00     0.124 S 
ATOM     89  O   UNL A   1      52.337  26.340  33.165  1.00  0.00    -0.237 OA
ATOM     90  O   UNL A   1      51.810  24.141  32.169  1.00  0.00    -0.237 OA
ATOM     91  O   UNL A   1      52.793  25.920  30.777  1.00  0.00    -0.744 OA
ENDBRANCH  87  88
ENDBRANCH  61  82
ENDBRANCH  35  36
ENDBRANCH  27  30
ENDBRANCH  25  26
ENDBRANCH  24  25
ENDBRANCH   1  24
TORSDOF 19
ENDMDL
MODEL 2
REMARK VINA RESULT:     -10.0      2.963      9.428
REMARK SMILES CCCOc1cncc(N[C@@](C)(C(=O)NCCCNC(=O)c2ccc(-c3c4nc(c(-c5ccc(S(=O)(=O)[O-])cc5)c5ccc([nH]5)c(-c5ccc(S(=O)(=O)[O-])cc5)c5nc(c(-c6ccc(S(=O)(=O)[O-])cc6)c6ccc3[nH]6)C=C5)C=C4)cc2)C(F)(F)F)n1
REMARK SMILES IDX 16 1 15 2 13 3 14 4 11 6 12 7 10 8 9 10 5 11 6 12 86 13 7 14
REMARK SMILES IDX 8 15 4 16 3 17 2 18 1 19 82 20 83 21 84 22 85 23 17 24 18 25
REMARK SMILES IDX 19 26 20 27 21 29 22 30 23 31 81 32 24 33 80 34 25 35 26 36
REMARK SMILES IDX 27 37 74 38 28 39 79 40 73 41 75 42 29 43 78 44 72 45 71 46
REMARK SMILES IDX 30 48 60 49 41 50 59 51 42 52 45 53 58 54 76 55 43 56 44 57
REMARK SMILES IDX 57 59 77 60 46 61 31 62 32 63 40 64 33 65 39 66 34 67 35 68
REMARK SMILES IDX 36 69 37 70 38 71 61 72 62 73 70 74 63 75 69 76 64 77 65 78
REMARK SMILES IDX 66 79 67 80 68 81 47 82 48 83 56 84 49 85 55 86 50 87 51 88
REMARK SMILES IDX 52 89 53 90 54 91
REMARK H PARENT 15 5 10 9 19 28 75 47 45 58
REMARK Flexibility Score: inf
ROOT
ATOM      1  C   UNL A   1      34.660  24.200  26.039  1.00  0.00     0.117 C 
ENDROOT
BRANCH   1   2
ATOM      2  N   UNL A   1      33.318  23.650  25.993  1.00  0.00    -0.354 N 
ATOM      3  C   UNL A   1      32.368  23.571  25.017  1.00  0.00     0.254 C 
ATOM      4  O   UNL A   1      31.293  23.098  25.397  1.00  0.00    -0.272 OA
ATOM      5  H   UNL A   1      33.032  23.250  26.845  1.00  0.00     0.163 HD
BRANCH   3   6
ATOM      6  C   UNL A   1      32.586  24.097  23.571  1.00  0.00     0.211 C 
ATOM      7  C   UNL A   1      33.939  24.815  23.418  1.00  0.00     0.055 C 
BRANCH   6   8
ATOM      8  N   UNL A   1      31.457  25.032  23.263  1.00  0.00    -0.347 N 
ATOM      9  H   UNL A   1      30.696  24.591  22.816  1.00  0.00     0.163 HD
BRANCH   8  10
ATOM     10  C   UNL A   1      31.261  26.368  23.471  1.00  0.00     0.149 A 
ATOM     11  C   UNL A   1      30.282  28.310  22.690  1.00  0.00     0.234 A 
ATOM     12  C   UNL A   1      30.612  28.977  23.856  1.00  0.00     0.179 A 
ATOM     13  N   UNL A   1      30.567  26.997  22.491  1.00  0.00    -0.193 NA
ATOM     14  N   UNL A   1      31.369  28.411  24.809  1.00  0.00    -0.255 NA
ATOM     15  C   UNL A   1      31.693  27.114  24.568  1.00  0.00     0.158 A 
BRANCH  11  16
ATOM     16  O   UNL A   1      29.574  28.978  21.721  1.00  0.00    -0.477 OA
BRANCH  16  17
ATOM     17  C   UNL A   1      29.440  30.380  22.021  1.00  0.00     0.231 C 
BRANCH  17  18
ATOM     18  C   UNL A   1      27.980  30.845  22.147  1.00  0.00     0.038 C 
ATOM     19  C   UNL A   1      27.587  31.190  23.581  1.00  0.00     0.007 C 
ENDBRANCH  17  18
ENDBRANCH  16  17
ENDBRANCH  11  16
ENDBRANCH   8  10
ENDBRANCH   6   8
BRANCH   6  20
ATOM     20  C   UNL A   1      32.698  22.799  22.723  1.00  0.00     0.420 C 
ATOM     21  F   UNL A   1      33.205  23.004  21.490  1.00  0.00    -0.168 F 
ATOM     22  F   UNL A   1      33.510  21.892  23.335  1.00  0.00    -0.168 F 
ATOM     23  F   UNL A   1      31.515  22.148  22.597  1.00  0.00    -0.168 F 
ENDBRANCH   6  20
ENDBRANCH   3   6
ENDBRANCH   1   2
BRANCH   1  24
ATOM     24  C   UNL A   1      35.732  23.128  25.917  1.00  0.00     0.042 C 
BRANCH  24  25
ATOM     25  C   UNL A   1      37.035  23.584  25.277  1.00  0.00     0.118 C 
BRANCH  25  26
ATOM     26  N   UNL A   1      38.155  22.695  25.549  1.00  0.00    -0.352 N 
ATOM     27  C   UNL A   1      39.352  22.956  26.176  1.00  0.00     0.251 C 
ATOM     28  H   UNL A   1      38.039  21.768  25.238  1.00  0.00     0.163 HD
ATOM     29  O   UNL A   1      40.237  22.101  26.169  1.00  0.00    -0.269 OA
BRANCH  27  30
ATOM     30  C   UNL A   1      39.587  24.264  26.825  1.00  0.00     0.039 A 
ATOM     31  C   UNL A   1      39.116  24.472  28.123  1.00  0.00     0.014 A 
ATOM     32  C   UNL A   1      40.282  25.280  26.164  1.00  0.00     0.014 A 
ATOM     33  C   UNL A   1      39.416  25.665  28.786  1.00  0.00     0.010 A 
ATOM     34  C   UNL A   1      40.664  26.423  26.859  1.00  0.00     0.010 A 
ATOM     35  C   UNL A   1      40.234  26.631  28.177  1.00  0.00    -0.014 A 
BRANCH  35  36
ATOM     36  C   UNL A   1      40.653  27.863  28.897  1.00  0.00     0.031 A 
ATOM     37  C   UNL A   1      42.001  27.927  29.566  1.00  0.00     0.074 A 
ATOM     38  C   UNL A   1      39.794  28.897  29.009  1.00  0.00     0.049 A 
ATOM     39  N   UNL A   1      42.514  28.884  30.296  1.00  0.00    -0.248 NA
ATOM     40  C   UNL A   1      42.875  26.751  29.420  1.00  0.00     0.031 C 
ATOM     41  C   UNL A   1      38.443  28.943  28.445  1.00  0.00     0.029 A 
ATOM     42  N   UNL A   1      39.927  30.107  29.643  1.00  0.00    -0.354 N 
ATOM     43  C   UNL A   1      43.757  28.419  30.710  1.00  0.00     0.074 A 
ATOM     44  C   UNL A   1      43.898  27.075  30.197  1.00  0.00     0.031 C 
ATOM     45  C   UNL A   1      37.885  30.130  28.730  1.00  0.00     0.029 A 
ATOM     46  C   UNL A   1      38.816  30.913  29.537  1.00  0.00     0.049 A 
ATOM     47  H   UNL A   1      40.741  30.375  30.128  1.00  0.00     0.167 HD
ATOM     48  C   UNL A   1      44.706  29.061  31.433  1.00  0.00     0.031 A 
ATOM     49  C   UNL A   1      38.568  32.138  30.039  1.00  0.00     0.031 A 
ATOM     50  C   UNL A   1      44.566  30.403  31.932  1.00  0.00     0.049 A 
ATOM     51  C   UNL A   1      39.633  32.825  30.852  1.00  0.00     0.074 A 
ATOM     52  C   UNL A   1      45.493  31.162  32.626  1.00  0.00     0.029 A 
ATOM     53  N   UNL A   1      43.431  31.187  31.794  1.00  0.00    -0.354 N 
ATOM     54  N   UNL A   1      40.828  32.394  31.175  1.00  0.00    -0.248 NA
ATOM     55  C   UNL A   1      39.318  34.170  31.356  1.00  0.00     0.031 C 
ATOM     56  C   UNL A   1      44.895  32.382  32.960  1.00  0.00     0.029 A 
ATOM     57  C   UNL A   1      43.622  32.411  32.412  1.00  0.00     0.049 A 
ATOM     58  H   UNL A   1      42.609  30.913  31.326  1.00  0.00     0.167 HD
ATOM     59  C   UNL A   1      41.422  33.428  31.893  1.00  0.00     0.074 A 
ATOM     60  C   UNL A   1      40.458  34.507  31.945  1.00  0.00     0.031 C 
ATOM     61  C   UNL A   1      42.655  33.478  32.454  1.00  0.00     0.031 A 
BRANCH  48  62
ATOM     62  C   UNL A   1      45.981  28.313  31.733  1.00  0.00    -0.014 A 
ATOM     63  C   UNL A   1      46.097  27.501  32.877  1.00  0.00     0.010 A 
ATOM     64  C   UNL A   1      47.063  28.388  30.838  1.00  0.00     0.010 A 
ATOM     65  C   UNL A   1      47.285  26.815  33.142  1.00  0.00     0.020 A 
ATOM     66  C   UNL A   1      48.241  27.678  31.082  1.00  0.00     0.020 A 
ATOM     67  C   UNL A   1      48.350  26.909  32.242  1.00  0.00     0.054 A 
BRANCH  67  68
ATOM     68  S   UNL A   1      49.871  25.988  32.600  1.00  0.00     0.124 S 
ATOM     69  O   UNL A   1      50.806  27.064  32.922  1.00  0.00    -0.237 OA
ATOM     70  O   UNL A   1      49.476  25.144  33.725  1.00  0.00    -0.237 OA
ATOM     71  O   UNL A   1      50.148  25.275  31.356  1.00  0.00    -0.744 OA
ENDBRANCH  67  68
ENDBRANCH  48  62
BRANCH  49  72
ATOM     72  C   UNL A   1      37.260  32.801  29.776  1.00  0.00    -0.014 A 
ATOM     73  C   UNL A   1      36.255  32.816  30.760  1.00  0.00     0.010 A 
ATOM     74  C   UNL A   1      37.016  33.433  28.542  1.00  0.00     0.010 A 
ATOM     75  C   UNL A   1      35.025  33.430  30.509  1.00  0.00     0.020 A 
ATOM     76  C   UNL A   1      35.799  34.076  28.298  1.00  0.00     0.020 A 
ATOM     77  C   UNL A   1      34.806  34.059  29.279  1.00  0.00     0.054 A 
BRANCH  77  78
ATOM     78  S   UNL A   1      33.219  34.892  28.994  1.00  0.00     0.124 S 
ATOM     79  O   UNL A   1      33.646  36.210  28.535  1.00  0.00    -0.237 OA
ATOM     80  O   UNL A   1      32.595  34.041  27.985  1.00  0.00    -0.237 OA
ATOM     81  O   UNL A   1      32.577  34.863  30.306  1.00  0.00    -0.744 OA
ENDBRANCH  77  78
ENDBRANCH  49  72
BRANCH  61  82
ATOM     82  C   UNL A   1      43.057  34.758  33.138  1.00  0.00    -0.014 A 
ATOM     83  C   UNL A   1      42.886  34.937  34.521  1.00  0.00     0.010 A 
ATOM     84  C   UNL A   1      43.676  35.776  32.388  1.00  0.00     0.010 A 
ATOM     85  C   UNL A   1      43.299  36.122  35.137  1.00  0.00     0.020 A 
ATOM     86  C   UNL A   1      44.118  36.948  33.004  1.00  0.00     0.020 A 
ATOM     87  C   UNL A   1      43.914  37.119  34.374  1.00  0.00     0.054 A 
BRANCH  87  88
ATOM     88  S   UNL A   1      44.485  38.627  35.205  1.00  0.00     0.124 S 
ATOM     89  O   UNL A   1      44.066  38.391  36.585  1.00  0.00    -0.237 OA
ATOM     90  O   UNL A   1      45.926  38.595  34.971  1.00  0.00    -0.237 OA
ATOM     91  O   UNL A   1      43.771  39.697  34.513  1.00  0.00    -0.744 OA
ENDBRANCH  87  88
ENDBRANCH  61  82
ENDBRANCH  35  36
ENDBRANCH  27  30
ENDBRANCH  25  26
ENDBRANCH  24  25
ENDBRANCH   1  24
TORSDOF 19
ENDMDL
MODEL 3
REMARK VINA RESULT:      -9.7      4.576      9.549
REMARK SMILES CCCOc1cncc(N[C@@](C)(C(=O)NCCCNC(=O)c2ccc(-c3c4nc(c(-c5ccc(S(=O)(=O)[O-])cc5)c5ccc([nH]5)c(-c5ccc(S(=O)(=O)[O-])cc5)c5nc(c(-c6ccc(S(=O)(=O)[O-])cc6)c6ccc3[nH]6)C=C5)C=C4)cc2)C(F)(F)F)n1
REMARK SMILES IDX 16 1 15 2 13 3 14 4 11 6 12 7 10 8 9 10 5 11 6 12 86 13 7 14
REMARK SMILES IDX 8 15 4 16 3 17 2 18 1 19 82 20 83 21 84 22 85 23 17 24 18 25
REMARK SMILES IDX 19 26 20 27 21 29 22 30 23 31 81 32 24 33 80 34 25 35 26 36
REMARK SMILES IDX 27 37 74 38 28 39 79 40 73 41 75 42 29 43 78 44 72 45 71 46
REMARK SMILES IDX 30 48 60 49 41 50 59 51 42 52 45 53 58 54 76 55 43 56 44 57
REMARK SMILES IDX 57 59 77 60 46 61 31 62 32 63 40 64 33 65 39 66 34 67 35 68
REMARK SMILES IDX 36 69 37 70 38 71 61 72 62 73 70 74 63 75 69 76 64 77 65 78
REMARK SMILES IDX 66 79 67 80 68 81 47 82 48 83 56 84 49 85 55 86 50 87 51 88
REMARK SMILES IDX 52 89 53 90 54 91
REMARK H PARENT 15 5 10 9 19 28 75 47 45 58
REMARK Flexibility Score: inf
ROOT
ATOM      1  C   UNL A   1      42.332  21.365  27.547  1.00  0.00     0.117 C 
ENDROOT
BRANCH   1   2
ATOM      2  N   UNL A   1      42.998  20.816  26.380  1.00  0.00    -0.354 N 
ATOM      3  C   UNL A   1      44.010  21.261  25.581  1.00  0.00     0.254 C 
ATOM      4  O   UNL A   1      44.243  20.532  24.611  1.00  0.00    -0.272 OA
ATOM      5  H   UNL A   1      42.647  19.938  26.109  1.00  0.00     0.163 HD
BRANCH   3   6
ATOM      6  C   UNL A   1      44.759  22.601  25.819  1.00  0.00     0.211 C 
ATOM      7  C   UNL A   1      45.984  22.747  24.897  1.00  0.00     0.055 C 
BRANCH   6   8
ATOM      8  N   UNL A   1      45.177  22.628  27.256  1.00  0.00    -0.347 N 
ATOM      9  H   UNL A   1      45.144  21.743  27.689  1.00  0.00     0.163 HD
BRANCH   8  10
ATOM     10  C   UNL A   1      45.596  23.623  28.094  1.00  0.00     0.149 A 
ATOM     11  C   UNL A   1      45.200  24.770  30.061  1.00  0.00     0.234 A 
ATOM     12  C   UNL A   1      46.415  25.423  29.956  1.00  0.00     0.179 A 
ATOM     13  N   UNL A   1      44.786  23.842  29.159  1.00  0.00    -0.193 NA
ATOM     14  N   UNL A   1      47.200  25.292  28.876  1.00  0.00    -0.255 NA
ATOM     15  C   UNL A   1      46.744  24.403  27.957  1.00  0.00     0.158 A 
BRANCH  11  16
ATOM     16  O   UNL A   1      44.409  25.014  31.157  1.00  0.00    -0.477 OA
BRANCH  16  17
ATOM     17  C   UNL A   1      44.083  26.410  31.288  1.00  0.00     0.231 C 
BRANCH  17  18
ATOM     18  C   UNL A   1      43.961  26.878  32.748  1.00  0.00     0.038 C 
ATOM     19  C   UNL A   1      43.828  25.722  33.735  1.00  0.00     0.007 C 
ENDBRANCH  17  18
ENDBRANCH  16  17
ENDBRANCH  11  16
ENDBRANCH   8  10
ENDBRANCH   6   8
BRANCH   6  20
ATOM     20  C   UNL A   1      43.742  23.677  25.345  1.00  0.00     0.420 C 
ATOM     21  F   UNL A   1      42.933  24.124  26.328  1.00  0.00    -0.168 F 
ATOM     22  F   UNL A   1      44.391  24.767  24.846  1.00  0.00    -0.168 F 
ATOM     23  F   UNL A   1      42.970  23.254  24.314  1.00  0.00    -0.168 F 
ENDBRANCH   6  20
ENDBRANCH   3   6
ENDBRANCH   1   2
BRANCH   1  24
ATOM     24  C   UNL A   1      40.827  21.481  27.355  1.00  0.00     0.042 C 
BRANCH  24  25
ATOM     25  C   UNL A   1      40.382  21.892  25.959  1.00  0.00     0.118 C 
BRANCH  25  26
ATOM     26  N   UNL A   1      39.002  22.352  25.904  1.00  0.00    -0.352 N 
ATOM     27  C   UNL A   1      38.448  23.527  26.359  1.00  0.00     0.251 C 
ATOM     28  H   UNL A   1      38.371  21.730  25.476  1.00  0.00     0.163 HD
ATOM     29  O   UNL A   1      37.225  23.659  26.356  1.00  0.00    -0.269 OA
BRANCH  27  30
ATOM     30  C   UNL A   1      39.312  24.609  26.879  1.00  0.00     0.039 A 
ATOM     31  C   UNL A   1      39.964  25.450  25.976  1.00  0.00     0.014 A 
ATOM     32  C   UNL A   1      39.469  24.805  28.254  1.00  0.00     0.014 A 
ATOM     33  C   UNL A   1      40.703  26.537  26.451  1.00  0.00     0.010 A 
ATOM     34  C   UNL A   1      40.120  25.942  28.721  1.00  0.00     0.010 A 
ATOM     35  C   UNL A   1      40.747  26.821  27.826  1.00  0.00    -0.014 A 
BRANCH  35  36
ATOM     36  C   UNL A   1      41.440  28.027  28.351  1.00  0.00     0.031 A 
ATOM     37  C   UNL A   1      40.643  29.156  28.952  1.00  0.00     0.074 A 
ATOM     38  C   UNL A   1      42.778  28.139  28.223  1.00  0.00     0.049 A 
ATOM     39  N   UNL A   1      41.061  30.312  29.398  1.00  0.00    -0.248 NA
ATOM     40  C   UNL A   1      39.185  28.972  29.038  1.00  0.00     0.031 C 
ATOM     41  C   UNL A   1      43.660  27.137  27.619  1.00  0.00     0.029 A 
ATOM     42  N   UNL A   1      43.632  29.151  28.586  1.00  0.00    -0.354 N 
ATOM     43  C   UNL A   1      39.919  30.999  29.798  1.00  0.00     0.074 A 
ATOM     44  C   UNL A   1      38.788  30.152  29.490  1.00  0.00     0.031 C 
ATOM     45  C   UNL A   1      44.929  27.569  27.683  1.00  0.00     0.029 A 
ATOM     46  C   UNL A   1      44.951  28.898  28.286  1.00  0.00     0.049 A 
ATOM     47  H   UNL A   1      43.328  29.981  29.022  1.00  0.00     0.167 HD
ATOM     48  C   UNL A   1      39.822  32.214  30.387  1.00  0.00     0.031 A 
ATOM     49  C   UNL A   1      46.053  29.651  28.467  1.00  0.00     0.031 A 
ATOM     50  C   UNL A   1      40.951  33.049  30.701  1.00  0.00     0.049 A 
ATOM     51  C   UNL A   1      45.917  31.005  29.110  1.00  0.00     0.074 A 
ATOM     52  C   UNL A   1      40.960  34.272  31.350  1.00  0.00     0.029 A 
ATOM     53  N   UNL A   1      42.268  32.751  30.390  1.00  0.00    -0.354 N 
ATOM     54  N   UNL A   1      44.834  31.606  29.542  1.00  0.00    -0.248 NA
ATOM     55  C   UNL A   1      47.154  31.775  29.304  1.00  0.00     0.031 C 
ATOM     56  C   UNL A   1      42.278  34.740  31.377  1.00  0.00     0.029 A 
ATOM     57  C   UNL A   1      43.097  33.778  30.809  1.00  0.00     0.049 A 
ATOM     58  H   UNL A   1      42.570  31.930  29.938  1.00  0.00     0.167 HD
ATOM     59  C   UNL A   1      45.264  32.812  30.088  1.00  0.00     0.074 A 
ATOM     60  C   UNL A   1      46.704  32.847  29.942  1.00  0.00     0.031 C 
ATOM     61  C   UNL A   1      44.531  33.798  30.661  1.00  0.00     0.031 A 
BRANCH  48  62
ATOM     62  C   UNL A   1      38.441  32.718  30.725  1.00  0.00    -0.014 A 
ATOM     63  C   UNL A   1      37.891  32.531  32.007  1.00  0.00     0.010 A 
ATOM     64  C   UNL A   1      37.699  33.424  29.762  1.00  0.00     0.010 A 
ATOM     65  C   UNL A   1      36.610  33.001  32.305  1.00  0.00     0.020 A 
ATOM     66  C   UNL A   1      36.430  33.925  30.065  1.00  0.00     0.020 A 
ATOM     67  C   UNL A   1      35.887  33.695  31.331  1.00  0.00     0.054 A 
BRANCH  67  68
ATOM     68  S   UNL A   1      34.236  34.315  31.754  1.00  0.00     0.124 S 
ATOM     69  O   UNL A   1      34.549  35.588  32.400  1.00  0.00    -0.237 OA
ATOM     70  O   UNL A   1      33.588  34.417  30.448  1.00  0.00    -0.237 OA
ATOM     71  O   UNL A   1      33.693  33.286  32.637  1.00  0.00    -0.744 OA
ENDBRANCH  67  68
ENDBRANCH  48  62
BRANCH  49  72
ATOM     72  C   UNL A   1      47.385  29.136  28.043  1.00  0.00    -0.014 A 
ATOM     73  C   UNL A   1      47.759  29.152  26.687  1.00  0.00     0.010 A 
ATOM     74  C   UNL A   1      48.293  28.638  28.995  1.00  0.00     0.010 A 
ATOM     75  C   UNL A   1      49.006  28.660  26.290  1.00  0.00     0.020 A 
ATOM     76  C   UNL A   1      49.553  28.174  28.606  1.00  0.00     0.020 A 
ATOM     77  C   UNL A   1      49.897  28.177  27.253  1.00  0.00     0.054 A 
BRANCH  77  78
ATOM     78  S   UNL A   1      51.528  27.589  26.719  1.00  0.00     0.124 S 
ATOM     79  O   UNL A   1      51.176  26.568  25.736  1.00  0.00    -0.237 OA
ATOM     80  O   UNL A   1      52.139  28.802  26.182  1.00  0.00    -0.237 OA
ATOM     81  O   UNL A   1      52.132  27.090  27.952  1.00  0.00    -0.744 OA
ENDBRANCH  77  78
ENDBRANCH  49  72
BRANCH  61  82
ATOM     82  C   UNL A   1      45.273  34.984  31.217  1.00  0.00    -0.014 A 
ATOM     83  C   UNL A   1      45.767  34.990  32.534  1.00  0.00     0.010 A 
ATOM     84  C   UNL A   1      45.534  36.088  30.384  1.00  0.00     0.010 A 
ATOM     85  C   UNL A   1      46.481  36.091  33.015  1.00  0.00     0.020 A 
ATOM     86  C   UNL A   1      46.274  37.176  30.851  1.00  0.00     0.020 A 
ATOM     87  C   UNL A   1      46.732  37.176  32.170  1.00  0.00     0.054 A 
BRANCH  87  88
ATOM     88  S   UNL A   1      47.703  38.570  32.804  1.00  0.00     0.124 S 
ATOM     89  O   UNL A   1      46.737  39.665  32.748  1.00  0.00    -0.237 OA
ATOM     90  O   UNL A   1      48.069  38.122  34.145  1.00  0.00    -0.237 OA
ATOM     91  O   UNL A   1      48.816  38.675  31.863  1.00  0.00    -0.744 OA
ENDBRANCH  87  88
ENDBRANCH  61  82
ENDBRANCH  35  36
ENDBRANCH  27  30
ENDBRANCH  25  26
ENDBRANCH  24  25
ENDBRANCH   1  24
TORSDOF 19
ENDMDL
