MODEL 1
REMARK VINA RESULT:     -12.0      0.000      0.000
REMARK SMILES O=C(NCCCNC(=O)c1ccc(S(=O)(=O)Cc2cccs2)c(F)c1)c1ccc(-c2c3nc(c(-c4ccc(S(=O)(=O)[O-])cc4)c4ccc([nH]4)c(-c4ccc(S(=O)(=O)[O-])cc4)c4nc(c(-c5ccc(S(=O)(=O)[O-])cc5)c5ccc2[nH]5)C=C4)C=C3)cc1
REMARK SMILES IDX 5 1 4 2 3 3 1 4 2 5 26 7 27 8 85 9 28 10 84 11 29 12 30 13
REMARK SMILES IDX 31 14 78 15 32 16 83 17 77 18 79 19 33 20 82 21 76 22 75 23
REMARK SMILES IDX 34 25 64 26 45 27 63 28 46 29 49 30 62 31 80 32 47 33 48 34
REMARK SMILES IDX 61 36 81 37 50 38 35 39 36 40 44 41 37 42 43 43 38 44 39 45
REMARK SMILES IDX 40 46 41 47 42 48 65 49 66 50 74 51 67 52 73 53 68 54 69 55
REMARK SMILES IDX 70 56 71 57 72 58 51 59 52 60 60 61 53 62 59 63 54 64 55 65
REMARK SMILES IDX 56 66 57 67 58 68 6 69 7 70 8 71 9 73 10 74 11 75 25 76
REMARK SMILES IDX 12 77 23 78 13 79 24 80 14 81 15 82 16 83 17 84 18 85 19 86
REMARK SMILES IDX 22 87 20 88 21 89
REMARK H PARENT 3 6 79 24 49 35 7 72
REMARK Flexibility Score: inf
ROOT
ATOM      1  C   UNL A   1      34.202  31.039  27.599  1.00  0.00     0.042 C 
ENDROOT
BRANCH   1   2
ATOM      2  C   UNL A   1      35.545  30.595  28.166  1.00  0.00     0.118 C 
BRANCH   2   3
ATOM      3  N   UNL A   1      35.518  30.423  29.613  1.00  0.00    -0.352 N 
ATOM      4  O   UNL A   1      36.152  29.679  31.636  1.00  0.00    -0.269 OA
ATOM      5  C   UNL A   1      36.461  29.904  30.468  1.00  0.00     0.251 C 
ATOM      6  H   UNL A   1      34.690  30.728  30.049  1.00  0.00     0.163 HD
BRANCH   5   7
ATOM      7  C   UNL A   1      37.830  29.605  29.993  1.00  0.00     0.039 A 
ATOM      8  C   UNL A   1      38.194  29.843  28.668  1.00  0.00     0.014 A 
ATOM      9  C   UNL A   1      38.781  29.118  30.896  1.00  0.00     0.014 A 
ATOM     10  C   UNL A   1      39.444  29.446  28.210  1.00  0.00     0.010 A 
ATOM     11  C   UNL A   1      40.075  28.815  30.457  1.00  0.00     0.010 A 
ATOM     12  C   UNL A   1      40.410  28.950  29.102  1.00  0.00    -0.014 A 
BRANCH  12  13
ATOM     13  C   UNL A   1      41.775  28.667  28.589  1.00  0.00     0.031 A 
ATOM     14  C   UNL A   1      42.851  29.719  28.590  1.00  0.00     0.074 A 
ATOM     15  C   UNL A   1      42.053  27.413  28.178  1.00  0.00     0.049 A 
ATOM     16  N   UNL A   1      44.109  29.601  28.247  1.00  0.00    -0.248 NA
ATOM     17  C   UNL A   1      42.474  31.074  29.021  1.00  0.00     0.031 C 
ATOM     18  C   UNL A   1      41.084  26.313  28.117  1.00  0.00     0.029 A 
ATOM     19  N   UNL A   1      43.228  26.838  27.770  1.00  0.00    -0.354 N 
ATOM     20  C   UNL A   1      44.671  30.861  28.408  1.00  0.00     0.074 A 
ATOM     21  C   UNL A   1      43.610  31.739  28.857  1.00  0.00     0.031 C 
ATOM     22  C   UNL A   1      41.718  25.185  27.764  1.00  0.00     0.029 A 
ATOM     23  C   UNL A   1      43.119  25.493  27.508  1.00  0.00     0.049 A 
ATOM     24  H   UNL A   1      44.070  27.340  27.673  1.00  0.00     0.167 HD
ATOM     25  C   UNL A   1      45.954  31.250  28.206  1.00  0.00     0.031 A 
ATOM     26  C   UNL A   1      44.038  24.600  27.097  1.00  0.00     0.031 A 
ATOM     27  C   UNL A   1      47.006  30.371  27.760  1.00  0.00     0.049 A 
ATOM     28  C   UNL A   1      45.448  25.063  26.872  1.00  0.00     0.074 A 
ATOM     29  C   UNL A   1      48.341  30.669  27.541  1.00  0.00     0.029 A 
ATOM     30  N   UNL A   1      46.847  29.026  27.467  1.00  0.00    -0.354 N 
ATOM     31  N   UNL A   1      45.959  26.257  27.052  1.00  0.00    -0.248 NA
ATOM     32  C   UNL A   1      46.403  24.059  26.386  1.00  0.00     0.031 C 
ATOM     33  C   UNL A   1      48.978  29.514  27.075  1.00  0.00     0.029 A 
ATOM     34  C   UNL A   1      48.052  28.485  27.052  1.00  0.00     0.049 A 
ATOM     35  H   UNL A   1      46.001  28.528  27.542  1.00  0.00     0.167 HD
ATOM     36  C   UNL A   1      47.299  26.148  26.703  1.00  0.00     0.074 A 
ATOM     37  C   UNL A   1      47.525  24.764  26.337  1.00  0.00     0.031 C 
ATOM     38  C   UNL A   1      48.254  27.109  26.677  1.00  0.00     0.031 A 
BRANCH  25  39
ATOM     39  C   UNL A   1      46.300  32.695  28.452  1.00  0.00    -0.014 A 
ATOM     40  C   UNL A   1      46.235  33.643  27.415  1.00  0.00     0.010 A 
ATOM     41  C   UNL A   1      46.617  33.126  29.753  1.00  0.00     0.010 A 
ATOM     42  C   UNL A   1      46.500  34.992  27.670  1.00  0.00     0.020 A 
ATOM     43  C   UNL A   1      46.861  34.478  30.017  1.00  0.00     0.020 A 
ATOM     44  C   UNL A   1      46.811  35.400  28.971  1.00  0.00     0.054 A 
BRANCH  44  45
ATOM     45  S   UNL A   1      47.103  37.165  29.283  1.00  0.00     0.124 S 
ATOM     46  O   UNL A   1      45.905  37.540  30.029  1.00  0.00    -0.237 OA
ATOM     47  O   UNL A   1      48.344  37.153  30.054  1.00  0.00    -0.237 OA
ATOM     48  O   UNL A   1      47.211  37.740  27.946  1.00  0.00    -0.744 OA
ENDBRANCH  44  45
ENDBRANCH  25  39
BRANCH  26  49
ATOM     49  C   UNL A   1      43.643  23.189  26.845  1.00  0.00    -0.014 A 
ATOM     50  C   UNL A   1      42.981  22.437  27.830  1.00  0.00     0.010 A 
ATOM     51  C   UNL A   1      43.923  22.593  25.600  1.00  0.00     0.010 A 
ATOM     52  C   UNL A   1      42.630  21.106  27.585  1.00  0.00     0.020 A 
ATOM     53  C   UNL A   1      43.546  21.274  25.341  1.00  0.00     0.020 A 
ATOM     54  C   UNL A   1      42.916  20.533  26.342  1.00  0.00     0.054 A 
BRANCH  54  55
ATOM     55  S   UNL A   1      42.421  18.818  26.026  1.00  0.00     0.124 S 
ATOM     56  O   UNL A   1      43.335  18.432  24.957  1.00  0.00    -0.237 OA
ATOM     57  O   UNL A   1      42.651  18.175  27.318  1.00  0.00    -0.237 OA
ATOM     58  O   UNL A   1      41.016  18.936  25.641  1.00  0.00    -0.744 OA
ENDBRANCH  54  55
ENDBRANCH  26  49
BRANCH  38  59
ATOM     59  C   UNL A   1      49.631  26.682  26.247  1.00  0.00    -0.014 A 
ATOM     60  C   UNL A   1      50.087  26.925  24.939  1.00  0.00     0.010 A 
ATOM     61  C   UNL A   1      50.481  26.039  27.165  1.00  0.00     0.010 A 
ATOM     62  C   UNL A   1      51.353  26.490  24.542  1.00  0.00     0.020 A 
ATOM     63  C   UNL A   1      51.758  25.627  26.779  1.00  0.00     0.020 A 
ATOM     64  C   UNL A   1      52.178  25.836  25.463  1.00  0.00     0.054 A 
BRANCH  64  65
ATOM     65  S   UNL A   1      53.824  25.292  24.930  1.00  0.00     0.124 S 
ATOM     66  O   UNL A   1      53.968  25.975  23.648  1.00  0.00    -0.237 OA
ATOM     67  O   UNL A   1      54.688  25.778  26.003  1.00  0.00    -0.237 OA
ATOM     68  O   UNL A   1      53.697  23.838  24.852  1.00  0.00    -0.744 OA
ENDBRANCH  64  65
ENDBRANCH  38  59
ENDBRANCH  12  13
ENDBRANCH   5   7
ENDBRANCH   2   3
ENDBRANCH   1   2
BRANCH   1  69
ATOM     69  C   UNL A   1      33.361  29.895  27.045  1.00  0.00     0.118 C 
BRANCH  69  70
ATOM     70  N   UNL A   1      33.330  29.892  25.590  1.00  0.00    -0.352 N 
ATOM     71  C   UNL A   1      33.097  28.849  24.732  1.00  0.00     0.251 C 
ATOM     72  H   UNL A   1      33.501  30.762  25.161  1.00  0.00     0.163 HD
ATOM     73  O   UNL A   1      33.287  28.963  23.525  1.00  0.00    -0.269 OA
BRANCH  71  74
ATOM     74  C   UNL A   1      32.611  27.569  25.271  1.00  0.00     0.042 A 
ATOM     75  C   UNL A   1      33.523  26.615  25.737  1.00  0.00     0.015 A 
ATOM     76  C   UNL A   1      31.237  27.331  25.321  1.00  0.00     0.054 A 
ATOM     77  C   UNL A   1      33.055  25.391  26.215  1.00  0.00     0.024 A 
ATOM     78  C   UNL A   1      30.781  26.100  25.782  1.00  0.00     0.142 A 
ATOM     79  C   UNL A   1      31.676  25.138  26.231  1.00  0.00     0.103 A 
ATOM     80  F   UNL A   1      29.465  25.860  25.748  1.00  0.00    -0.206 F 
BRANCH  79  81
ATOM     81  S   UNL A   1      31.111  23.555  26.771  1.00  0.00     0.186 S 
ATOM     82  O   UNL A   1      32.155  23.049  27.642  1.00  0.00    -0.223 OA
ATOM     83  O   UNL A   1      29.774  23.758  27.311  1.00  0.00    -0.223 OA
BRANCH  81  84
ATOM     84  C   UNL A   1      30.977  22.459  25.373  1.00  0.00     0.188 C 
BRANCH  84  85
ATOM     85  C   UNL A   1      31.914  22.829  24.264  1.00  0.00     0.020 A 
ATOM     86  C   UNL A   1      31.669  23.581  23.130  1.00  0.00     0.016 A 
ATOM     87  S   UNL A   1      33.512  22.203  24.255  1.00  0.00    -0.148 S 
ATOM     88  C   UNL A   1      32.811  23.678  22.282  1.00  0.00     0.012 A 
ATOM     89  C   UNL A   1      33.884  22.978  22.781  1.00  0.00     0.065 A 
ENDBRANCH  84  85
ENDBRANCH  81  84
ENDBRANCH  79  81
ENDBRANCH  71  74
ENDBRANCH  69  70
ENDBRANCH   1  69
TORSDOF 16
ENDMDL
MODEL 2
REMARK VINA RESULT:     -11.9      6.490     11.997
REMARK SMILES O=C(NCCCNC(=O)c1ccc(S(=O)(=O)Cc2cccs2)c(F)c1)c1ccc(-c2c3nc(c(-c4ccc(S(=O)(=O)[O-])cc4)c4ccc([nH]4)c(-c4ccc(S(=O)(=O)[O-])cc4)c4nc(c(-c5ccc(S(=O)(=O)[O-])cc5)c5ccc2[nH]5)C=C4)C=C3)cc1
REMARK SMILES IDX 5 1 4 2 3 3 1 4 2 5 26 7 27 8 85 9 28 10 84 11 29 12 30 13
REMARK SMILES IDX 31 14 78 15 32 16 83 17 77 18 79 19 33 20 82 21 76 22 75 23
REMARK SMILES IDX 34 25 64 26 45 27 63 28 46 29 49 30 62 31 80 32 47 33 48 34
REMARK SMILES IDX 61 36 81 37 50 38 35 39 36 40 44 41 37 42 43 43 38 44 39 45
REMARK SMILES IDX 40 46 41 47 42 48 65 49 66 50 74 51 67 52 73 53 68 54 69 55
REMARK SMILES IDX 70 56 71 57 72 58 51 59 52 60 60 61 53 62 59 63 54 64 55 65
REMARK SMILES IDX 56 66 57 67 58 68 6 69 7 70 8 71 9 73 10 74 11 75 25 76
REMARK SMILES IDX 12 77 23 78 13 79 24 80 14 81 15 82 16 83 17 84 18 85 19 86
REMARK SMILES IDX 22 87 20 88 21 89
REMARK H PARENT 3 6 79 24 49 35 7 72
REMARK Flexibility Score: inf
ROOT
ATOM      1  C   UNL A   1      39.159  22.160  26.431  1.00  0.00     0.042 C 
ENDROOT
BRANCH   1   2
ATOM      2  C   UNL A   1      39.894  23.347  27.045  1.00  0.00     0.118 C 
BRANCH   2   3
ATOM      3  N   UNL A   1      40.687  24.085  26.070  1.00  0.00    -0.352 N 
ATOM      4  O   UNL A   1      41.599  25.861  25.040  1.00  0.00    -0.269 OA
ATOM      5  C   UNL A   1      41.094  25.397  26.060  1.00  0.00     0.251 C 
ATOM      6  H   UNL A   1      40.979  23.557  25.292  1.00  0.00     0.163 HD
BRANCH   5   7
ATOM      7  C   UNL A   1      40.918  26.253  27.255  1.00  0.00     0.039 A 
ATOM      8  C   UNL A   1      41.701  27.392  27.439  1.00  0.00     0.014 A 
ATOM      9  C   UNL A   1      39.925  25.936  28.188  1.00  0.00     0.014 A 
ATOM     10  C   UNL A   1      41.605  28.116  28.621  1.00  0.00     0.010 A 
ATOM     11  C   UNL A   1      39.759  26.727  29.330  1.00  0.00     0.010 A 
ATOM     12  C   UNL A   1      40.617  27.809  29.571  1.00  0.00    -0.014 A 
BRANCH  12  13
ATOM     13  C   UNL A   1      40.467  28.694  30.754  1.00  0.00     0.031 A 
ATOM     14  C   UNL A   1      41.380  28.582  31.944  1.00  0.00     0.074 A 
ATOM     15  C   UNL A   1      39.523  29.658  30.712  1.00  0.00     0.049 A 
ATOM     16  N   UNL A   1      41.422  29.332  33.016  1.00  0.00    -0.248 NA
ATOM     17  C   UNL A   1      42.367  27.491  31.940  1.00  0.00     0.031 C 
ATOM     18  C   UNL A   1      38.567  29.853  29.616  1.00  0.00     0.029 A 
ATOM     19  N   UNL A   1      39.232  30.673  31.587  1.00  0.00    -0.354 N 
ATOM     20  C   UNL A   1      42.425  28.802  33.818  1.00  0.00     0.074 A 
ATOM     21  C   UNL A   1      42.953  27.648  33.120  1.00  0.00     0.031 C 
ATOM     22  C   UNL A   1      37.845  30.959  29.852  1.00  0.00     0.029 A 
ATOM     23  C   UNL A   1      38.238  31.512  31.142  1.00  0.00     0.049 A 
ATOM     24  H   UNL A   1      39.691  30.790  32.450  1.00  0.00     0.167 HD
ATOM     25  C   UNL A   1      42.870  29.240  35.021  1.00  0.00     0.031 A 
ATOM     26  C   UNL A   1      37.689  32.601  31.708  1.00  0.00     0.031 A 
ATOM     27  C   UNL A   1      42.341  30.390  35.711  1.00  0.00     0.049 A 
ATOM     28  C   UNL A   1      38.195  33.055  33.046  1.00  0.00     0.074 A 
ATOM     29  C   UNL A   1      42.737  30.921  36.928  1.00  0.00     0.029 A 
ATOM     30  N   UNL A   1      41.308  31.189  35.246  1.00  0.00    -0.354 N 
ATOM     31  N   UNL A   1      39.160  32.548  33.775  1.00  0.00    -0.248 NA
ATOM     32  C   UNL A   1      37.536  34.226  33.639  1.00  0.00     0.031 C 
ATOM     33  C   UNL A   1      41.914  32.014  37.218  1.00  0.00     0.029 A 
ATOM     34  C   UNL A   1      41.040  32.195  36.160  1.00  0.00     0.049 A 
ATOM     35  H   UNL A   1      40.834  31.060  34.393  1.00  0.00     0.167 HD
ATOM     36  C   UNL A   1      39.226  33.340  34.914  1.00  0.00     0.074 A 
ATOM     37  C   UNL A   1      38.229  34.381  34.759  1.00  0.00     0.031 C 
ATOM     38  C   UNL A   1      40.033  33.213  35.995  1.00  0.00     0.031 A 
BRANCH  25  39
ATOM     39  C   UNL A   1      43.979  28.468  35.687  1.00  0.00    -0.014 A 
ATOM     40  C   UNL A   1      43.698  27.392  36.548  1.00  0.00     0.010 A 
ATOM     41  C   UNL A   1      45.319  28.770  35.385  1.00  0.00     0.010 A 
ATOM     42  C   UNL A   1      44.737  26.645  37.111  1.00  0.00     0.020 A 
ATOM     43  C   UNL A   1      46.361  28.012  35.930  1.00  0.00     0.020 A 
ATOM     44  C   UNL A   1      46.063  26.961  36.797  1.00  0.00     0.054 A 
BRANCH  44  45
ATOM     45  S   UNL A   1      47.391  25.944  37.505  1.00  0.00     0.124 S 
ATOM     46  O   UNL A   1      47.278  24.716  36.723  1.00  0.00    -0.237 OA
ATOM     47  O   UNL A   1      48.583  26.747  37.244  1.00  0.00    -0.237 OA
ATOM     48  O   UNL A   1      47.022  25.823  38.913  1.00  0.00    -0.744 OA
ENDBRANCH  44  45
ENDBRANCH  25  39
BRANCH  26  49
ATOM     49  C   UNL A   1      36.580  33.317  31.024  1.00  0.00    -0.014 A 
ATOM     50  C   UNL A   1      35.311  33.422  31.619  1.00  0.00     0.010 A 
ATOM     51  C   UNL A   1      36.798  33.909  29.765  1.00  0.00     0.010 A 
ATOM     52  C   UNL A   1      34.273  34.084  30.957  1.00  0.00     0.020 A 
ATOM     53  C   UNL A   1      35.772  34.598  29.115  1.00  0.00     0.020 A 
ATOM     54  C   UNL A   1      34.510  34.666  29.708  1.00  0.00     0.054 A 
BRANCH  54  55
ATOM     55  S   UNL A   1      33.164  35.554  28.878  1.00  0.00     0.124 S 
ATOM     56  O   UNL A   1      33.894  36.552  28.104  1.00  0.00    -0.237 OA
ATOM     57  O   UNL A   1      32.518  34.499  28.101  1.00  0.00    -0.237 OA
ATOM     58  O   UNL A   1      32.367  36.075  29.986  1.00  0.00    -0.744 OA
ENDBRANCH  54  55
ENDBRANCH  26  49
BRANCH  38  59
ATOM     59  C   UNL A   1      39.869  34.235  37.086  1.00  0.00    -0.014 A 
ATOM     60  C   UNL A   1      39.041  33.982  38.195  1.00  0.00     0.010 A 
ATOM     61  C   UNL A   1      40.557  35.459  37.005  1.00  0.00     0.010 A 
ATOM     62  C   UNL A   1      38.868  34.955  39.181  1.00  0.00     0.020 A 
ATOM     63  C   UNL A   1      40.407  36.424  38.003  1.00  0.00     0.020 A 
ATOM     64  C   UNL A   1      39.547  36.173  39.075  1.00  0.00     0.054 A 
BRANCH  64  65
ATOM     65  S   UNL A   1      39.318  37.418  40.374  1.00  0.00     0.124 S 
ATOM     66  O   UNL A   1      40.693  37.819  40.654  1.00  0.00    -0.237 OA
ATOM     67  O   UNL A   1      38.491  38.425  39.714  1.00  0.00    -0.237 OA
ATOM     68  O   UNL A   1      38.652  36.680  41.445  1.00  0.00    -0.744 OA
ENDBRANCH  64  65
ENDBRANCH  38  59
ENDBRANCH  12  13
ENDBRANCH   5   7
ENDBRANCH   2   3
ENDBRANCH   1   2
BRANCH   1  69
ATOM     69  C   UNL A   1      37.737  22.480  25.989  1.00  0.00     0.118 C 
BRANCH  69  70
ATOM     70  N   UNL A   1      37.643  22.682  24.550  1.00  0.00    -0.352 N 
ATOM     71  C   UNL A   1      36.547  23.001  23.792  1.00  0.00     0.251 C 
ATOM     72  H   UNL A   1      38.485  22.574  24.052  1.00  0.00     0.163 HD
ATOM     73  O   UNL A   1      36.586  22.955  22.566  1.00  0.00    -0.269 OA
BRANCH  71  74
ATOM     74  C   UNL A   1      35.301  23.405  24.462  1.00  0.00     0.042 A 
ATOM     75  C   UNL A   1      34.255  22.486  24.605  1.00  0.00     0.015 A 
ATOM     76  C   UNL A   1      35.187  24.703  24.960  1.00  0.00     0.054 A 
ATOM     77  C   UNL A   1      33.065  22.887  25.212  1.00  0.00     0.024 A 
ATOM     78  C   UNL A   1      33.989  25.099  25.547  1.00  0.00     0.142 A 
ATOM     79  C   UNL A   1      32.937  24.202  25.679  1.00  0.00     0.103 A 
ATOM     80  F   UNL A   1      33.870  26.370  25.945  1.00  0.00    -0.206 F 
BRANCH  79  81
ATOM     81  S   UNL A   1      31.397  24.708  26.376  1.00  0.00     0.186 S 
ATOM     82  O   UNL A   1      30.993  23.623  27.250  1.00  0.00    -0.223 OA
ATOM     83  O   UNL A   1      31.617  26.031  26.944  1.00  0.00    -0.223 OA
BRANCH  81  84
ATOM     84  C   UNL A   1      30.178  24.863  25.086  1.00  0.00     0.188 C 
BRANCH  84  85
ATOM     85  C   UNL A   1      30.685  25.642  23.911  1.00  0.00     0.020 A 
ATOM     86  C   UNL A   1      31.398  25.199  22.813  1.00  0.00     0.016 A 
ATOM     87  S   UNL A   1      30.489  27.347  23.871  1.00  0.00    -0.148 S 
ATOM     88  C   UNL A   1      31.741  26.256  21.921  1.00  0.00     0.012 A 
ATOM     89  C   UNL A   1      31.299  27.477  22.375  1.00  0.00     0.065 A 
ENDBRANCH  84  85
ENDBRANCH  81  84
ENDBRANCH  79  81
ENDBRANCH  71  74
ENDBRANCH  69  70
ENDBRANCH   1  69
TORSDOF 16
ENDMDL
MODEL 3
REMARK VINA RESULT:     -11.9      3.028      8.944
REMARK SMILES O=C(NCCCNC(=O)c1ccc(S(=O)(=O)Cc2cccs2)c(F)c1)c1ccc(-c2c3nc(c(-c4ccc(S(=O)(=O)[O-])cc4)c4ccc([nH]4)c(-c4ccc(S(=O)(=O)[O-])cc4)c4nc(c(-c5ccc(S(=O)(=O)[O-])cc5)c5ccc2[nH]5)C=C4)C=C3)cc1
REMARK SMILES IDX 5 1 4 2 3 3 1 4 2 5 26 7 27 8 85 9 28 10 84 11 29 12 30 13
REMARK SMILES IDX 31 14 78 15 32 16 83 17 77 18 79 19 33 20 82 21 76 22 75 23
REMARK SMILES IDX 34 25 64 26 45 27 63 28 46 29 49 30 62 31 80 32 47 33 48 34
REMARK SMILES IDX 61 36 81 37 50 38 35 39 36 40 44 41 37 42 43 43 38 44 39 45
REMARK SMILES IDX 40 46 41 47 42 48 65 49 66 50 74 51 67 52 73 53 68 54 69 55
REMARK SMILES IDX 70 56 71 57 72 58 51 59 52 60 60 61 53 62 59 63 54 64 55 65
REMARK SMILES IDX 56 66 57 67 58 68 6 69 7 70 8 71 9 73 10 74 11 75 25 76
REMARK SMILES IDX 12 77 23 78 13 79 24 80 14 81 15 82 16 83 17 84 18 85 19 86
REMARK SMILES IDX 22 87 20 88 21 89
REMARK H PARENT 3 6 79 24 49 35 7 72
REMARK Flexibility Score: inf
ROOT
ATOM      1  C   UNL A   1      33.875  28.315  24.783  1.00  0.00     0.042 C 
ENDROOT
BRANCH   1   2
ATOM      2  C   UNL A   1      34.138  28.327  26.285  1.00  0.00     0.118 C 
BRANCH   2   3
ATOM      3  N   UNL A   1      33.848  29.617  26.899  1.00  0.00    -0.352 N 
ATOM      4  O   UNL A   1      34.053  31.338  28.328  1.00  0.00    -0.269 OA
ATOM      5  C   UNL A   1      34.576  30.363  27.794  1.00  0.00     0.251 C 
ATOM      6  H   UNL A   1      32.992  30.019  26.627  1.00  0.00     0.163 HD
BRANCH   5   7
ATOM      7  C   UNL A   1      35.971  29.995  28.127  1.00  0.00     0.039 A 
ATOM      8  C   UNL A   1      37.005  30.220  27.218  1.00  0.00     0.014 A 
ATOM      9  C   UNL A   1      36.259  29.455  29.385  1.00  0.00     0.014 A 
ATOM     10  C   UNL A   1      38.286  29.761  27.499  1.00  0.00     0.010 A 
ATOM     11  C   UNL A   1      37.570  29.088  29.707  1.00  0.00     0.010 A 
ATOM     12  C   UNL A   1      38.591  29.212  28.755  1.00  0.00    -0.014 A 
BRANCH  12  13
ATOM     13  C   UNL A   1      40.003  28.861  29.055  1.00  0.00     0.031 A 
ATOM     14  C   UNL A   1      40.585  27.529  28.667  1.00  0.00     0.074 A 
ATOM     15  C   UNL A   1      40.783  29.798  29.632  1.00  0.00     0.049 A 
ATOM     16  N   UNL A   1      41.817  27.107  28.792  1.00  0.00    -0.248 NA
ATOM     17  C   UNL A   1      39.673  26.540  28.070  1.00  0.00     0.031 C 
ATOM     18  C   UNL A   1      40.326  31.123  30.069  1.00  0.00     0.029 A 
ATOM     19  N   UNL A   1      42.124  29.804  29.919  1.00  0.00    -0.354 N 
ATOM     20  C   UNL A   1      41.830  25.806  28.302  1.00  0.00     0.074 A 
ATOM     21  C   UNL A   1      40.474  25.497  27.900  1.00  0.00     0.031 C 
ATOM     22  C   UNL A   1      41.378  31.833  30.502  1.00  0.00     0.029 A 
ATOM     23  C   UNL A   1      42.569  30.996  30.438  1.00  0.00     0.049 A 
ATOM     24  H   UNL A   1      42.712  29.028  29.768  1.00  0.00     0.167 HD
ATOM     25  C   UNL A   1      42.877  24.952  28.194  1.00  0.00     0.031 A 
ATOM     26  C   UNL A   1      43.798  31.378  30.833  1.00  0.00     0.031 A 
ATOM     27  C   UNL A   1      44.225  25.266  28.595  1.00  0.00     0.049 A 
ATOM     28  C   UNL A   1      44.933  30.406  30.710  1.00  0.00     0.074 A 
ATOM     29  C   UNL A   1      45.356  24.470  28.510  1.00  0.00     0.029 A 
ATOM     30  N   UNL A   1      44.627  26.469  29.153  1.00  0.00    -0.354 N 
ATOM     31  N   UNL A   1      44.923  29.188  30.224  1.00  0.00    -0.248 NA
ATOM     32  C   UNL A   1      46.245  30.859  31.190  1.00  0.00     0.031 C 
ATOM     33  C   UNL A   1      46.432  25.178  29.056  1.00  0.00     0.029 A 
ATOM     34  C   UNL A   1      45.983  26.431  29.436  1.00  0.00     0.049 A 
ATOM     35  H   UNL A   1      44.036  27.238  29.326  1.00  0.00     0.167 HD
ATOM     36  C   UNL A   1      46.229  28.728  30.339  1.00  0.00     0.074 A 
ATOM     37  C   UNL A   1      47.007  29.812  30.905  1.00  0.00     0.031 C 
ATOM     38  C   UNL A   1      46.737  27.514  30.013  1.00  0.00     0.031 A 
BRANCH  25  39
ATOM     39  C   UNL A   1      42.612  23.581  27.628  1.00  0.00    -0.014 A 
ATOM     40  C   UNL A   1      42.890  23.287  26.281  1.00  0.00     0.010 A 
ATOM     41  C   UNL A   1      42.154  22.553  28.471  1.00  0.00     0.010 A 
ATOM     42  C   UNL A   1      42.697  21.995  25.783  1.00  0.00     0.020 A 
ATOM     43  C   UNL A   1      41.979  21.254  27.983  1.00  0.00     0.020 A 
ATOM     44  C   UNL A   1      42.243  20.986  26.639  1.00  0.00     0.054 A 
BRANCH  44  45
ATOM     45  S   UNL A   1      42.046  19.307  25.978  1.00  0.00     0.124 S 
ATOM     46  O   UNL A   1      42.528  18.489  27.087  1.00  0.00    -0.237 OA
ATOM     47  O   UNL A   1      40.610  19.230  25.719  1.00  0.00    -0.237 OA
ATOM     48  O   UNL A   1      42.891  19.302  24.787  1.00  0.00    -0.744 OA
ENDBRANCH  44  45
ENDBRANCH  25  39
BRANCH  26  49
ATOM     49  C   UNL A   1      44.005  32.734  31.407  1.00  0.00    -0.014 A 
ATOM     50  C   UNL A   1      43.916  32.954  32.792  1.00  0.00     0.010 A 
ATOM     51  C   UNL A   1      44.306  33.817  30.560  1.00  0.00     0.010 A 
ATOM     52  C   UNL A   1      44.098  34.236  33.318  1.00  0.00     0.020 A 
ATOM     53  C   UNL A   1      44.520  35.094  31.084  1.00  0.00     0.020 A 
ATOM     54  C   UNL A   1      44.397  35.298  32.459  1.00  0.00     0.054 A 
BRANCH  54  55
ATOM     55  S   UNL A   1      44.667  36.950  33.159  1.00  0.00     0.124 S 
ATOM     56  O   UNL A   1      43.302  37.399  33.408  1.00  0.00    -0.237 OA
ATOM     57  O   UNL A   1      45.467  36.665  34.347  1.00  0.00    -0.237 OA
ATOM     58  O   UNL A   1      45.378  37.656  32.095  1.00  0.00    -0.744 OA
ENDBRANCH  54  55
ENDBRANCH  26  49
BRANCH  38  59
ATOM     59  C   UNL A   1      48.206  27.308  30.258  1.00  0.00    -0.014 A 
ATOM     60  C   UNL A   1      49.158  27.659  29.283  1.00  0.00     0.010 A 
ATOM     61  C   UNL A   1      48.640  26.766  31.481  1.00  0.00     0.010 A 
ATOM     62  C   UNL A   1      50.517  27.427  29.509  1.00  0.00     0.020 A 
ATOM     63  C   UNL A   1      50.000  26.558  31.721  1.00  0.00     0.020 A 
ATOM     64  C   UNL A   1      50.928  26.871  30.725  1.00  0.00     0.054 A 
BRANCH  64  65
ATOM     65  S   UNL A   1      52.698  26.590  31.003  1.00  0.00     0.124 S 
ATOM     66  O   UNL A   1      53.170  26.280  29.657  1.00  0.00    -0.237 OA
ATOM     67  O   UNL A   1      53.146  27.870  31.547  1.00  0.00    -0.237 OA
ATOM     68  O   UNL A   1      52.727  25.475  31.947  1.00  0.00    -0.744 OA
ENDBRANCH  64  65
ENDBRANCH  38  59
ENDBRANCH  12  13
ENDBRANCH   5   7
ENDBRANCH   2   3
ENDBRANCH   1   2
BRANCH   1  69
ATOM     69  C   UNL A   1      32.787  27.337  24.358  1.00  0.00     0.118 C 
BRANCH  69  70
ATOM     70  N   UNL A   1      31.702  27.269  25.327  1.00  0.00    -0.352 N 
ATOM     71  C   UNL A   1      31.126  26.168  25.903  1.00  0.00     0.251 C 
ATOM     72  H   UNL A   1      31.330  28.136  25.607  1.00  0.00     0.163 HD
ATOM     73  O   UNL A   1      30.095  26.260  26.562  1.00  0.00    -0.269 OA
BRANCH  71  74
ATOM     74  C   UNL A   1      31.755  24.849  25.725  1.00  0.00     0.042 A 
ATOM     75  C   UNL A   1      31.146  23.888  24.910  1.00  0.00     0.015 A 
ATOM     76  C   UNL A   1      32.964  24.582  26.366  1.00  0.00     0.054 A 
ATOM     77  C   UNL A   1      31.733  22.631  24.773  1.00  0.00     0.024 A 
ATOM     78  C   UNL A   1      33.533  23.319  26.239  1.00  0.00     0.142 A 
ATOM     79  C   UNL A   1      32.929  22.350  25.447  1.00  0.00     0.103 A 
ATOM     80  F   UNL A   1      34.650  23.055  26.925  1.00  0.00    -0.206 F 
BRANCH  79  81
ATOM     81  S   UNL A   1      33.614  20.728  25.319  1.00  0.00     0.186 S 
ATOM     82  O   UNL A   1      34.872  20.894  24.615  1.00  0.00    -0.223 OA
ATOM     83  O   UNL A   1      33.624  20.179  26.667  1.00  0.00    -0.223 OA
BRANCH  81  84
ATOM     84  C   UNL A   1      32.551  19.706  24.320  1.00  0.00     0.188 C 
BRANCH  84  85
ATOM     85  C   UNL A   1      33.016  18.283  24.261  1.00  0.00     0.020 A 
ATOM     86  C   UNL A   1      33.778  17.654  23.294  1.00  0.00     0.016 A 
ATOM     87  S   UNL A   1      32.509  17.170  25.465  1.00  0.00    -0.148 S 
ATOM     88  C   UNL A   1      33.979  16.270  23.571  1.00  0.00     0.012 A 
ATOM     89  C   UNL A   1      33.346  15.880  24.728  1.00  0.00     0.065 A 
ENDBRANCH  84  85
ENDBRANCH  81  84
ENDBRANCH  79  81
ENDBRANCH  71  74
ENDBRANCH  69  70
ENDBRANCH   1  69
TORSDOF 16
ENDMDL
