MODEL 1
REMARK VINA RESULT:     -14.8      0.000      0.000
REMARK SMILES Cc1ccc(N2C(=O)C[C@H](Sc3ccccc3C(=O)NCCCNC(=O)c3ccc(-c4c5nc(c(-c6ccc(S(=O)(=O)[O-])cc6)c6ccc([nH]6)c(-c6ccc(S(=O)(=O)[O-])cc6)c6nc(c(-c7ccc(S(=O)(=O)[O-])cc7)c7ccc4[nH]7)C=C6)C=C5)cc3)C2=O)cc1
REMARK SMILES IDX 22 1 21 2 20 3 18 4 19 5 17 7 12 8 13 9 14 10 16 11 15 12
REMARK SMILES IDX 11 13 10 14 6 15 7 16 87 17 8 18 9 19 88 20 5 21 1 22 2 23
REMARK SMILES IDX 3 24 90 25 4 26 89 27 23 28 24 29 25 30 26 32 27 33 28 34
REMARK SMILES IDX 86 35 29 36 85 37 30 38 31 39 32 40 79 41 33 42 84 43 78 44
REMARK SMILES IDX 80 45 34 46 83 47 77 48 76 49 35 51 65 52 46 53 64 54 47 55
REMARK SMILES IDX 50 56 63 57 81 58 48 59 49 60 62 62 82 63 51 64 36 65 37 66
REMARK SMILES IDX 45 67 38 68 44 69 39 70 40 71 41 72 42 73 43 74 66 75 67 76
REMARK SMILES IDX 75 77 68 78 74 79 69 80 70 81 71 82 72 83 73 84 52 85 53 86
REMARK SMILES IDX 61 87 54 88 60 89 55 90 56 91 57 92 58 93 59 94
REMARK H PARENT 20 6 24 31 80 50 50 61
REMARK Flexibility Score: inf
ROOT
ATOM      1  C   UNL A   1      33.011  30.283  27.401  1.00  0.00     0.042 C 
ENDROOT
BRANCH   1   2
ATOM      2  C   UNL A   1      32.300  30.585  26.087  1.00  0.00     0.118 C 
BRANCH   2   3
ATOM      3  N   UNL A   1      32.833  29.858  24.937  1.00  0.00    -0.352 N 
ATOM      4  C   UNL A   1      32.321  29.174  23.863  1.00  0.00     0.252 C 
ATOM      5  O   UNL A   1      33.138  28.892  22.984  1.00  0.00    -0.269 OA
ATOM      6  H   UNL A   1      33.818  29.858  24.932  1.00  0.00     0.163 HD
BRANCH   4   7
ATOM      7  C   UNL A   1      30.891  28.741  23.705  1.00  0.00     0.053 A 
ATOM      8  C   UNL A   1      30.456  27.438  24.079  1.00  0.00     0.021 A 
ATOM      9  C   UNL A   1      29.133  27.037  23.789  1.00  0.00     0.016 A 
ATOM     10  C   UNL A   1      28.236  27.896  23.162  1.00  0.00     0.001 A 
ATOM     11  C   UNL A   1      29.958  29.583  23.076  1.00  0.00     0.015 A 
ATOM     12  C   UNL A   1      28.647  29.173  22.814  1.00  0.00     0.001 A 
BRANCH   8  13
ATOM     13  S   UNL A   1      31.468  26.091  24.725  1.00  0.00    -0.111 SA
BRANCH  13  14
ATOM     14  C   UNL A   1      31.167  24.689  23.592  1.00  0.00     0.151 C 
ATOM     15  N   UNL A   1      32.450  22.733  23.506  1.00  0.00    -0.250 N 
ATOM     16  C   UNL A   1      32.929  23.546  22.502  1.00  0.00     0.235 C 
ATOM     17  C   UNL A   1      31.436  23.341  24.216  1.00  0.00     0.247 C 
ATOM     18  O   UNL A   1      33.899  23.375  21.776  1.00  0.00    -0.274 OA
ATOM     19  C   UNL A   1      31.968  24.677  22.313  1.00  0.00     0.126 C 
ATOM     20  O   UNL A   1      30.854  22.920  25.209  1.00  0.00    -0.273 OA
BRANCH  15  21
ATOM     21  C   UNL A   1      32.912  21.411  23.741  1.00  0.00     0.052 A 
ATOM     22  C   UNL A   1      34.120  17.384  24.779  1.00  0.00     0.044 C 
ATOM     23  C   UNL A   1      33.729  18.775  24.381  1.00  0.00    -0.051 A 
ATOM     24  C   UNL A   1      34.408  19.878  24.907  1.00  0.00     0.005 A 
ATOM     25  C   UNL A   1      32.641  18.997  23.534  1.00  0.00     0.005 A 
ATOM     26  C   UNL A   1      34.018  21.179  24.571  1.00  0.00     0.027 A 
ATOM     27  C   UNL A   1      32.231  20.300  23.228  1.00  0.00     0.027 A 
ENDBRANCH  15  21
ENDBRANCH  13  14
ENDBRANCH   8  13
ENDBRANCH   4   7
ENDBRANCH   2   3
ENDBRANCH   1   2
BRANCH   1  28
ATOM     28  C   UNL A   1      34.509  30.063  27.209  1.00  0.00     0.118 C 
BRANCH  28  29
ATOM     29  N   UNL A   1      35.329  31.207  27.604  1.00  0.00    -0.352 N 
ATOM     30  C   UNL A   1      36.577  31.182  28.226  1.00  0.00     0.251 C 
ATOM     31  H   UNL A   1      34.957  32.098  27.407  1.00  0.00     0.163 HD
ATOM     32  O   UNL A   1      37.093  32.145  28.726  1.00  0.00    -0.269 OA
BRANCH  30  33
ATOM     33  C   UNL A   1      37.303  29.896  28.122  1.00  0.00     0.039 A 
ATOM     34  C   UNL A   1      37.323  29.101  29.275  1.00  0.00     0.014 A 
ATOM     35  C   UNL A   1      38.216  29.715  27.091  1.00  0.00     0.014 A 
ATOM     36  C   UNL A   1      38.406  28.259  29.495  1.00  0.00     0.010 A 
ATOM     37  C   UNL A   1      39.327  28.937  27.346  1.00  0.00     0.010 A 
ATOM     38  C   UNL A   1      39.452  28.271  28.577  1.00  0.00    -0.014 A 
BRANCH  38  39
ATOM     39  C   UNL A   1      40.763  27.697  28.852  1.00  0.00     0.031 A 
ATOM     40  C   UNL A   1      41.012  26.275  28.515  1.00  0.00     0.074 A 
ATOM     41  C   UNL A   1      41.772  28.479  29.304  1.00  0.00     0.049 A 
ATOM     42  N   UNL A   1      42.010  25.584  28.952  1.00  0.00    -0.248 NA
ATOM     43  C   UNL A   1      40.098  25.491  27.687  1.00  0.00     0.031 C 
ATOM     44  C   UNL A   1      43.195  28.137  29.311  1.00  0.00     0.029 A 
ATOM     45  N   UNL A   1      41.749  29.696  29.991  1.00  0.00    -0.354 N 
ATOM     46  C   UNL A   1      42.056  24.415  28.228  1.00  0.00     0.074 A 
ATOM     47  C   UNL A   1      40.788  24.355  27.541  1.00  0.00     0.031 C 
ATOM     48  C   UNL A   1      43.819  28.911  30.212  1.00  0.00     0.029 A 
ATOM     49  C   UNL A   1      42.784  29.621  30.939  1.00  0.00     0.049 A 
ATOM     50  H   UNL A   1      41.135  30.449  29.842  1.00  0.00     0.167 HD
ATOM     51  C   UNL A   1      43.221  23.707  28.185  1.00  0.00     0.031 A 
ATOM     52  C   UNL A   1      42.596  29.532  32.293  1.00  0.00     0.031 A 
ATOM     53  C   UNL A   1      44.220  24.241  29.117  1.00  0.00     0.049 A 
ATOM     54  C   UNL A   1      43.198  28.274  32.927  1.00  0.00     0.074 A 
ATOM     55  C   UNL A   1      45.393  24.968  28.987  1.00  0.00     0.029 A 
ATOM     56  N   UNL A   1      43.901  24.280  30.468  1.00  0.00    -0.354 N 
ATOM     57  N   UNL A   1      43.804  27.327  32.261  1.00  0.00    -0.248 NA
ATOM     58  C   UNL A   1      43.082  27.940  34.349  1.00  0.00     0.031 C 
ATOM     59  C   UNL A   1      45.767  25.449  30.279  1.00  0.00     0.029 A 
ATOM     60  C   UNL A   1      44.834  24.998  31.192  1.00  0.00     0.049 A 
ATOM     61  H   UNL A   1      43.109  23.850  30.861  1.00  0.00     0.167 HD
ATOM     62  C   UNL A   1      44.098  26.276  33.091  1.00  0.00     0.074 A 
ATOM     63  C   UNL A   1      43.636  26.714  34.396  1.00  0.00     0.031 C 
ATOM     64  C   UNL A   1      44.650  25.111  32.635  1.00  0.00     0.031 A 
BRANCH  51  65
ATOM     65  C   UNL A   1      43.531  22.676  27.115  1.00  0.00    -0.014 A 
ATOM     66  C   UNL A   1      42.658  21.587  26.917  1.00  0.00     0.010 A 
ATOM     67  C   UNL A   1      44.694  22.678  26.322  1.00  0.00     0.010 A 
ATOM     68  C   UNL A   1      42.980  20.517  26.062  1.00  0.00     0.020 A 
ATOM     69  C   UNL A   1      45.048  21.604  25.492  1.00  0.00     0.020 A 
ATOM     70  C   UNL A   1      44.192  20.518  25.378  1.00  0.00     0.054 A 
BRANCH  70  71
ATOM     71  S   UNL A   1      44.644  19.098  24.351  1.00  0.00     0.124 S 
ATOM     72  O   UNL A   1      43.664  18.092  24.753  1.00  0.00    -0.237 OA
ATOM     73  O   UNL A   1      44.490  19.626  22.999  1.00  0.00    -0.237 OA
ATOM     74  O   UNL A   1      46.021  18.805  24.747  1.00  0.00    -0.744 OA
ENDBRANCH  70  71
ENDBRANCH  51  65
BRANCH  52  75
ATOM     75  C   UNL A   1      41.388  30.248  32.789  1.00  0.00    -0.014 A 
ATOM     76  C   UNL A   1      40.244  29.471  33.073  1.00  0.00     0.010 A 
ATOM     77  C   UNL A   1      41.494  31.530  33.354  1.00  0.00     0.010 A 
ATOM     78  C   UNL A   1      39.331  29.881  34.048  1.00  0.00     0.020 A 
ATOM     79  C   UNL A   1      40.571  31.949  34.323  1.00  0.00     0.020 A 
ATOM     80  C   UNL A   1      39.540  31.088  34.714  1.00  0.00     0.054 A 
BRANCH  80  81
ATOM     81  S   UNL A   1      38.580  31.402  36.227  1.00  0.00     0.124 S 
ATOM     82  O   UNL A   1      37.490  32.239  35.737  1.00  0.00    -0.237 OA
ATOM     83  O   UNL A   1      38.200  30.047  36.632  1.00  0.00    -0.237 OA
ATOM     84  O   UNL A   1      39.541  32.063  37.103  1.00  0.00    -0.744 OA
ENDBRANCH  80  81
ENDBRANCH  52  75
BRANCH  64  85
ATOM     85  C   UNL A   1      45.011  23.921  33.498  1.00  0.00    -0.014 A 
ATOM     86  C   UNL A   1      44.121  22.876  33.793  1.00  0.00     0.010 A 
ATOM     87  C   UNL A   1      46.269  23.885  34.147  1.00  0.00     0.010 A 
ATOM     88  C   UNL A   1      44.503  21.806  34.620  1.00  0.00     0.020 A 
ATOM     89  C   UNL A   1      46.654  22.837  34.986  1.00  0.00     0.020 A 
ATOM     90  C   UNL A   1      45.774  21.786  35.199  1.00  0.00     0.054 A 
BRANCH  90  91
ATOM     91  S   UNL A   1      46.245  20.402  36.265  1.00  0.00     0.124 S 
ATOM     92  O   UNL A   1      45.454  19.299  35.721  1.00  0.00    -0.237 OA
ATOM     93  O   UNL A   1      47.684  20.316  36.031  1.00  0.00    -0.237 OA
ATOM     94  O   UNL A   1      45.856  20.840  37.603  1.00  0.00    -0.744 OA
ENDBRANCH  90  91
ENDBRANCH  64  85
ENDBRANCH  38  39
ENDBRANCH  30  33
ENDBRANCH  28  29
ENDBRANCH   1  28
TORSDOF 16
ENDMDL
MODEL 2
REMARK VINA RESULT:     -14.7      1.253      1.804
REMARK SMILES Cc1ccc(N2C(=O)C[C@H](Sc3ccccc3C(=O)NCCCNC(=O)c3ccc(-c4c5nc(c(-c6ccc(S(=O)(=O)[O-])cc6)c6ccc([nH]6)c(-c6ccc(S(=O)(=O)[O-])cc6)c6nc(c(-c7ccc(S(=O)(=O)[O-])cc7)c7ccc4[nH]7)C=C6)C=C5)cc3)C2=O)cc1
REMARK SMILES IDX 22 1 21 2 20 3 18 4 19 5 17 7 12 8 13 9 14 10 16 11 15 12
REMARK SMILES IDX 11 13 10 14 6 15 7 16 87 17 8 18 9 19 88 20 5 21 1 22 2 23
REMARK SMILES IDX 3 24 90 25 4 26 89 27 23 28 24 29 25 30 26 32 27 33 28 34
REMARK SMILES IDX 86 35 29 36 85 37 30 38 31 39 32 40 79 41 33 42 84 43 78 44
REMARK SMILES IDX 80 45 34 46 83 47 77 48 76 49 35 51 65 52 46 53 64 54 47 55
REMARK SMILES IDX 50 56 63 57 81 58 48 59 49 60 62 62 82 63 51 64 36 65 37 66
REMARK SMILES IDX 45 67 38 68 44 69 39 70 40 71 41 72 42 73 43 74 66 75 67 76
REMARK SMILES IDX 75 77 68 78 74 79 69 80 70 81 71 82 72 83 73 84 52 85 53 86
REMARK SMILES IDX 61 87 54 88 60 89 55 90 56 91 57 92 58 93 59 94
REMARK H PARENT 20 6 24 31 80 50 50 61
REMARK Flexibility Score: inf
ROOT
ATOM      1  C   UNL A   1      33.049  30.034  27.288  1.00  0.00     0.042 C 
ENDROOT
BRANCH   1   2
ATOM      2  C   UNL A   1      32.366  30.415  25.980  1.00  0.00     0.118 C 
BRANCH   2   3
ATOM      3  N   UNL A   1      32.867  29.694  24.811  1.00  0.00    -0.352 N 
ATOM      4  C   UNL A   1      32.358  28.821  23.883  1.00  0.00     0.252 C 
ATOM      5  O   UNL A   1      33.080  28.617  22.904  1.00  0.00    -0.269 OA
ATOM      6  H   UNL A   1      33.819  29.885  24.647  1.00  0.00     0.163 HD
BRANCH   4   7
ATOM      7  C   UNL A   1      31.041  28.105  23.987  1.00  0.00     0.053 A 
ATOM      8  C   UNL A   1      30.843  27.028  24.898  1.00  0.00     0.021 A 
ATOM      9  C   UNL A   1      29.630  26.305  24.864  1.00  0.00     0.016 A 
ATOM     10  C   UNL A   1      28.613  26.634  23.973  1.00  0.00     0.001 A 
ATOM     11  C   UNL A   1      29.992  28.411  23.103  1.00  0.00     0.015 A 
ATOM     12  C   UNL A   1      28.792  27.694  23.098  1.00  0.00     0.001 A 
BRANCH   8  13
ATOM     13  S   UNL A   1      32.062  26.297  26.008  1.00  0.00    -0.111 SA
BRANCH  13  14
ATOM     14  C   UNL A   1      32.426  24.655  25.293  1.00  0.00     0.151 C 
ATOM     15  N   UNL A   1      34.568  23.749  25.035  1.00  0.00    -0.250 N 
ATOM     16  C   UNL A   1      34.238  24.295  23.814  1.00  0.00     0.235 C 
ATOM     17  C   UNL A   1      33.573  23.944  25.969  1.00  0.00     0.247 C 
ATOM     18  O   UNL A   1      34.933  24.416  22.815  1.00  0.00    -0.274 OA
ATOM     19  C   UNL A   1      32.778  24.626  23.826  1.00  0.00     0.126 C 
ATOM     20  O   UNL A   1      33.588  23.649  27.159  1.00  0.00    -0.273 OA
BRANCH  15  21
ATOM     21  C   UNL A   1      35.766  23.026  25.278  1.00  0.00     0.052 A 
ATOM     22  C   UNL A   1      39.516  20.893  25.661  1.00  0.00     0.044 C 
ATOM     23  C   UNL A   1      38.207  21.619  25.574  1.00  0.00    -0.051 A 
ATOM     24  C   UNL A   1      37.086  20.990  25.026  1.00  0.00     0.005 A 
ATOM     25  C   UNL A   1      38.102  22.953  25.974  1.00  0.00     0.005 A 
ATOM     26  C   UNL A   1      35.874  21.679  24.902  1.00  0.00     0.027 A 
ATOM     27  C   UNL A   1      36.898  23.650  25.816  1.00  0.00     0.027 A 
ENDBRANCH  15  21
ENDBRANCH  13  14
ENDBRANCH   8  13
ENDBRANCH   4   7
ENDBRANCH   2   3
ENDBRANCH   1   2
BRANCH   1  28
ATOM     28  C   UNL A   1      34.559  29.879  27.126  1.00  0.00     0.118 C 
BRANCH  28  29
ATOM     29  N   UNL A   1      35.322  31.051  27.552  1.00  0.00    -0.352 N 
ATOM     30  C   UNL A   1      36.555  31.071  28.202  1.00  0.00     0.251 C 
ATOM     31  H   UNL A   1      34.918  31.928  27.356  1.00  0.00     0.163 HD
ATOM     32  O   UNL A   1      37.020  32.049  28.724  1.00  0.00    -0.269 OA
BRANCH  30  33
ATOM     33  C   UNL A   1      37.336  29.817  28.101  1.00  0.00     0.039 A 
ATOM     34  C   UNL A   1      37.372  29.016  29.250  1.00  0.00     0.014 A 
ATOM     35  C   UNL A   1      38.272  29.682  27.083  1.00  0.00     0.014 A 
ATOM     36  C   UNL A   1      38.486  28.219  29.481  1.00  0.00     0.010 A 
ATOM     37  C   UNL A   1      39.411  28.949  27.351  1.00  0.00     0.010 A 
ATOM     38  C   UNL A   1      39.545  28.280  28.579  1.00  0.00    -0.014 A 
BRANCH  38  39
ATOM     39  C   UNL A   1      40.874  27.760  28.871  1.00  0.00     0.031 A 
ATOM     40  C   UNL A   1      41.192  26.356  28.517  1.00  0.00     0.074 A 
ATOM     41  C   UNL A   1      41.839  28.578  29.357  1.00  0.00     0.049 A 
ATOM     42  N   UNL A   1      42.212  25.703  28.962  1.00  0.00    -0.248 NA
ATOM     43  C   UNL A   1      40.331  25.547  27.657  1.00  0.00     0.031 C 
ATOM     44  C   UNL A   1      43.275  28.299  29.387  1.00  0.00     0.029 A 
ATOM     45  N   UNL A   1      41.748  29.780  30.063  1.00  0.00    -0.354 N 
ATOM     46  C   UNL A   1      42.323  24.550  28.220  1.00  0.00     0.074 A 
ATOM     47  C   UNL A   1      41.073  24.446  27.506  1.00  0.00     0.031 C 
ATOM     48  C   UNL A   1      43.846  29.084  30.312  1.00  0.00     0.029 A 
ATOM     49  C   UNL A   1      42.767  29.735  31.030  1.00  0.00     0.049 A 
ATOM     50  H   UNL A   1      41.104  30.509  29.914  1.00  0.00     0.167 HD
ATOM     51  C   UNL A   1      43.519  23.894  28.189  1.00  0.00     0.031 A 
ATOM     52  C   UNL A   1      42.557  29.614  32.378  1.00  0.00     0.031 A 
ATOM     53  C   UNL A   1      44.475  24.456  29.150  1.00  0.00     0.049 A 
ATOM     54  C   UNL A   1      43.202  28.374  33.004  1.00  0.00     0.074 A 
ATOM     55  C   UNL A   1      45.617  25.235  29.055  1.00  0.00     0.029 A 
ATOM     56  N   UNL A   1      44.129  24.458  30.494  1.00  0.00    -0.354 N 
ATOM     57  N   UNL A   1      43.861  27.466  32.335  1.00  0.00    -0.248 NA
ATOM     58  C   UNL A   1      43.073  28.011  34.418  1.00  0.00     0.031 C 
ATOM     59  C   UNL A   1      45.944  25.711  30.362  1.00  0.00     0.029 A 
ATOM     60  C   UNL A   1      45.015  25.203  31.249  1.00  0.00     0.049 A 
ATOM     61  H   UNL A   1      43.349  23.986  30.864  1.00  0.00     0.167 HD
ATOM     62  C   UNL A   1      44.186  26.415  33.153  1.00  0.00     0.074 A 
ATOM     63  C   UNL A   1      43.680  26.809  34.455  1.00  0.00     0.031 C 
ATOM     64  C   UNL A   1      44.798  25.283  32.689  1.00  0.00     0.031 A 
BRANCH  51  65
ATOM     65  C   UNL A   1      43.895  22.897  27.109  1.00  0.00    -0.014 A 
ATOM     66  C   UNL A   1      42.979  21.893  26.731  1.00  0.00     0.010 A 
ATOM     67  C   UNL A   1      45.152  22.843  26.478  1.00  0.00     0.010 A 
ATOM     68  C   UNL A   1      43.336  20.845  25.863  1.00  0.00     0.020 A 
ATOM     69  C   UNL A   1      45.536  21.787  25.638  1.00  0.00     0.020 A 
ATOM     70  C   UNL A   1      44.626  20.782  25.346  1.00  0.00     0.054 A 
BRANCH  70  71
ATOM     71  S   UNL A   1      45.108  19.383  24.304  1.00  0.00     0.124 S 
ATOM     72  O   UNL A   1      46.564  19.490  24.285  1.00  0.00    -0.237 OA
ATOM     73  O   UNL A   1      44.567  18.243  25.038  1.00  0.00    -0.237 OA
ATOM     74  O   UNL A   1      44.456  19.661  23.024  1.00  0.00    -0.744 OA
ENDBRANCH  70  71
ENDBRANCH  51  65
BRANCH  52  75
ATOM     75  C   UNL A   1      41.309  30.268  32.861  1.00  0.00    -0.014 A 
ATOM     76  C   UNL A   1      40.268  29.427  33.313  1.00  0.00     0.010 A 
ATOM     77  C   UNL A   1      41.311  31.616  33.257  1.00  0.00     0.010 A 
ATOM     78  C   UNL A   1      39.371  29.868  34.288  1.00  0.00     0.020 A 
ATOM     79  C   UNL A   1      40.402  32.064  34.227  1.00  0.00     0.020 A 
ATOM     80  C   UNL A   1      39.489  31.165  34.787  1.00  0.00     0.054 A 
BRANCH  80  81
ATOM     81  S   UNL A   1      38.583  31.576  36.310  1.00  0.00     0.124 S 
ATOM     82  O   UNL A   1      37.704  32.655  35.870  1.00  0.00    -0.237 OA
ATOM     83  O   UNL A   1      37.917  30.309  36.618  1.00  0.00    -0.237 OA
ATOM     84  O   UNL A   1      39.641  31.961  37.236  1.00  0.00    -0.744 OA
ENDBRANCH  80  81
ENDBRANCH  52  75
BRANCH  64  85
ATOM     85  C   UNL A   1      45.194  24.096  33.540  1.00  0.00    -0.014 A 
ATOM     86  C   UNL A   1      46.504  23.863  33.989  1.00  0.00     0.010 A 
ATOM     87  C   UNL A   1      44.239  23.089  33.823  1.00  0.00     0.010 A 
ATOM     88  C   UNL A   1      46.819  22.731  34.759  1.00  0.00     0.020 A 
ATOM     89  C   UNL A   1      44.544  21.949  34.570  1.00  0.00     0.020 A 
ATOM     90  C   UNL A   1      45.832  21.789  35.057  1.00  0.00     0.054 A 
BRANCH  90  91
ATOM     91  S   UNL A   1      46.260  20.334  36.044  1.00  0.00     0.124 S 
ATOM     92  O   UNL A   1      45.556  19.259  35.347  1.00  0.00    -0.237 OA
ATOM     93  O   UNL A   1      47.716  20.307  35.930  1.00  0.00    -0.237 OA
ATOM     94  O   UNL A   1      45.744  20.647  37.375  1.00  0.00    -0.744 OA
ENDBRANCH  90  91
ENDBRANCH  64  85
ENDBRANCH  38  39
ENDBRANCH  30  33
ENDBRANCH  28  29
ENDBRANCH   1  28
TORSDOF 16
ENDMDL
MODEL 3
REMARK VINA RESULT:     -14.4      1.516      2.137
REMARK SMILES Cc1ccc(N2C(=O)C[C@H](Sc3ccccc3C(=O)NCCCNC(=O)c3ccc(-c4c5nc(c(-c6ccc(S(=O)(=O)[O-])cc6)c6ccc([nH]6)c(-c6ccc(S(=O)(=O)[O-])cc6)c6nc(c(-c7ccc(S(=O)(=O)[O-])cc7)c7ccc4[nH]7)C=C6)C=C5)cc3)C2=O)cc1
REMARK SMILES IDX 22 1 21 2 20 3 18 4 19 5 17 7 12 8 13 9 14 10 16 11 15 12
REMARK SMILES IDX 11 13 10 14 6 15 7 16 87 17 8 18 9 19 88 20 5 21 1 22 2 23
REMARK SMILES IDX 3 24 90 25 4 26 89 27 23 28 24 29 25 30 26 32 27 33 28 34
REMARK SMILES IDX 86 35 29 36 85 37 30 38 31 39 32 40 79 41 33 42 84 43 78 44
REMARK SMILES IDX 80 45 34 46 83 47 77 48 76 49 35 51 65 52 46 53 64 54 47 55
REMARK SMILES IDX 50 56 63 57 81 58 48 59 49 60 62 62 82 63 51 64 36 65 37 66
REMARK SMILES IDX 45 67 38 68 44 69 39 70 40 71 41 72 42 73 43 74 66 75 67 76
REMARK SMILES IDX 75 77 68 78 74 79 69 80 70 81 71 82 72 83 73 84 52 85 53 86
REMARK SMILES IDX 61 87 54 88 60 89 55 90 56 91 57 92 58 93 59 94
REMARK H PARENT 20 6 24 31 80 50 50 61
REMARK Flexibility Score: inf
ROOT
ATOM      1  C   UNL A   1      32.952  30.406  26.876  1.00  0.00     0.042 C 
ENDROOT
BRANCH   1   2
ATOM      2  C   UNL A   1      32.221  29.234  26.232  1.00  0.00     0.118 C 
BRANCH   2   3
ATOM      3  N   UNL A   1      32.480  29.080  24.802  1.00  0.00    -0.352 N 
ATOM      4  C   UNL A   1      31.744  29.117  23.644  1.00  0.00     0.252 C 
ATOM      5  O   UNL A   1      32.405  29.158  22.604  1.00  0.00    -0.269 OA
ATOM      6  H   UNL A   1      33.432  28.903  24.622  1.00  0.00     0.163 HD
BRANCH   4   7
ATOM      7  C   UNL A   1      30.244  29.086  23.561  1.00  0.00     0.053 A 
ATOM      8  C   UNL A   1      29.526  27.865  23.422  1.00  0.00     0.021 A 
ATOM      9  C   UNL A   1      28.128  27.900  23.218  1.00  0.00     0.016 A 
ATOM     10  C   UNL A   1      27.433  29.105  23.168  1.00  0.00     0.001 A 
ATOM     11  C   UNL A   1      29.510  30.283  23.510  1.00  0.00     0.015 A 
ATOM     12  C   UNL A   1      28.123  30.296  23.324  1.00  0.00     0.001 A 
BRANCH   8  13
ATOM     13  S   UNL A   1      30.212  26.204  23.266  1.00  0.00    -0.111 SA
BRANCH  13  14
ATOM     14  C   UNL A   1      31.147  25.932  24.813  1.00  0.00     0.151 C 
ATOM     15  N   UNL A   1      32.746  24.254  25.138  1.00  0.00    -0.250 N 
ATOM     16  C   UNL A   1      31.572  23.767  25.668  1.00  0.00     0.235 C 
ATOM     17  C   UNL A   1      32.577  25.507  24.587  1.00  0.00     0.247 C 
ATOM     18  O   UNL A   1      31.336  22.651  26.111  1.00  0.00    -0.274 OA
ATOM     19  C   UNL A   1      30.591  24.894  25.758  1.00  0.00     0.126 C 
ATOM     20  O   UNL A   1      33.400  26.179  23.975  1.00  0.00    -0.273 OA
BRANCH  15  21
ATOM     21  C   UNL A   1      33.988  23.569  25.204  1.00  0.00     0.052 A 
ATOM     22  C   UNL A   1      37.904  21.722  25.147  1.00  0.00     0.044 C 
ATOM     23  C   UNL A   1      36.534  22.328  25.198  1.00  0.00    -0.051 A 
ATOM     24  C   UNL A   1      35.576  21.988  24.240  1.00  0.00     0.005 A 
ATOM     25  C   UNL A   1      36.214  23.290  26.158  1.00  0.00     0.005 A 
ATOM     26  C   UNL A   1      34.309  22.584  24.259  1.00  0.00     0.027 A 
ATOM     27  C   UNL A   1      34.959  23.910  26.153  1.00  0.00     0.027 A 
ENDBRANCH  15  21
ENDBRANCH  13  14
ENDBRANCH   8  13
ENDBRANCH   4   7
ENDBRANCH   2   3
ENDBRANCH   1   2
BRANCH   1  28
ATOM     28  C   UNL A   1      34.391  30.055  27.246  1.00  0.00     0.118 C 
BRANCH  28  29
ATOM     29  N   UNL A   1      35.218  31.217  27.568  1.00  0.00    -0.352 N 
ATOM     30  C   UNL A   1      36.465  31.223  28.193  1.00  0.00     0.251 C 
ATOM     31  H   UNL A   1      34.853  32.095  27.313  1.00  0.00     0.163 HD
ATOM     32  O   UNL A   1      36.987  32.213  28.630  1.00  0.00    -0.269 OA
BRANCH  30  33
ATOM     33  C   UNL A   1      37.182  29.929  28.174  1.00  0.00     0.039 A 
ATOM     34  C   UNL A   1      37.240  29.235  29.390  1.00  0.00     0.014 A 
ATOM     35  C   UNL A   1      38.058  29.654  27.131  1.00  0.00     0.014 A 
ATOM     36  C   UNL A   1      38.327  28.408  29.643  1.00  0.00     0.010 A 
ATOM     37  C   UNL A   1      39.174  28.893  27.412  1.00  0.00     0.010 A 
ATOM     38  C   UNL A   1      39.341  28.334  28.690  1.00  0.00    -0.014 A 
BRANCH  38  39
ATOM     39  C   UNL A   1      40.658  27.778  28.967  1.00  0.00     0.031 A 
ATOM     40  C   UNL A   1      40.942  26.373  28.587  1.00  0.00     0.074 A 
ATOM     41  C   UNL A   1      41.645  28.563  29.463  1.00  0.00     0.049 A 
ATOM     42  N   UNL A   1      41.947  25.688  29.016  1.00  0.00    -0.248 NA
ATOM     43  C   UNL A   1      40.057  25.600  27.718  1.00  0.00     0.031 C 
ATOM     44  C   UNL A   1      43.074  28.250  29.482  1.00  0.00     0.029 A 
ATOM     45  N   UNL A   1      41.585  29.755  30.190  1.00  0.00    -0.354 N 
ATOM     46  C   UNL A   1      42.028  24.546  28.254  1.00  0.00     0.074 A 
ATOM     47  C   UNL A   1      40.773  24.484  27.544  1.00  0.00     0.031 C 
ATOM     48  C   UNL A   1      43.667  29.005  30.418  1.00  0.00     0.029 A 
ATOM     49  C   UNL A   1      42.607  29.669  31.151  1.00  0.00     0.049 A 
ATOM     50  H   UNL A   1      40.958  30.501  30.056  1.00  0.00     0.167 HD
ATOM     51  C   UNL A   1      43.208  23.862  28.206  1.00  0.00     0.031 A 
ATOM     52  C   UNL A   1      42.400  29.529  32.498  1.00  0.00     0.031 A 
ATOM     53  C   UNL A   1      44.181  24.384  29.172  1.00  0.00     0.049 A 
ATOM     54  C   UNL A   1      43.017  28.263  33.099  1.00  0.00     0.074 A 
ATOM     55  C   UNL A   1      45.340  25.138  29.086  1.00  0.00     0.029 A 
ATOM     56  N   UNL A   1      43.840  24.371  30.518  1.00  0.00    -0.354 N 
ATOM     57  N   UNL A   1      43.652  27.352  32.411  1.00  0.00    -0.248 NA
ATOM     58  C   UNL A   1      42.886  27.878  34.507  1.00  0.00     0.031 C 
ATOM     59  C   UNL A   1      45.684  25.582  30.399  1.00  0.00     0.029 A 
ATOM     60  C   UNL A   1      44.746  25.081  31.281  1.00  0.00     0.049 A 
ATOM     61  H   UNL A   1      43.051  23.912  30.883  1.00  0.00     0.167 HD
ATOM     62  C   UNL A   1      43.954  26.279  33.210  1.00  0.00     0.074 A 
ATOM     63  C   UNL A   1      43.464  26.663  34.521  1.00  0.00     0.031 C 
ATOM     64  C   UNL A   1      44.538  25.142  32.723  1.00  0.00     0.031 A 
BRANCH  51  65
ATOM     65  C   UNL A   1      43.555  22.875  27.107  1.00  0.00    -0.014 A 
ATOM     66  C   UNL A   1      42.784  21.706  26.944  1.00  0.00     0.010 A 
ATOM     67  C   UNL A   1      44.665  22.998  26.250  1.00  0.00     0.010 A 
ATOM     68  C   UNL A   1      43.160  20.680  26.058  1.00  0.00     0.020 A 
ATOM     69  C   UNL A   1      45.074  21.970  25.387  1.00  0.00     0.020 A 
ATOM     70  C   UNL A   1      44.325  20.806  25.307  1.00  0.00     0.054 A 
BRANCH  70  71
ATOM     71  S   UNL A   1      44.854  19.445  24.237  1.00  0.00     0.124 S 
ATOM     72  O   UNL A   1      46.296  19.407  24.465  1.00  0.00    -0.237 OA
ATOM     73  O   UNL A   1      44.099  18.315  24.770  1.00  0.00    -0.237 OA
ATOM     74  O   UNL A   1      44.456  19.879  22.898  1.00  0.00    -0.744 OA
ENDBRANCH  70  71
ENDBRANCH  51  65
BRANCH  52  75
ATOM     75  C   UNL A   1      41.169  30.204  32.998  1.00  0.00    -0.014 A 
ATOM     76  C   UNL A   1      41.237  31.597  33.220  1.00  0.00     0.010 A 
ATOM     77  C   UNL A   1      39.909  29.602  32.849  1.00  0.00     0.010 A 
ATOM     78  C   UNL A   1      40.095  32.392  33.097  1.00  0.00     0.020 A 
ATOM     79  C   UNL A   1      38.759  30.398  32.739  1.00  0.00     0.020 A 
ATOM     80  C   UNL A   1      38.875  31.791  32.790  1.00  0.00     0.054 A 
BRANCH  80  81
ATOM     81  S   UNL A   1      37.509  32.865  32.251  1.00  0.00     0.124 S 
ATOM     82  O   UNL A   1      36.513  31.900  31.798  1.00  0.00    -0.237 OA
ATOM     83  O   UNL A   1      37.179  33.578  33.486  1.00  0.00    -0.237 OA
ATOM     84  O   UNL A   1      38.117  33.683  31.208  1.00  0.00    -0.744 OA
ENDBRANCH  80  81
ENDBRANCH  52  75
BRANCH  64  85
ATOM     85  C   UNL A   1      44.909  23.930  33.552  1.00  0.00    -0.014 A 
ATOM     86  C   UNL A   1      43.997  22.926  33.913  1.00  0.00     0.010 A 
ATOM     87  C   UNL A   1      46.212  23.831  34.099  1.00  0.00     0.010 A 
ATOM     88  C   UNL A   1      44.392  21.833  34.703  1.00  0.00     0.020 A 
ATOM     89  C   UNL A   1      46.612  22.760  34.902  1.00  0.00     0.020 A 
ATOM     90  C   UNL A   1      45.702  21.750  35.180  1.00  0.00     0.054 A 
BRANCH  90  91
ATOM     91  S   UNL A   1      46.191  20.338  36.201  1.00  0.00     0.124 S 
ATOM     92  O   UNL A   1      47.624  20.234  35.934  1.00  0.00    -0.237 OA
ATOM     93  O   UNL A   1      45.834  20.796  37.541  1.00  0.00    -0.237 OA
ATOM     94  O   UNL A   1      45.384  19.235  35.685  1.00  0.00    -0.744 OA
ENDBRANCH  90  91
ENDBRANCH  64  85
ENDBRANCH  38  39
ENDBRANCH  30  33
ENDBRANCH  28  29
ENDBRANCH   1  28
TORSDOF 16
ENDMDL
