MODEL 1
REMARK VINA RESULT:     -12.1      0.000      0.000
REMARK SMILES O=C(NCCCNC(=O)C1CCN(C(=O)COc2ccc(Cl)cc2Cl)CC1)c1ccc(-c2c3nc(c(-c4ccc(S(=O)(=O)[O-])cc4)c4ccc([nH]4)c(-c4ccc(S(=O)(=O)[O-])cc4)c4nc(c(-c5ccc(S(=O)(=O)[O-])cc5)c5ccc2[nH]5)C=C4)C=C3)cc1
REMARK SMILES IDX 5 1 4 2 3 3 1 4 2 5 28 7 29 8 87 9 30 10 86 11 31 12 32 13
REMARK SMILES IDX 33 14 80 15 34 16 85 17 79 18 81 19 35 20 84 21 78 22 77 23
REMARK SMILES IDX 36 25 66 26 47 27 65 28 48 29 51 30 64 31 82 32 49 33 50 34
REMARK SMILES IDX 63 36 83 37 52 38 37 39 38 40 46 41 39 42 45 43 40 44 41 45
REMARK SMILES IDX 42 46 43 47 44 48 67 49 68 50 76 51 69 52 75 53 70 54 71 55
REMARK SMILES IDX 72 56 73 57 74 58 53 59 54 60 62 61 55 62 61 63 56 64 57 65
REMARK SMILES IDX 58 66 59 67 60 68 6 69 7 70 8 71 9 73 10 74 11 75 27 76
REMARK SMILES IDX 12 77 26 78 13 79 14 80 15 81 16 82 17 83 18 84 19 85 24 86
REMARK SMILES IDX 20 87 23 88 25 89 21 90 22 91
REMARK H PARENT 3 6 81 24 51 35 7 72
REMARK Flexibility Score: inf
ROOT
ATOM      1  C   UNL A   1      39.863  22.204  26.708  1.00  0.00     0.042 C 
ENDROOT
BRANCH   1   2
ATOM      2  C   UNL A   1      40.868  23.237  27.176  1.00  0.00     0.118 C 
BRANCH   2   3
ATOM      3  N   UNL A   1      41.222  24.180  26.120  1.00  0.00    -0.352 N 
ATOM      4  O   UNL A   1      41.338  26.124  25.007  1.00  0.00    -0.269 OA
ATOM      5  C   UNL A   1      41.205  25.558  26.087  1.00  0.00     0.251 C 
ATOM      6  H   UNL A   1      41.525  23.757  25.285  1.00  0.00     0.163 HD
BRANCH   5   7
ATOM      7  C   UNL A   1      41.010  26.355  27.322  1.00  0.00     0.039 A 
ATOM      8  C   UNL A   1      41.812  27.458  27.595  1.00  0.00     0.014 A 
ATOM      9  C   UNL A   1      39.971  26.033  28.203  1.00  0.00     0.014 A 
ATOM     10  C   UNL A   1      41.722  28.102  28.820  1.00  0.00     0.010 A 
ATOM     11  C   UNL A   1      39.777  26.786  29.370  1.00  0.00     0.010 A 
ATOM     12  C   UNL A   1      40.671  27.813  29.705  1.00  0.00    -0.014 A 
BRANCH  12  13
ATOM     13  C   UNL A   1      40.505  28.685  30.899  1.00  0.00     0.031 A 
ATOM     14  C   UNL A   1      41.436  28.602  32.077  1.00  0.00     0.074 A 
ATOM     15  C   UNL A   1      39.535  29.624  30.867  1.00  0.00     0.049 A 
ATOM     16  N   UNL A   1      41.463  29.353  33.150  1.00  0.00    -0.248 NA
ATOM     17  C   UNL A   1      42.461  27.546  32.062  1.00  0.00     0.031 C 
ATOM     18  C   UNL A   1      38.553  29.785  29.786  1.00  0.00     0.029 A 
ATOM     19  N   UNL A   1      39.243  30.651  31.726  1.00  0.00    -0.354 N 
ATOM     20  C   UNL A   1      42.488  28.851  33.945  1.00  0.00     0.074 A 
ATOM     21  C   UNL A   1      43.045  27.716  33.241  1.00  0.00     0.031 C 
ATOM     22  C   UNL A   1      37.838  30.897  30.000  1.00  0.00     0.029 A 
ATOM     23  C   UNL A   1      38.239  31.477  31.273  1.00  0.00     0.049 A 
ATOM     24  H   UNL A   1      39.704  30.784  32.586  1.00  0.00     0.167 HD
ATOM     25  C   UNL A   1      42.924  29.300  35.147  1.00  0.00     0.031 A 
ATOM     26  C   UNL A   1      37.684  32.573  31.821  1.00  0.00     0.031 A 
ATOM     27  C   UNL A   1      42.364  30.431  35.841  1.00  0.00     0.049 A 
ATOM     28  C   UNL A   1      38.191  33.046  33.150  1.00  0.00     0.074 A 
ATOM     29  C   UNL A   1      42.730  30.957  37.069  1.00  0.00     0.029 A 
ATOM     30  N   UNL A   1      41.323  31.217  35.367  1.00  0.00    -0.354 N 
ATOM     31  N   UNL A   1      39.158  32.549  33.883  1.00  0.00    -0.248 NA
ATOM     32  C   UNL A   1      37.529  34.221  33.730  1.00  0.00     0.031 C 
ATOM     33  C   UNL A   1      41.886  32.037  37.353  1.00  0.00     0.029 A 
ATOM     34  C   UNL A   1      41.029  32.217  36.280  1.00  0.00     0.049 A 
ATOM     35  H   UNL A   1      40.861  31.083  34.508  1.00  0.00     0.167 HD
ATOM     36  C   UNL A   1      39.219  33.349  35.016  1.00  0.00     0.074 A 
ATOM     37  C   UNL A   1      38.218  34.385  34.850  1.00  0.00     0.031 C 
ATOM     38  C   UNL A   1      40.020  33.229  36.103  1.00  0.00     0.031 A 
BRANCH  25  39
ATOM     39  C   UNL A   1      44.057  28.553  35.802  1.00  0.00    -0.014 A 
ATOM     40  C   UNL A   1      43.812  27.458  36.649  1.00  0.00     0.010 A 
ATOM     41  C   UNL A   1      45.389  28.913  35.521  1.00  0.00     0.010 A 
ATOM     42  C   UNL A   1      44.875  26.757  37.228  1.00  0.00     0.020 A 
ATOM     43  C   UNL A   1      46.455  28.201  36.079  1.00  0.00     0.020 A 
ATOM     44  C   UNL A   1      46.190  27.134  36.941  1.00  0.00     0.054 A 
BRANCH  44  45
ATOM     45  S   UNL A   1      47.550  26.189  37.682  1.00  0.00     0.124 S 
ATOM     46  O   UNL A   1      48.236  25.673  36.500  1.00  0.00    -0.237 OA
ATOM     47  O   UNL A   1      48.278  27.209  38.434  1.00  0.00    -0.237 OA
ATOM     48  O   UNL A   1      46.873  25.185  38.497  1.00  0.00    -0.744 OA
ENDBRANCH  44  45
ENDBRANCH  25  39
BRANCH  26  49
ATOM     49  C   UNL A   1      36.561  33.261  31.128  1.00  0.00    -0.014 A 
ATOM     50  C   UNL A   1      35.321  33.448  31.763  1.00  0.00     0.010 A 
ATOM     51  C   UNL A   1      36.744  33.757  29.824  1.00  0.00     0.010 A 
ATOM     52  C   UNL A   1      34.280  34.104  31.098  1.00  0.00     0.020 A 
ATOM     53  C   UNL A   1      35.718  34.441  29.169  1.00  0.00     0.020 A 
ATOM     54  C   UNL A   1      34.485  34.595  29.805  1.00  0.00     0.054 A 
BRANCH  54  55
ATOM     55  S   UNL A   1      33.141  35.486  28.974  1.00  0.00     0.124 S 
ATOM     56  O   UNL A   1      32.350  35.961  30.104  1.00  0.00    -0.237 OA
ATOM     57  O   UNL A   1      33.857  36.515  28.225  1.00  0.00    -0.237 OA
ATOM     58  O   UNL A   1      32.509  34.457  28.152  1.00  0.00    -0.744 OA
ENDBRANCH  54  55
ENDBRANCH  26  49
BRANCH  38  59
ATOM     59  C   UNL A   1      39.848  34.259  37.184  1.00  0.00    -0.014 A 
ATOM     60  C   UNL A   1      39.025  34.009  38.297  1.00  0.00     0.010 A 
ATOM     61  C   UNL A   1      40.524  35.488  37.088  1.00  0.00     0.010 A 
ATOM     62  C   UNL A   1      38.843  34.991  39.273  1.00  0.00     0.020 A 
ATOM     63  C   UNL A   1      40.365  36.463  38.077  1.00  0.00     0.020 A 
ATOM     64  C   UNL A   1      39.510  36.214  39.153  1.00  0.00     0.054 A 
BRANCH  64  65
ATOM     65  S   UNL A   1      39.270  37.470  40.438  1.00  0.00     0.124 S 
ATOM     66  O   UNL A   1      40.592  38.086  40.510  1.00  0.00    -0.237 OA
ATOM     67  O   UNL A   1      38.215  38.311  39.876  1.00  0.00    -0.237 OA
ATOM     68  O   UNL A   1      38.878  36.693  41.612  1.00  0.00    -0.744 OA
ENDBRANCH  64  65
ENDBRANCH  38  59
ENDBRANCH  12  13
ENDBRANCH   5   7
ENDBRANCH   2   3
ENDBRANCH   1   2
BRANCH   1  69
ATOM     69  C   UNL A   1      38.566  22.836  26.230  1.00  0.00     0.117 C 
BRANCH  69  70
ATOM     70  N   UNL A   1      37.577  21.852  25.851  1.00  0.00    -0.356 N 
ATOM     71  C   UNL A   1      36.227  21.832  25.917  1.00  0.00     0.223 C 
ATOM     72  H   UNL A   1      37.965  21.031  25.468  1.00  0.00     0.163 HD
ATOM     73  O   UNL A   1      35.683  20.813  25.472  1.00  0.00    -0.275 OA
BRANCH  71  74
ATOM     74  C   UNL A   1      35.353  22.930  26.530  1.00  0.00     0.082 C 
ATOM     75  C   UNL A   1      34.070  22.515  27.240  1.00  0.00     0.035 C 
ATOM     76  C   UNL A   1      35.179  24.147  25.633  1.00  0.00     0.035 C 
ATOM     77  C   UNL A   1      32.750  22.740  26.505  1.00  0.00     0.120 C 
ATOM     78  C   UNL A   1      33.974  24.052  24.723  1.00  0.00     0.120 C 
ATOM     79  N   UNL A   1      32.739  23.715  25.420  1.00  0.00    -0.340 N 
ATOM     80  C   UNL A   1      31.482  24.001  24.880  1.00  0.00     0.260 C 
ATOM     81  O   UNL A   1      30.487  23.335  25.180  1.00  0.00    -0.271 OA
BRANCH  80  82
ATOM     82  C   UNL A   1      31.334  25.234  23.975  1.00  0.00     0.329 C 
BRANCH  82  83
ATOM     83  O   UNL A   1      31.148  26.516  24.549  1.00  0.00    -0.482 OA
BRANCH  83  84
ATOM     84  C   UNL A   1      30.304  27.422  23.967  1.00  0.00     0.138 A 
ATOM     85  C   UNL A   1      28.990  27.156  23.574  1.00  0.00     0.049 A 
ATOM     86  C   UNL A   1      30.778  28.740  23.857  1.00  0.00     0.084 A 
ATOM     87  C   UNL A   1      28.154  28.183  23.127  1.00  0.00     0.024 A 
ATOM     88  C   UNL A   1      29.954  29.765  23.380  1.00  0.00     0.045 A 
ATOM     89  Cl  UNL A   1      32.396  29.153  24.304  1.00  0.00    -0.080 Cl
ATOM     90  C   UNL A   1      28.639  29.482  23.033  1.00  0.00     0.042 A 
ATOM     91  Cl  UNL A   1      27.598  30.741  22.497  1.00  0.00    -0.084 Cl
ENDBRANCH  83  84
ENDBRANCH  82  83
ENDBRANCH  80  82
ENDBRANCH  71  74
ENDBRANCH  69  70
ENDBRANCH   1  69
TORSDOF 16
ENDMDL
MODEL 2
REMARK VINA RESULT:     -12.0      5.049     12.126
REMARK SMILES O=C(NCCCNC(=O)C1CCN(C(=O)COc2ccc(Cl)cc2Cl)CC1)c1ccc(-c2c3nc(c(-c4ccc(S(=O)(=O)[O-])cc4)c4ccc([nH]4)c(-c4ccc(S(=O)(=O)[O-])cc4)c4nc(c(-c5ccc(S(=O)(=O)[O-])cc5)c5ccc2[nH]5)C=C4)C=C3)cc1
REMARK SMILES IDX 5 1 4 2 3 3 1 4 2 5 28 7 29 8 87 9 30 10 86 11 31 12 32 13
REMARK SMILES IDX 33 14 80 15 34 16 85 17 79 18 81 19 35 20 84 21 78 22 77 23
REMARK SMILES IDX 36 25 66 26 47 27 65 28 48 29 51 30 64 31 82 32 49 33 50 34
REMARK SMILES IDX 63 36 83 37 52 38 37 39 38 40 46 41 39 42 45 43 40 44 41 45
REMARK SMILES IDX 42 46 43 47 44 48 67 49 68 50 76 51 69 52 75 53 70 54 71 55
REMARK SMILES IDX 72 56 73 57 74 58 53 59 54 60 62 61 55 62 61 63 56 64 57 65
REMARK SMILES IDX 58 66 59 67 60 68 6 69 7 70 8 71 9 73 10 74 11 75 27 76
REMARK SMILES IDX 12 77 26 78 13 79 14 80 15 81 16 82 17 83 18 84 19 85 24 86
REMARK SMILES IDX 20 87 23 88 25 89 21 90 22 91
REMARK H PARENT 3 6 81 24 51 35 7 72
REMARK Flexibility Score: inf
ROOT
ATOM      1  C   UNL A   1      35.121  32.672  29.303  1.00  0.00     0.042 C 
ENDROOT
BRANCH   1   2
ATOM      2  C   UNL A   1      34.284  32.578  28.043  1.00  0.00     0.118 C 
BRANCH   2   3
ATOM      3  N   UNL A   1      33.669  31.264  27.886  1.00  0.00    -0.352 N 
ATOM      4  O   UNL A   1      33.508  29.072  27.437  1.00  0.00    -0.269 OA
ATOM      5  C   UNL A   1      34.223  30.006  27.785  1.00  0.00     0.251 C 
ATOM      6  H   UNL A   1      32.686  31.280  27.843  1.00  0.00     0.163 HD
BRANCH   5   7
ATOM      7  C   UNL A   1      35.659  29.772  28.070  1.00  0.00     0.039 A 
ATOM      8  C   UNL A   1      36.074  29.298  29.310  1.00  0.00     0.014 A 
ATOM      9  C   UNL A   1      36.612  29.976  27.065  1.00  0.00     0.014 A 
ATOM     10  C   UNL A   1      37.425  29.229  29.615  1.00  0.00     0.010 A 
ATOM     11  C   UNL A   1      37.972  29.752  27.325  1.00  0.00     0.010 A 
ATOM     12  C   UNL A   1      38.395  29.402  28.615  1.00  0.00    -0.014 A 
BRANCH  12  13
ATOM     13  C   UNL A   1      39.812  29.102  28.958  1.00  0.00     0.031 A 
ATOM     14  C   UNL A   1      40.659  30.065  29.742  1.00  0.00     0.074 A 
ATOM     15  C   UNL A   1      40.303  27.891  28.616  1.00  0.00     0.049 A 
ATOM     16  N   UNL A   1      41.883  29.904  30.182  1.00  0.00    -0.248 NA
ATOM     17  C   UNL A   1      40.075  31.376  30.068  1.00  0.00     0.031 C 
ATOM     18  C   UNL A   1      39.581  26.880  27.832  1.00  0.00     0.029 A 
ATOM     19  N   UNL A   1      41.490  27.278  28.922  1.00  0.00    -0.354 N 
ATOM     20  C   UNL A   1      42.221  31.094  30.818  1.00  0.00     0.074 A 
ATOM     21  C   UNL A   1      41.083  31.978  30.686  1.00  0.00     0.031 C 
ATOM     22  C   UNL A   1      40.296  25.748  27.804  1.00  0.00     0.029 A 
ATOM     23  C   UNL A   1      41.564  25.976  28.482  1.00  0.00     0.049 A 
ATOM     24  H   UNL A   1      42.219  27.726  29.408  1.00  0.00     0.167 HD
ATOM     25  C   UNL A   1      43.374  31.414  31.456  1.00  0.00     0.031 A 
ATOM     26  C   UNL A   1      42.546  25.063  28.591  1.00  0.00     0.031 A 
ATOM     27  C   UNL A   1      44.502  30.528  31.582  1.00  0.00     0.049 A 
ATOM     28  C   UNL A   1      43.807  25.447  29.304  1.00  0.00     0.074 A 
ATOM     29  C   UNL A   1      45.719  30.764  32.201  1.00  0.00     0.029 A 
ATOM     30  N   UNL A   1      44.553  29.232  31.089  1.00  0.00    -0.354 N 
ATOM     31  N   UNL A   1      44.104  26.581  29.892  1.00  0.00    -0.248 NA
ATOM     32  C   UNL A   1      44.867  24.433  29.364  1.00  0.00     0.031 C 
ATOM     33  C   UNL A   1      46.518  29.625  32.048  1.00  0.00     0.029 A 
ATOM     34  C   UNL A   1      45.781  28.660  31.381  1.00  0.00     0.049 A 
ATOM     35  H   UNL A   1      43.824  28.785  30.602  1.00  0.00     0.167 HD
ATOM     36  C   UNL A   1      45.390  26.420  30.389  1.00  0.00     0.074 A 
ATOM     37  C   UNL A   1      45.796  25.065  30.068  1.00  0.00     0.031 C 
ATOM     38  C   UNL A   1      46.171  27.316  31.040  1.00  0.00     0.031 A 
BRANCH  25  39
ATOM     39  C   UNL A   1      43.481  32.794  32.053  1.00  0.00    -0.014 A 
ATOM     40  C   UNL A   1      43.035  33.056  33.360  1.00  0.00     0.010 A 
ATOM     41  C   UNL A   1      44.089  33.829  31.319  1.00  0.00     0.010 A 
ATOM     42  C   UNL A   1      43.166  34.334  33.912  1.00  0.00     0.020 A 
ATOM     43  C   UNL A   1      44.244  35.103  31.875  1.00  0.00     0.020 A 
ATOM     44  C   UNL A   1      43.768  35.351  33.164  1.00  0.00     0.054 A 
BRANCH  44  45
ATOM     45  S   UNL A   1      43.952  36.993  33.915  1.00  0.00     0.124 S 
ATOM     46  O   UNL A   1      42.585  37.283  34.341  1.00  0.00    -0.237 OA
ATOM     47  O   UNL A   1      44.907  36.748  34.993  1.00  0.00    -0.237 OA
ATOM     48  O   UNL A   1      44.452  37.821  32.821  1.00  0.00    -0.744 OA
ENDBRANCH  44  45
ENDBRANCH  25  39
BRANCH  26  49
ATOM     49  C   UNL A   1      42.382  23.720  27.970  1.00  0.00    -0.014 A 
ATOM     50  C   UNL A   1      43.129  23.346  26.840  1.00  0.00     0.010 A 
ATOM     51  C   UNL A   1      41.484  22.795  28.533  1.00  0.00     0.010 A 
ATOM     52  C   UNL A   1      42.967  22.077  26.275  1.00  0.00     0.020 A 
ATOM     53  C   UNL A   1      41.343  21.515  27.993  1.00  0.00     0.020 A 
ATOM     54  C   UNL A   1      42.075  21.170  26.855  1.00  0.00     0.054 A 
BRANCH  54  55
ATOM     55  S   UNL A   1      41.910  19.511  26.141  1.00  0.00     0.124 S 
ATOM     56  O   UNL A   1      42.744  19.613  24.947  1.00  0.00    -0.237 OA
ATOM     57  O   UNL A   1      42.428  18.654  27.205  1.00  0.00    -0.237 OA
ATOM     58  O   UNL A   1      40.475  19.386  25.896  1.00  0.00    -0.744 OA
ENDBRANCH  54  55
ENDBRANCH  26  49
BRANCH  38  59
ATOM     59  C   UNL A   1      47.535  26.844  31.456  1.00  0.00    -0.014 A 
ATOM     60  C   UNL A   1      48.665  27.099  30.657  1.00  0.00     0.010 A 
ATOM     61  C   UNL A   1      47.691  26.143  32.665  1.00  0.00     0.010 A 
ATOM     62  C   UNL A   1      49.920  26.620  31.037  1.00  0.00     0.020 A 
ATOM     63  C   UNL A   1      48.950  25.685  33.062  1.00  0.00     0.020 A 
ATOM     64  C   UNL A   1      50.053  25.909  32.234  1.00  0.00     0.054 A 
BRANCH  64  65
ATOM     65  S   UNL A   1      51.693  25.306  32.715  1.00  0.00     0.124 S 
ATOM     66  O   UNL A   1      52.573  26.126  31.885  1.00  0.00    -0.237 OA
ATOM     67  O   UNL A   1      51.736  25.591  34.147  1.00  0.00    -0.237 OA
ATOM     68  O   UNL A   1      51.654  23.886  32.369  1.00  0.00    -0.744 OA
ENDBRANCH  64  65
ENDBRANCH  38  59
ENDBRANCH  12  13
ENDBRANCH   5   7
ENDBRANCH   2   3
ENDBRANCH   1   2
BRANCH   1  69
ATOM     69  C   UNL A   1      35.149  34.081  29.872  1.00  0.00     0.117 C 
BRANCH  69  70
ATOM     70  N   UNL A   1      33.835  34.550  30.251  1.00  0.00    -0.356 N 
ATOM     71  C   UNL A   1      33.290  34.897  31.438  1.00  0.00     0.223 C 
ATOM     72  H   UNL A   1      33.212  34.634  29.492  1.00  0.00     0.163 HD
ATOM     73  O   UNL A   1      32.115  35.286  31.395  1.00  0.00    -0.275 OA
BRANCH  71  74
ATOM     74  C   UNL A   1      33.988  34.801  32.797  1.00  0.00     0.082 C 
ATOM     75  C   UNL A   1      35.291  35.568  32.992  1.00  0.00     0.035 C 
ATOM     76  C   UNL A   1      34.028  33.392  33.368  1.00  0.00     0.035 C 
ATOM     77  C   UNL A   1      36.592  34.770  32.966  1.00  0.00     0.120 C 
ATOM     78  C   UNL A   1      35.264  32.618  32.966  1.00  0.00     0.120 C 
ATOM     79  N   UNL A   1      36.510  33.335  33.213  1.00  0.00    -0.340 N 
ATOM     80  C   UNL A   1      37.734  32.672  33.333  1.00  0.00     0.260 C 
ATOM     81  O   UNL A   1      38.798  33.236  33.062  1.00  0.00    -0.271 OA
BRANCH  80  82
ATOM     82  C   UNL A   1      37.746  31.248  33.909  1.00  0.00     0.329 C 
BRANCH  82  83
ATOM     83  O   UNL A   1      38.291  30.181  33.151  1.00  0.00    -0.482 OA
BRANCH  83  84
ATOM     84  C   UNL A   1      39.577  29.766  33.362  1.00  0.00     0.138 A 
ATOM     85  C   UNL A   1      40.549  30.488  34.060  1.00  0.00     0.049 A 
ATOM     86  C   UNL A   1      39.899  28.470  32.923  1.00  0.00     0.084 A 
ATOM     87  C   UNL A   1      41.791  29.918  34.355  1.00  0.00     0.024 A 
ATOM     88  C   UNL A   1      41.151  27.909  33.189  1.00  0.00     0.045 A 
ATOM     89  Cl  UNL A   1      38.762  27.515  32.037  1.00  0.00    -0.080 Cl
ATOM     90  C   UNL A   1      42.086  28.632  33.920  1.00  0.00     0.042 A 
ATOM     91  Cl  UNL A   1      43.611  27.935  34.302  1.00  0.00    -0.084 Cl
ENDBRANCH  83  84
ENDBRANCH  82  83
ENDBRANCH  80  82
ENDBRANCH  71  74
ENDBRANCH  69  70
ENDBRANCH   1  69
TORSDOF 16
ENDMDL
MODEL 3
REMARK VINA RESULT:     -12.0      6.526     12.140
REMARK SMILES O=C(NCCCNC(=O)C1CCN(C(=O)COc2ccc(Cl)cc2Cl)CC1)c1ccc(-c2c3nc(c(-c4ccc(S(=O)(=O)[O-])cc4)c4ccc([nH]4)c(-c4ccc(S(=O)(=O)[O-])cc4)c4nc(c(-c5ccc(S(=O)(=O)[O-])cc5)c5ccc2[nH]5)C=C4)C=C3)cc1
REMARK SMILES IDX 5 1 4 2 3 3 1 4 2 5 28 7 29 8 87 9 30 10 86 11 31 12 32 13
REMARK SMILES IDX 33 14 80 15 34 16 85 17 79 18 81 19 35 20 84 21 78 22 77 23
REMARK SMILES IDX 36 25 66 26 47 27 65 28 48 29 51 30 64 31 82 32 49 33 50 34
REMARK SMILES IDX 63 36 83 37 52 38 37 39 38 40 46 41 39 42 45 43 40 44 41 45
REMARK SMILES IDX 42 46 43 47 44 48 67 49 68 50 76 51 69 52 75 53 70 54 71 55
REMARK SMILES IDX 72 56 73 57 74 58 53 59 54 60 62 61 55 62 61 63 56 64 57 65
REMARK SMILES IDX 58 66 59 67 60 68 6 69 7 70 8 71 9 73 10 74 11 75 27 76
REMARK SMILES IDX 12 77 26 78 13 79 14 80 15 81 16 82 17 83 18 84 19 85 24 86
REMARK SMILES IDX 20 87 23 88 25 89 21 90 22 91
REMARK H PARENT 3 6 81 24 51 35 7 72
REMARK Flexibility Score: inf
ROOT
ATOM      1  C   UNL A   1      34.074  31.711  28.177  1.00  0.00     0.042 C 
ENDROOT
BRANCH   1   2
ATOM      2  C   UNL A   1      35.379  31.122  28.674  1.00  0.00     0.118 C 
BRANCH   2   3
ATOM      3  N   UNL A   1      35.474  31.142  30.129  1.00  0.00    -0.352 N 
ATOM      4  O   UNL A   1      36.226  30.638  32.182  1.00  0.00    -0.269 OA
ATOM      5  C   UNL A   1      36.470  30.718  30.982  1.00  0.00     0.251 C 
ATOM      6  H   UNL A   1      34.688  31.526  30.581  1.00  0.00     0.163 HD
BRANCH   5   7
ATOM      7  C   UNL A   1      37.811  30.343  30.473  1.00  0.00     0.039 A 
ATOM      8  C   UNL A   1      38.123  30.463  29.123  1.00  0.00     0.014 A 
ATOM      9  C   UNL A   1      38.801  29.914  31.366  1.00  0.00     0.014 A 
ATOM     10  C   UNL A   1      39.324  29.968  28.637  1.00  0.00     0.010 A 
ATOM     11  C   UNL A   1      40.074  29.563  30.893  1.00  0.00     0.010 A 
ATOM     12  C   UNL A   1      40.339  29.560  29.516  1.00  0.00    -0.014 A 
BRANCH  12  13
ATOM     13  C   UNL A   1      41.676  29.246  28.942  1.00  0.00     0.031 A 
ATOM     14  C   UNL A   1      42.799  30.245  28.956  1.00  0.00     0.074 A 
ATOM     15  C   UNL A   1      41.886  27.996  28.476  1.00  0.00     0.049 A 
ATOM     16  N   UNL A   1      44.040  30.083  28.565  1.00  0.00    -0.248 NA
ATOM     17  C   UNL A   1      42.503  31.595  29.458  1.00  0.00     0.031 C 
ATOM     18  C   UNL A   1      40.863  26.945  28.389  1.00  0.00     0.029 A 
ATOM     19  N   UNL A   1      43.027  27.374  28.040  1.00  0.00    -0.354 N 
ATOM     20  C   UNL A   1      44.665  31.311  28.755  1.00  0.00     0.074 A 
ATOM     21  C   UNL A   1      43.662  32.216  29.274  1.00  0.00     0.031 C 
ATOM     22  C   UNL A   1      41.441  25.793  28.025  1.00  0.00     0.029 A 
ATOM     23  C   UNL A   1      42.851  26.038  27.760  1.00  0.00     0.049 A 
ATOM     24  H   UNL A   1      43.889  27.838  27.936  1.00  0.00     0.167 HD
ATOM     25  C   UNL A   1      45.957  31.648  28.522  1.00  0.00     0.031 A 
ATOM     26  C   UNL A   1      43.718  25.107  27.321  1.00  0.00     0.031 A 
ATOM     27  C   UNL A   1      46.949  30.740  28.005  1.00  0.00     0.049 A 
ATOM     28  C   UNL A   1      45.141  25.511  27.075  1.00  0.00     0.074 A 
ATOM     29  C   UNL A   1      48.282  30.990  27.724  1.00  0.00     0.029 A 
ATOM     30  N   UNL A   1      46.722  29.407  27.697  1.00  0.00    -0.354 N 
ATOM     31  N   UNL A   1      45.704  26.680  27.258  1.00  0.00    -0.248 NA
ATOM     32  C   UNL A   1      46.041  24.473  26.558  1.00  0.00     0.031 C 
ATOM     33  C   UNL A   1      48.850  29.818  27.212  1.00  0.00     0.029 A 
ATOM     34  C   UNL A   1      47.886  28.824  27.221  1.00  0.00     0.049 A 
ATOM     35  H   UNL A   1      45.859  28.943  27.800  1.00  0.00     0.167 HD
ATOM     36  C   UNL A   1      47.029  26.522  26.873  1.00  0.00     0.074 A 
ATOM     37  C   UNL A   1      47.189  25.133  26.488  1.00  0.00     0.031 C 
ATOM     38  C   UNL A   1      48.020  27.444  26.829  1.00  0.00     0.031 A 
BRANCH  25  39
ATOM     39  C   UNL A   1      46.371  33.068  28.808  1.00  0.00    -0.014 A 
ATOM     40  C   UNL A   1      46.942  33.424  30.042  1.00  0.00     0.010 A 
ATOM     41  C   UNL A   1      46.240  34.050  27.808  1.00  0.00     0.010 A 
ATOM     42  C   UNL A   1      47.347  34.741  30.283  1.00  0.00     0.020 A 
ATOM     43  C   UNL A   1      46.665  35.363  28.036  1.00  0.00     0.020 A 
ATOM     44  C   UNL A   1      47.204  35.703  29.279  1.00  0.00     0.054 A 
BRANCH  44  45
ATOM     45  S   UNL A   1      47.764  37.397  29.608  1.00  0.00     0.124 S 
ATOM     46  O   UNL A   1      46.696  37.905  30.466  1.00  0.00    -0.237 OA
ATOM     47  O   UNL A   1      49.051  37.188  30.266  1.00  0.00    -0.237 OA
ATOM     48  O   UNL A   1      47.838  38.003  28.281  1.00  0.00    -0.744 OA
ENDBRANCH  44  45
ENDBRANCH  25  39
BRANCH  26  49
ATOM     49  C   UNL A   1      43.244  23.723  27.049  1.00  0.00    -0.014 A 
ATOM     50  C   UNL A   1      43.072  23.259  25.733  1.00  0.00     0.010 A 
ATOM     51  C   UNL A   1      42.985  22.849  28.121  1.00  0.00     0.010 A 
ATOM     52  C   UNL A   1      42.633  21.953  25.497  1.00  0.00     0.020 A 
ATOM     53  C   UNL A   1      42.579  21.534  27.889  1.00  0.00     0.020 A 
ATOM     54  C   UNL A   1      42.390  21.099  26.577  1.00  0.00     0.054 A 
BRANCH  54  55
ATOM     55  S   UNL A   1      41.867  19.392  26.253  1.00  0.00     0.124 S 
ATOM     56  O   UNL A   1      42.274  18.715  27.481  1.00  0.00    -0.237 OA
ATOM     57  O   UNL A   1      40.427  19.532  26.054  1.00  0.00    -0.237 OA
ATOM     58  O   UNL A   1      42.620  19.027  25.055  1.00  0.00    -0.744 OA
ENDBRANCH  54  55
ENDBRANCH  26  49
BRANCH  38  59
ATOM     59  C   UNL A   1      49.366  26.967  26.359  1.00  0.00    -0.014 A 
ATOM     60  C   UNL A   1      49.737  27.066  25.006  1.00  0.00     0.010 A 
ATOM     61  C   UNL A   1      50.272  26.419  27.284  1.00  0.00     0.010 A 
ATOM     62  C   UNL A   1      50.974  26.582  24.577  1.00  0.00     0.020 A 
ATOM     63  C   UNL A   1      51.522  25.958  26.863  1.00  0.00     0.020 A 
ATOM     64  C   UNL A   1      51.856  26.024  25.509  1.00  0.00     0.054 A 
BRANCH  64  65
ATOM     65  S   UNL A   1      53.462  25.412  24.933  1.00  0.00     0.124 S 
ATOM     66  O   UNL A   1      53.338  23.974  25.159  1.00  0.00    -0.237 OA
ATOM     67  O   UNL A   1      53.485  25.828  23.533  1.00  0.00    -0.237 OA
ATOM     68  O   UNL A   1      54.423  26.098  25.796  1.00  0.00    -0.744 OA
ENDBRANCH  64  65
ENDBRANCH  38  59
ENDBRANCH  12  13
ENDBRANCH   5   7
ENDBRANCH   2   3
ENDBRANCH   1   2
BRANCH   1  69
ATOM     69  C   UNL A   1      33.434  30.860  27.092  1.00  0.00     0.117 C 
BRANCH  69  70
ATOM     70  N   UNL A   1      32.632  29.785  27.633  1.00  0.00    -0.356 N 
ATOM     71  C   UNL A   1      32.196  28.614  27.117  1.00  0.00     0.223 C 
ATOM     72  H   UNL A   1      32.345  29.938  28.563  1.00  0.00     0.163 HD
ATOM     73  O   UNL A   1      31.532  27.905  27.884  1.00  0.00    -0.275 OA
BRANCH  71  74
ATOM     74  C   UNL A   1      32.420  28.140  25.679  1.00  0.00     0.082 C 
ATOM     75  C   UNL A   1      31.206  27.697  24.870  1.00  0.00     0.035 C 
ATOM     76  C   UNL A   1      33.621  27.220  25.516  1.00  0.00     0.035 C 
ATOM     77  C   UNL A   1      30.999  26.198  24.670  1.00  0.00     0.120 C 
ATOM     78  C   UNL A   1      33.278  25.755  25.673  1.00  0.00     0.120 C 
ATOM     79  N   UNL A   1      32.154  25.326  24.849  1.00  0.00    -0.340 N 
ATOM     80  C   UNL A   1      31.956  23.985  24.508  1.00  0.00     0.260 C 
ATOM     81  O   UNL A   1      30.831  23.546  24.253  1.00  0.00    -0.271 OA
BRANCH  80  82
ATOM     82  C   UNL A   1      33.186  23.077  24.353  1.00  0.00     0.329 C 
BRANCH  82  83
ATOM     83  O   UNL A   1      33.471  22.097  25.337  1.00  0.00    -0.482 OA
BRANCH  83  84
ATOM     84  C   UNL A   1      33.469  20.768  25.016  1.00  0.00     0.138 A 
ATOM     85  C   UNL A   1      32.337  20.032  24.654  1.00  0.00     0.049 A 
ATOM     86  C   UNL A   1      34.722  20.134  24.953  1.00  0.00     0.084 A 
ATOM     87  C   UNL A   1      32.454  18.716  24.196  1.00  0.00     0.024 A 
ATOM     88  C   UNL A   1      34.839  18.809  24.526  1.00  0.00     0.045 A 
ATOM     89  Cl  UNL A   1      36.171  20.965  25.401  1.00  0.00    -0.080 Cl
ATOM     90  C   UNL A   1      33.703  18.111  24.133  1.00  0.00     0.042 A 
ATOM     91  Cl  UNL A   1      33.837  16.498  23.554  1.00  0.00    -0.084 Cl
ENDBRANCH  83  84
ENDBRANCH  82  83
ENDBRANCH  80  82
ENDBRANCH  71  74
ENDBRANCH  69  70
ENDBRANCH   1  69
TORSDOF 16
ENDMDL
