MODEL 1
REMARK VINA RESULT:     -10.1      0.000      0.000
REMARK SMILES CC(C)C[C@@H](C[C@H](O)c1ccccc1)C(=O)NCCCNC(=O)c1ccc(-c2c3nc(c(-c4ccc(S(=O)(=O)[O-])cc4)c4ccc([nH]4)c(-c4ccc(S(=O)(=O)[O-])cc4)c4nc(c(-c5ccc(S(=O)(=O)[O-])cc5)c5ccc2[nH]5)C=C4)C=C3)cc1
REMARK SMILES IDX 19 1 18 2 17 3 15 4 16 5 5 7 4 8 2 9 1 10 3 11 6 12 7 13
REMARK SMILES IDX 9 14 10 15 14 16 11 17 13 18 12 19 8 20 20 22 21 23 22 24
REMARK SMILES IDX 23 26 24 27 25 28 83 29 26 30 82 31 27 32 28 33 29 34 76 35
REMARK SMILES IDX 30 36 81 37 75 38 77 39 31 40 80 41 74 42 73 43 32 45 62 46
REMARK SMILES IDX 43 47 61 48 44 49 47 50 60 51 78 52 45 53 46 54 59 56 79 57
REMARK SMILES IDX 48 58 33 59 34 60 42 61 35 62 41 63 36 64 37 65 38 66 39 67
REMARK SMILES IDX 40 68 63 69 64 70 72 71 65 72 71 73 66 74 67 75 68 76 69 77
REMARK SMILES IDX 70 78 49 79 50 80 58 81 51 82 57 83 52 84 53 85 54 86 55 87
REMARK SMILES IDX 56 88
REMARK H PARENT 17 6 8 21 21 25 77 44 47 55
REMARK Flexibility Score: inf
ROOT
ATOM      1  C   UNL A   1      33.126  28.990  24.883  1.00  0.00     0.042 C 
ENDROOT
BRANCH   1   2
ATOM      2  C   UNL A   1      31.727  29.536  25.063  1.00  0.00     0.117 C 
BRANCH   2   3
ATOM      3  N   UNL A   1      30.940  29.485  23.847  1.00  0.00    -0.356 N 
ATOM      4  C   UNL A   1      30.466  28.441  23.123  1.00  0.00     0.223 C 
ATOM      5  O   UNL A   1      29.674  28.702  22.212  1.00  0.00    -0.275 OA
ATOM      6  H   UNL A   1      30.707  30.368  23.480  1.00  0.00     0.163 HD
BRANCH   4   7
ATOM      7  C   UNL A   1      30.847  26.994  23.410  1.00  0.00     0.081 C 
BRANCH   7   8
ATOM      8  C   UNL A   1      29.733  26.248  24.178  1.00  0.00     0.016 C 
BRANCH   8   9
ATOM      9  C   UNL A   1      30.134  25.538  25.479  1.00  0.00    -0.017 C 
ATOM     10  C   UNL A   1      30.663  24.127  25.226  1.00  0.00     0.007 C 
ATOM     11  C   UNL A   1      31.203  26.369  26.198  1.00  0.00     0.007 C 
ENDBRANCH   8   9
ENDBRANCH   7   8
BRANCH   7  12
ATOM     12  C   UNL A   1      31.600  26.285  22.257  1.00  0.00     0.050 C 
BRANCH  12  13
ATOM     13  C   UNL A   1      33.124  26.064  22.317  1.00  0.00     0.145 C 
BRANCH  13  14
ATOM     14  C   UNL A   1      33.681  25.097  23.357  1.00  0.00    -0.020 A 
ATOM     15  C   UNL A   1      34.220  25.498  24.589  1.00  0.00     0.006 A 
ATOM     16  C   UNL A   1      33.720  23.718  23.061  1.00  0.00     0.006 A 
ATOM     17  C   UNL A   1      34.786  24.572  25.476  1.00  0.00     0.000 A 
ATOM     18  C   UNL A   1      34.263  22.789  23.955  1.00  0.00     0.000 A 
ATOM     19  C   UNL A   1      34.804  23.218  25.161  1.00  0.00     0.000 A 
ENDBRANCH  13  14
BRANCH  13  20
ATOM     20  O   UNL A   1      33.513  25.561  21.026  1.00  0.00    -0.388 OA
ATOM     21  H   UNL A   1      33.274  26.205  20.343  1.00  0.00     0.211 HD
ENDBRANCH  13  20
ENDBRANCH  12  13
ENDBRANCH   7  12
ENDBRANCH   4   7
ENDBRANCH   2   3
ENDBRANCH   1   2
BRANCH   1  22
ATOM     22  C   UNL A   1      34.045  29.362  26.030  1.00  0.00     0.118 C 
BRANCH  22  23
ATOM     23  N   UNL A   1      33.707  30.651  26.628  1.00  0.00    -0.352 N 
ATOM     24  C   UNL A   1      34.285  31.323  27.678  1.00  0.00     0.251 C 
ATOM     25  H   UNL A   1      32.943  31.111  26.212  1.00  0.00     0.163 HD
ATOM     26  O   UNL A   1      33.722  32.306  28.156  1.00  0.00    -0.269 OA
BRANCH  24  27
ATOM     27  C   UNL A   1      35.563  30.850  28.244  1.00  0.00     0.039 A 
ATOM     28  C   UNL A   1      36.722  31.606  28.053  1.00  0.00     0.014 A 
ATOM     29  C   UNL A   1      35.617  29.664  28.975  1.00  0.00     0.014 A 
ATOM     30  C   UNL A   1      37.913  31.199  28.657  1.00  0.00     0.010 A 
ATOM     31  C   UNL A   1      36.759  29.347  29.695  1.00  0.00     0.010 A 
ATOM     32  C   UNL A   1      37.932  30.088  29.517  1.00  0.00    -0.014 A 
BRANCH  32  33
ATOM     33  C   UNL A   1      39.175  29.648  30.198  1.00  0.00     0.031 A 
ATOM     34  C   UNL A   1      39.611  30.329  31.472  1.00  0.00     0.074 A 
ATOM     35  C   UNL A   1      39.934  28.680  29.648  1.00  0.00     0.049 A 
ATOM     36  N   UNL A   1      40.681  30.118  32.194  1.00  0.00    -0.248 NA
ATOM     37  C   UNL A   1      38.757  31.417  31.980  1.00  0.00     0.031 C 
ATOM     38  C   UNL A   1      39.653  27.990  28.385  1.00  0.00     0.029 A 
ATOM     39  N   UNL A   1      41.100  28.104  30.085  1.00  0.00    -0.354 N 
ATOM     40  C   UNL A   1      40.637  31.059  33.218  1.00  0.00     0.074 A 
ATOM     41  C   UNL A   1      39.481  31.890  32.981  1.00  0.00     0.031 C 
ATOM     42  C   UNL A   1      40.590  27.051  28.179  1.00  0.00     0.029 A 
ATOM     43  C   UNL A   1      41.561  27.099  29.266  1.00  0.00     0.049 A 
ATOM     44  H   UNL A   1      41.564  28.383  30.907  1.00  0.00     0.167 HD
ATOM     45  C   UNL A   1      41.461  31.198  34.283  1.00  0.00     0.031 A 
ATOM     46  C   UNL A   1      42.639  26.302  29.384  1.00  0.00     0.031 A 
ATOM     47  C   UNL A   1      42.592  30.347  34.531  1.00  0.00     0.049 A 
ATOM     48  C   UNL A   1      43.526  26.457  30.588  1.00  0.00     0.074 A 
ATOM     49  C   UNL A   1      43.458  30.357  35.609  1.00  0.00     0.029 A 
ATOM     50  N   UNL A   1      43.008  29.325  33.691  1.00  0.00    -0.354 N 
ATOM     51  N   UNL A   1      43.430  27.309  31.581  1.00  0.00    -0.248 NA
ATOM     52  C   UNL A   1      44.657  25.526  30.699  1.00  0.00     0.031 C 
ATOM     53  C   UNL A   1      44.430  29.374  35.396  1.00  0.00     0.029 A 
ATOM     54  C   UNL A   1      44.129  28.708  34.218  1.00  0.00     0.049 A 
ATOM     55  H   UNL A   1      42.572  29.075  32.844  1.00  0.00     0.167 HD
ATOM     56  C   UNL A   1      44.467  26.995  32.453  1.00  0.00     0.074 A 
ATOM     57  C   UNL A   1      45.165  25.863  31.875  1.00  0.00     0.031 C 
ATOM     58  C   UNL A   1      44.811  27.585  33.625  1.00  0.00     0.031 A 
BRANCH  45  59
ATOM     59  C   UNL A   1      41.158  32.308  35.257  1.00  0.00    -0.014 A 
ATOM     60  C   UNL A   1      41.708  33.593  35.093  1.00  0.00     0.010 A 
ATOM     61  C   UNL A   1      40.293  32.071  36.340  1.00  0.00     0.010 A 
ATOM     62  C   UNL A   1      41.438  34.605  36.017  1.00  0.00     0.020 A 
ATOM     63  C   UNL A   1      39.992  33.091  37.248  1.00  0.00     0.020 A 
ATOM     64  C   UNL A   1      40.581  34.347  37.090  1.00  0.00     0.054 A 
BRANCH  64  65
ATOM     65  S   UNL A   1      40.228  35.687  38.259  1.00  0.00     0.124 S 
ATOM     66  O   UNL A   1      39.093  35.146  39.004  1.00  0.00    -0.237 OA
ATOM     67  O   UNL A   1      41.477  35.793  39.009  1.00  0.00    -0.237 OA
ATOM     68  O   UNL A   1      39.922  36.827  37.399  1.00  0.00    -0.744 OA
ENDBRANCH  64  65
ENDBRANCH  45  59
BRANCH  46  69
ATOM     69  C   UNL A   1      42.914  25.262  28.354  1.00  0.00    -0.014 A 
ATOM     70  C   UNL A   1      42.357  23.976  28.470  1.00  0.00     0.010 A 
ATOM     71  C   UNL A   1      43.728  25.554  27.244  1.00  0.00     0.010 A 
ATOM     72  C   UNL A   1      42.627  22.995  27.510  1.00  0.00     0.020 A 
ATOM     73  C   UNL A   1      43.976  24.587  26.267  1.00  0.00     0.020 A 
ATOM     74  C   UNL A   1      43.434  23.308  26.412  1.00  0.00     0.054 A 
BRANCH  74  75
ATOM     75  S   UNL A   1      43.735  22.035  25.156  1.00  0.00     0.124 S 
ATOM     76  O   UNL A   1      43.500  22.769  23.916  1.00  0.00    -0.237 OA
ATOM     77  O   UNL A   1      45.122  21.658  25.416  1.00  0.00    -0.237 OA
ATOM     78  O   UNL A   1      42.748  21.004  25.470  1.00  0.00    -0.744 OA
ENDBRANCH  74  75
ENDBRANCH  46  69
BRANCH  58  79
ATOM     79  C   UNL A   1      45.965  26.986  34.383  1.00  0.00    -0.014 A 
ATOM     80  C   UNL A   1      47.284  27.433  34.189  1.00  0.00     0.010 A 
ATOM     81  C   UNL A   1      45.717  25.971  35.325  1.00  0.00     0.010 A 
ATOM     82  C   UNL A   1      48.340  26.836  34.881  1.00  0.00     0.020 A 
ATOM     83  C   UNL A   1      46.766  25.395  36.044  1.00  0.00     0.020 A 
ATOM     84  C   UNL A   1      48.073  25.816  35.801  1.00  0.00     0.054 A 
BRANCH  84  85
ATOM     85  S   UNL A   1      49.460  25.060  36.691  1.00  0.00     0.124 S 
ATOM     86  O   UNL A   1      49.385  25.724  37.989  1.00  0.00    -0.237 OA
ATOM     87  O   UNL A   1      49.109  23.643  36.688  1.00  0.00    -0.237 OA
ATOM     88  O   UNL A   1      50.624  25.409  35.878  1.00  0.00    -0.744 OA
ENDBRANCH  84  85
ENDBRANCH  58  79
ENDBRANCH  32  33
ENDBRANCH  24  27
ENDBRANCH  22  23
ENDBRANCH   1  22
TORSDOF 19
ENDMDL
MODEL 2
REMARK VINA RESULT:     -10.0      3.531      9.382
REMARK SMILES CC(C)C[C@@H](C[C@H](O)c1ccccc1)C(=O)NCCCNC(=O)c1ccc(-c2c3nc(c(-c4ccc(S(=O)(=O)[O-])cc4)c4ccc([nH]4)c(-c4ccc(S(=O)(=O)[O-])cc4)c4nc(c(-c5ccc(S(=O)(=O)[O-])cc5)c5ccc2[nH]5)C=C4)C=C3)cc1
REMARK SMILES IDX 19 1 18 2 17 3 15 4 16 5 5 7 4 8 2 9 1 10 3 11 6 12 7 13
REMARK SMILES IDX 9 14 10 15 14 16 11 17 13 18 12 19 8 20 20 22 21 23 22 24
REMARK SMILES IDX 23 26 24 27 25 28 83 29 26 30 82 31 27 32 28 33 29 34 76 35
REMARK SMILES IDX 30 36 81 37 75 38 77 39 31 40 80 41 74 42 73 43 32 45 62 46
REMARK SMILES IDX 43 47 61 48 44 49 47 50 60 51 78 52 45 53 46 54 59 56 79 57
REMARK SMILES IDX 48 58 33 59 34 60 42 61 35 62 41 63 36 64 37 65 38 66 39 67
REMARK SMILES IDX 40 68 63 69 64 70 72 71 65 72 71 73 66 74 67 75 68 76 69 77
REMARK SMILES IDX 70 78 49 79 50 80 58 81 51 82 57 83 52 84 53 85 54 86 55 87
REMARK SMILES IDX 56 88
REMARK H PARENT 17 6 8 21 21 25 77 44 47 55
REMARK Flexibility Score: inf
ROOT
ATOM      1  C   UNL A   1      34.995  23.844  25.762  1.00  0.00     0.042 C 
ENDROOT
BRANCH   1   2
ATOM      2  C   UNL A   1      34.031  24.986  25.534  1.00  0.00     0.117 C 
BRANCH   2   3
ATOM      3  N   UNL A   1      32.658  24.637  25.842  1.00  0.00    -0.356 N 
ATOM      4  C   UNL A   1      31.513  25.361  25.797  1.00  0.00     0.223 C 
ATOM      5  O   UNL A   1      30.453  24.747  25.957  1.00  0.00    -0.275 OA
ATOM      6  H   UNL A   1      32.535  23.706  26.136  1.00  0.00     0.163 HD
BRANCH   4   7
ATOM      7  C   UNL A   1      31.492  26.862  25.534  1.00  0.00     0.081 C 
BRANCH   7   8
ATOM      8  C   UNL A   1      32.179  27.654  26.668  1.00  0.00     0.016 C 
BRANCH   8   9
ATOM      9  C   UNL A   1      32.894  28.956  26.280  1.00  0.00    -0.017 C 
ATOM     10  C   UNL A   1      32.124  30.195  26.735  1.00  0.00     0.007 C 
ATOM     11  C   UNL A   1      34.297  28.965  26.898  1.00  0.00     0.007 C 
ENDBRANCH   8   9
ENDBRANCH   7   8
BRANCH   7  12
ATOM     12  C   UNL A   1      31.732  27.260  24.056  1.00  0.00     0.050 C 
BRANCH  12  13
ATOM     13  C   UNL A   1      30.569  27.317  23.047  1.00  0.00     0.145 C 
BRANCH  13  14
ATOM     14  C   UNL A   1      29.593  28.486  23.124  1.00  0.00    -0.020 A 
ATOM     15  C   UNL A   1      29.978  29.813  23.374  1.00  0.00     0.006 A 
ATOM     16  C   UNL A   1      28.211  28.236  22.996  1.00  0.00     0.006 A 
ATOM     17  C   UNL A   1      29.030  30.836  23.508  1.00  0.00     0.000 A 
ATOM     18  C   UNL A   1      27.264  29.260  23.106  1.00  0.00     0.000 A 
ATOM     19  C   UNL A   1      27.674  30.562  23.370  1.00  0.00     0.000 A 
ENDBRANCH  13  14
BRANCH  13  20
ATOM     20  O   UNL A   1      31.168  27.357  21.739  1.00  0.00    -0.388 OA
ATOM     21  H   UNL A   1      30.555  26.978  21.091  1.00  0.00     0.211 HD
ENDBRANCH  13  20
ENDBRANCH  12  13
ENDBRANCH   7  12
ENDBRANCH   4   7
ENDBRANCH   2   3
ENDBRANCH   1   2
BRANCH   1  22
ATOM     22  C   UNL A   1      36.432  24.232  25.470  1.00  0.00     0.118 C 
BRANCH  22  23
ATOM     23  N   UNL A   1      37.357  23.110  25.607  1.00  0.00    -0.352 N 
ATOM     24  C   UNL A   1      38.641  23.070  26.096  1.00  0.00     0.251 C 
ATOM     25  H   UNL A   1      37.005  22.244  25.298  1.00  0.00     0.163 HD
ATOM     26  O   UNL A   1      39.322  22.059  25.937  1.00  0.00    -0.269 OA
BRANCH  24  27
ATOM     27  C   UNL A   1      39.205  24.246  26.786  1.00  0.00     0.039 A 
ATOM     28  C   UNL A   1      39.983  25.157  26.069  1.00  0.00     0.014 A 
ATOM     29  C   UNL A   1      38.956  24.457  28.142  1.00  0.00     0.014 A 
ATOM     30  C   UNL A   1      40.448  26.311  26.703  1.00  0.00     0.010 A 
ATOM     31  C   UNL A   1      39.288  25.671  28.724  1.00  0.00     0.010 A 
ATOM     32  C   UNL A   1      40.071  26.597  28.026  1.00  0.00    -0.014 A 
BRANCH  32  33
ATOM     33  C   UNL A   1      40.523  27.829  28.719  1.00  0.00     0.031 A 
ATOM     34  C   UNL A   1      41.923  27.903  29.276  1.00  0.00     0.074 A 
ATOM     35  C   UNL A   1      39.665  28.854  28.892  1.00  0.00     0.049 A 
ATOM     36  N   UNL A   1      42.493  28.871  29.945  1.00  0.00    -0.248 NA
ATOM     37  C   UNL A   1      42.782  26.719  29.095  1.00  0.00     0.031 C 
ATOM     38  C   UNL A   1      38.266  28.877  28.456  1.00  0.00     0.029 A 
ATOM     39  N   UNL A   1      39.847  30.080  29.480  1.00  0.00    -0.354 N 
ATOM     40  C   UNL A   1      43.759  28.402  30.283  1.00  0.00     0.074 A 
ATOM     41  C   UNL A   1      43.846  27.039  29.814  1.00  0.00     0.031 C 
ATOM     42  C   UNL A   1      37.735  30.076  28.745  1.00  0.00     0.029 A 
ATOM     43  C   UNL A   1      38.736  30.890  29.424  1.00  0.00     0.049 A 
ATOM     44  H   UNL A   1      40.692  30.354  29.904  1.00  0.00     0.167 HD
ATOM     45  C   UNL A   1      44.774  29.057  30.893  1.00  0.00     0.031 A 
ATOM     46  C   UNL A   1      38.551  32.149  29.863  1.00  0.00     0.031 A 
ATOM     47  C   UNL A   1      44.694  30.424  31.328  1.00  0.00     0.049 A 
ATOM     48  C   UNL A   1      39.701  32.866  30.515  1.00  0.00     0.074 A 
ATOM     49  C   UNL A   1      45.680  31.206  31.901  1.00  0.00     0.029 A 
ATOM     50  N   UNL A   1      43.560  31.216  31.229  1.00  0.00    -0.354 N 
ATOM     51  N   UNL A   1      40.913  32.428  30.765  1.00  0.00    -0.248 NA
ATOM     52  C   UNL A   1      39.465  34.256  30.925  1.00  0.00     0.031 C 
ATOM     53  C   UNL A   1      45.127  32.456  32.196  1.00  0.00     0.029 A 
ATOM     54  C   UNL A   1      43.817  32.474  31.745  1.00  0.00     0.049 A 
ATOM     55  H   UNL A   1      42.699  30.927  30.848  1.00  0.00     0.167 HD
ATOM     56  C   UNL A   1      41.595  33.500  31.331  1.00  0.00     0.074 A 
ATOM     57  C   UNL A   1      40.663  34.610  31.368  1.00  0.00     0.031 C 
ATOM     58  C   UNL A   1      42.874  33.564  31.777  1.00  0.00     0.031 A 
BRANCH  45  59
ATOM     59  C   UNL A   1      46.058  28.297  31.116  1.00  0.00    -0.014 A 
ATOM     60  C   UNL A   1      47.128  28.389  30.206  1.00  0.00     0.010 A 
ATOM     61  C   UNL A   1      46.207  27.498  32.264  1.00  0.00     0.010 A 
ATOM     62  C   UNL A   1      48.301  27.660  30.413  1.00  0.00     0.020 A 
ATOM     63  C   UNL A   1      47.393  26.794  32.493  1.00  0.00     0.020 A 
ATOM     64  C   UNL A   1      48.427  26.866  31.557  1.00  0.00     0.054 A 
BRANCH  64  65
ATOM     65  S   UNL A   1      49.971  25.952  31.812  1.00  0.00     0.124 S 
ATOM     66  O   UNL A   1      50.976  26.993  31.606  1.00  0.00    -0.237 OA
ATOM     67  O   UNL A   1      49.836  25.475  33.186  1.00  0.00    -0.237 OA
ATOM     68  O   UNL A   1      49.933  24.911  30.787  1.00  0.00    -0.744 OA
ENDBRANCH  64  65
ENDBRANCH  45  59
BRANCH  46  69
ATOM     69  C   UNL A   1      37.238  32.823  29.663  1.00  0.00    -0.014 A 
ATOM     70  C   UNL A   1      36.859  33.288  28.391  1.00  0.00     0.010 A 
ATOM     71  C   UNL A   1      36.353  32.995  30.743  1.00  0.00     0.010 A 
ATOM     72  C   UNL A   1      35.633  33.934  28.207  1.00  0.00     0.020 A 
ATOM     73  C   UNL A   1      35.113  33.612  30.557  1.00  0.00     0.020 A 
ATOM     74  C   UNL A   1      34.765  34.090  29.292  1.00  0.00     0.054 A 
BRANCH  74  75
ATOM     75  S   UNL A   1      33.160  34.890  29.022  1.00  0.00     0.124 S 
ATOM     76  O   UNL A   1      33.553  36.195  28.501  1.00  0.00    -0.237 OA
ATOM     77  O   UNL A   1      32.518  33.992  28.065  1.00  0.00    -0.237 OA
ATOM     78  O   UNL A   1      32.556  34.902  30.353  1.00  0.00    -0.744 OA
ENDBRANCH  74  75
ENDBRANCH  46  69
BRANCH  58  79
ATOM     79  C   UNL A   1      43.354  34.891  32.298  1.00  0.00    -0.014 A 
ATOM     80  C   UNL A   1      43.258  35.225  33.661  1.00  0.00     0.010 A 
ATOM     81  C   UNL A   1      43.935  35.812  31.406  1.00  0.00     0.010 A 
ATOM     82  C   UNL A   1      43.680  36.477  34.112  1.00  0.00     0.020 A 
ATOM     83  C   UNL A   1      44.390  37.051  31.860  1.00  0.00     0.020 A 
ATOM     84  C   UNL A   1      44.240  37.385  33.206  1.00  0.00     0.054 A 
BRANCH  84  85
ATOM     85  S   UNL A   1      44.785  39.002  33.817  1.00  0.00     0.124 S 
ATOM     86  O   UNL A   1      43.565  39.796  33.703  1.00  0.00    -0.237 OA
ATOM     87  O   UNL A   1      45.217  38.702  35.179  1.00  0.00    -0.237 OA
ATOM     88  O   UNL A   1      45.859  39.375  32.897  1.00  0.00    -0.744 OA
ENDBRANCH  84  85
ENDBRANCH  58  79
ENDBRANCH  32  33
ENDBRANCH  24  27
ENDBRANCH  22  23
ENDBRANCH   1  22
TORSDOF 19
ENDMDL
MODEL 3
REMARK VINA RESULT:      -9.9      3.355      9.566
REMARK SMILES CC(C)C[C@@H](C[C@H](O)c1ccccc1)C(=O)NCCCNC(=O)c1ccc(-c2c3nc(c(-c4ccc(S(=O)(=O)[O-])cc4)c4ccc([nH]4)c(-c4ccc(S(=O)(=O)[O-])cc4)c4nc(c(-c5ccc(S(=O)(=O)[O-])cc5)c5ccc2[nH]5)C=C4)C=C3)cc1
REMARK SMILES IDX 19 1 18 2 17 3 15 4 16 5 5 7 4 8 2 9 1 10 3 11 6 12 7 13
REMARK SMILES IDX 9 14 10 15 14 16 11 17 13 18 12 19 8 20 20 22 21 23 22 24
REMARK SMILES IDX 23 26 24 27 25 28 83 29 26 30 82 31 27 32 28 33 29 34 76 35
REMARK SMILES IDX 30 36 81 37 75 38 77 39 31 40 80 41 74 42 73 43 32 45 62 46
REMARK SMILES IDX 43 47 61 48 44 49 47 50 60 51 78 52 45 53 46 54 59 56 79 57
REMARK SMILES IDX 48 58 33 59 34 60 42 61 35 62 41 63 36 64 37 65 38 66 39 67
REMARK SMILES IDX 40 68 63 69 64 70 72 71 65 72 71 73 66 74 67 75 68 76 69 77
REMARK SMILES IDX 70 78 49 79 50 80 58 81 51 82 57 83 52 84 53 85 54 86 55 87
REMARK SMILES IDX 56 88
REMARK H PARENT 17 6 8 21 21 25 77 44 47 55
REMARK Flexibility Score: inf
ROOT
ATOM      1  C   UNL A   1      37.680  24.121  26.262  1.00  0.00     0.042 C 
ENDROOT
BRANCH   1   2
ATOM      2  C   UNL A   1      37.390  23.410  24.960  1.00  0.00     0.117 C 
BRANCH   2   3
ATOM      3  N   UNL A   1      37.337  21.968  25.104  1.00  0.00    -0.356 N 
ATOM      4  C   UNL A   1      36.294  21.103  25.128  1.00  0.00     0.223 C 
ATOM      5  O   UNL A   1      36.563  19.898  25.094  1.00  0.00    -0.275 OA
ATOM      6  H   UNL A   1      38.218  21.541  25.201  1.00  0.00     0.163 HD
BRANCH   4   7
ATOM      7  C   UNL A   1      34.840  21.558  25.163  1.00  0.00     0.081 C 
BRANCH   7   8
ATOM      8  C   UNL A   1      34.081  21.157  23.879  1.00  0.00     0.016 C 
BRANCH   8   9
ATOM      9  C   UNL A   1      32.987  22.115  23.384  1.00  0.00    -0.017 C 
ATOM     10  C   UNL A   1      33.566  23.326  22.655  1.00  0.00     0.007 C 
ATOM     11  C   UNL A   1      32.038  21.355  22.450  1.00  0.00     0.007 C 
ENDBRANCH   8   9
ENDBRANCH   7   8
BRANCH   7  12
ATOM     12  C   UNL A   1      34.154  21.417  26.544  1.00  0.00     0.050 C 
BRANCH  12  13
ATOM     13  C   UNL A   1      33.690  22.655  27.335  1.00  0.00     0.145 C 
BRANCH  13  14
ATOM     14  C   UNL A   1      32.964  23.768  26.588  1.00  0.00    -0.020 A 
ATOM     15  C   UNL A   1      31.593  23.744  26.286  1.00  0.00     0.006 A 
ATOM     16  C   UNL A   1      33.703  24.872  26.113  1.00  0.00     0.006 A 
ATOM     17  C   UNL A   1      30.992  24.761  25.532  1.00  0.00     0.000 A 
ATOM     18  C   UNL A   1      33.101  25.900  25.380  1.00  0.00     0.000 A 
ATOM     19  C   UNL A   1      31.744  25.840  25.082  1.00  0.00     0.000 A 
ENDBRANCH  13  14
BRANCH  13  20
ATOM     20  O   UNL A   1      32.790  22.175  28.351  1.00  0.00    -0.388 OA
ATOM     21  H   UNL A   1      32.820  22.770  29.116  1.00  0.00     0.211 HD
ENDBRANCH  13  20
ENDBRANCH  12  13
ENDBRANCH   7  12
ENDBRANCH   4   7
ENDBRANCH   2   3
ENDBRANCH   1   2
BRANCH   1  22
ATOM     22  C   UNL A   1      39.034  23.750  26.836  1.00  0.00     0.118 C 
BRANCH  22  23
ATOM     23  N   UNL A   1      40.145  24.255  26.033  1.00  0.00    -0.352 N 
ATOM     24  C   UNL A   1      40.806  25.458  26.087  1.00  0.00     0.251 C 
ATOM     25  H   UNL A   1      40.471  23.633  25.343  1.00  0.00     0.163 HD
ATOM     26  O   UNL A   1      41.584  25.766  25.186  1.00  0.00    -0.269 OA
BRANCH  24  27
ATOM     27  C   UNL A   1      40.563  26.385  27.209  1.00  0.00     0.039 A 
ATOM     28  C   UNL A   1      39.834  25.949  28.317  1.00  0.00     0.014 A 
ATOM     29  C   UNL A   1      41.065  27.686  27.173  1.00  0.00     0.014 A 
ATOM     30  C   UNL A   1      39.674  26.800  29.411  1.00  0.00     0.010 A 
ATOM     31  C   UNL A   1      41.035  28.469  28.316  1.00  0.00     0.010 A 
ATOM     32  C   UNL A   1      40.308  28.053  29.437  1.00  0.00    -0.014 A 
BRANCH  32  33
ATOM     33  C   UNL A   1      40.183  28.970  30.598  1.00  0.00     0.031 A 
ATOM     34  C   UNL A   1      41.075  28.781  31.799  1.00  0.00     0.074 A 
ATOM     35  C   UNL A   1      39.238  29.930  30.594  1.00  0.00     0.049 A 
ATOM     36  N   UNL A   1      41.095  29.448  32.924  1.00  0.00    -0.248 NA
ATOM     37  C   UNL A   1      42.045  27.672  31.750  1.00  0.00     0.031 C 
ATOM     38  C   UNL A   1      38.271  30.172  29.519  1.00  0.00     0.029 A 
ATOM     39  N   UNL A   1      38.937  30.890  31.528  1.00  0.00    -0.354 N 
ATOM     40  C   UNL A   1      42.054  28.826  33.716  1.00  0.00     0.074 A 
ATOM     41  C   UNL A   1      42.538  27.684  32.977  1.00  0.00     0.031 C 
ATOM     42  C   UNL A   1      37.523  31.241  29.832  1.00  0.00     0.029 A 
ATOM     43  C   UNL A   1      37.923  31.736  31.144  1.00  0.00     0.049 A 
ATOM     44  H   UNL A   1      39.403  30.965  32.392  1.00  0.00     0.167 HD
ATOM     45  C   UNL A   1      42.521  29.191  34.933  1.00  0.00     0.031 A 
ATOM     46  C   UNL A   1      37.383  32.795  31.776  1.00  0.00     0.031 A 
ATOM     47  C   UNL A   1      42.058  30.347  35.649  1.00  0.00     0.049 A 
ATOM     48  C   UNL A   1      37.935  33.197  33.116  1.00  0.00     0.074 A 
ATOM     49  C   UNL A   1      42.504  30.846  36.860  1.00  0.00     0.029 A 
ATOM     50  N   UNL A   1      41.048  31.192  35.214  1.00  0.00    -0.354 N 
ATOM     51  N   UNL A   1      38.889  32.635  33.819  1.00  0.00    -0.248 NA
ATOM     52  C   UNL A   1      37.350  34.393  33.737  1.00  0.00     0.031 C 
ATOM     53  C   UNL A   1      41.727  31.964  37.182  1.00  0.00     0.029 A 
ATOM     54  C   UNL A   1      40.845  32.200  36.139  1.00  0.00     0.049 A 
ATOM     55  H   UNL A   1      40.550  31.090  34.371  1.00  0.00     0.167 HD
ATOM     56  C   UNL A   1      39.044  33.428  34.951  1.00  0.00     0.074 A 
ATOM     57  C   UNL A   1      38.096  34.517  34.826  1.00  0.00     0.031 C 
ATOM     58  C   UNL A   1      39.893  33.273  35.998  1.00  0.00     0.031 A 
BRANCH  45  59
ATOM     59  C   UNL A   1      43.590  28.328  35.556  1.00  0.00    -0.014 A 
ATOM     60  C   UNL A   1      43.271  27.352  36.518  1.00  0.00     0.010 A 
ATOM     61  C   UNL A   1      44.930  28.480  35.157  1.00  0.00     0.010 A 
ATOM     62  C   UNL A   1      44.275  26.578  37.103  1.00  0.00     0.020 A 
ATOM     63  C   UNL A   1      45.934  27.683  35.715  1.00  0.00     0.020 A 
ATOM     64  C   UNL A   1      45.602  26.748  36.698  1.00  0.00     0.054 A 
BRANCH  64  65
ATOM     65  S   UNL A   1      46.881  25.711  37.456  1.00  0.00     0.124 S 
ATOM     66  O   UNL A   1      47.909  25.691  36.419  1.00  0.00    -0.237 OA
ATOM     67  O   UNL A   1      47.223  26.458  38.664  1.00  0.00    -0.237 OA
ATOM     68  O   UNL A   1      46.203  24.436  37.686  1.00  0.00    -0.744 OA
ENDBRANCH  64  65
ENDBRANCH  45  59
BRANCH  46  69
ATOM     69  C   UNL A   1      36.287  33.570  31.131  1.00  0.00    -0.014 A 
ATOM     70  C   UNL A   1      35.151  33.952  31.867  1.00  0.00     0.010 A 
ATOM     71  C   UNL A   1      36.378  33.943  29.777  1.00  0.00     0.010 A 
ATOM     72  C   UNL A   1      34.116  34.667  31.256  1.00  0.00     0.020 A 
ATOM     73  C   UNL A   1      35.360  34.684  29.171  1.00  0.00     0.020 A 
ATOM     74  C   UNL A   1      34.228  35.031  29.912  1.00  0.00     0.054 A 
BRANCH  74  75
ATOM     75  S   UNL A   1      32.895  35.998  29.152  1.00  0.00     0.124 S 
ATOM     76  O   UNL A   1      32.324  35.042  28.210  1.00  0.00    -0.237 OA
ATOM     77  O   UNL A   1      32.057  36.335  30.300  1.00  0.00    -0.237 OA
ATOM     78  O   UNL A   1      33.595  37.131  28.549  1.00  0.00    -0.744 OA
ENDBRANCH  74  75
ENDBRANCH  46  69
BRANCH  58  79
ATOM     79  C   UNL A   1      39.867  34.333  37.066  1.00  0.00    -0.014 A 
ATOM     80  C   UNL A   1      39.051  34.209  38.205  1.00  0.00     0.010 A 
ATOM     81  C   UNL A   1      40.695  35.463  36.934  1.00  0.00     0.010 A 
ATOM     82  C   UNL A   1      39.022  35.224  39.164  1.00  0.00     0.020 A 
ATOM     83  C   UNL A   1      40.694  36.462  37.909  1.00  0.00     0.020 A 
ATOM     84  C   UNL A   1      39.841  36.348  39.006  1.00  0.00     0.054 A 
BRANCH  84  85
ATOM     85  S   UNL A   1      39.788  37.649  40.268  1.00  0.00     0.124 S 
ATOM     86  O   UNL A   1      40.808  38.577  39.787  1.00  0.00    -0.237 OA
ATOM     87  O   UNL A   1      38.411  38.126  40.180  1.00  0.00    -0.237 OA
ATOM     88  O   UNL A   1      40.120  36.944  41.505  1.00  0.00    -0.744 OA
ENDBRANCH  84  85
ENDBRANCH  58  79
ENDBRANCH  32  33
ENDBRANCH  24  27
ENDBRANCH  22  23
ENDBRANCH   1  22
TORSDOF 19
ENDMDL
