MODEL 1
REMARK VINA RESULT:     -12.8      0.000      0.000
REMARK SMILES O=C(NCCCNC(=O)c1nccnc1C(=O)Nc1n[nH]c2ncccc12)c1ccc(-c2c3nc(c(-c4ccc(S(=O)(=O)[O-])cc4)c4ccc([nH]4)c(-c4ccc(S(=O)(=O)[O-])cc4)c4nc(c(-c5ccc(S(=O)(=O)[O-])cc5)c5ccc2[nH]5)C=C4)C=C3)cc1
REMARK SMILES IDX 4 1 3 2 1 3 2 4 28 6 29 7 87 8 30 9 86 10 31 11 32 12 33 13
REMARK SMILES IDX 80 14 34 15 85 16 79 17 81 18 35 19 84 20 78 21 77 22 36 24
REMARK SMILES IDX 66 25 47 26 65 27 48 28 51 29 64 30 82 31 49 32 50 33 63 35
REMARK SMILES IDX 83 36 52 37 37 38 38 39 46 40 39 41 45 42 40 43 41 44 42 45
REMARK SMILES IDX 43 46 44 47 67 48 68 49 76 50 69 51 75 52 70 53 71 54 72 55
REMARK SMILES IDX 73 56 74 57 53 58 54 59 62 60 55 61 61 62 56 63 57 64 58 65
REMARK SMILES IDX 59 66 60 67 5 68 6 69 7 70 8 71 9 73 10 74 11 75 15 76 12 77
REMARK SMILES IDX 14 78 13 79 16 80 17 81 18 82 19 84 20 85 27 86 21 87 22 88
REMARK SMILES IDX 26 89 23 91 25 92 24 93
REMARK H PARENT 3 5 81 23 51 34 7 72 18 83 21 90
REMARK Flexibility Score: inf
ROOT
ATOM      1  C   UNL A   1      34.367  28.696  25.832  1.00  0.00     0.118 C 
ENDROOT
BRANCH   1   2
ATOM      2  N   UNL A   1      33.934  29.884  26.580  1.00  0.00    -0.352 N 
ATOM      3  O   UNL A   1      33.779  31.394  28.250  1.00  0.00    -0.269 OA
ATOM      4  C   UNL A   1      34.449  30.556  27.654  1.00  0.00     0.251 C 
ATOM      5  H   UNL A   1      33.100  30.278  26.236  1.00  0.00     0.163 HD
BRANCH   4   6
ATOM      6  C   UNL A   1      35.803  30.213  28.113  1.00  0.00     0.039 A 
ATOM      7  C   UNL A   1      36.876  30.436  27.260  1.00  0.00     0.014 A 
ATOM      8  C   UNL A   1      36.004  29.615  29.360  1.00  0.00     0.014 A 
ATOM      9  C   UNL A   1      38.078  29.818  27.513  1.00  0.00     0.010 A 
ATOM     10  C   UNL A   1      37.286  29.188  29.713  1.00  0.00     0.010 A 
ATOM     11  C   UNL A   1      38.326  29.264  28.776  1.00  0.00    -0.014 A 
BRANCH  11  12
ATOM     12  C   UNL A   1      39.732  28.920  29.085  1.00  0.00     0.031 A 
ATOM     13  C   UNL A   1      40.327  27.602  28.701  1.00  0.00     0.074 A 
ATOM     14  C   UNL A   1      40.486  29.893  29.640  1.00  0.00     0.049 A 
ATOM     15  N   UNL A   1      41.564  27.202  28.839  1.00  0.00    -0.248 NA
ATOM     16  C   UNL A   1      39.435  26.598  28.099  1.00  0.00     0.031 C 
ATOM     17  C   UNL A   1      39.986  31.214  30.056  1.00  0.00     0.029 A 
ATOM     18  N   UNL A   1      41.828  29.964  29.890  1.00  0.00    -0.354 N 
ATOM     19  C   UNL A   1      41.600  25.900  28.359  1.00  0.00     0.074 A 
ATOM     20  C   UNL A   1      40.252  25.563  27.954  1.00  0.00     0.031 C 
ATOM     21  C   UNL A   1      41.017  31.991  30.402  1.00  0.00     0.029 A 
ATOM     22  C   UNL A   1      42.229  31.191  30.367  1.00  0.00     0.049 A 
ATOM     23  H   UNL A   1      42.446  29.212  29.745  1.00  0.00     0.167 HD
ATOM     24  C   UNL A   1      42.667  25.072  28.264  1.00  0.00     0.031 A 
ATOM     25  C   UNL A   1      43.433  31.620  30.776  1.00  0.00     0.031 A 
ATOM     26  C   UNL A   1      43.998  25.430  28.686  1.00  0.00     0.049 A 
ATOM     27  C   UNL A   1      44.579  30.658  30.708  1.00  0.00     0.074 A 
ATOM     28  C   UNL A   1      45.150  24.666  28.639  1.00  0.00     0.029 A 
ATOM     29  N   UNL A   1      44.356  26.657  29.232  1.00  0.00    -0.354 N 
ATOM     30  N   UNL A   1      44.592  29.431  30.241  1.00  0.00    -0.248 NA
ATOM     31  C   UNL A   1      45.866  31.133  31.220  1.00  0.00     0.031 C 
ATOM     32  C   UNL A   1      46.189  25.405  29.214  1.00  0.00     0.029 A 
ATOM     33  C   UNL A   1      45.705  26.660  29.548  1.00  0.00     0.049 A 
ATOM     34  H   UNL A   1      43.741  27.413  29.374  1.00  0.00     0.167 HD
ATOM     35  C   UNL A   1      45.898  28.990  30.394  1.00  0.00     0.074 A 
ATOM     36  C   UNL A   1      46.648  30.099  30.953  1.00  0.00     0.031 C 
ATOM     37  C   UNL A   1      46.427  27.773  30.114  1.00  0.00     0.031 A 
BRANCH  24  38
ATOM     38  C   UNL A   1      42.441  23.692  27.702  1.00  0.00    -0.014 A 
ATOM     39  C   UNL A   1      42.596  23.432  26.328  1.00  0.00     0.010 A 
ATOM     40  C   UNL A   1      42.142  22.624  28.568  1.00  0.00     0.010 A 
ATOM     41  C   UNL A   1      42.437  22.135  25.830  1.00  0.00     0.020 A 
ATOM     42  C   UNL A   1      42.011  21.321  28.080  1.00  0.00     0.020 A 
ATOM     43  C   UNL A   1      42.152  21.086  26.711  1.00  0.00     0.054 A 
BRANCH  43  44
ATOM     44  S   UNL A   1      42.006  19.408  26.038  1.00  0.00     0.124 S 
ATOM     45  O   UNL A   1      42.846  19.486  24.845  1.00  0.00    -0.237 OA
ATOM     46  O   UNL A   1      42.533  18.584  27.124  1.00  0.00    -0.237 OA
ATOM     47  O   UNL A   1      40.575  19.258  25.783  1.00  0.00    -0.744 OA
ENDBRANCH  43  44
ENDBRANCH  24  38
BRANCH  25  48
ATOM     48  C   UNL A   1      43.584  32.983  31.356  1.00  0.00    -0.014 A 
ATOM     49  C   UNL A   1      43.365  33.225  32.722  1.00  0.00     0.010 A 
ATOM     50  C   UNL A   1      43.950  34.059  30.522  1.00  0.00     0.010 A 
ATOM     51  C   UNL A   1      43.467  34.522  33.233  1.00  0.00     0.020 A 
ATOM     52  C   UNL A   1      44.100  35.346  31.037  1.00  0.00     0.020 A 
ATOM     53  C   UNL A   1      43.833  35.574  32.386  1.00  0.00     0.054 A 
BRANCH  53  54
ATOM     54  S   UNL A   1      43.965  37.246  33.071  1.00  0.00     0.124 S 
ATOM     55  O   UNL A   1      42.848  37.276  34.010  1.00  0.00    -0.237 OA
ATOM     56  O   UNL A   1      45.298  37.236  33.669  1.00  0.00    -0.237 OA
ATOM     57  O   UNL A   1      43.821  38.109  31.900  1.00  0.00    -0.744 OA
ENDBRANCH  53  54
ENDBRANCH  25  48
BRANCH  37  58
ATOM     58  C   UNL A   1      47.899  27.606  30.378  1.00  0.00    -0.014 A 
ATOM     59  C   UNL A   1      48.370  27.124  31.614  1.00  0.00     0.010 A 
ATOM     60  C   UNL A   1      48.825  27.937  29.373  1.00  0.00     0.010 A 
ATOM     61  C   UNL A   1      49.741  27.037  31.860  1.00  0.00     0.020 A 
ATOM     62  C   UNL A   1      50.196  27.810  29.601  1.00  0.00     0.020 A 
ATOM     63  C   UNL A   1      50.645  27.383  30.851  1.00  0.00     0.054 A 
BRANCH  63  64
ATOM     64  S   UNL A   1      52.419  27.249  31.193  1.00  0.00     0.124 S 
ATOM     65  O   UNL A   1      53.004  27.549  29.890  1.00  0.00    -0.237 OA
ATOM     66  O   UNL A   1      52.621  28.265  32.223  1.00  0.00    -0.237 OA
ATOM     67  O   UNL A   1      52.583  25.869  31.646  1.00  0.00    -0.744 OA
ENDBRANCH  63  64
ENDBRANCH  37  58
ENDBRANCH  11  12
ENDBRANCH   4   6
ENDBRANCH   1   2
BRANCH   1  68
ATOM     68  C   UNL A   1      33.734  27.165  26.285  1.00  0.00     0.042 C 
BRANCH  68  69
ATOM     69  C   UNL A   1      31.678  26.363  26.318  1.00  0.00     0.118 C 
BRANCH  69  70
ATOM     70  N   UNL A   1      31.105  24.924  26.748  1.00  0.00    -0.351 N 
ATOM     71  C   UNL A   1      31.516  23.668  26.354  1.00  0.00     0.272 C 
ATOM     72  H   UNL A   1      30.354  24.943  27.384  1.00  0.00     0.163 HD
ATOM     73  O   UNL A   1      30.853  22.664  26.582  1.00  0.00    -0.267 OA
BRANCH  71  74
ATOM     74  C   UNL A   1      32.823  23.588  25.681  1.00  0.00     0.159 A 
ATOM     75  N   UNL A   1      33.869  23.741  26.563  1.00  0.00    -0.247 NA
ATOM     76  C   UNL A   1      32.994  23.495  24.307  1.00  0.00     0.159 A 
ATOM     77  C   UNL A   1      35.097  23.775  26.020  1.00  0.00     0.132 A 
ATOM     78  N   UNL A   1      34.262  23.535  23.782  1.00  0.00    -0.247 NA
ATOM     79  C   UNL A   1      35.289  23.669  24.658  1.00  0.00     0.132 A 
BRANCH  76  80
ATOM     80  C   UNL A   1      31.927  23.257  23.285  1.00  0.00     0.277 C 
ATOM     81  O   UNL A   1      31.694  22.084  22.973  1.00  0.00    -0.267 OA
ATOM     82  N   UNL A   1      31.158  24.236  22.699  1.00  0.00    -0.303 N 
ATOM     83  H   UNL A   1      30.425  23.901  22.134  1.00  0.00     0.172 HD
BRANCH  82  84
ATOM     84  C   UNL A   1      31.246  25.600  22.776  1.00  0.00     0.164 A 
ATOM     85  N   UNL A   1      32.414  26.172  22.436  1.00  0.00    -0.155 NA
ATOM     86  C   UNL A   1      30.224  26.526  23.057  1.00  0.00     0.063 A 
ATOM     87  N   UNL A   1      32.188  27.462  22.054  1.00  0.00    -0.259 N 
ATOM     88  C   UNL A   1      30.921  27.915  22.289  1.00  0.00     0.157 A 
ATOM     89  C   UNL A   1      28.566  26.663  23.710  1.00  0.00     0.017 A 
ATOM     90  H   UNL A   1      32.883  28.022  21.639  1.00  0.00     0.192 HD
ATOM     91  N   UNL A   1      30.043  29.380  21.955  1.00  0.00    -0.237 NA
ATOM     92  C   UNL A   1      27.613  28.150  23.481  1.00  0.00     0.021 A 
ATOM     93  C   UNL A   1      28.390  29.490  22.653  1.00  0.00     0.113 A 
ENDBRANCH  82  84
ENDBRANCH  76  80
ENDBRANCH  71  74
ENDBRANCH  69  70
ENDBRANCH  68  69
ENDBRANCH   1  68
TORSDOF 15
ENDMDL
MODEL 2
REMARK VINA RESULT:     -12.7      1.266      2.965
REMARK SMILES O=C(NCCCNC(=O)c1nccnc1C(=O)Nc1n[nH]c2ncccc12)c1ccc(-c2c3nc(c(-c4ccc(S(=O)(=O)[O-])cc4)c4ccc([nH]4)c(-c4ccc(S(=O)(=O)[O-])cc4)c4nc(c(-c5ccc(S(=O)(=O)[O-])cc5)c5ccc2[nH]5)C=C4)C=C3)cc1
REMARK SMILES IDX 4 1 3 2 1 3 2 4 28 6 29 7 87 8 30 9 86 10 31 11 32 12 33 13
REMARK SMILES IDX 80 14 34 15 85 16 79 17 81 18 35 19 84 20 78 21 77 22 36 24
REMARK SMILES IDX 66 25 47 26 65 27 48 28 51 29 64 30 82 31 49 32 50 33 63 35
REMARK SMILES IDX 83 36 52 37 37 38 38 39 46 40 39 41 45 42 40 43 41 44 42 45
REMARK SMILES IDX 43 46 44 47 67 48 68 49 76 50 69 51 75 52 70 53 71 54 72 55
REMARK SMILES IDX 73 56 74 57 53 58 54 59 62 60 55 61 61 62 56 63 57 64 58 65
REMARK SMILES IDX 59 66 60 67 5 68 6 69 7 70 8 71 9 73 10 74 11 75 15 76 12 77
REMARK SMILES IDX 14 78 13 79 16 80 17 81 18 82 19 84 20 85 27 86 21 87 22 88
REMARK SMILES IDX 26 89 23 91 25 92 24 93
REMARK H PARENT 3 5 81 23 51 34 7 72 18 83 21 90
REMARK Flexibility Score: inf
ROOT
ATOM      1  C   UNL A   1      34.200  28.160  26.438  1.00  0.00     0.118 C 
ENDROOT
BRANCH   1   2
ATOM      2  N   UNL A   1      33.896  29.518  26.906  1.00  0.00    -0.352 N 
ATOM      3  O   UNL A   1      33.960  31.385  28.173  1.00  0.00    -0.269 OA
ATOM      4  C   UNL A   1      34.532  30.384  27.752  1.00  0.00     0.251 C 
ATOM      5  H   UNL A   1      33.060  29.881  26.533  1.00  0.00     0.163 HD
BRANCH   4   6
ATOM      6  C   UNL A   1      35.898  30.061  28.190  1.00  0.00     0.039 A 
ATOM      7  C   UNL A   1      36.949  30.250  27.301  1.00  0.00     0.014 A 
ATOM      8  C   UNL A   1      36.132  29.513  29.454  1.00  0.00     0.014 A 
ATOM      9  C   UNL A   1      38.157  29.643  27.548  1.00  0.00     0.010 A 
ATOM     10  C   UNL A   1      37.423  29.102  29.791  1.00  0.00     0.010 A 
ATOM     11  C   UNL A   1      38.439  29.140  28.826  1.00  0.00    -0.014 A 
BRANCH  11  12
ATOM     12  C   UNL A   1      39.852  28.810  29.113  1.00  0.00     0.031 A 
ATOM     13  C   UNL A   1      40.456  27.500  28.713  1.00  0.00     0.074 A 
ATOM     14  C   UNL A   1      40.604  29.789  29.661  1.00  0.00     0.049 A 
ATOM     15  N   UNL A   1      41.699  27.113  28.831  1.00  0.00    -0.248 NA
ATOM     16  C   UNL A   1      39.566  26.490  28.120  1.00  0.00     0.031 C 
ATOM     17  C   UNL A   1      40.096  31.102  30.091  1.00  0.00     0.029 A 
ATOM     18  N   UNL A   1      41.949  29.873  29.892  1.00  0.00    -0.354 N 
ATOM     19  C   UNL A   1      41.741  25.814  28.345  1.00  0.00     0.074 A 
ATOM     20  C   UNL A   1      40.391  25.464  27.958  1.00  0.00     0.031 C 
ATOM     21  C   UNL A   1      41.124  31.889  30.425  1.00  0.00     0.029 A 
ATOM     22  C   UNL A   1      42.344  31.101  30.369  1.00  0.00     0.049 A 
ATOM     23  H   UNL A   1      42.573  29.128  29.735  1.00  0.00     0.167 HD
ATOM     24  C   UNL A   1      42.815  24.997  28.230  1.00  0.00     0.031 A 
ATOM     25  C   UNL A   1      43.549  31.541  30.763  1.00  0.00     0.031 A 
ATOM     26  C   UNL A   1      44.148  25.368  28.634  1.00  0.00     0.049 A 
ATOM     27  C   UNL A   1      44.704  30.592  30.673  1.00  0.00     0.074 A 
ATOM     28  C   UNL A   1      45.308  24.616  28.567  1.00  0.00     0.029 A 
ATOM     29  N   UNL A   1      44.502  26.595  29.181  1.00  0.00    -0.354 N 
ATOM     30  N   UNL A   1      44.723  29.367  30.200  1.00  0.00    -0.248 NA
ATOM     31  C   UNL A   1      45.993  31.078  31.168  1.00  0.00     0.031 C 
ATOM     32  C   UNL A   1      46.347  25.363  29.130  1.00  0.00     0.029 A 
ATOM     33  C   UNL A   1      45.855  26.611  29.478  1.00  0.00     0.049 A 
ATOM     34  H   UNL A   1      43.881  27.344  29.336  1.00  0.00     0.167 HD
ATOM     35  C   UNL A   1      46.036  28.939  30.332  1.00  0.00     0.074 A 
ATOM     36  C   UNL A   1      46.783  30.053  30.885  1.00  0.00     0.031 C 
ATOM     37  C   UNL A   1      46.574  27.729  30.038  1.00  0.00     0.031 A 
BRANCH  24  38
ATOM     38  C   UNL A   1      42.596  23.617  27.665  1.00  0.00    -0.014 A 
ATOM     39  C   UNL A   1      42.816  23.346  26.303  1.00  0.00     0.010 A 
ATOM     40  C   UNL A   1      42.234  22.560  28.521  1.00  0.00     0.010 A 
ATOM     41  C   UNL A   1      42.662  22.049  25.804  1.00  0.00     0.020 A 
ATOM     42  C   UNL A   1      42.108  21.256  28.033  1.00  0.00     0.020 A 
ATOM     43  C   UNL A   1      42.315  21.010  26.675  1.00  0.00     0.054 A 
BRANCH  43  44
ATOM     44  S   UNL A   1      42.176  19.331  26.005  1.00  0.00     0.124 S 
ATOM     45  O   UNL A   1      42.690  18.521  27.107  1.00  0.00    -0.237 OA
ATOM     46  O   UNL A   1      40.742  19.208  25.752  1.00  0.00    -0.237 OA
ATOM     47  O   UNL A   1      43.016  19.361  24.810  1.00  0.00    -0.744 OA
ENDBRANCH  43  44
ENDBRANCH  24  38
BRANCH  25  48
ATOM     48  C   UNL A   1      43.694  32.903  31.347  1.00  0.00    -0.014 A 
ATOM     49  C   UNL A   1      43.568  33.123  32.728  1.00  0.00     0.010 A 
ATOM     50  C   UNL A   1      43.959  34.000  30.502  1.00  0.00     0.010 A 
ATOM     51  C   UNL A   1      43.661  34.419  33.246  1.00  0.00     0.020 A 
ATOM     52  C   UNL A   1      44.101  35.286  31.020  1.00  0.00     0.020 A 
ATOM     53  C   UNL A   1      43.927  35.491  32.388  1.00  0.00     0.054 A 
BRANCH  53  54
ATOM     54  S   UNL A   1      44.050  37.160  33.082  1.00  0.00     0.124 S 
ATOM     55  O   UNL A   1      44.029  37.988  31.881  1.00  0.00    -0.237 OA
ATOM     56  O   UNL A   1      42.862  37.237  33.928  1.00  0.00    -0.237 OA
ATOM     57  O   UNL A   1      45.321  37.138  33.805  1.00  0.00    -0.744 OA
ENDBRANCH  53  54
ENDBRANCH  25  48
BRANCH  37  58
ATOM     58  C   UNL A   1      48.051  27.576  30.280  1.00  0.00    -0.014 A 
ATOM     59  C   UNL A   1      48.546  27.119  31.516  1.00  0.00     0.010 A 
ATOM     60  C   UNL A   1      48.957  27.897  29.254  1.00  0.00     0.010 A 
ATOM     61  C   UNL A   1      49.922  27.045  31.740  1.00  0.00     0.020 A 
ATOM     62  C   UNL A   1      50.332  27.783  29.460  1.00  0.00     0.020 A 
ATOM     63  C   UNL A   1      50.806  27.379  30.710  1.00  0.00     0.054 A 
BRANCH  63  64
ATOM     64  S   UNL A   1      52.587  27.263  31.023  1.00  0.00     0.124 S 
ATOM     65  O   UNL A   1      52.723  27.995  32.279  1.00  0.00    -0.237 OA
ATOM     66  O   UNL A   1      52.801  25.820  31.109  1.00  0.00    -0.237 OA
ATOM     67  O   UNL A   1      53.187  27.910  29.858  1.00  0.00    -0.744 OA
ENDBRANCH  63  64
ENDBRANCH  37  58
ENDBRANCH  11  12
ENDBRANCH   4   6
ENDBRANCH   1   2
BRANCH   1  68
ATOM     68  C   UNL A   1      32.895  27.096  26.100  1.00  0.00     0.042 C 
BRANCH  68  69
ATOM     69  C   UNL A   1      30.768  27.460  25.637  1.00  0.00     0.118 C 
BRANCH  69  70
ATOM     70  N   UNL A   1      29.976  27.500  24.239  1.00  0.00    -0.351 N 
ATOM     71  C   UNL A   1      30.434  27.850  22.987  1.00  0.00     0.272 C 
ATOM     72  H   UNL A   1      29.029  27.236  24.284  1.00  0.00     0.163 HD
ATOM     73  O   UNL A   1      29.674  28.052  22.048  1.00  0.00    -0.267 OA
BRANCH  71  74
ATOM     74  C   UNL A   1      31.894  27.925  22.821  1.00  0.00     0.159 A 
ATOM     75  N   UNL A   1      32.422  29.062  23.390  1.00  0.00    -0.247 NA
ATOM     76  C   UNL A   1      32.647  27.030  22.074  1.00  0.00     0.159 A 
ATOM     77  C   UNL A   1      33.739  29.257  23.203  1.00  0.00     0.132 A 
ATOM     78  N   UNL A   1      33.989  27.258  21.899  1.00  0.00    -0.247 NA
ATOM     79  C   UNL A   1      34.506  28.370  22.477  1.00  0.00     0.132 A 
BRANCH  76  80
ATOM     80  C   UNL A   1      32.174  25.739  21.481  1.00  0.00     0.277 C 
ATOM     81  O   UNL A   1      32.093  25.678  20.249  1.00  0.00    -0.267 OA
ATOM     82  N   UNL A   1      31.865  24.605  22.197  1.00  0.00    -0.303 N 
ATOM     83  H   UNL A   1      31.681  23.808  21.647  1.00  0.00     0.172 HD
BRANCH  82  84
ATOM     84  C   UNL A   1      31.774  24.403  23.547  1.00  0.00     0.164 A 
ATOM     85  N   UNL A   1      30.546  24.311  24.085  1.00  0.00    -0.155 NA
ATOM     86  C   UNL A   1      32.812  24.154  24.465  1.00  0.00     0.063 A 
ATOM     87  N   UNL A   1      30.617  23.606  25.250  1.00  0.00    -0.259 N 
ATOM     88  C   UNL A   1      31.885  23.346  25.685  1.00  0.00     0.157 A 
ATOM     89  C   UNL A   1      34.587  24.234  24.663  1.00  0.00     0.017 A 
ATOM     90  H   UNL A   1      29.817  23.307  25.739  1.00  0.00     0.192 HD
ATOM     91  N   UNL A   1      32.589  22.452  27.003  1.00  0.00    -0.237 NA
ATOM     92  C   UNL A   1      35.392  23.410  26.022  1.00  0.00     0.021 A 
ATOM     93  C   UNL A   1      34.371  22.580  27.186  1.00  0.00     0.113 A 
ENDBRANCH  82  84
ENDBRANCH  76  80
ENDBRANCH  71  74
ENDBRANCH  69  70
ENDBRANCH  68  69
ENDBRANCH   1  68
TORSDOF 15
ENDMDL
MODEL 3
REMARK VINA RESULT:     -12.6      4.730      9.259
REMARK SMILES O=C(NCCCNC(=O)c1nccnc1C(=O)Nc1n[nH]c2ncccc12)c1ccc(-c2c3nc(c(-c4ccc(S(=O)(=O)[O-])cc4)c4ccc([nH]4)c(-c4ccc(S(=O)(=O)[O-])cc4)c4nc(c(-c5ccc(S(=O)(=O)[O-])cc5)c5ccc2[nH]5)C=C4)C=C3)cc1
REMARK SMILES IDX 4 1 3 2 1 3 2 4 28 6 29 7 87 8 30 9 86 10 31 11 32 12 33 13
REMARK SMILES IDX 80 14 34 15 85 16 79 17 81 18 35 19 84 20 78 21 77 22 36 24
REMARK SMILES IDX 66 25 47 26 65 27 48 28 51 29 64 30 82 31 49 32 50 33 63 35
REMARK SMILES IDX 83 36 52 37 37 38 38 39 46 40 39 41 45 42 40 43 41 44 42 45
REMARK SMILES IDX 43 46 44 47 67 48 68 49 76 50 69 51 75 52 70 53 71 54 72 55
REMARK SMILES IDX 73 56 74 57 53 58 54 59 62 60 55 61 61 62 56 63 57 64 58 65
REMARK SMILES IDX 59 66 60 67 5 68 6 69 7 70 8 71 9 73 10 74 11 75 15 76 12 77
REMARK SMILES IDX 14 78 13 79 16 80 17 81 18 82 19 84 20 85 27 86 21 87 22 88
REMARK SMILES IDX 26 89 23 91 25 92 24 93
REMARK H PARENT 3 5 81 23 51 34 7 72 18 83 21 90
REMARK Flexibility Score: inf
ROOT
ATOM      1  C   UNL A   1      38.783  24.138  26.471  1.00  0.00     0.118 C 
ENDROOT
BRANCH   1   2
ATOM      2  N   UNL A   1      40.029  24.622  25.861  1.00  0.00    -0.352 N 
ATOM      3  O   UNL A   1      41.704  26.025  25.296  1.00  0.00    -0.269 OA
ATOM      4  C   UNL A   1      40.831  25.704  26.096  1.00  0.00     0.251 C 
ATOM      5  H   UNL A   1      40.353  24.047  25.130  1.00  0.00     0.163 HD
BRANCH   4   6
ATOM      6  C   UNL A   1      40.589  26.507  27.304  1.00  0.00     0.039 A 
ATOM      7  C   UNL A   1      41.256  27.717  27.449  1.00  0.00     0.014 A 
ATOM      8  C   UNL A   1      39.754  26.035  28.320  1.00  0.00     0.014 A 
ATOM      9  C   UNL A   1      41.322  28.306  28.689  1.00  0.00     0.010 A 
ATOM     10  C   UNL A   1      39.644  26.763  29.507  1.00  0.00     0.010 A 
ATOM     11  C   UNL A   1      40.451  27.891  29.707  1.00  0.00    -0.014 A 
BRANCH  11  12
ATOM     12  C   UNL A   1      40.344  28.774  30.889  1.00  0.00     0.031 A 
ATOM     13  C   UNL A   1      41.289  28.668  32.045  1.00  0.00     0.074 A 
ATOM     14  C   UNL A   1      39.416  29.754  30.832  1.00  0.00     0.049 A 
ATOM     15  N   UNL A   1      41.358  29.429  33.106  1.00  0.00    -0.248 NA
ATOM     16  C   UNL A   1      42.271  27.573  32.027  1.00  0.00     0.031 C 
ATOM     17  C   UNL A   1      38.443  29.930  29.741  1.00  0.00     0.029 A 
ATOM     18  N   UNL A   1      39.172  30.817  31.656  1.00  0.00    -0.354 N 
ATOM     19  C   UNL A   1      42.375  28.900  33.889  1.00  0.00     0.074 A 
ATOM     20  C   UNL A   1      42.876  27.733  33.196  1.00  0.00     0.031 C 
ATOM     21  C   UNL A   1      37.792  31.086  29.909  1.00  0.00     0.029 A 
ATOM     22  C   UNL A   1      38.196  31.661  31.180  1.00  0.00     0.049 A 
ATOM     23  H   UNL A   1      39.648  30.964  32.505  1.00  0.00     0.167 HD
ATOM     24  C   UNL A   1      42.844  29.359  35.073  1.00  0.00     0.031 A 
ATOM     25  C   UNL A   1      37.648  32.760  31.724  1.00  0.00     0.031 A 
ATOM     26  C   UNL A   1      42.317  30.520  35.747  1.00  0.00     0.049 A 
ATOM     27  C   UNL A   1      38.154  33.205  33.061  1.00  0.00     0.074 A 
ATOM     28  C   UNL A   1      42.715  31.069  36.953  1.00  0.00     0.029 A 
ATOM     29  N   UNL A   1      41.279  31.311  35.273  1.00  0.00    -0.354 N 
ATOM     30  N   UNL A   1      39.126  32.695  33.781  1.00  0.00    -0.248 NA
ATOM     31  C   UNL A   1      37.494  34.368  33.659  1.00  0.00     0.031 C 
ATOM     32  C   UNL A   1      41.878  32.151  37.239  1.00  0.00     0.029 A 
ATOM     33  C   UNL A   1      41.007  32.328  36.174  1.00  0.00     0.049 A 
ATOM     34  H   UNL A   1      40.804  31.170  34.421  1.00  0.00     0.167 HD
ATOM     35  C   UNL A   1      39.201  33.486  34.919  1.00  0.00     0.074 A 
ATOM     36  C   UNL A   1      38.208  34.532  34.762  1.00  0.00     0.031 C 
ATOM     37  C   UNL A   1      40.006  33.352  36.001  1.00  0.00     0.031 A 
BRANCH  24  38
ATOM     38  C   UNL A   1      43.967  28.598  35.730  1.00  0.00    -0.014 A 
ATOM     39  C   UNL A   1      43.705  27.528  36.605  1.00  0.00     0.010 A 
ATOM     40  C   UNL A   1      45.302  28.908  35.413  1.00  0.00     0.010 A 
ATOM     41  C   UNL A   1      44.757  26.796  37.164  1.00  0.00     0.020 A 
ATOM     42  C   UNL A   1      46.357  28.161  35.946  1.00  0.00     0.020 A 
ATOM     43  C   UNL A   1      46.077  27.114  36.825  1.00  0.00     0.054 A 
BRANCH  43  44
ATOM     44  S   UNL A   1      47.415  26.110  37.527  1.00  0.00     0.124 S 
ATOM     45  O   UNL A   1      47.732  25.211  36.419  1.00  0.00    -0.237 OA
ATOM     46  O   UNL A   1      48.434  27.110  37.834  1.00  0.00    -0.237 OA
ATOM     47  O   UNL A   1      46.800  25.472  38.689  1.00  0.00    -0.744 OA
ENDBRANCH  43  44
ENDBRANCH  24  38
BRANCH  25  48
ATOM     48  C   UNL A   1      36.515  33.445  31.043  1.00  0.00    -0.014 A 
ATOM     49  C   UNL A   1      36.608  33.854  29.703  1.00  0.00     0.010 A 
ATOM     50  C   UNL A   1      35.324  33.696  31.753  1.00  0.00     0.010 A 
ATOM     51  C   UNL A   1      35.548  34.538  29.101  1.00  0.00     0.020 A 
ATOM     52  C   UNL A   1      34.246  34.335  31.141  1.00  0.00     0.020 A 
ATOM     53  C   UNL A   1      34.375  34.775  29.824  1.00  0.00     0.054 A 
BRANCH  53  54
ATOM     54  S   UNL A   1      33.011  35.657  29.021  1.00  0.00     0.124 S 
ATOM     55  O   UNL A   1      33.718  36.712  28.302  1.00  0.00    -0.237 OA
ATOM     56  O   UNL A   1      32.408  34.617  28.192  1.00  0.00    -0.237 OA
ATOM     57  O   UNL A   1      32.187  36.108  30.142  1.00  0.00    -0.744 OA
ENDBRANCH  53  54
ENDBRANCH  25  48
BRANCH  37  58
ATOM     58  C   UNL A   1      39.859  34.393  37.078  1.00  0.00    -0.014 A 
ATOM     59  C   UNL A   1      39.053  34.166  38.210  1.00  0.00     0.010 A 
ATOM     60  C   UNL A   1      40.537  35.617  36.954  1.00  0.00     0.010 A 
ATOM     61  C   UNL A   1      38.881  35.169  39.165  1.00  0.00     0.020 A 
ATOM     62  C   UNL A   1      40.402  36.607  37.928  1.00  0.00     0.020 A 
ATOM     63  C   UNL A   1      39.556  36.384  39.016  1.00  0.00     0.054 A 
BRANCH  63  64
ATOM     64  S   UNL A   1      39.324  37.665  40.276  1.00  0.00     0.124 S 
ATOM     65  O   UNL A   1      40.651  38.266  40.347  1.00  0.00    -0.237 OA
ATOM     66  O   UNL A   1      38.282  38.504  39.688  1.00  0.00    -0.237 OA
ATOM     67  O   UNL A   1      38.916  36.914  41.463  1.00  0.00    -0.744 OA
ENDBRANCH  63  64
ENDBRANCH  37  58
ENDBRANCH  11  12
ENDBRANCH   4   6
ENDBRANCH   1   2
BRANCH   1  68
ATOM     68  C   UNL A   1      37.443  23.806  25.449  1.00  0.00     0.042 C 
BRANCH  68  69
ATOM     69  C   UNL A   1      35.327  23.355  25.881  1.00  0.00     0.118 C 
BRANCH  69  70
ATOM     70  N   UNL A   1      34.565  23.051  27.263  1.00  0.00    -0.351 N 
ATOM     71  C   UNL A   1      33.443  22.281  27.489  1.00  0.00     0.272 C 
ATOM     72  H   UNL A   1      34.955  23.474  28.061  1.00  0.00     0.163 HD
ATOM     73  O   UNL A   1      32.836  22.311  28.552  1.00  0.00    -0.267 OA
BRANCH  71  74
ATOM     74  C   UNL A   1      33.036  21.380  26.398  1.00  0.00     0.159 A 
ATOM     75  N   UNL A   1      33.889  20.308  26.267  1.00  0.00    -0.247 NA
ATOM     76  C   UNL A   1      31.994  21.634  25.518  1.00  0.00     0.159 A 
ATOM     77  C   UNL A   1      33.646  19.483  25.235  1.00  0.00     0.132 A 
ATOM     78  N   UNL A   1      31.772  20.774  24.471  1.00  0.00    -0.247 NA
ATOM     79  C   UNL A   1      32.605  19.711  24.358  1.00  0.00     0.132 A 
BRANCH  76  80
ATOM     80  C   UNL A   1      30.979  22.729  25.623  1.00  0.00     0.277 C 
ATOM     81  O   UNL A   1      30.005  22.529  26.356  1.00  0.00    -0.267 OA
ATOM     82  N   UNL A   1      31.068  23.953  25.002  1.00  0.00    -0.303 N 
ATOM     83  H   UNL A   1      30.375  24.601  25.266  1.00  0.00     0.172 HD
BRANCH  82  84
ATOM     84  C   UNL A   1      31.964  24.418  24.077  1.00  0.00     0.164 A 
ATOM     85  N   UNL A   1      32.071  23.749  22.917  1.00  0.00    -0.155 NA
ATOM     86  C   UNL A   1      32.729  25.599  24.120  1.00  0.00     0.063 A 
ATOM     87  N   UNL A   1      32.552  24.588  21.956  1.00  0.00    -0.259 N 
ATOM     88  C   UNL A   1      32.986  25.798  22.418  1.00  0.00     0.157 A 
ATOM     89  C   UNL A   1      33.291  26.893  25.218  1.00  0.00     0.017 A 
ATOM     90  H   UNL A   1      32.582  24.343  21.003  1.00  0.00     0.192 HD
ATOM     91  N   UNL A   1      33.597  27.259  21.694  1.00  0.00    -0.237 NA
ATOM     92  C   UNL A   1      33.997  28.396  24.573  1.00  0.00     0.021 A 
ATOM     93  C   UNL A   1      34.178  28.523  22.831  1.00  0.00     0.113 A 
ENDBRANCH  82  84
ENDBRANCH  76  80
ENDBRANCH  71  74
ENDBRANCH  69  70
ENDBRANCH  68  69
ENDBRANCH   1  68
TORSDOF 15
ENDMDL
