MODEL 1
REMARK VINA RESULT:     -12.0      0.000      0.000
REMARK SMILES Cc1c(CC(=O)N[C@H](CO)C(=O)NCCCNC(=O)c2ccc(-c3c4nc(c(-c5ccc(S(=O)(=O)[O-])cc5)c5ccc([nH]5)c(-c5ccc(S(=O)(=O)[O-])cc5)c5nc(c(-c6ccc(S(=O)(=O)[O-])cc6)c6ccc3[nH]6)C=C5)C=C4)cc2)cc(-c2ccc(S(C)(=O)=O)cc2)n1-c1ccc(F)cc1
REMARK SMILES IDX 14 1 13 2 11 3 12 4 8 6 7 7 5 8 6 9 4 11 3 12 1 13 2 14
REMARK SMILES IDX 92 15 80 16 81 17 93 18 94 19 99 20 95 21 98 22 96 23 97 24
REMARK SMILES IDX 82 25 83 26 91 27 84 28 90 29 85 30 86 31 87 32 88 33 89 34
REMARK SMILES IDX 9 35 10 36 15 38 16 39 17 40 18 41 19 43 20 44 21 45 79 46
REMARK SMILES IDX 22 47 78 48 23 49 24 50 25 51 72 52 26 53 77 54 71 55 73 56
REMARK SMILES IDX 27 57 76 58 70 59 69 60 28 62 58 63 39 64 57 65 40 66 43 67
REMARK SMILES IDX 56 68 74 69 41 70 42 71 55 73 75 74 44 75 29 76 30 77 38 78
REMARK SMILES IDX 31 79 37 80 32 81 33 82 34 83 35 84 36 85 59 86 60 87 68 88
REMARK SMILES IDX 61 89 67 90 62 91 63 92 64 93 65 94 66 95 45 96 46 97 54 98
REMARK SMILES IDX 47 99 53 100 48 101 49 102 50 103 51 104 52 105
REMARK H PARENT 13 5 7 10 10 37 17 42 73 61 43 72
REMARK Flexibility Score: inf
ROOT
ATOM      1  C   UNL A   1      31.596  29.591  25.184  1.00  0.00     0.117 C 
ENDROOT
BRANCH   1   2
ATOM      2  N   UNL A   1      30.707  30.627  24.678  1.00  0.00    -0.354 N 
ATOM      3  C   UNL A   1      29.602  30.619  23.881  1.00  0.00     0.244 C 
ATOM      4  O   UNL A   1      29.168  31.719  23.523  1.00  0.00    -0.273 OA
ATOM      5  H   UNL A   1      30.960  31.530  24.976  1.00  0.00     0.163 HD
BRANCH   3   6
ATOM      6  C   UNL A   1      28.916  29.328  23.399  1.00  0.00     0.197 C 
BRANCH   6   7
ATOM      7  N   UNL A   1      29.758  28.644  22.413  1.00  0.00    -0.342 N 
ATOM      8  C   UNL A   1      30.422  27.458  22.514  1.00  0.00     0.225 C 
ATOM      9  O   UNL A   1      31.130  27.126  21.556  1.00  0.00    -0.275 OA
ATOM     10  H   UNL A   1      29.859  29.111  21.551  1.00  0.00     0.164 HD
BRANCH   8  11
ATOM     11  C   UNL A   1      30.271  26.551  23.724  1.00  0.00     0.137 C 
BRANCH  11  12
ATOM     12  C   UNL A   1      31.325  25.488  23.855  1.00  0.00    -0.017 A 
ATOM     13  C   UNL A   1      33.480  26.891  24.203  1.00  0.00     0.065 C 
ATOM     14  C   UNL A   1      32.682  25.627  24.126  1.00  0.00     0.024 A 
ATOM     15  N   UNL A   1      33.240  24.354  24.230  1.00  0.00    -0.314 N 
ATOM     16  C   UNL A   1      31.089  24.097  23.674  1.00  0.00     0.033 A 
ATOM     17  C   UNL A   1      32.262  23.407  23.920  1.00  0.00     0.053 A 
BRANCH  15  18
ATOM     18  C   UNL A   1      34.580  24.051  24.598  1.00  0.00     0.046 A 
ATOM     19  C   UNL A   1      35.000  24.240  25.923  1.00  0.00     0.029 A 
ATOM     20  C   UNL A   1      35.492  23.660  23.608  1.00  0.00     0.029 A 
ATOM     21  C   UNL A   1      36.338  24.031  26.256  1.00  0.00     0.041 A 
ATOM     22  C   UNL A   1      36.831  23.466  23.950  1.00  0.00     0.041 A 
ATOM     23  C   UNL A   1      37.241  23.652  25.267  1.00  0.00     0.123 A 
ATOM     24  F   UNL A   1      38.528  23.475  25.590  1.00  0.00    -0.207 F 
ENDBRANCH  15  18
BRANCH  17  25
ATOM     25  C   UNL A   1      32.448  21.952  23.963  1.00  0.00    -0.001 A 
ATOM     26  C   UNL A   1      32.251  21.165  22.818  1.00  0.00     0.011 A 
ATOM     27  C   UNL A   1      32.820  21.331  25.163  1.00  0.00     0.011 A 
ATOM     28  C   UNL A   1      32.359  19.773  22.882  1.00  0.00     0.021 A 
ATOM     29  C   UNL A   1      32.935  19.941  25.235  1.00  0.00     0.021 A 
ATOM     30  C   UNL A   1      32.682  19.169  24.100  1.00  0.00     0.067 A 
BRANCH  30  31
ATOM     31  S   UNL A   1      32.790  17.396  24.178  1.00  0.00     0.175 S 
ATOM     32  C   UNL A   1      34.469  17.086  24.661  1.00  0.00     0.163 C 
ATOM     33  O   UNL A   1      31.915  16.954  25.224  1.00  0.00    -0.224 OA
ATOM     34  O   UNL A   1      32.643  16.893  22.808  1.00  0.00    -0.224 OA
ENDBRANCH  30  31
ENDBRANCH  17  25
ENDBRANCH  11  12
ENDBRANCH   8  11
ENDBRANCH   6   7
BRANCH   6  35
ATOM     35  C   UNL A   1      27.462  29.578  22.964  1.00  0.00     0.191 C 
BRANCH  35  36
ATOM     36  O   UNL A   1      26.583  28.490  23.243  1.00  0.00    -0.394 OA
ATOM     37  H   UNL A   1      25.792  28.565  22.687  1.00  0.00     0.210 HD
ENDBRANCH  35  36
ENDBRANCH   6  35
ENDBRANCH   3   6
ENDBRANCH   1   2
BRANCH   1  38
ATOM     38  C   UNL A   1      32.020  29.804  26.648  1.00  0.00     0.042 C 
BRANCH  38  39
ATOM     39  C   UNL A   1      33.451  30.333  26.895  1.00  0.00     0.118 C 
BRANCH  39  40
ATOM     40  N   UNL A   1      33.577  31.201  28.046  1.00  0.00    -0.352 N 
ATOM     41  C   UNL A   1      34.707  31.526  28.783  1.00  0.00     0.251 C 
ATOM     42  H   UNL A   1      32.741  31.623  28.350  1.00  0.00     0.163 HD
ATOM     43  O   UNL A   1      34.531  32.243  29.767  1.00  0.00    -0.269 OA
BRANCH  41  44
ATOM     44  C   UNL A   1      36.071  30.919  28.518  1.00  0.00     0.039 A 
ATOM     45  C   UNL A   1      36.104  29.597  28.115  1.00  0.00     0.014 A 
ATOM     46  C   UNL A   1      37.320  31.482  28.847  1.00  0.00     0.014 A 
ATOM     47  C   UNL A   1      37.347  28.903  27.963  1.00  0.00     0.010 A 
ATOM     48  C   UNL A   1      38.589  30.727  28.778  1.00  0.00     0.010 A 
ATOM     49  C   UNL A   1      38.662  29.391  28.328  1.00  0.00    -0.014 A 
BRANCH  49  50
ATOM     50  C   UNL A   1      39.811  28.228  28.626  1.00  0.00     0.031 A 
ATOM     51  C   UNL A   1      40.052  28.445  30.081  1.00  0.00     0.074 A 
ATOM     52  C   UNL A   1      40.705  27.289  28.078  1.00  0.00     0.049 A 
ATOM     53  N   UNL A   1      40.444  29.628  30.450  1.00  0.00    -0.248 NA
ATOM     54  C   UNL A   1      39.475  27.630  31.152  1.00  0.00     0.031 C 
ATOM     55  C   UNL A   1      41.004  27.021  26.659  1.00  0.00     0.029 A 
ATOM     56  N   UNL A   1      41.597  26.318  28.673  1.00  0.00    -0.354 N 
ATOM     57  C   UNL A   1      40.403  29.662  31.817  1.00  0.00     0.074 A 
ATOM     58  C   UNL A   1      39.611  28.487  32.175  1.00  0.00     0.031 C 
ATOM     59  C   UNL A   1      41.807  25.923  26.493  1.00  0.00     0.029 A 
ATOM     60  C   UNL A   1      42.210  25.342  27.777  1.00  0.00     0.049 A 
ATOM     61  H   UNL A   1      41.783  26.315  29.639  1.00  0.00     0.167 HD
ATOM     62  C   UNL A   1      41.535  30.140  32.409  1.00  0.00     0.031 A 
ATOM     63  C   UNL A   1      43.037  24.230  28.025  1.00  0.00     0.031 A 
ATOM     64  C   UNL A   1      42.409  29.051  32.770  1.00  0.00     0.049 A 
ATOM     65  C   UNL A   1      43.771  24.584  29.248  1.00  0.00     0.074 A 
ATOM     66  C   UNL A   1      42.173  27.841  33.395  1.00  0.00     0.029 A 
ATOM     67  N   UNL A   1      43.564  28.901  32.028  1.00  0.00    -0.354 N 
ATOM     68  N   UNL A   1      44.742  25.443  29.232  1.00  0.00    -0.248 NA
ATOM     69  C   UNL A   1      43.529  23.925  30.524  1.00  0.00     0.031 C 
ATOM     70  C   UNL A   1      42.853  26.899  32.595  1.00  0.00     0.029 A 
ATOM     71  C   UNL A   1      43.805  27.557  31.825  1.00  0.00     0.049 A 
ATOM     72  H   UNL A   1      44.128  29.636  31.696  1.00  0.00     0.167 HD
ATOM     73  C   UNL A   1      44.823  25.824  30.536  1.00  0.00     0.074 A 
ATOM     74  C   UNL A   1      44.289  24.706  31.295  1.00  0.00     0.031 C 
ATOM     75  C   UNL A   1      44.735  27.155  30.795  1.00  0.00     0.031 A 
BRANCH  62  76
ATOM     76  C   UNL A   1      42.025  31.448  31.823  1.00  0.00    -0.014 A 
ATOM     77  C   UNL A   1      43.275  31.492  31.191  1.00  0.00     0.010 A 
ATOM     78  C   UNL A   1      41.320  32.664  31.990  1.00  0.00     0.010 A 
ATOM     79  C   UNL A   1      43.820  32.718  30.785  1.00  0.00     0.020 A 
ATOM     80  C   UNL A   1      41.872  33.892  31.622  1.00  0.00     0.020 A 
ATOM     81  C   UNL A   1      43.124  33.912  31.022  1.00  0.00     0.054 A 
BRANCH  81  82
ATOM     82  S   UNL A   1      43.904  35.487  30.575  1.00  0.00     0.124 S 
ATOM     83  O   UNL A   1      44.970  35.609  31.570  1.00  0.00    -0.237 OA
ATOM     84  O   UNL A   1      44.359  35.229  29.213  1.00  0.00    -0.237 OA
ATOM     85  O   UNL A   1      42.831  36.468  30.714  1.00  0.00    -0.744 OA
ENDBRANCH  81  82
ENDBRANCH  62  76
BRANCH  63  86
ATOM     86  C   UNL A   1      43.678  22.890  27.469  1.00  0.00    -0.014 A 
ATOM     87  C   UNL A   1      42.829  21.811  27.016  1.00  0.00     0.010 A 
ATOM     88  C   UNL A   1      44.988  22.813  26.962  1.00  0.00     0.010 A 
ATOM     89  C   UNL A   1      43.199  20.843  26.039  1.00  0.00     0.020 A 
ATOM     90  C   UNL A   1      45.382  21.819  25.998  1.00  0.00     0.020 A 
ATOM     91  C   UNL A   1      44.476  20.873  25.501  1.00  0.00     0.054 A 
BRANCH  91  92
ATOM     92  S   UNL A   1      44.879  19.795  24.064  1.00  0.00     0.124 S 
ATOM     93  O   UNL A   1      46.289  19.477  24.270  1.00  0.00    -0.237 OA
ATOM     94  O   UNL A   1      43.955  18.673  24.231  1.00  0.00    -0.237 OA
ATOM     95  O   UNL A   1      44.598  20.643  22.907  1.00  0.00    -0.744 OA
ENDBRANCH  91  92
ENDBRANCH  63  86
BRANCH  75  96
ATOM     96  C   UNL A   1      45.489  28.103  29.873  1.00  0.00    -0.014 A 
ATOM     97  C   UNL A   1      44.897  29.003  28.954  1.00  0.00     0.010 A 
ATOM     98  C   UNL A   1      46.892  28.020  29.868  1.00  0.00     0.010 A 
ATOM     99  C   UNL A   1      45.663  29.706  28.011  1.00  0.00     0.020 A 
ATOM    100  C   UNL A   1      47.669  28.756  28.965  1.00  0.00     0.020 A 
ATOM    101  C   UNL A   1      47.047  29.562  28.012  1.00  0.00     0.054 A 
BRANCH 101 102
ATOM    102  S   UNL A   1      48.023  30.380  26.719  1.00  0.00     0.124 S 
ATOM    103  O   UNL A   1      49.230  29.556  26.674  1.00  0.00    -0.237 OA
ATOM    104  O   UNL A   1      47.160  30.281  25.546  1.00  0.00    -0.237 OA
ATOM    105  O   UNL A   1      48.228  31.730  27.240  1.00  0.00    -0.744 OA
ENDBRANCH 101 102
ENDBRANCH  75  96
ENDBRANCH  49  50
ENDBRANCH  41  44
ENDBRANCH  39  40
ENDBRANCH  38  39
ENDBRANCH   1  38
TORSDOF 21
ENDMDL
MODEL 2
REMARK VINA RESULT:     -12.0      2.542      3.656
REMARK SMILES Cc1c(CC(=O)N[C@H](CO)C(=O)NCCCNC(=O)c2ccc(-c3c4nc(c(-c5ccc(S(=O)(=O)[O-])cc5)c5ccc([nH]5)c(-c5ccc(S(=O)(=O)[O-])cc5)c5nc(c(-c6ccc(S(=O)(=O)[O-])cc6)c6ccc3[nH]6)C=C5)C=C4)cc2)cc(-c2ccc(S(C)(=O)=O)cc2)n1-c1ccc(F)cc1
REMARK SMILES IDX 14 1 13 2 11 3 12 4 8 6 7 7 5 8 6 9 4 11 3 12 1 13 2 14
REMARK SMILES IDX 92 15 80 16 81 17 93 18 94 19 99 20 95 21 98 22 96 23 97 24
REMARK SMILES IDX 82 25 83 26 91 27 84 28 90 29 85 30 86 31 87 32 88 33 89 34
REMARK SMILES IDX 9 35 10 36 15 38 16 39 17 40 18 41 19 43 20 44 21 45 79 46
REMARK SMILES IDX 22 47 78 48 23 49 24 50 25 51 72 52 26 53 77 54 71 55 73 56
REMARK SMILES IDX 27 57 76 58 70 59 69 60 28 62 58 63 39 64 57 65 40 66 43 67
REMARK SMILES IDX 56 68 74 69 41 70 42 71 55 73 75 74 44 75 29 76 30 77 38 78
REMARK SMILES IDX 31 79 37 80 32 81 33 82 34 83 35 84 36 85 59 86 60 87 68 88
REMARK SMILES IDX 61 89 67 90 62 91 63 92 64 93 65 94 66 95 45 96 46 97 54 98
REMARK SMILES IDX 47 99 53 100 48 101 49 102 50 103 51 104 52 105
REMARK H PARENT 13 5 7 10 10 37 17 42 73 61 43 72
REMARK Flexibility Score: inf
ROOT
ATOM      1  C   UNL A   1      33.263  28.639  26.108  1.00  0.00     0.117 C 
ENDROOT
BRANCH   1   2
ATOM      2  N   UNL A   1      32.106  29.418  25.690  1.00  0.00    -0.354 N 
ATOM      3  C   UNL A   1      31.294  29.393  24.596  1.00  0.00     0.244 C 
ATOM      4  O   UNL A   1      30.477  30.313  24.490  1.00  0.00    -0.273 OA
ATOM      5  H   UNL A   1      31.858  30.116  26.338  1.00  0.00     0.163 HD
BRANCH   3   6
ATOM      6  C   UNL A   1      31.378  28.310  23.506  1.00  0.00     0.197 C 
BRANCH   6   7
ATOM      7  N   UNL A   1      32.662  28.395  22.804  1.00  0.00    -0.342 N 
ATOM      8  C   UNL A   1      33.338  27.434  22.115  1.00  0.00     0.225 C 
ATOM      9  O   UNL A   1      34.449  27.738  21.666  1.00  0.00    -0.275 OA
ATOM     10  H   UNL A   1      33.101  29.276  22.837  1.00  0.00     0.164 HD
BRANCH   8  11
ATOM     11  C   UNL A   1      32.745  26.057  21.859  1.00  0.00     0.137 C 
BRANCH  11  12
ATOM     12  C   UNL A   1      33.258  24.968  22.758  1.00  0.00    -0.017 A 
ATOM     13  C   UNL A   1      31.120  23.560  23.189  1.00  0.00     0.065 C 
ATOM     14  C   UNL A   1      32.584  23.866  23.273  1.00  0.00     0.024 A 
ATOM     15  N   UNL A   1      33.494  23.093  23.992  1.00  0.00    -0.314 N 
ATOM     16  C   UNL A   1      34.578  24.916  23.284  1.00  0.00     0.033 A 
ATOM     17  C   UNL A   1      34.721  23.758  24.025  1.00  0.00     0.053 A 
BRANCH  15  18
ATOM     18  C   UNL A   1      33.234  21.830  24.592  1.00  0.00     0.046 A 
ATOM     19  C   UNL A   1      33.349  21.680  25.981  1.00  0.00     0.029 A 
ATOM     20  C   UNL A   1      32.961  20.724  23.773  1.00  0.00     0.029 A 
ATOM     21  C   UNL A   1      33.185  20.417  26.551  1.00  0.00     0.041 A 
ATOM     22  C   UNL A   1      32.812  19.465  24.353  1.00  0.00     0.041 A 
ATOM     23  C   UNL A   1      32.925  19.323  25.734  1.00  0.00     0.123 A 
ATOM     24  F   UNL A   1      32.790  18.110  26.286  1.00  0.00    -0.207 F 
ENDBRANCH  15  18
BRANCH  17  25
ATOM     25  C   UNL A   1      35.946  23.243  24.648  1.00  0.00    -0.001 A 
ATOM     26  C   UNL A   1      36.578  23.945  25.687  1.00  0.00     0.011 A 
ATOM     27  C   UNL A   1      36.505  22.039  24.200  1.00  0.00     0.011 A 
ATOM     28  C   UNL A   1      37.783  23.487  26.226  1.00  0.00     0.021 A 
ATOM     29  C   UNL A   1      37.707  21.572  24.737  1.00  0.00     0.021 A 
ATOM     30  C   UNL A   1      38.350  22.311  25.731  1.00  0.00     0.067 A 
BRANCH  30  31
ATOM     31  S   UNL A   1      39.897  21.752  26.405  1.00  0.00     0.175 S 
ATOM     32  C   UNL A   1      40.299  22.970  27.632  1.00  0.00     0.163 C 
ATOM     33  O   UNL A   1      39.658  20.498  27.057  1.00  0.00    -0.224 OA
ATOM     34  O   UNL A   1      40.901  21.873  25.344  1.00  0.00    -0.224 OA
ENDBRANCH  30  31
ENDBRANCH  17  25
ENDBRANCH  11  12
ENDBRANCH   8  11
ENDBRANCH   6   7
BRANCH   6  35
ATOM     35  C   UNL A   1      30.133  28.305  22.603  1.00  0.00     0.191 C 
BRANCH  35  36
ATOM     36  O   UNL A   1      30.162  29.295  21.577  1.00  0.00    -0.394 OA
ATOM     37  H   UNL A   1      30.902  29.116  20.977  1.00  0.00     0.210 HD
ENDBRANCH  35  36
ENDBRANCH   6  35
ENDBRANCH   3   6
ENDBRANCH   1   2
BRANCH   1  38
ATOM     38  C   UNL A   1      33.921  29.159  27.399  1.00  0.00     0.042 C 
BRANCH  38  39
ATOM     39  C   UNL A   1      34.705  30.488  27.302  1.00  0.00     0.118 C 
BRANCH  39  40
ATOM     40  N   UNL A   1      34.393  31.443  28.344  1.00  0.00    -0.352 N 
ATOM     41  C   UNL A   1      35.125  31.785  29.471  1.00  0.00     0.251 C 
ATOM     42  H   UNL A   1      33.538  31.920  28.236  1.00  0.00     0.163 HD
ATOM     43  O   UNL A   1      34.600  32.588  30.242  1.00  0.00    -0.269 OA
BRANCH  41  44
ATOM     44  C   UNL A   1      36.428  31.107  29.850  1.00  0.00     0.039 A 
ATOM     45  C   UNL A   1      37.583  31.589  29.262  1.00  0.00     0.014 A 
ATOM     46  C   UNL A   1      36.570  29.900  30.563  1.00  0.00     0.014 A 
ATOM     47  C   UNL A   1      38.840  30.933  29.461  1.00  0.00     0.010 A 
ATOM     48  C   UNL A   1      37.856  29.180  30.683  1.00  0.00     0.010 A 
ATOM     49  C   UNL A   1      39.061  29.668  30.133  1.00  0.00    -0.014 A 
BRANCH  49  50
ATOM     50  C   UNL A   1      40.445  28.852  29.707  1.00  0.00     0.031 A 
ATOM     51  C   UNL A   1      41.326  29.180  30.864  1.00  0.00     0.074 A 
ATOM     52  C   UNL A   1      41.136  28.154  28.699  1.00  0.00     0.049 A 
ATOM     53  N   UNL A   1      41.551  30.438  31.103  1.00  0.00    -0.248 NA
ATOM     54  C   UNL A   1      41.584  28.287  31.994  1.00  0.00     0.031 C 
ATOM     55  C   UNL A   1      40.733  27.917  27.300  1.00  0.00     0.029 A 
ATOM     56  N   UNL A   1      42.410  27.469  28.674  1.00  0.00    -0.354 N 
ATOM     57  C   UNL A   1      42.198  30.513  32.306  1.00  0.00     0.074 A 
ATOM     58  C   UNL A   1      42.006  29.189  32.893  1.00  0.00     0.031 C 
ATOM     59  C   UNL A   1      41.581  27.057  26.651  1.00  0.00     0.029 A 
ATOM     60  C   UNL A   1      42.701  26.650  27.503  1.00  0.00     0.049 A 
ATOM     61  H   UNL A   1      43.052  27.552  29.416  1.00  0.00     0.167 HD
ATOM     62  C   UNL A   1      43.320  31.289  32.301  1.00  0.00     0.031 A 
ATOM     63  C   UNL A   1      43.781  25.798  27.198  1.00  0.00     0.031 A 
ATOM     64  C   UNL A   1      44.490  30.476  32.073  1.00  0.00     0.049 A 
ATOM     65  C   UNL A   1      44.921  26.376  27.923  1.00  0.00     0.074 A 
ATOM     66  C   UNL A   1      44.901  29.271  32.611  1.00  0.00     0.029 A 
ATOM     67  N   UNL A   1      45.110  30.599  30.845  1.00  0.00    -0.354 N 
ATOM     68  N   UNL A   1      45.511  27.455  27.512  1.00  0.00    -0.248 NA
ATOM     69  C   UNL A   1      45.523  25.727  29.081  1.00  0.00     0.031 C 
ATOM     70  C   UNL A   1      45.288  28.506  31.492  1.00  0.00     0.029 A 
ATOM     71  C   UNL A   1      45.531  29.355  30.419  1.00  0.00     0.049 A 
ATOM     72  H   UNL A   1      45.232  31.442  30.350  1.00  0.00     0.167 HD
ATOM     73  C   UNL A   1      46.143  27.895  28.634  1.00  0.00     0.074 A 
ATOM     74  C   UNL A   1      46.353  26.706  29.444  1.00  0.00     0.031 C 
ATOM     75  C   UNL A   1      45.880  29.166  29.030  1.00  0.00     0.031 A 
BRANCH  62  76
ATOM     76  C   UNL A   1      43.116  32.655  31.680  1.00  0.00    -0.014 A 
ATOM     77  C   UNL A   1      42.001  32.877  30.861  1.00  0.00     0.010 A 
ATOM     78  C   UNL A   1      44.072  33.692  31.800  1.00  0.00     0.010 A 
ATOM     79  C   UNL A   1      41.876  34.078  30.148  1.00  0.00     0.020 A 
ATOM     80  C   UNL A   1      43.972  34.874  31.065  1.00  0.00     0.020 A 
ATOM     81  C   UNL A   1      42.872  35.060  30.239  1.00  0.00     0.054 A 
BRANCH  81  82
ATOM     82  S   UNL A   1      42.726  36.557  29.225  1.00  0.00     0.124 S 
ATOM     83  O   UNL A   1      43.927  36.496  28.392  1.00  0.00    -0.237 OA
ATOM     84  O   UNL A   1      41.471  36.326  28.517  1.00  0.00    -0.237 OA
ATOM     85  O   UNL A   1      42.718  37.646  30.197  1.00  0.00    -0.744 OA
ENDBRANCH  81  82
ENDBRANCH  62  76
BRANCH  63  86
ATOM     86  C   UNL A   1      44.355  24.648  26.269  1.00  0.00    -0.014 A 
ATOM     87  C   UNL A   1      45.232  23.638  26.819  1.00  0.00     0.010 A 
ATOM     88  C   UNL A   1      43.750  24.257  25.061  1.00  0.00     0.010 A 
ATOM     89  C   UNL A   1      45.372  22.318  26.304  1.00  0.00     0.020 A 
ATOM     90  C   UNL A   1      43.910  22.935  24.514  1.00  0.00     0.020 A 
ATOM     91  C   UNL A   1      44.675  21.956  25.163  1.00  0.00     0.054 A 
BRANCH  91  92
ATOM     92  S   UNL A   1      44.650  20.191  24.637  1.00  0.00     0.124 S 
ATOM     93  O   UNL A   1      43.395  19.694  25.193  1.00  0.00    -0.237 OA
ATOM     94  O   UNL A   1      44.694  20.286  23.179  1.00  0.00    -0.237 OA
ATOM     95  O   UNL A   1      45.859  19.634  25.244  1.00  0.00    -0.744 OA
ENDBRANCH  91  92
ENDBRANCH  63  86
BRANCH  75  96
ATOM     96  C   UNL A   1      45.812  30.240  27.953  1.00  0.00    -0.014 A 
ATOM     97  C   UNL A   1      46.911  30.986  27.463  1.00  0.00     0.010 A 
ATOM     98  C   UNL A   1      44.541  30.585  27.463  1.00  0.00     0.010 A 
ATOM     99  C   UNL A   1      46.735  32.085  26.607  1.00  0.00     0.020 A 
ATOM    100  C   UNL A   1      44.360  31.647  26.569  1.00  0.00     0.020 A 
ATOM    101  C   UNL A   1      45.454  32.419  26.179  1.00  0.00     0.054 A 
BRANCH 101 102
ATOM    102  S   UNL A   1      45.218  33.908  25.168  1.00  0.00     0.124 S 
ATOM    103  O   UNL A   1      44.593  33.367  23.962  1.00  0.00    -0.237 OA
ATOM    104  O   UNL A   1      44.349  34.733  26.001  1.00  0.00    -0.237 OA
ATOM    105  O   UNL A   1      46.574  34.414  24.975  1.00  0.00    -0.744 OA
ENDBRANCH 101 102
ENDBRANCH  75  96
ENDBRANCH  49  50
ENDBRANCH  41  44
ENDBRANCH  39  40
ENDBRANCH  38  39
ENDBRANCH   1  38
TORSDOF 21
ENDMDL
MODEL 3
REMARK VINA RESULT:     -11.9      4.862      8.955
REMARK SMILES Cc1c(CC(=O)N[C@H](CO)C(=O)NCCCNC(=O)c2ccc(-c3c4nc(c(-c5ccc(S(=O)(=O)[O-])cc5)c5ccc([nH]5)c(-c5ccc(S(=O)(=O)[O-])cc5)c5nc(c(-c6ccc(S(=O)(=O)[O-])cc6)c6ccc3[nH]6)C=C5)C=C4)cc2)cc(-c2ccc(S(C)(=O)=O)cc2)n1-c1ccc(F)cc1
REMARK SMILES IDX 14 1 13 2 11 3 12 4 8 6 7 7 5 8 6 9 4 11 3 12 1 13 2 14
REMARK SMILES IDX 92 15 80 16 81 17 93 18 94 19 99 20 95 21 98 22 96 23 97 24
REMARK SMILES IDX 82 25 83 26 91 27 84 28 90 29 85 30 86 31 87 32 88 33 89 34
REMARK SMILES IDX 9 35 10 36 15 38 16 39 17 40 18 41 19 43 20 44 21 45 79 46
REMARK SMILES IDX 22 47 78 48 23 49 24 50 25 51 72 52 26 53 77 54 71 55 73 56
REMARK SMILES IDX 27 57 76 58 70 59 69 60 28 62 58 63 39 64 57 65 40 66 43 67
REMARK SMILES IDX 56 68 74 69 41 70 42 71 55 73 75 74 44 75 29 76 30 77 38 78
REMARK SMILES IDX 31 79 37 80 32 81 33 82 34 83 35 84 36 85 59 86 60 87 68 88
REMARK SMILES IDX 61 89 67 90 62 91 63 92 64 93 65 94 66 95 45 96 46 97 54 98
REMARK SMILES IDX 47 99 53 100 48 101 49 102 50 103 51 104 52 105
REMARK H PARENT 13 5 7 10 10 37 17 42 73 61 43 72
REMARK Flexibility Score: inf
ROOT
ATOM      1  C   UNL A   1      31.579  29.686  25.367  1.00  0.00     0.117 C 
ENDROOT
BRANCH   1   2
ATOM      2  N   UNL A   1      30.769  30.772  24.834  1.00  0.00    -0.354 N 
ATOM      3  C   UNL A   1      29.697  30.830  23.996  1.00  0.00     0.244 C 
ATOM      4  O   UNL A   1      29.338  31.954  23.628  1.00  0.00    -0.273 OA
ATOM      5  H   UNL A   1      31.061  31.659  25.147  1.00  0.00     0.163 HD
BRANCH   3   6
ATOM      6  C   UNL A   1      28.958  29.582  23.481  1.00  0.00     0.197 C 
BRANCH   6   7
ATOM      7  N   UNL A   1      29.771  28.890  22.476  1.00  0.00    -0.342 N 
ATOM      8  C   UNL A   1      30.416  27.692  22.558  1.00  0.00     0.225 C 
ATOM      9  O   UNL A   1      31.101  27.354  21.587  1.00  0.00    -0.275 OA
ATOM     10  H   UNL A   1      29.865  29.360  21.616  1.00  0.00     0.164 HD
BRANCH   8  11
ATOM     11  C   UNL A   1      30.271  26.779  23.765  1.00  0.00     0.137 C 
BRANCH  11  12
ATOM     12  C   UNL A   1      31.278  25.667  23.844  1.00  0.00    -0.017 A 
ATOM     13  C   UNL A   1      33.518  26.965  24.029  1.00  0.00     0.065 C 
ATOM     14  C   UNL A   1      32.655  25.741  24.024  1.00  0.00     0.024 A 
ATOM     15  N   UNL A   1      33.156  24.444  24.111  1.00  0.00    -0.314 N 
ATOM     16  C   UNL A   1      30.963  24.288  23.700  1.00  0.00     0.033 A 
ATOM     17  C   UNL A   1      32.114  23.543  23.880  1.00  0.00     0.053 A 
BRANCH  15  18
ATOM     18  C   UNL A   1      34.500  24.079  24.396  1.00  0.00     0.046 A 
ATOM     19  C   UNL A   1      35.325  23.595  23.371  1.00  0.00     0.029 A 
ATOM     20  C   UNL A   1      34.956  24.117  25.722  1.00  0.00     0.029 A 
ATOM     21  C   UNL A   1      36.612  23.151  23.676  1.00  0.00     0.041 A 
ATOM     22  C   UNL A   1      36.239  23.659  26.017  1.00  0.00     0.041 A 
ATOM     23  C   UNL A   1      37.054  23.181  24.994  1.00  0.00     0.123 A 
ATOM     24  F   UNL A   1      38.283  22.734  25.283  1.00  0.00    -0.207 F 
ENDBRANCH  15  18
BRANCH  17  25
ATOM     25  C   UNL A   1      32.231  22.081  23.934  1.00  0.00    -0.001 A 
ATOM     26  C   UNL A   1      32.414  21.417  25.157  1.00  0.00     0.011 A 
ATOM     27  C   UNL A   1      32.168  21.331  22.752  1.00  0.00     0.011 A 
ATOM     28  C   UNL A   1      32.597  20.032  25.195  1.00  0.00     0.021 A 
ATOM     29  C   UNL A   1      32.345  19.946  22.782  1.00  0.00     0.021 A 
ATOM     30  C   UNL A   1      32.581  19.307  24.000  1.00  0.00     0.067 A 
BRANCH  30  31
ATOM     31  S   UNL A   1      32.842  17.550  24.057  1.00  0.00     0.175 S 
ATOM     32  C   UNL A   1      34.547  17.381  24.522  1.00  0.00     0.163 C 
ATOM     33  O   UNL A   1      32.020  17.024  25.107  1.00  0.00    -0.224 OA
ATOM     34  O   UNL A   1      32.726  17.050  22.684  1.00  0.00    -0.224 OA
ENDBRANCH  30  31
ENDBRANCH  17  25
ENDBRANCH  11  12
ENDBRANCH   8  11
ENDBRANCH   6   7
BRANCH   6  35
ATOM     35  C   UNL A   1      27.516  29.902  23.055  1.00  0.00     0.191 C 
BRANCH  35  36
ATOM     36  O   UNL A   1      26.653  28.767  23.044  1.00  0.00    -0.394 OA
ATOM     37  H   UNL A   1      26.745  28.283  23.879  1.00  0.00     0.210 HD
ENDBRANCH  35  36
ENDBRANCH   6  35
ENDBRANCH   3   6
ENDBRANCH   1   2
BRANCH   1  38
ATOM     38  C   UNL A   1      31.956  29.869  26.847  1.00  0.00     0.042 C 
BRANCH  38  39
ATOM     39  C   UNL A   1      33.222  30.703  27.152  1.00  0.00     0.118 C 
BRANCH  39  40
ATOM     40  N   UNL A   1      32.990  32.128  27.247  1.00  0.00    -0.352 N 
ATOM     41  C   UNL A   1      33.706  33.091  27.943  1.00  0.00     0.251 C 
ATOM     42  H   UNL A   1      32.212  32.463  26.744  1.00  0.00     0.163 HD
ATOM     43  O   UNL A   1      33.255  34.236  27.914  1.00  0.00    -0.269 OA
BRANCH  41  44
ATOM     44  C   UNL A   1      34.886  32.761  28.836  1.00  0.00     0.039 A 
ATOM     45  C   UNL A   1      34.629  32.598  30.185  1.00  0.00     0.014 A 
ATOM     46  C   UNL A   1      36.249  32.818  28.484  1.00  0.00     0.014 A 
ATOM     47  C   UNL A   1      35.695  32.410  31.121  1.00  0.00     0.010 A 
ATOM     48  C   UNL A   1      37.344  32.718  29.471  1.00  0.00     0.010 A 
ATOM     49  C   UNL A   1      37.115  32.506  30.849  1.00  0.00    -0.014 A 
BRANCH  49  50
ATOM     50  C   UNL A   1      38.083  32.852  32.154  1.00  0.00     0.031 A 
ATOM     51  C   UNL A   1      39.369  33.167  31.469  1.00  0.00     0.074 A 
ATOM     52  C   UNL A   1      38.226  32.821  33.554  1.00  0.00     0.049 A 
ATOM     53  N   UNL A   1      39.881  32.244  30.709  1.00  0.00    -0.248 NA
ATOM     54  C   UNL A   1      39.864  34.519  31.207  1.00  0.00     0.031 C 
ATOM     55  C   UNL A   1      37.305  32.265  34.562  1.00  0.00     0.029 A 
ATOM     56  N   UNL A   1      39.263  33.290  34.447  1.00  0.00    -0.354 N 
ATOM     57  C   UNL A   1      40.925  32.810  30.031  1.00  0.00     0.074 A 
ATOM     58  C   UNL A   1      40.734  34.246  30.223  1.00  0.00     0.031 C 
ATOM     59  C   UNL A   1      37.693  32.559  35.844  1.00  0.00     0.029 A 
ATOM     60  C   UNL A   1      38.959  33.296  35.874  1.00  0.00     0.049 A 
ATOM     61  H   UNL A   1      40.136  33.593  34.107  1.00  0.00     0.167 HD
ATOM     62  C   UNL A   1      42.084  32.091  30.068  1.00  0.00     0.031 A 
ATOM     63  C   UNL A   1      39.688  33.759  36.987  1.00  0.00     0.031 A 
ATOM     64  C   UNL A   1      42.929  32.559  31.139  1.00  0.00     0.049 A 
ATOM     65  C   UNL A   1      41.095  33.610  36.593  1.00  0.00     0.074 A 
ATOM     66  C   UNL A   1      43.294  33.829  31.546  1.00  0.00     0.029 A 
ATOM     67  N   UNL A   1      43.068  31.731  32.236  1.00  0.00    -0.354 N 
ATOM     68  N   UNL A   1      41.671  32.449  36.560  1.00  0.00    -0.248 NA
ATOM     69  C   UNL A   1      41.956  34.752  36.317  1.00  0.00     0.031 C 
ATOM     70  C   UNL A   1      43.106  33.813  32.943  1.00  0.00     0.029 A 
ATOM     71  C   UNL A   1      43.082  32.495  33.386  1.00  0.00     0.049 A 
ATOM     72  H   UNL A   1      43.145  30.750  32.204  1.00  0.00     0.167 HD
ATOM     73  C   UNL A   1      42.736  32.668  35.741  1.00  0.00     0.074 A 
ATOM     74  C   UNL A   1      43.018  34.089  35.855  1.00  0.00     0.031 C 
ATOM     75  C   UNL A   1      42.860  31.854  34.661  1.00  0.00     0.031 A 
BRANCH  62  76
ATOM     76  C   UNL A   1      41.907  30.628  29.720  1.00  0.00    -0.014 A 
ATOM     77  C   UNL A   1      41.889  29.675  30.747  1.00  0.00     0.010 A 
ATOM     78  C   UNL A   1      41.872  30.167  28.382  1.00  0.00     0.010 A 
ATOM     79  C   UNL A   1      41.888  28.306  30.442  1.00  0.00     0.020 A 
ATOM     80  C   UNL A   1      41.909  28.806  28.071  1.00  0.00     0.020 A 
ATOM     81  C   UNL A   1      41.919  27.881  29.107  1.00  0.00     0.054 A 
BRANCH  81  82
ATOM     82  S   UNL A   1      42.019  26.105  28.751  1.00  0.00     0.124 S 
ATOM     83  O   UNL A   1      40.633  25.668  28.916  1.00  0.00    -0.237 OA
ATOM     84  O   UNL A   1      42.511  26.095  27.378  1.00  0.00    -0.237 OA
ATOM     85  O   UNL A   1      42.940  25.591  29.762  1.00  0.00    -0.744 OA
ENDBRANCH  81  82
ENDBRANCH  62  76
BRANCH  63  86
ATOM     86  C   UNL A   1      39.674  34.155  38.523  1.00  0.00    -0.014 A 
ATOM     87  C   UNL A   1      38.417  34.347  39.213  1.00  0.00     0.010 A 
ATOM     88  C   UNL A   1      40.752  33.913  39.393  1.00  0.00     0.010 A 
ATOM     89  C   UNL A   1      38.224  34.162  40.612  1.00  0.00     0.020 A 
ATOM     90  C   UNL A   1      40.573  33.755  40.813  1.00  0.00     0.020 A 
ATOM     91  C   UNL A   1      39.307  33.828  41.410  1.00  0.00     0.054 A 
BRANCH  91  92
ATOM     92  S   UNL A   1      39.024  33.341  43.163  1.00  0.00     0.124 S 
ATOM     93  O   UNL A   1      38.300  34.482  43.715  1.00  0.00    -0.237 OA
ATOM     94  O   UNL A   1      38.246  32.109  43.036  1.00  0.00    -0.237 OA
ATOM     95  O   UNL A   1      40.376  33.152  43.690  1.00  0.00    -0.744 OA
ENDBRANCH  91  92
ENDBRANCH  63  86
BRANCH  75  96
ATOM     96  C   UNL A   1      42.590  30.369  34.863  1.00  0.00    -0.014 A 
ATOM     97  C   UNL A   1      41.431  29.678  34.436  1.00  0.00     0.010 A 
ATOM     98  C   UNL A   1      43.527  29.638  35.612  1.00  0.00     0.010 A 
ATOM     99  C   UNL A   1      41.176  28.353  34.825  1.00  0.00     0.020 A 
ATOM    100  C   UNL A   1      43.307  28.300  35.962  1.00  0.00     0.020 A 
ATOM    101  C   UNL A   1      42.111  27.678  35.604  1.00  0.00     0.054 A 
BRANCH 101 102
ATOM    102  S   UNL A   1      41.726  26.008  36.202  1.00  0.00     0.124 S 
ATOM    103  O   UNL A   1      40.950  25.454  35.094  1.00  0.00    -0.237 OA
ATOM    104  O   UNL A   1      43.047  25.417  36.392  1.00  0.00    -0.237 OA
ATOM    105  O   UNL A   1      40.959  26.246  37.423  1.00  0.00    -0.744 OA
ENDBRANCH 101 102
ENDBRANCH  75  96
ENDBRANCH  49  50
ENDBRANCH  41  44
ENDBRANCH  39  40
ENDBRANCH  38  39
ENDBRANCH   1  38
TORSDOF 21
ENDMDL
