MODEL 1
REMARK VINA RESULT:     -10.8      0.000      0.000
REMARK SMILES C[C@H](C(=O)NCCCNC(=O)c1ccc(-c2c3nc(c(-c4ccc(S(=O)(=O)[O-])cc4)c4ccc([nH]4)c(-c4ccc(S(=O)(=O)[O-])cc4)c4nc(c(-c5ccc(S(=O)(=O)[O-])cc5)c5ccc2[nH]5)C=C4)C=C3)cc1)n1ccc(C(=O)N(C)Cc2cnn(C)c2)n1
REMARK SMILES IDX 6 1 5 2 3 3 4 4 2 6 1 7 72 8 73 9 87 10 74 11 75 12 76 13
REMARK SMILES IDX 77 14 78 15 79 16 80 17 81 18 82 19 86 20 83 21 84 22 85 23
REMARK SMILES IDX 7 24 8 25 9 26 10 27 11 29 12 30 13 31 71 32 14 33 70 34
REMARK SMILES IDX 15 35 16 36 17 37 64 38 18 39 69 40 63 41 65 42 19 43 68 44
REMARK SMILES IDX 62 45 61 46 20 48 50 49 31 50 49 51 32 52 35 53 48 54 66 55
REMARK SMILES IDX 33 56 34 57 47 59 67 60 36 61 21 62 22 63 30 64 23 65 29 66
REMARK SMILES IDX 24 67 25 68 26 69 27 70 28 71 51 72 52 73 60 74 53 75 59 76
REMARK SMILES IDX 54 77 55 78 56 79 57 80 58 81 37 82 38 83 46 84 39 85 45 86
REMARK SMILES IDX 40 87 41 88 42 89 43 90 44 91
REMARK H PARENT 5 5 9 28 65 47 35 58
REMARK Flexibility Score: inf
ROOT
ATOM      1  C   UNL A   1      31.598  28.056  25.634  1.00  0.00     0.117 C 
ENDROOT
BRANCH   1   2
ATOM      2  N   UNL A   1      30.903  26.953  26.275  1.00  0.00    -0.354 N 
ATOM      3  C   UNL A   1      30.088  25.986  25.756  1.00  0.00     0.244 C 
ATOM      4  O   UNL A   1      29.608  25.182  26.559  1.00  0.00    -0.273 OA
ATOM      5  H   UNL A   1      31.042  26.891  27.247  1.00  0.00     0.163 HD
BRANCH   3   6
ATOM      6  C   UNL A   1      29.849  25.888  24.252  1.00  0.00     0.193 C 
ATOM      7  C   UNL A   1      29.257  27.205  23.736  1.00  0.00     0.044 C 
BRANCH   6   8
ATOM      8  N   UNL A   1      31.066  25.497  23.544  1.00  0.00    -0.260 N 
ATOM      9  C   UNL A   1      31.582  26.105  22.436  1.00  0.00     0.110 A 
ATOM     10  N   UNL A   1      31.895  24.566  24.057  1.00  0.00    -0.167 NA
ATOM     11  C   UNL A   1      32.761  25.461  22.166  1.00  0.00     0.056 A 
ATOM     12  C   UNL A   1      32.942  24.515  23.215  1.00  0.00     0.150 A 
BRANCH  12  13
ATOM     13  C   UNL A   1      34.147  23.666  23.347  1.00  0.00     0.274 C 
ATOM     14  O   UNL A   1      34.564  23.094  22.335  1.00  0.00    -0.267 OA
BRANCH  13  15
ATOM     15  N   UNL A   1      34.814  23.478  24.569  1.00  0.00    -0.336 N 
ATOM     16  C   UNL A   1      36.198  23.796  24.884  1.00  0.00     0.147 C 
BRANCH  15  17
ATOM     17  C   UNL A   1      34.047  22.859  25.645  1.00  0.00     0.158 C 
BRANCH  17  18
ATOM     18  C   UNL A   1      33.615  21.478  25.277  1.00  0.00     0.009 A 
ATOM     19  C   UNL A   1      32.296  20.995  25.094  1.00  0.00     0.140 A 
ATOM     20  C   UNL A   1      34.406  20.389  24.956  1.00  0.00     0.113 A 
ATOM     21  N   UNL A   1      32.260  19.719  24.705  1.00  0.00    -0.181 NA
ATOM     22  N   UNL A   1      33.553  19.386  24.597  1.00  0.00    -0.275 N 
ATOM     23  C   UNL A   1      33.898  18.083  24.086  1.00  0.00     0.173 C 
ENDBRANCH  17  18
ENDBRANCH  15  17
ENDBRANCH  13  15
ENDBRANCH  12  13
ENDBRANCH   6   8
ENDBRANCH   3   6
ENDBRANCH   1   2
BRANCH   1  24
ATOM     24  C   UNL A   1      33.103  27.994  25.875  1.00  0.00     0.042 C 
BRANCH  24  25
ATOM     25  C   UNL A   1      33.515  28.332  27.303  1.00  0.00     0.118 C 
BRANCH  25  26
ATOM     26  N   UNL A   1      33.493  29.765  27.567  1.00  0.00    -0.352 N 
ATOM     27  C   UNL A   1      34.459  30.569  28.124  1.00  0.00     0.251 C 
ATOM     28  H   UNL A   1      32.663  30.227  27.308  1.00  0.00     0.163 HD
ATOM     29  O   UNL A   1      34.177  31.721  28.445  1.00  0.00    -0.269 OA
BRANCH  27  30
ATOM     30  C   UNL A   1      35.821  30.043  28.357  1.00  0.00     0.039 A 
ATOM     31  C   UNL A   1      36.746  30.054  27.310  1.00  0.00     0.014 A 
ATOM     32  C   UNL A   1      36.187  29.540  29.609  1.00  0.00     0.014 A 
ATOM     33  C   UNL A   1      38.058  29.632  27.538  1.00  0.00     0.010 A 
ATOM     34  C   UNL A   1      37.512  29.202  29.857  1.00  0.00     0.010 A 
ATOM     35  C   UNL A   1      38.462  29.242  28.825  1.00  0.00    -0.014 A 
BRANCH  35  36
ATOM     36  C   UNL A   1      39.868  28.869  29.127  1.00  0.00     0.031 A 
ATOM     37  C   UNL A   1      40.825  29.910  29.641  1.00  0.00     0.074 A 
ATOM     38  C   UNL A   1      40.310  27.630  28.838  1.00  0.00     0.049 A 
ATOM     39  N   UNL A   1      42.116  29.823  29.834  1.00  0.00    -0.248 NA
ATOM     40  C   UNL A   1      40.258  31.234  29.949  1.00  0.00     0.031 C 
ATOM     41  C   UNL A   1      39.493  26.543  28.295  1.00  0.00     0.029 A 
ATOM     42  N   UNL A   1      41.567  27.083  28.934  1.00  0.00    -0.354 N 
ATOM     43  C   UNL A   1      42.520  31.085  30.254  1.00  0.00     0.074 A 
ATOM     44  C   UNL A   1      41.346  31.929  30.243  1.00  0.00     0.031 C 
ATOM     45  C   UNL A   1      40.266  25.462  28.109  1.00  0.00     0.029 A 
ATOM     46  C   UNL A   1      41.642  25.790  28.473  1.00  0.00     0.049 A 
ATOM     47  H   UNL A   1      42.341  27.571  29.300  1.00  0.00     0.167 HD
ATOM     48  C   UNL A   1      43.754  31.500  30.628  1.00  0.00     0.031 A 
ATOM     49  C   UNL A   1      42.699  24.966  28.333  1.00  0.00     0.031 A 
ATOM     50  C   UNL A   1      44.917  30.653  30.638  1.00  0.00     0.049 A 
ATOM     51  C   UNL A   1      44.063  25.444  28.747  1.00  0.00     0.074 A 
ATOM     52  C   UNL A   1      46.199  30.958  31.058  1.00  0.00     0.029 A 
ATOM     53  N   UNL A   1      44.941  29.336  30.201  1.00  0.00    -0.354 N 
ATOM     54  N   UNL A   1      44.414  26.618  29.215  1.00  0.00    -0.248 NA
ATOM     55  C   UNL A   1      45.170  24.486  28.627  1.00  0.00     0.031 C 
ATOM     56  C   UNL A   1      47.011  29.844  30.822  1.00  0.00     0.029 A 
ATOM     57  C   UNL A   1      46.221  28.823  30.316  1.00  0.00     0.049 A 
ATOM     58  H   UNL A   1      44.162  28.841  29.858  1.00  0.00     0.167 HD
ATOM     59  C   UNL A   1      45.778  26.533  29.468  1.00  0.00     0.074 A 
ATOM     60  C   UNL A   1      46.187  25.190  29.110  1.00  0.00     0.031 C 
ATOM     61  C   UNL A   1      46.613  27.482  29.959  1.00  0.00     0.031 A 
BRANCH  48  62
ATOM     62  C   UNL A   1      43.904  32.944  31.033  1.00  0.00    -0.014 A 
ATOM     63  C   UNL A   1      44.220  33.939  30.090  1.00  0.00     0.010 A 
ATOM     64  C   UNL A   1      43.727  33.312  32.380  1.00  0.00     0.010 A 
ATOM     65  C   UNL A   1      44.423  35.261  30.495  1.00  0.00     0.020 A 
ATOM     66  C   UNL A   1      43.895  34.640  32.784  1.00  0.00     0.020 A 
ATOM     67  C   UNL A   1      44.269  35.600  31.842  1.00  0.00     0.054 A 
BRANCH  67  68
ATOM     68  S   UNL A   1      44.558  37.319  32.344  1.00  0.00     0.124 S 
ATOM     69  O   UNL A   1      44.303  38.041  31.100  1.00  0.00    -0.237 OA
ATOM     70  O   UNL A   1      43.568  37.517  33.400  1.00  0.00    -0.237 OA
ATOM     71  O   UNL A   1      45.949  37.322  32.791  1.00  0.00    -0.744 OA
ENDBRANCH  67  68
ENDBRANCH  48  62
BRANCH  49  72
ATOM     72  C   UNL A   1      42.492  23.602  27.773  1.00  0.00    -0.014 A 
ATOM     73  C   UNL A   1      42.239  23.421  26.403  1.00  0.00     0.010 A 
ATOM     74  C   UNL A   1      42.604  22.471  28.603  1.00  0.00     0.010 A 
ATOM     75  C   UNL A   1      42.107  22.135  25.871  1.00  0.00     0.020 A 
ATOM     76  C   UNL A   1      42.500  21.182  28.071  1.00  0.00     0.020 A 
ATOM     77  C   UNL A   1      42.247  21.023  26.706  1.00  0.00     0.054 A 
BRANCH  77  78
ATOM     78  S   UNL A   1      42.162  19.364  25.975  1.00  0.00     0.124 S 
ATOM     79  O   UNL A   1      42.643  18.525  27.067  1.00  0.00    -0.237 OA
ATOM     80  O   UNL A   1      40.742  19.234  25.655  1.00  0.00    -0.237 OA
ATOM     81  O   UNL A   1      43.047  19.455  24.815  1.00  0.00    -0.744 OA
ENDBRANCH  77  78
ENDBRANCH  49  72
BRANCH  61  82
ATOM     82  C   UNL A   1      48.055  27.104  30.180  1.00  0.00    -0.014 A 
ATOM     83  C   UNL A   1      49.040  27.387  29.218  1.00  0.00     0.010 A 
ATOM     84  C   UNL A   1      48.439  26.554  31.417  1.00  0.00     0.010 A 
ATOM     85  C   UNL A   1      50.385  27.121  29.489  1.00  0.00     0.020 A 
ATOM     86  C   UNL A   1      49.786  26.310  31.701  1.00  0.00     0.020 A 
ATOM     87  C   UNL A   1      50.751  26.591  30.732  1.00  0.00     0.054 A 
BRANCH  87  88
ATOM     88  S   UNL A   1      52.511  26.339  31.090  1.00  0.00     0.124 S 
ATOM     89  O   UNL A   1      52.838  27.533  31.864  1.00  0.00    -0.237 OA
ATOM     90  O   UNL A   1      52.508  25.084  31.839  1.00  0.00    -0.237 OA
ATOM     91  O   UNL A   1      53.128  26.266  29.767  1.00  0.00    -0.744 OA
ENDBRANCH  87  88
ENDBRANCH  61  82
ENDBRANCH  35  36
ENDBRANCH  27  30
ENDBRANCH  25  26
ENDBRANCH  24  25
ENDBRANCH   1  24
TORSDOF 18
ENDMDL
MODEL 2
REMARK VINA RESULT:     -10.7      4.193      7.282
REMARK SMILES C[C@H](C(=O)NCCCNC(=O)c1ccc(-c2c3nc(c(-c4ccc(S(=O)(=O)[O-])cc4)c4ccc([nH]4)c(-c4ccc(S(=O)(=O)[O-])cc4)c4nc(c(-c5ccc(S(=O)(=O)[O-])cc5)c5ccc2[nH]5)C=C4)C=C3)cc1)n1ccc(C(=O)N(C)Cc2cnn(C)c2)n1
REMARK SMILES IDX 6 1 5 2 3 3 4 4 2 6 1 7 72 8 73 9 87 10 74 11 75 12 76 13
REMARK SMILES IDX 77 14 78 15 79 16 80 17 81 18 82 19 86 20 83 21 84 22 85 23
REMARK SMILES IDX 7 24 8 25 9 26 10 27 11 29 12 30 13 31 71 32 14 33 70 34
REMARK SMILES IDX 15 35 16 36 17 37 64 38 18 39 69 40 63 41 65 42 19 43 68 44
REMARK SMILES IDX 62 45 61 46 20 48 50 49 31 50 49 51 32 52 35 53 48 54 66 55
REMARK SMILES IDX 33 56 34 57 47 59 67 60 36 61 21 62 22 63 30 64 23 65 29 66
REMARK SMILES IDX 24 67 25 68 26 69 27 70 28 71 51 72 52 73 60 74 53 75 59 76
REMARK SMILES IDX 54 77 55 78 56 79 57 80 58 81 37 82 38 83 46 84 39 85 45 86
REMARK SMILES IDX 40 87 41 88 42 89 43 90 44 91
REMARK H PARENT 5 5 9 28 65 47 35 58
REMARK Flexibility Score: inf
ROOT
ATOM      1  C   UNL A   1      34.273  34.215  29.942  1.00  0.00     0.117 C 
ENDROOT
BRANCH   1   2
ATOM      2  N   UNL A   1      33.142  35.034  30.344  1.00  0.00    -0.354 N 
ATOM      3  C   UNL A   1      33.034  36.002  31.302  1.00  0.00     0.244 C 
ATOM      4  O   UNL A   1      31.921  36.517  31.440  1.00  0.00    -0.273 OA
ATOM      5  H   UNL A   1      32.314  34.862  29.841  1.00  0.00     0.163 HD
BRANCH   3   6
ATOM      6  C   UNL A   1      34.252  36.452  32.103  1.00  0.00     0.193 C 
ATOM      7  C   UNL A   1      33.921  37.739  32.868  1.00  0.00     0.044 C 
BRANCH   6   8
ATOM      8  N   UNL A   1      34.740  35.384  32.973  1.00  0.00    -0.260 N 
ATOM      9  C   UNL A   1      34.055  34.257  33.325  1.00  0.00     0.110 A 
ATOM     10  N   UNL A   1      36.026  35.355  33.378  1.00  0.00    -0.167 NA
ATOM     11  C   UNL A   1      34.919  33.508  34.080  1.00  0.00     0.056 A 
ATOM     12  C   UNL A   1      36.156  34.213  34.076  1.00  0.00     0.150 A 
BRANCH  12  13
ATOM     13  C   UNL A   1      37.390  33.697  34.711  1.00  0.00     0.274 C 
ATOM     14  O   UNL A   1      37.496  33.804  35.937  1.00  0.00    -0.267 OA
BRANCH  13  15
ATOM     15  N   UNL A   1      38.434  33.111  33.977  1.00  0.00    -0.336 N 
ATOM     16  C   UNL A   1      39.659  33.745  33.513  1.00  0.00     0.147 C 
BRANCH  15  17
ATOM     17  C   UNL A   1      38.264  31.712  33.599  1.00  0.00     0.158 C 
BRANCH  17  18
ATOM     18  C   UNL A   1      39.253  30.838  34.299  1.00  0.00     0.009 A 
ATOM     19  C   UNL A   1      39.362  30.580  35.688  1.00  0.00     0.140 A 
ATOM     20  C   UNL A   1      40.225  30.027  33.742  1.00  0.00     0.113 A 
ATOM     21  N   UNL A   1      40.321  29.698  35.978  1.00  0.00    -0.181 NA
ATOM     22  N   UNL A   1      40.806  29.354  34.778  1.00  0.00    -0.275 N 
ATOM     23  C   UNL A   1      41.807  28.319  34.700  1.00  0.00     0.173 C 
ENDBRANCH  17  18
ENDBRANCH  15  17
ENDBRANCH  13  15
ENDBRANCH  12  13
ENDBRANCH   6   8
ENDBRANCH   3   6
ENDBRANCH   1   2
BRANCH   1  24
ATOM     24  C   UNL A   1      34.589  34.374  28.459  1.00  0.00     0.042 C 
BRANCH  24  25
ATOM     25  C   UNL A   1      35.159  33.119  27.810  1.00  0.00     0.118 C 
BRANCH  25  26
ATOM     26  N   UNL A   1      34.199  32.025  27.768  1.00  0.00    -0.352 N 
ATOM     27  C   UNL A   1      34.412  30.668  27.821  1.00  0.00     0.251 C 
ATOM     28  H   UNL A   1      33.256  32.297  27.690  1.00  0.00     0.163 HD
ATOM     29  O   UNL A   1      33.486  29.899  27.574  1.00  0.00    -0.269 OA
BRANCH  27  30
ATOM     30  C   UNL A   1      35.751  30.137  28.151  1.00  0.00     0.039 A 
ATOM     31  C   UNL A   1      36.734  30.097  27.158  1.00  0.00     0.014 A 
ATOM     32  C   UNL A   1      36.040  29.679  29.440  1.00  0.00     0.014 A 
ATOM     33  C   UNL A   1      38.025  29.670  27.477  1.00  0.00     0.010 A 
ATOM     34  C   UNL A   1      37.345  29.337  29.776  1.00  0.00     0.010 A 
ATOM     35  C   UNL A   1      38.352  29.326  28.799  1.00  0.00    -0.014 A 
BRANCH  35  36
ATOM     36  C   UNL A   1      39.733  28.950  29.194  1.00  0.00     0.031 A 
ATOM     37  C   UNL A   1      40.640  29.977  29.815  1.00  0.00     0.074 A 
ATOM     38  C   UNL A   1      40.206  27.724  28.897  1.00  0.00     0.049 A 
ATOM     39  N   UNL A   1      41.913  29.890  30.103  1.00  0.00    -0.248 NA
ATOM     40  C   UNL A   1      40.041  31.286  30.125  1.00  0.00     0.031 C 
ATOM     41  C   UNL A   1      39.440  26.653  28.255  1.00  0.00     0.029 A 
ATOM     42  N   UNL A   1      41.455  27.180  29.070  1.00  0.00    -0.354 N 
ATOM     43  C   UNL A   1      42.275  31.138  30.597  1.00  0.00     0.074 A 
ATOM     44  C   UNL A   1      41.098  31.976  30.525  1.00  0.00     0.031 C 
ATOM     45  C   UNL A   1      40.234  25.582  28.092  1.00  0.00     0.029 A 
ATOM     46  C   UNL A   1      41.576  25.905  28.571  1.00  0.00     0.049 A 
ATOM     47  H   UNL A   1      42.195  27.659  29.510  1.00  0.00     0.167 HD
ATOM     48  C   UNL A   1      43.473  31.546  31.077  1.00  0.00     0.031 A 
ATOM     49  C   UNL A   1      42.646  25.091  28.484  1.00  0.00     0.031 A 
ATOM     50  C   UNL A   1      44.638  30.705  31.147  1.00  0.00     0.049 A 
ATOM     51  C   UNL A   1      43.971  25.562  29.017  1.00  0.00     0.074 A 
ATOM     52  C   UNL A   1      45.882  31.002  31.674  1.00  0.00     0.029 A 
ATOM     53  N   UNL A   1      44.706  29.405  30.668  1.00  0.00    -0.354 N 
ATOM     54  N   UNL A   1      44.276  26.720  29.551  1.00  0.00    -0.248 NA
ATOM     55  C   UNL A   1      45.092  24.614  28.949  1.00  0.00     0.031 C 
ATOM     56  C   UNL A   1      46.718  29.901  31.462  1.00  0.00     0.029 A 
ATOM     57  C   UNL A   1      45.977  28.895  30.862  1.00  0.00     0.049 A 
ATOM     58  H   UNL A   1      43.959  28.918  30.250  1.00  0.00     0.167 HD
ATOM     59  C   UNL A   1      45.618  26.633  29.905  1.00  0.00     0.074 A 
ATOM     60  C   UNL A   1      46.064  25.306  29.532  1.00  0.00     0.031 C 
ATOM     61  C   UNL A   1      46.406  27.569  30.490  1.00  0.00     0.031 A 
BRANCH  48  62
ATOM     62  C   UNL A   1      43.581  32.975  31.543  1.00  0.00    -0.014 A 
ATOM     63  C   UNL A   1      44.036  33.992  30.683  1.00  0.00     0.010 A 
ATOM     64  C   UNL A   1      43.221  33.308  32.862  1.00  0.00     0.010 A 
ATOM     65  C   UNL A   1      44.195  35.299  31.153  1.00  0.00     0.020 A 
ATOM     66  C   UNL A   1      43.345  34.622  33.326  1.00  0.00     0.020 A 
ATOM     67  C   UNL A   1      43.858  35.602  32.475  1.00  0.00     0.054 A 
BRANCH  67  68
ATOM     68  S   UNL A   1      44.093  37.301  33.063  1.00  0.00     0.124 S 
ATOM     69  O   UNL A   1      45.470  37.263  33.549  1.00  0.00    -0.237 OA
ATOM     70  O   UNL A   1      43.877  38.093  31.854  1.00  0.00    -0.237 OA
ATOM     71  O   UNL A   1      43.072  37.457  34.095  1.00  0.00    -0.744 OA
ENDBRANCH  67  68
ENDBRANCH  48  62
BRANCH  49  72
ATOM     72  C   UNL A   1      42.493  23.747  27.863  1.00  0.00    -0.014 A 
ATOM     73  C   UNL A   1      42.565  23.590  26.468  1.00  0.00     0.010 A 
ATOM     74  C   UNL A   1      42.332  22.607  28.672  1.00  0.00     0.010 A 
ATOM     75  C   UNL A   1      42.482  22.318  25.894  1.00  0.00     0.020 A 
ATOM     76  C   UNL A   1      42.277  21.330  28.104  1.00  0.00     0.020 A 
ATOM     77  C   UNL A   1      42.348  21.195  26.716  1.00  0.00     0.054 A 
BRANCH  77  78
ATOM     78  S   UNL A   1      42.335  19.549  25.951  1.00  0.00     0.124 S 
ATOM     79  O   UNL A   1      42.598  18.681  27.094  1.00  0.00    -0.237 OA
ATOM     80  O   UNL A   1      40.986  19.472  25.395  1.00  0.00    -0.237 OA
ATOM     81  O   UNL A   1      43.405  19.624  24.959  1.00  0.00    -0.744 OA
ENDBRANCH  77  78
ENDBRANCH  49  72
BRANCH  61  82
ATOM     82  C   UNL A   1      47.829  27.191  30.808  1.00  0.00    -0.014 A 
ATOM     83  C   UNL A   1      48.885  27.532  29.945  1.00  0.00     0.010 A 
ATOM     84  C   UNL A   1      48.119  26.578  32.041  1.00  0.00     0.010 A 
ATOM     85  C   UNL A   1      50.208  27.262  30.310  1.00  0.00     0.020 A 
ATOM     86  C   UNL A   1      49.442  26.330  32.420  1.00  0.00     0.020 A 
ATOM     87  C   UNL A   1      50.478  26.670  31.549  1.00  0.00     0.054 A 
BRANCH  87  88
ATOM     88  S   UNL A   1      52.206  26.412  32.035  1.00  0.00     0.124 S 
ATOM     89  O   UNL A   1      52.070  25.509  33.174  1.00  0.00    -0.237 OA
ATOM     90  O   UNL A   1      52.793  25.824  30.833  1.00  0.00    -0.237 OA
ATOM     91  O   UNL A   1      52.680  27.756  32.358  1.00  0.00    -0.744 OA
ENDBRANCH  87  88
ENDBRANCH  61  82
ENDBRANCH  35  36
ENDBRANCH  27  30
ENDBRANCH  25  26
ENDBRANCH  24  25
ENDBRANCH   1  24
TORSDOF 18
ENDMDL
MODEL 3
REMARK VINA RESULT:     -10.4      2.856      9.507
REMARK SMILES C[C@H](C(=O)NCCCNC(=O)c1ccc(-c2c3nc(c(-c4ccc(S(=O)(=O)[O-])cc4)c4ccc([nH]4)c(-c4ccc(S(=O)(=O)[O-])cc4)c4nc(c(-c5ccc(S(=O)(=O)[O-])cc5)c5ccc2[nH]5)C=C4)C=C3)cc1)n1ccc(C(=O)N(C)Cc2cnn(C)c2)n1
REMARK SMILES IDX 6 1 5 2 3 3 4 4 2 6 1 7 72 8 73 9 87 10 74 11 75 12 76 13
REMARK SMILES IDX 77 14 78 15 79 16 80 17 81 18 82 19 86 20 83 21 84 22 85 23
REMARK SMILES IDX 7 24 8 25 9 26 10 27 11 29 12 30 13 31 71 32 14 33 70 34
REMARK SMILES IDX 15 35 16 36 17 37 64 38 18 39 69 40 63 41 65 42 19 43 68 44
REMARK SMILES IDX 62 45 61 46 20 48 50 49 31 50 49 51 32 52 35 53 48 54 66 55
REMARK SMILES IDX 33 56 34 57 47 59 67 60 36 61 21 62 22 63 30 64 23 65 29 66
REMARK SMILES IDX 24 67 25 68 26 69 27 70 28 71 51 72 52 73 60 74 53 75 59 76
REMARK SMILES IDX 54 77 55 78 56 79 57 80 58 81 37 82 38 83 46 84 39 85 45 86
REMARK SMILES IDX 40 87 41 88 42 89 43 90 44 91
REMARK H PARENT 5 5 9 28 65 47 35 58
REMARK Flexibility Score: inf
ROOT
ATOM      1  C   UNL A   1      35.468  22.695  24.175  1.00  0.00     0.117 C 
ENDROOT
BRANCH   1   2
ATOM      2  N   UNL A   1      34.628  21.552  24.490  1.00  0.00    -0.354 N 
ATOM      3  C   UNL A   1      33.338  21.266  24.141  1.00  0.00     0.244 C 
ATOM      4  O   UNL A   1      32.868  20.216  24.586  1.00  0.00    -0.273 OA
ATOM      5  H   UNL A   1      35.061  20.868  25.050  1.00  0.00     0.163 HD
BRANCH   3   6
ATOM      6  C   UNL A   1      32.560  22.180  23.199  1.00  0.00     0.193 C 
ATOM      7  C   UNL A   1      31.771  21.333  22.193  1.00  0.00     0.044 C 
BRANCH   6   8
ATOM      8  N   UNL A   1      31.716  23.115  23.941  1.00  0.00    -0.260 N 
ATOM      9  C   UNL A   1      31.465  23.080  25.282  1.00  0.00     0.110 A 
ATOM     10  N   UNL A   1      31.235  24.228  23.352  1.00  0.00    -0.167 NA
ATOM     11  C   UNL A   1      30.696  24.182  25.552  1.00  0.00     0.056 A 
ATOM     12  C   UNL A   1      30.587  24.895  24.324  1.00  0.00     0.150 A 
BRANCH  12  13
ATOM     13  C   UNL A   1      29.904  26.202  24.199  1.00  0.00     0.274 C 
ATOM     14  O   UNL A   1      28.687  26.239  24.407  1.00  0.00    -0.267 OA
BRANCH  13  15
ATOM     15  N   UNL A   1      30.579  27.382  23.843  1.00  0.00    -0.336 N 
ATOM     16  C   UNL A   1      31.382  28.240  24.701  1.00  0.00     0.147 C 
BRANCH  15  17
ATOM     17  C   UNL A   1      30.435  27.827  22.461  1.00  0.00     0.158 C 
BRANCH  17  18
ATOM     18  C   UNL A   1      29.492  28.980  22.359  1.00  0.00     0.009 A 
ATOM     19  C   UNL A   1      28.167  29.073  22.854  1.00  0.00     0.140 A 
ATOM     20  C   UNL A   1      29.729  30.237  21.831  1.00  0.00     0.113 A 
ATOM     21  N   UNL A   1      27.619  30.272  22.647  1.00  0.00    -0.181 NA
ATOM     22  N   UNL A   1      28.598  30.969  22.055  1.00  0.00    -0.275 N 
ATOM     23  C   UNL A   1      28.389  32.367  21.776  1.00  0.00     0.173 C 
ENDBRANCH  17  18
ENDBRANCH  15  17
ENDBRANCH  13  15
ENDBRANCH  12  13
ENDBRANCH   6   8
ENDBRANCH   3   6
ENDBRANCH   1   2
BRANCH   1  24
ATOM     24  C   UNL A   1      35.256  23.842  25.156  1.00  0.00     0.042 C 
BRANCH  24  25
ATOM     25  C   UNL A   1      36.485  24.173  25.996  1.00  0.00     0.118 C 
BRANCH  25  26
ATOM     26  N   UNL A   1      37.469  23.100  25.993  1.00  0.00    -0.352 N 
ATOM     27  C   UNL A   1      38.802  23.131  26.331  1.00  0.00     0.251 C 
ATOM     28  H   UNL A   1      37.132  22.221  25.706  1.00  0.00     0.163 HD
ATOM     29  O   UNL A   1      39.515  22.164  26.075  1.00  0.00    -0.269 OA
BRANCH  27  30
ATOM     30  C   UNL A   1      39.378  24.330  26.977  1.00  0.00     0.039 A 
ATOM     31  C   UNL A   1      40.062  25.264  26.196  1.00  0.00     0.014 A 
ATOM     32  C   UNL A   1      39.243  24.532  28.353  1.00  0.00     0.014 A 
ATOM     33  C   UNL A   1      40.544  26.438  26.781  1.00  0.00     0.010 A 
ATOM     34  C   UNL A   1      39.646  25.738  28.917  1.00  0.00     0.010 A 
ATOM     35  C   UNL A   1      40.303  26.703  28.139  1.00  0.00    -0.014 A 
BRANCH  35  36
ATOM     36  C   UNL A   1      40.724  27.977  28.777  1.00  0.00     0.031 A 
ATOM     37  C   UNL A   1      42.070  28.073  29.440  1.00  0.00     0.074 A 
ATOM     38  C   UNL A   1      39.857  29.005  28.856  1.00  0.00     0.049 A 
ATOM     39  N   UNL A   1      42.567  29.042  30.166  1.00  0.00    -0.248 NA
ATOM     40  C   UNL A   1      42.965  26.913  29.292  1.00  0.00     0.031 C 
ATOM     41  C   UNL A   1      38.506  29.020  28.292  1.00  0.00     0.029 A 
ATOM     42  N   UNL A   1      39.974  30.229  29.469  1.00  0.00    -0.354 N 
ATOM     43  C   UNL A   1      43.815  28.597  30.586  1.00  0.00     0.074 A 
ATOM     44  C   UNL A   1      43.978  27.254  30.072  1.00  0.00     0.031 C 
ATOM     45  C   UNL A   1      37.922  30.194  28.581  1.00  0.00     0.029 A 
ATOM     46  C   UNL A   1      38.836  30.995  29.391  1.00  0.00     0.049 A 
ATOM     47  H   UNL A   1      40.797  30.529  29.920  1.00  0.00     0.167 HD
ATOM     48  C   UNL A   1      44.746  29.249  31.322  1.00  0.00     0.031 A 
ATOM     49  C   UNL A   1      38.545  32.196  29.930  1.00  0.00     0.031 A 
ATOM     50  C   UNL A   1      44.577  30.585  31.827  1.00  0.00     0.049 A 
ATOM     51  C   UNL A   1      39.587  32.905  30.749  1.00  0.00     0.074 A 
ATOM     52  C   UNL A   1      45.483  31.361  32.529  1.00  0.00     0.029 A 
ATOM     53  N   UNL A   1      43.421  31.343  31.691  1.00  0.00    -0.354 N 
ATOM     54  N   UNL A   1      40.792  32.501  31.073  1.00  0.00    -0.248 NA
ATOM     55  C   UNL A   1      39.238  34.236  31.265  1.00  0.00     0.031 C 
ATOM     56  C   UNL A   1      44.855  32.564  32.867  1.00  0.00     0.029 A 
ATOM     57  C   UNL A   1      43.581  32.565  32.319  1.00  0.00     0.049 A 
ATOM     58  H   UNL A   1      42.608  31.051  31.219  1.00  0.00     0.167 HD
ATOM     59  C   UNL A   1      41.355  33.536  31.810  1.00  0.00     0.074 A 
ATOM     60  C   UNL A   1      40.362  34.589  31.877  1.00  0.00     0.031 C 
ATOM     61  C   UNL A   1      42.586  33.607  32.374  1.00  0.00     0.031 A 
BRANCH  48  62
ATOM     62  C   UNL A   1      46.020  28.510  31.639  1.00  0.00    -0.014 A 
ATOM     63  C   UNL A   1      46.145  27.736  32.807  1.00  0.00     0.010 A 
ATOM     64  C   UNL A   1      47.112  28.590  30.754  1.00  0.00     0.010 A 
ATOM     65  C   UNL A   1      47.356  27.113  33.119  1.00  0.00     0.020 A 
ATOM     66  C   UNL A   1      48.315  27.939  31.045  1.00  0.00     0.020 A 
ATOM     67  C   UNL A   1      48.437  27.228  32.240  1.00  0.00     0.054 A 
BRANCH  67  68
ATOM     68  S   UNL A   1      50.003  26.427  32.679  1.00  0.00     0.124 S 
ATOM     69  O   UNL A   1      49.550  25.326  33.527  1.00  0.00    -0.237 OA
ATOM     70  O   UNL A   1      50.541  26.035  31.378  1.00  0.00    -0.237 OA
ATOM     71  O   UNL A   1      50.750  27.476  33.368  1.00  0.00    -0.744 OA
ENDBRANCH  67  68
ENDBRANCH  48  62
BRANCH  49  72
ATOM     72  C   UNL A   1      37.200  32.792  29.701  1.00  0.00    -0.014 A 
ATOM     73  C   UNL A   1      36.294  32.945  30.765  1.00  0.00     0.010 A 
ATOM     74  C   UNL A   1      36.841  33.263  28.424  1.00  0.00     0.010 A 
ATOM     75  C   UNL A   1      35.057  33.562  30.557  1.00  0.00     0.020 A 
ATOM     76  C   UNL A   1      35.616  33.905  28.218  1.00  0.00     0.020 A 
ATOM     77  C   UNL A   1      34.729  34.046  29.287  1.00  0.00     0.054 A 
BRANCH  77  78
ATOM     78  S   UNL A   1      33.156  34.924  29.066  1.00  0.00     0.124 S 
ATOM     79  O   UNL A   1      33.603  36.261  28.690  1.00  0.00    -0.237 OA
ATOM     80  O   UNL A   1      32.512  34.151  28.006  1.00  0.00    -0.237 OA
ATOM     81  O   UNL A   1      32.517  34.819  30.376  1.00  0.00    -0.744 OA
ENDBRANCH  77  78
ENDBRANCH  49  72
BRANCH  61  82
ATOM     82  C   UNL A   1      42.960  34.880  33.088  1.00  0.00    -0.014 A 
ATOM     83  C   UNL A   1      42.800  35.012  34.478  1.00  0.00     0.010 A 
ATOM     84  C   UNL A   1      43.577  35.918  32.365  1.00  0.00     0.010 A 
ATOM     85  C   UNL A   1      43.250  36.164  35.132  1.00  0.00     0.020 A 
ATOM     86  C   UNL A   1      44.050  37.059  33.020  1.00  0.00     0.020 A 
ATOM     87  C   UNL A   1      43.879  37.176  34.400  1.00  0.00     0.054 A 
BRANCH  87  88
ATOM     88  S   UNL A   1      44.532  38.618  35.286  1.00  0.00     0.124 S 
ATOM     89  O   UNL A   1      43.957  39.726  34.528  1.00  0.00    -0.237 OA
ATOM     90  O   UNL A   1      43.999  38.434  36.634  1.00  0.00    -0.237 OA
ATOM     91  O   UNL A   1      45.981  38.469  35.171  1.00  0.00    -0.744 OA
ENDBRANCH  87  88
ENDBRANCH  61  82
ENDBRANCH  35  36
ENDBRANCH  27  30
ENDBRANCH  25  26
ENDBRANCH  24  25
ENDBRANCH   1  24
TORSDOF 18
ENDMDL
