MODEL 1
REMARK VINA RESULT:     -10.4      0.000      0.000
REMARK SMILES C[N@H+]1CCO[C@@H](CS(=O)(=O)c2ccc(C(=O)NCCCNC(=O)c3ccc(-c4c5nc(c(-c6ccc(S(=O)(=O)[O-])cc6)c6ccc([nH]6)c(-c6ccc(S(=O)(=O)[O-])cc6)c6nc(c(-c7ccc(S(=O)(=O)[O-])cc7)c7ccc4[nH]7)C=C6)C=C5)cc3)o2)C1
REMARK SMILES IDX 19 1 18 2 17 3 15 4 16 5 14 7 11 8 12 9 84 10 13 11 8 12
REMARK SMILES IDX 9 13 10 14 7 15 6 16 1 17 2 18 3 19 85 20 4 22 5 23 20 24
REMARK SMILES IDX 21 25 22 26 23 28 24 29 25 30 83 31 26 32 82 33 27 34 28 35
REMARK SMILES IDX 29 36 76 37 30 38 81 39 75 40 77 41 31 42 80 43 74 44 73 45
REMARK SMILES IDX 32 47 62 48 43 49 61 50 44 51 47 52 60 53 78 54 45 55 46 56
REMARK SMILES IDX 59 58 79 59 48 60 33 61 34 62 42 63 35 64 41 65 36 66 37 67
REMARK SMILES IDX 38 68 39 69 40 70 63 71 64 72 72 73 65 74 71 75 66 76 67 77
REMARK SMILES IDX 68 78 69 79 70 80 49 81 50 82 58 83 51 84 57 85 52 86 53 87
REMARK SMILES IDX 54 88 55 89 56 90
REMARK H PARENT 17 6 2 21 21 27 77 46 47 57
REMARK Flexibility Score: inf
ROOT
ATOM      1  C   UNL A   1      33.906  28.854  27.130  1.00  0.00     0.042 C 
ENDROOT
BRANCH   1   2
ATOM      2  C   UNL A   1      33.211  29.760  26.118  1.00  0.00     0.118 C 
BRANCH   2   3
ATOM      3  N   UNL A   1      33.568  29.408  24.762  1.00  0.00    -0.349 N 
ATOM      4  C   UNL A   1      33.055  28.471  23.906  1.00  0.00     0.287 C 
ATOM      5  O   UNL A   1      33.510  28.496  22.761  1.00  0.00    -0.266 OA
ATOM      6  H   UNL A   1      34.311  29.936  24.389  1.00  0.00     0.163 HD
BRANCH   4   7
ATOM      7  C   UNL A   1      32.031  27.530  24.315  1.00  0.00     0.193 A 
ATOM      8  C   UNL A   1      31.458  25.544  25.190  1.00  0.00     0.219 A 
ATOM      9  C   UNL A   1      30.288  26.248  24.939  1.00  0.00     0.064 A 
ATOM     10  O   UNL A   1      32.494  26.337  24.787  1.00  0.00    -0.440 OA
ATOM     11  C   UNL A   1      30.653  27.513  24.398  1.00  0.00     0.058 A 
BRANCH   8  12
ATOM     12  S   UNL A   1      31.768  23.917  25.860  1.00  0.00     0.214 S 
ATOM     13  O   UNL A   1      30.860  23.035  25.157  1.00  0.00    -0.220 OA
ATOM     14  O   UNL A   1      31.669  24.112  27.297  1.00  0.00    -0.220 OA
BRANCH  12  15
ATOM     15  C   UNL A   1      33.452  23.511  25.476  1.00  0.00     0.183 C 
BRANCH  15  16
ATOM     16  C   UNL A   1      34.158  22.562  26.446  1.00  0.00     0.188 C 
ATOM     17  C   UNL A   1      33.006  20.348  24.313  1.00  0.00     0.332 C 
ATOM     18  N   UNL A   1      33.904  20.216  25.449  1.00  0.00    -0.333 N 
ATOM     19  C   UNL A   1      35.327  20.276  25.107  1.00  0.00     0.290 C 
ATOM     20  C   UNL A   1      33.632  21.112  26.583  1.00  0.00     0.295 C 
ATOM     21  H   UNL A   1      33.688  19.271  25.761  1.00  0.00     0.348 HD
ATOM     22  C   UNL A   1      35.846  21.710  24.951  1.00  0.00     0.222 C 
ATOM     23  O   UNL A   1      35.574  22.515  26.109  1.00  0.00    -0.365 OA
ENDBRANCH  15  16
ENDBRANCH  12  15
ENDBRANCH   8  12
ENDBRANCH   4   7
ENDBRANCH   2   3
ENDBRANCH   1   2
BRANCH   1  24
ATOM     24  C   UNL A   1      35.310  29.326  27.511  1.00  0.00     0.118 C 
BRANCH  24  25
ATOM     25  N   UNL A   1      35.325  30.004  28.800  1.00  0.00    -0.352 N 
ATOM     26  C   UNL A   1      36.326  30.127  29.728  1.00  0.00     0.251 C 
ATOM     27  H   UNL A   1      34.479  30.445  29.044  1.00  0.00     0.163 HD
ATOM     28  O   UNL A   1      36.041  30.515  30.858  1.00  0.00    -0.269 OA
BRANCH  26  29
ATOM     29  C   UNL A   1      37.732  29.805  29.390  1.00  0.00     0.039 A 
ATOM     30  C   UNL A   1      38.111  29.788  28.044  1.00  0.00     0.014 A 
ATOM     31  C   UNL A   1      38.651  29.431  30.375  1.00  0.00     0.014 A 
ATOM     32  C   UNL A   1      39.413  29.428  27.689  1.00  0.00     0.010 A 
ATOM     33  C   UNL A   1      39.967  29.133  30.026  1.00  0.00     0.010 A 
ATOM     34  C   UNL A   1      40.356  29.107  28.678  1.00  0.00    -0.014 A 
BRANCH  34  35
ATOM     35  C   UNL A   1      41.738  28.702  28.316  1.00  0.00     0.031 A 
ATOM     36  C   UNL A   1      42.840  29.729  28.271  1.00  0.00     0.074 A 
ATOM     37  C   UNL A   1      41.998  27.421  27.986  1.00  0.00     0.049 A 
ATOM     38  N   UNL A   1      44.095  29.580  27.931  1.00  0.00    -0.248 NA
ATOM     39  C   UNL A   1      42.476  31.109  28.634  1.00  0.00     0.031 C 
ATOM     40  C   UNL A   1      41.012  26.337  27.956  1.00  0.00     0.029 A 
ATOM     41  N   UNL A   1      43.169  26.815  27.611  1.00  0.00    -0.354 N 
ATOM     42  C   UNL A   1      44.662  30.847  28.013  1.00  0.00     0.074 A 
ATOM     43  C   UNL A   1      43.607  31.758  28.397  1.00  0.00     0.031 C 
ATOM     44  C   UNL A   1      41.626  25.196  27.603  1.00  0.00     0.029 A 
ATOM     45  C   UNL A   1      43.039  25.471  27.356  1.00  0.00     0.049 A 
ATOM     46  H   UNL A   1      44.024  27.298  27.530  1.00  0.00     0.167 HD
ATOM     47  C   UNL A   1      45.949  31.217  27.805  1.00  0.00     0.031 A 
ATOM     48  C   UNL A   1      43.953  24.561  26.971  1.00  0.00     0.031 A 
ATOM     49  C   UNL A   1      47.004  30.307  27.448  1.00  0.00     0.049 A 
ATOM     50  C   UNL A   1      45.383  24.987  26.784  1.00  0.00     0.074 A 
ATOM     51  C   UNL A   1      48.348  30.577  27.255  1.00  0.00     0.029 A 
ATOM     52  N   UNL A   1      46.837  28.946  27.241  1.00  0.00    -0.354 N 
ATOM     53  N   UNL A   1      45.907  26.184  26.904  1.00  0.00    -0.248 NA
ATOM     54  C   UNL A   1      46.346  23.936  26.428  1.00  0.00     0.031 C 
ATOM     55  C   UNL A   1      48.988  29.383  26.907  1.00  0.00     0.029 A 
ATOM     56  C   UNL A   1      48.050  28.363  26.924  1.00  0.00     0.049 A 
ATOM     57  H   UNL A   1      45.980  28.466  27.311  1.00  0.00     0.167 HD
ATOM     58  C   UNL A   1      47.268  26.023  26.670  1.00  0.00     0.074 A 
ATOM     59  C   UNL A   1      47.486  24.615  26.410  1.00  0.00     0.031 C 
ATOM     60  C   UNL A   1      48.250  26.958  26.674  1.00  0.00     0.031 A 
BRANCH  47  61
ATOM     61  C   UNL A   1      46.281  32.678  27.957  1.00  0.00    -0.014 A 
ATOM     62  C   UNL A   1      46.238  33.549  26.852  1.00  0.00     0.010 A 
ATOM     63  C   UNL A   1      46.621  33.192  29.220  1.00  0.00     0.010 A 
ATOM     64  C   UNL A   1      46.573  34.897  27.001  1.00  0.00     0.020 A 
ATOM     65  C   UNL A   1      46.933  34.546  29.378  1.00  0.00     0.020 A 
ATOM     66  C   UNL A   1      46.928  35.386  28.261  1.00  0.00     0.054 A 
BRANCH  66  67
ATOM     67  S   UNL A   1      47.354  37.141  28.430  1.00  0.00     0.124 S 
ATOM     68  O   UNL A   1      47.113  37.638  27.078  1.00  0.00    -0.237 OA
ATOM     69  O   UNL A   1      46.412  37.606  29.446  1.00  0.00    -0.237 OA
ATOM     70  O   UNL A   1      48.753  37.118  28.848  1.00  0.00    -0.744 OA
ENDBRANCH  66  67
ENDBRANCH  47  61
BRANCH  48  71
ATOM     71  C   UNL A   1      43.549  23.143  26.772  1.00  0.00    -0.014 A 
ATOM     72  C   UNL A   1      42.998  22.407  27.835  1.00  0.00     0.010 A 
ATOM     73  C   UNL A   1      43.693  22.530  25.515  1.00  0.00     0.010 A 
ATOM     74  C   UNL A   1      42.615  21.075  27.650  1.00  0.00     0.020 A 
ATOM     75  C   UNL A   1      43.291  21.206  25.321  1.00  0.00     0.020 A 
ATOM     76  C   UNL A   1      42.764  20.483  26.393  1.00  0.00     0.054 A 
BRANCH  76  77
ATOM     77  S   UNL A   1      42.207  18.772  26.156  1.00  0.00     0.124 S 
ATOM     78  O   UNL A   1      40.812  18.959  25.772  1.00  0.00    -0.237 OA
ATOM     79  O   UNL A   1      43.096  18.290  25.104  1.00  0.00    -0.237 OA
ATOM     80  O   UNL A   1      42.421  18.163  27.468  1.00  0.00    -0.744 OA
ENDBRANCH  76  77
ENDBRANCH  48  71
BRANCH  60  81
ATOM     81  C   UNL A   1      49.655  26.481  26.435  1.00  0.00    -0.014 A 
ATOM     82  C   UNL A   1      50.445  25.982  27.485  1.00  0.00     0.010 A 
ATOM     83  C   UNL A   1      50.178  26.500  25.129  1.00  0.00     0.010 A 
ATOM     84  C   UNL A   1      51.750  25.546  27.239  1.00  0.00     0.020 A 
ATOM     85  C   UNL A   1      51.474  26.045  24.876  1.00  0.00     0.020 A 
ATOM     86  C   UNL A   1      52.258  25.587  25.937  1.00  0.00     0.054 A 
BRANCH  86  87
ATOM     87  S   UNL A   1      53.945  24.991  25.633  1.00  0.00     0.124 S 
ATOM     88  O   UNL A   1      54.560  25.141  26.949  1.00  0.00    -0.237 OA
ATOM     89  O   UNL A   1      53.728  23.614  25.194  1.00  0.00    -0.237 OA
ATOM     90  O   UNL A   1      54.448  25.894  24.601  1.00  0.00    -0.744 OA
ENDBRANCH  86  87
ENDBRANCH  60  81
ENDBRANCH  34  35
ENDBRANCH  26  29
ENDBRANCH  24  25
ENDBRANCH   1  24
TORSDOF 16
ENDMDL
MODEL 2
REMARK VINA RESULT:     -10.4      3.028      3.819
REMARK SMILES C[N@H+]1CCO[C@@H](CS(=O)(=O)c2ccc(C(=O)NCCCNC(=O)c3ccc(-c4c5nc(c(-c6ccc(S(=O)(=O)[O-])cc6)c6ccc([nH]6)c(-c6ccc(S(=O)(=O)[O-])cc6)c6nc(c(-c7ccc(S(=O)(=O)[O-])cc7)c7ccc4[nH]7)C=C6)C=C5)cc3)o2)C1
REMARK SMILES IDX 19 1 18 2 17 3 15 4 16 5 14 7 11 8 12 9 84 10 13 11 8 12
REMARK SMILES IDX 9 13 10 14 7 15 6 16 1 17 2 18 3 19 85 20 4 22 5 23 20 24
REMARK SMILES IDX 21 25 22 26 23 28 24 29 25 30 83 31 26 32 82 33 27 34 28 35
REMARK SMILES IDX 29 36 76 37 30 38 81 39 75 40 77 41 31 42 80 43 74 44 73 45
REMARK SMILES IDX 32 47 62 48 43 49 61 50 44 51 47 52 60 53 78 54 45 55 46 56
REMARK SMILES IDX 59 58 79 59 48 60 33 61 34 62 42 63 35 64 41 65 36 66 37 67
REMARK SMILES IDX 38 68 39 69 40 70 63 71 64 72 72 73 65 74 71 75 66 76 67 77
REMARK SMILES IDX 68 78 69 79 70 80 49 81 50 82 58 83 51 84 57 85 52 86 53 87
REMARK SMILES IDX 54 88 55 89 56 90
REMARK H PARENT 17 6 2 21 21 27 77 46 47 57
REMARK Flexibility Score: inf
ROOT
ATOM      1  C   UNL A   1      33.537  27.972  25.581  1.00  0.00     0.042 C 
ENDROOT
BRANCH   1   2
ATOM      2  C   UNL A   1      32.139  28.137  24.993  1.00  0.00     0.118 C 
BRANCH   2   3
ATOM      3  N   UNL A   1      31.151  27.427  25.774  1.00  0.00    -0.349 N 
ATOM      4  C   UNL A   1      30.741  26.122  25.740  1.00  0.00     0.287 C 
ATOM      5  O   UNL A   1      29.949  25.793  26.627  1.00  0.00    -0.266 OA
ATOM      6  H   UNL A   1      30.694  27.979  26.449  1.00  0.00     0.163 HD
BRANCH   4   7
ATOM      7  C   UNL A   1      31.223  25.185  24.744  1.00  0.00     0.193 A 
ATOM      8  C   UNL A   1      31.911  23.120  24.195  1.00  0.00     0.219 A 
ATOM      9  C   UNL A   1      31.898  23.884  23.035  1.00  0.00     0.064 A 
ATOM     10  O   UNL A   1      31.515  23.937  25.214  1.00  0.00    -0.440 OA
ATOM     11  C   UNL A   1      31.447  25.189  23.382  1.00  0.00     0.058 A 
BRANCH   8  12
ATOM     12  S   UNL A   1      32.354  21.419  24.515  1.00  0.00     0.214 S 
ATOM     13  O   UNL A   1      32.389  20.783  23.216  1.00  0.00    -0.220 OA
ATOM     14  O   UNL A   1      31.405  21.002  25.533  1.00  0.00    -0.220 OA
BRANCH  12  15
ATOM     15  C   UNL A   1      33.971  21.434  25.246  1.00  0.00     0.183 C 
BRANCH  15  16
ATOM     16  C   UNL A   1      35.150  21.547  24.278  1.00  0.00     0.188 C 
ATOM     17  C   UNL A   1      35.075  24.648  25.355  1.00  0.00     0.332 C 
ATOM     18  N   UNL A   1      36.022  23.945  24.504  1.00  0.00    -0.333 N 
ATOM     19  C   UNL A   1      37.178  23.392  25.212  1.00  0.00     0.290 C 
ATOM     20  C   UNL A   1      35.446  22.919  23.623  1.00  0.00     0.295 C 
ATOM     21  H   UNL A   1      36.345  24.702  23.903  1.00  0.00     0.348 HD
ATOM     22  C   UNL A   1      36.884  22.043  25.878  1.00  0.00     0.222 C 
ATOM     23  O   UNL A   1      36.355  21.082  24.951  1.00  0.00    -0.365 OA
ENDBRANCH  15  16
ENDBRANCH  12  15
ENDBRANCH   8  12
ENDBRANCH   4   7
ENDBRANCH   2   3
ENDBRANCH   1   2
BRANCH   1  24
ATOM     24  C   UNL A   1      33.601  28.225  27.088  1.00  0.00     0.118 C 
BRANCH  24  25
ATOM     25  N   UNL A   1      33.531  29.645  27.404  1.00  0.00    -0.352 N 
ATOM     26  C   UNL A   1      34.423  30.456  28.057  1.00  0.00     0.251 C 
ATOM     27  H   UNL A   1      32.709  30.095  27.101  1.00  0.00     0.163 HD
ATOM     28  O   UNL A   1      34.046  31.560  28.444  1.00  0.00    -0.269 OA
BRANCH  26  29
ATOM     29  C   UNL A   1      35.820  30.028  28.294  1.00  0.00     0.039 A 
ATOM     30  C   UNL A   1      36.185  29.612  29.579  1.00  0.00     0.014 A 
ATOM     31  C   UNL A   1      36.791  30.120  27.293  1.00  0.00     0.014 A 
ATOM     32  C   UNL A   1      37.510  29.262  29.850  1.00  0.00     0.010 A 
ATOM     33  C   UNL A   1      38.099  29.710  27.547  1.00  0.00     0.010 A 
ATOM     34  C   UNL A   1      38.477  29.297  28.834  1.00  0.00    -0.014 A 
BRANCH  34  35
ATOM     35  C   UNL A   1      39.893  28.948  29.111  1.00  0.00     0.031 A 
ATOM     36  C   UNL A   1      40.812  29.963  29.740  1.00  0.00     0.074 A 
ATOM     37  C   UNL A   1      40.367  27.736  28.761  1.00  0.00     0.049 A 
ATOM     38  N   UNL A   1      42.089  29.863  30.013  1.00  0.00    -0.248 NA
ATOM     39  C   UNL A   1      40.225  31.268  30.084  1.00  0.00     0.031 C 
ATOM     40  C   UNL A   1      39.589  26.676  28.114  1.00  0.00     0.029 A 
ATOM     41  N   UNL A   1      41.618  27.192  28.898  1.00  0.00    -0.354 N 
ATOM     42  C   UNL A   1      42.461  31.098  30.535  1.00  0.00     0.074 A 
ATOM     43  C   UNL A   1      41.286  31.940  30.505  1.00  0.00     0.031 C 
ATOM     44  C   UNL A   1      40.376  25.603  27.931  1.00  0.00     0.029 A 
ATOM     45  C   UNL A   1      41.718  25.907  28.420  1.00  0.00     0.049 A 
ATOM     46  H   UNL A   1      42.376  27.677  29.300  1.00  0.00     0.167 HD
ATOM     47  C   UNL A   1      43.667  31.490  31.014  1.00  0.00     0.031 A 
ATOM     48  C   UNL A   1      42.769  25.066  28.383  1.00  0.00     0.031 A 
ATOM     49  C   UNL A   1      44.829  30.643  31.067  1.00  0.00     0.049 A 
ATOM     50  C   UNL A   1      44.086  25.509  28.956  1.00  0.00     0.074 A 
ATOM     51  C   UNL A   1      46.085  30.934  31.572  1.00  0.00     0.029 A 
ATOM     52  N   UNL A   1      44.874  29.334  30.612  1.00  0.00    -0.354 N 
ATOM     53  N   UNL A   1      44.408  26.667  29.481  1.00  0.00    -0.248 NA
ATOM     54  C   UNL A   1      45.176  24.524  28.947  1.00  0.00     0.031 C 
ATOM     55  C   UNL A   1      46.897  29.808  31.397  1.00  0.00     0.029 A 
ATOM     56  C   UNL A   1      46.134  28.803  30.822  1.00  0.00     0.049 A 
ATOM     57  H   UNL A   1      44.119  28.854  30.200  1.00  0.00     0.167 HD
ATOM     58  C   UNL A   1      45.728  26.540  29.894  1.00  0.00     0.074 A 
ATOM     59  C   UNL A   1      46.142  25.191  29.566  1.00  0.00     0.031 C 
ATOM     60  C   UNL A   1      46.526  27.456  30.496  1.00  0.00     0.031 A 
BRANCH  47  61
ATOM     61  C   UNL A   1      43.785  32.905  31.514  1.00  0.00    -0.014 A 
ATOM     62  C   UNL A   1      44.111  33.958  30.638  1.00  0.00     0.010 A 
ATOM     63  C   UNL A   1      43.549  33.191  32.870  1.00  0.00     0.010 A 
ATOM     64  C   UNL A   1      44.243  35.262  31.119  1.00  0.00     0.020 A 
ATOM     65  C   UNL A   1      43.656  34.500  33.350  1.00  0.00     0.020 A 
ATOM     66  C   UNL A   1      44.024  35.525  32.474  1.00  0.00     0.054 A 
BRANCH  66  67
ATOM     67  S   UNL A   1      44.195  37.228  33.074  1.00  0.00     0.124 S 
ATOM     68  O   UNL A   1      42.952  37.409  33.819  1.00  0.00    -0.237 OA
ATOM     69  O   UNL A   1      45.409  37.165  33.885  1.00  0.00    -0.237 OA
ATOM     70  O   UNL A   1      44.310  38.015  31.849  1.00  0.00    -0.744 OA
ENDBRANCH  66  67
ENDBRANCH  47  61
BRANCH  48  71
ATOM     71  C   UNL A   1      42.605  23.701  27.815  1.00  0.00    -0.014 A 
ATOM     72  C   UNL A   1      42.190  22.636  28.633  1.00  0.00     0.010 A 
ATOM     73  C   UNL A   1      42.843  23.464  26.449  1.00  0.00     0.010 A 
ATOM     74  C   UNL A   1      42.033  21.354  28.100  1.00  0.00     0.020 A 
ATOM     75  C   UNL A   1      42.665  22.189  25.909  1.00  0.00     0.020 A 
ATOM     76  C   UNL A   1      42.272  21.138  26.740  1.00  0.00     0.054 A 
BRANCH  76  77
ATOM     77  S   UNL A   1      42.007  19.479  26.054  1.00  0.00     0.124 S 
ATOM     78  O   UNL A   1      42.469  18.625  27.143  1.00  0.00    -0.237 OA
ATOM     79  O   UNL A   1      40.568  19.465  25.802  1.00  0.00    -0.237 OA
ATOM     80  O   UNL A   1      42.841  19.472  24.853  1.00  0.00    -0.744 OA
ENDBRANCH  76  77
ENDBRANCH  48  71
BRANCH  60  81
ATOM     81  C   UNL A   1      47.911  27.016  30.880  1.00  0.00    -0.014 A 
ATOM     82  C   UNL A   1      48.157  26.362  32.100  1.00  0.00     0.010 A 
ATOM     83  C   UNL A   1      48.977  27.230  29.987  1.00  0.00     0.010 A 
ATOM     84  C   UNL A   1      49.454  25.965  32.437  1.00  0.00     0.020 A 
ATOM     85  C   UNL A   1      50.270  26.814  30.311  1.00  0.00     0.020 A 
ATOM     86  C   UNL A   1      50.503  26.199  31.543  1.00  0.00     0.054 A 
BRANCH  86  87
ATOM     87  S   UNL A   1      52.174  25.651  31.986  1.00  0.00     0.124 S 
ATOM     88  O   UNL A   1      52.931  25.986  30.783  1.00  0.00    -0.237 OA
ATOM     89  O   UNL A   1      52.479  26.459  33.165  1.00  0.00    -0.237 OA
ATOM     90  O   UNL A   1      52.011  24.222  32.245  1.00  0.00    -0.744 OA
ENDBRANCH  86  87
ENDBRANCH  60  81
ENDBRANCH  34  35
ENDBRANCH  26  29
ENDBRANCH  24  25
ENDBRANCH   1  24
TORSDOF 16
ENDMDL
MODEL 3
REMARK VINA RESULT:     -10.4      6.551     12.485
REMARK SMILES C[N@H+]1CCO[C@@H](CS(=O)(=O)c2ccc(C(=O)NCCCNC(=O)c3ccc(-c4c5nc(c(-c6ccc(S(=O)(=O)[O-])cc6)c6ccc([nH]6)c(-c6ccc(S(=O)(=O)[O-])cc6)c6nc(c(-c7ccc(S(=O)(=O)[O-])cc7)c7ccc4[nH]7)C=C6)C=C5)cc3)o2)C1
REMARK SMILES IDX 19 1 18 2 17 3 15 4 16 5 14 7 11 8 12 9 84 10 13 11 8 12
REMARK SMILES IDX 9 13 10 14 7 15 6 16 1 17 2 18 3 19 85 20 4 22 5 23 20 24
REMARK SMILES IDX 21 25 22 26 23 28 24 29 25 30 83 31 26 32 82 33 27 34 28 35
REMARK SMILES IDX 29 36 76 37 30 38 81 39 75 40 77 41 31 42 80 43 74 44 73 45
REMARK SMILES IDX 32 47 62 48 43 49 61 50 44 51 47 52 60 53 78 54 45 55 46 56
REMARK SMILES IDX 59 58 79 59 48 60 33 61 34 62 42 63 35 64 41 65 36 66 37 67
REMARK SMILES IDX 38 68 39 69 40 70 63 71 64 72 72 73 65 74 71 75 66 76 67 77
REMARK SMILES IDX 68 78 69 79 70 80 49 81 50 82 58 83 51 84 57 85 52 86 53 87
REMARK SMILES IDX 54 88 55 89 56 90
REMARK H PARENT 17 6 2 21 21 27 77 46 47 57
REMARK Flexibility Score: inf
ROOT
ATOM      1  C   UNL A   1      44.389  23.057  27.086  1.00  0.00     0.042 C 
ENDROOT
BRANCH   1   2
ATOM      2  C   UNL A   1      43.467  22.235  26.191  1.00  0.00     0.118 C 
BRANCH   2   3
ATOM      3  N   UNL A   1      42.925  21.096  26.898  1.00  0.00    -0.349 N 
ATOM      4  C   UNL A   1      41.634  20.729  27.164  1.00  0.00     0.287 C 
ATOM      5  O   UNL A   1      41.497  19.626  27.697  1.00  0.00    -0.266 OA
ATOM      6  H   UNL A   1      43.604  20.476  27.248  1.00  0.00     0.163 HD
BRANCH   4   7
ATOM      7  C   UNL A   1      40.504  21.570  26.820  1.00  0.00     0.193 A 
ATOM      8  C   UNL A   1      38.497  21.821  25.846  1.00  0.00     0.219 A 
ATOM      9  C   UNL A   1      38.829  23.027  26.447  1.00  0.00     0.064 A 
ATOM     10  O   UNL A   1      39.535  20.965  26.074  1.00  0.00    -0.440 OA
ATOM     11  C   UNL A   1      40.095  22.863  27.078  1.00  0.00     0.058 A 
BRANCH   8  12
ATOM     12  S   UNL A   1      37.079  21.295  24.895  1.00  0.00     0.214 S 
ATOM     13  O   UNL A   1      37.319  19.901  24.590  1.00  0.00    -0.220 OA
ATOM     14  O   UNL A   1      36.982  22.291  23.841  1.00  0.00    -0.220 OA
BRANCH  12  15
ATOM     15  C   UNL A   1      35.659  21.468  25.945  1.00  0.00     0.183 C 
BRANCH  15  16
ATOM     16  C   UNL A   1      34.917  22.804  25.867  1.00  0.00     0.188 C 
ATOM     17  C   UNL A   1      32.451  20.803  25.036  1.00  0.00     0.332 C 
ATOM     18  N   UNL A   1      32.484  22.230  25.313  1.00  0.00    -0.333 N 
ATOM     19  C   UNL A   1      32.151  22.587  26.694  1.00  0.00     0.290 C 
ATOM     20  C   UNL A   1      33.711  22.929  24.905  1.00  0.00     0.295 C 
ATOM     21  H   UNL A   1      31.737  22.564  24.706  1.00  0.00     0.348 HD
ATOM     22  C   UNL A   1      33.339  22.445  27.653  1.00  0.00     0.222 C 
ATOM     23  O   UNL A   1      34.489  23.180  27.206  1.00  0.00    -0.365 OA
ENDBRANCH  15  16
ENDBRANCH  12  15
ENDBRANCH   8  12
ENDBRANCH   4   7
ENDBRANCH   2   3
ENDBRANCH   1   2
BRANCH   1  24
ATOM     24  C   UNL A   1      43.998  24.534  27.174  1.00  0.00     0.118 C 
BRANCH  24  25
ATOM     25  N   UNL A   1      43.152  24.941  26.062  1.00  0.00    -0.352 N 
ATOM     26  C   UNL A   1      42.059  25.768  26.033  1.00  0.00     0.251 C 
ATOM     27  H   UNL A   1      43.405  24.560  25.190  1.00  0.00     0.163 HD
ATOM     28  O   UNL A   1      41.339  25.764  25.036  1.00  0.00    -0.269 OA
BRANCH  26  29
ATOM     29  C   UNL A   1      41.739  26.660  27.171  1.00  0.00     0.039 A 
ATOM     30  C   UNL A   1      42.408  27.884  27.273  1.00  0.00     0.014 A 
ATOM     31  C   UNL A   1      40.859  26.264  28.182  1.00  0.00     0.014 A 
ATOM     32  C   UNL A   1      42.175  28.719  28.368  1.00  0.00     0.010 A 
ATOM     33  C   UNL A   1      40.578  27.126  29.241  1.00  0.00     0.010 A 
ATOM     34  C   UNL A   1      41.249  28.353  29.356  1.00  0.00    -0.014 A 
BRANCH  34  35
ATOM     35  C   UNL A   1      41.005  29.220  30.536  1.00  0.00     0.031 A 
ATOM     36  C   UNL A   1      41.856  29.073  31.771  1.00  0.00     0.074 A 
ATOM     37  C   UNL A   1      39.994  30.111  30.517  1.00  0.00     0.049 A 
ATOM     38  N   UNL A   1      41.765  29.701  32.916  1.00  0.00    -0.248 NA
ATOM     39  C   UNL A   1      42.933  28.070  31.720  1.00  0.00     0.031 C 
ATOM     40  C   UNL A   1      39.076  30.328  29.396  1.00  0.00     0.029 A 
ATOM     41  N   UNL A   1      39.569  31.000  31.471  1.00  0.00    -0.354 N 
ATOM     42  C   UNL A   1      42.753  29.153  33.727  1.00  0.00     0.074 A 
ATOM     43  C   UNL A   1      43.405  28.117  32.957  1.00  0.00     0.031 C 
ATOM     44  C   UNL A   1      38.210  31.302  29.720  1.00  0.00     0.029 A 
ATOM     45  C   UNL A   1      38.492  31.759  31.078  1.00  0.00     0.049 A 
ATOM     46  H   UNL A   1      39.993  31.085  32.356  1.00  0.00     0.167 HD
ATOM     47  C   UNL A   1      43.100  29.493  34.993  1.00  0.00     0.031 A 
ATOM     48  C   UNL A   1      37.811  32.718  31.734  1.00  0.00     0.031 A 
ATOM     49  C   UNL A   1      42.469  30.541  35.749  1.00  0.00     0.049 A 
ATOM     50  C   UNL A   1      38.239  33.106  33.122  1.00  0.00     0.074 A 
ATOM     51  C   UNL A   1      42.775  30.990  37.023  1.00  0.00     0.029 A 
ATOM     52  N   UNL A   1      41.410  31.314  35.297  1.00  0.00    -0.354 N 
ATOM     53  N   UNL A   1      39.202  32.602  33.858  1.00  0.00    -0.248 NA
ATOM     54  C   UNL A   1      37.500  34.204  33.760  1.00  0.00     0.031 C 
ATOM     55  C   UNL A   1      41.883  32.017  37.350  1.00  0.00     0.029 A 
ATOM     56  C   UNL A   1      41.050  32.236  36.264  1.00  0.00     0.049 A 
ATOM     57  H   UNL A   1      40.979  31.221  34.416  1.00  0.00     0.167 HD
ATOM     58  C   UNL A   1      39.204  33.344  35.033  1.00  0.00     0.074 A 
ATOM     59  C   UNL A   1      38.154  34.334  34.907  1.00  0.00     0.031 C 
ATOM     60  C   UNL A   1      40.007  33.218  36.118  1.00  0.00     0.031 A 
BRANCH  47  61
ATOM     61  C   UNL A   1      44.216  28.714  35.637  1.00  0.00    -0.014 A 
ATOM     62  C   UNL A   1      43.961  27.500  36.303  1.00  0.00     0.010 A 
ATOM     63  C   UNL A   1      45.537  29.187  35.559  1.00  0.00     0.010 A 
ATOM     64  C   UNL A   1      45.000  26.800  36.919  1.00  0.00     0.020 A 
ATOM     65  C   UNL A   1      46.584  28.475  36.153  1.00  0.00     0.020 A 
ATOM     66  C   UNL A   1      46.305  27.296  36.848  1.00  0.00     0.054 A 
BRANCH  66  67
ATOM     67  S   UNL A   1      47.640  26.365  37.651  1.00  0.00     0.124 S 
ATOM     68  O   UNL A   1      48.618  26.255  36.572  1.00  0.00    -0.237 OA
ATOM     69  O   UNL A   1      48.023  27.238  38.758  1.00  0.00    -0.237 OA
ATOM     70  O   UNL A   1      46.999  25.113  38.043  1.00  0.00    -0.744 OA
ENDBRANCH  66  67
ENDBRANCH  47  61
BRANCH  48  71
ATOM     71  C   UNL A   1      36.674  33.406  31.066  1.00  0.00    -0.014 A 
ATOM     72  C   UNL A   1      36.834  33.963  29.785  1.00  0.00     0.010 A 
ATOM     73  C   UNL A   1      35.421  33.492  31.700  1.00  0.00     0.010 A 
ATOM     74  C   UNL A   1      35.765  34.608  29.156  1.00  0.00     0.020 A 
ATOM     75  C   UNL A   1      34.346  34.116  31.065  1.00  0.00     0.020 A 
ATOM     76  C   UNL A   1      34.527  34.680  29.801  1.00  0.00     0.054 A 
BRANCH  76  77
ATOM     77  S   UNL A   1      33.136  35.470  28.943  1.00  0.00     0.124 S 
ATOM     78  O   UNL A   1      32.563  34.351  28.202  1.00  0.00    -0.237 OA
ATOM     79  O   UNL A   1      32.329  35.980  30.048  1.00  0.00    -0.237 OA
ATOM     80  O   UNL A   1      33.782  36.498  28.128  1.00  0.00    -0.744 OA
ENDBRANCH  76  77
ENDBRANCH  48  71
BRANCH  60  81
ATOM     81  C   UNL A   1      39.812  34.205  37.236  1.00  0.00    -0.014 A 
ATOM     82  C   UNL A   1      38.994  33.907  38.339  1.00  0.00     0.010 A 
ATOM     83  C   UNL A   1      40.488  35.438  37.193  1.00  0.00     0.010 A 
ATOM     84  C   UNL A   1      38.825  34.841  39.364  1.00  0.00     0.020 A 
ATOM     85  C   UNL A   1      40.339  36.366  38.227  1.00  0.00     0.020 A 
ATOM     86  C   UNL A   1      39.494  36.068  39.298  1.00  0.00     0.054 A 
BRANCH  86  87
ATOM     87  S   UNL A   1      39.284  37.257  40.652  1.00  0.00     0.124 S 
ATOM     88  O   UNL A   1      40.637  37.783  40.805  1.00  0.00    -0.237 OA
ATOM     89  O   UNL A   1      38.303  38.195  40.110  1.00  0.00    -0.237 OA
ATOM     90  O   UNL A   1      38.803  36.436  41.761  1.00  0.00    -0.744 OA
ENDBRANCH  86  87
ENDBRANCH  60  81
ENDBRANCH  34  35
ENDBRANCH  26  29
ENDBRANCH  24  25
ENDBRANCH   1  24
TORSDOF 16
ENDMDL
