MODEL 1
REMARK VINA RESULT:     -11.3      0.000      0.000
REMARK SMILES CC(=O)N[C@@H](Cc1c(OCC(C)C)ccc2ccccc12)C(=O)NCCCNC(=O)c1ccc(-c2c3nc(c(-c4ccc(S(=O)(=O)[O-])cc4)c4ccc([nH]4)c(-c4ccc(S(=O)(=O)[O-])cc4)c4nc(c(-c5ccc(S(=O)(=O)[O-])cc5)c5ccc2[nH]5)C=C4)C=C3)cc1
REMARK SMILES IDX 25 1 24 2 22 3 23 4 5 6 4 7 1 8 2 9 3 10 6 12 7 13 8 14
REMARK SMILES IDX 21 15 14 16 16 17 20 18 15 19 17 20 19 21 18 22 9 23 10 24
REMARK SMILES IDX 11 25 12 26 13 27 26 28 27 29 28 30 29 31 30 33 31 34 32 35
REMARK SMILES IDX 90 36 33 37 89 38 34 39 35 40 36 41 83 42 37 43 88 44 82 45
REMARK SMILES IDX 84 46 38 47 87 48 81 49 80 50 39 52 69 53 50 54 68 55 51 56
REMARK SMILES IDX 54 57 67 58 85 59 52 60 53 61 66 63 86 64 55 65 40 66 41 67
REMARK SMILES IDX 49 68 42 69 48 70 43 71 44 72 45 73 46 74 47 75 70 76 71 77
REMARK SMILES IDX 79 78 72 79 78 80 73 81 74 82 75 83 76 84 77 85 56 86 57 87
REMARK SMILES IDX 65 88 58 89 64 90 59 91 60 92 61 93 62 94 63 95
REMARK H PARENT 24 5 4 11 28 32 84 51 54 62
REMARK Flexibility Score: inf
ROOT
ATOM      1  C   UNL A   1      34.902  22.329  24.688  1.00  0.00     0.117 C 
ENDROOT
BRANCH   1   2
ATOM      2  N   UNL A   1      34.875  22.524  26.113  1.00  0.00    -0.354 N 
ATOM      3  C   UNL A   1      33.858  23.115  26.820  1.00  0.00     0.242 C 
ATOM      4  O   UNL A   1      33.723  22.786  28.004  1.00  0.00    -0.273 OA
ATOM      5  H   UNL A   1      35.653  22.207  26.626  1.00  0.00     0.163 HD
BRANCH   3   6
ATOM      6  C   UNL A   1      32.888  24.149  26.177  1.00  0.00     0.175 C 
BRANCH   6   7
ATOM      7  N   UNL A   1      31.604  24.173  26.891  1.00  0.00    -0.344 N 
ATOM      8  C   UNL A   1      30.572  22.226  25.783  1.00  0.00     0.114 C 
ATOM      9  C   UNL A   1      30.548  23.321  26.810  1.00  0.00     0.217 C 
ATOM     10  O   UNL A   1      29.592  23.474  27.567  1.00  0.00    -0.275 OA
ATOM     11  H   UNL A   1      31.491  24.920  27.525  1.00  0.00     0.164 HD
ENDBRANCH   6   7
BRANCH   6  12
ATOM     12  C   UNL A   1      33.459  25.556  25.800  1.00  0.00     0.075 C 
BRANCH  12  13
ATOM     13  C   UNL A   1      32.500  26.725  25.554  1.00  0.00     0.005 A 
ATOM     14  C   UNL A   1      31.438  26.569  24.626  1.00  0.00     0.123 A 
ATOM     15  C   UNL A   1      32.736  28.016  26.137  1.00  0.00    -0.011 A 
ATOM     16  C   UNL A   1      30.788  27.700  24.130  1.00  0.00     0.047 A 
ATOM     17  C   UNL A   1      32.044  29.140  25.614  1.00  0.00    -0.018 A 
ATOM     18  C   UNL A   1      33.675  28.275  27.164  1.00  0.00     0.009 A 
ATOM     19  C   UNL A   1      31.097  28.970  24.606  1.00  0.00     0.012 A 
ATOM     20  C   UNL A   1      32.341  30.438  26.055  1.00  0.00     0.009 A 
ATOM     21  C   UNL A   1      33.976  29.573  27.585  1.00  0.00     0.001 A 
ATOM     22  C   UNL A   1      33.315  30.656  27.023  1.00  0.00     0.001 A 
BRANCH  14  23
ATOM     23  O   UNL A   1      31.109  25.288  24.271  1.00  0.00    -0.493 OA
BRANCH  23  24
ATOM     24  C   UNL A   1      31.178  24.876  22.902  1.00  0.00     0.232 C 
BRANCH  24  25
ATOM     25  C   UNL A   1      32.604  24.888  22.304  1.00  0.00     0.020 C 
ATOM     26  C   UNL A   1      33.116  23.528  21.827  1.00  0.00     0.011 C 
ATOM     27  C   UNL A   1      32.654  25.867  21.127  1.00  0.00     0.011 C 
ENDBRANCH  24  25
ENDBRANCH  23  24
ENDBRANCH  14  23
ENDBRANCH  12  13
ENDBRANCH   6  12
ENDBRANCH   3   6
ENDBRANCH   1   2
BRANCH   1  28
ATOM     28  C   UNL A   1      36.228  22.493  23.985  1.00  0.00     0.042 C 
BRANCH  28  29
ATOM     29  C   UNL A   1      37.255  23.271  24.786  1.00  0.00     0.118 C 
BRANCH  29  30
ATOM     30  N   UNL A   1      38.289  22.432  25.397  1.00  0.00    -0.352 N 
ATOM     31  C   UNL A   1      39.347  22.720  26.231  1.00  0.00     0.251 C 
ATOM     32  H   UNL A   1      38.215  21.478  25.166  1.00  0.00     0.163 HD
ATOM     33  O   UNL A   1      40.160  21.838  26.483  1.00  0.00    -0.269 OA
BRANCH  31  34
ATOM     34  C   UNL A   1      39.530  24.080  26.788  1.00  0.00     0.039 A 
ATOM     35  C   UNL A   1      39.058  24.364  28.075  1.00  0.00     0.014 A 
ATOM     36  C   UNL A   1      40.170  25.078  26.061  1.00  0.00     0.014 A 
ATOM     37  C   UNL A   1      39.336  25.603  28.661  1.00  0.00     0.010 A 
ATOM     38  C   UNL A   1      40.571  26.247  26.691  1.00  0.00     0.010 A 
ATOM     39  C   UNL A   1      40.152  26.531  27.997  1.00  0.00    -0.014 A 
BRANCH  39  40
ATOM     40  C   UNL A   1      40.582  27.809  28.622  1.00  0.00     0.031 A 
ATOM     41  C   UNL A   1      41.976  27.939  29.183  1.00  0.00     0.074 A 
ATOM     42  C   UNL A   1      39.693  28.808  28.789  1.00  0.00     0.049 A 
ATOM     43  N   UNL A   1      42.495  28.908  29.892  1.00  0.00    -0.248 NA
ATOM     44  C   UNL A   1      42.890  26.807  28.958  1.00  0.00     0.031 C 
ATOM     45  C   UNL A   1      38.296  28.791  28.347  1.00  0.00     0.029 A 
ATOM     46  N   UNL A   1      39.833  30.037  29.387  1.00  0.00    -0.354 N 
ATOM     47  C   UNL A   1      43.774  28.481  30.234  1.00  0.00     0.074 A 
ATOM     48  C   UNL A   1      43.928  27.143  29.708  1.00  0.00     0.031 C 
ATOM     49  C   UNL A   1      37.724  29.967  28.644  1.00  0.00     0.029 A 
ATOM     50  C   UNL A   1      38.693  30.804  29.344  1.00  0.00     0.049 A 
ATOM     51  H   UNL A   1      40.670  30.339  29.806  1.00  0.00     0.167 HD
ATOM     52  C   UNL A   1      44.746  29.148  30.902  1.00  0.00     0.031 A 
ATOM     53  C   UNL A   1      38.452  32.042  29.815  1.00  0.00     0.031 A 
ATOM     54  C   UNL A   1      44.604  30.493  31.387  1.00  0.00     0.049 A 
ATOM     55  C   UNL A   1      39.551  32.780  30.526  1.00  0.00     0.074 A 
ATOM     56  C   UNL A   1      45.548  31.289  32.010  1.00  0.00     0.029 A 
ATOM     57  N   UNL A   1      43.442  31.246  31.293  1.00  0.00    -0.354 N 
ATOM     58  N   UNL A   1      40.772  32.380  30.793  1.00  0.00    -0.248 NA
ATOM     59  C   UNL A   1      39.243  34.139  30.991  1.00  0.00     0.031 C 
ATOM     60  C   UNL A   1      44.946  32.513  32.325  1.00  0.00     0.029 A 
ATOM     61  C   UNL A   1      43.641  32.494  31.857  1.00  0.00     0.049 A 
ATOM     62  H   UNL A   1      42.600  30.937  30.886  1.00  0.00     0.167 HD
ATOM     63  C   UNL A   1      41.387  33.448  31.437  1.00  0.00     0.074 A 
ATOM     64  C   UNL A   1      40.406  34.513  31.509  1.00  0.00     0.031 C 
ATOM     65  C   UNL A   1      42.650  33.539  31.921  1.00  0.00     0.031 A 
BRANCH  52  66
ATOM     66  C   UNL A   1      46.041  28.415  31.139  1.00  0.00    -0.014 A 
ATOM     67  C   UNL A   1      46.269  27.712  32.337  1.00  0.00     0.010 A 
ATOM     68  C   UNL A   1      47.053  28.448  30.164  1.00  0.00     0.010 A 
ATOM     69  C   UNL A   1      47.510  27.121  32.587  1.00  0.00     0.020 A 
ATOM     70  C   UNL A   1      48.285  27.829  30.395  1.00  0.00     0.020 A 
ATOM     71  C   UNL A   1      48.516  27.196  31.619  1.00  0.00     0.054 A 
BRANCH  71  72
ATOM     72  S   UNL A   1      50.129  26.448  31.979  1.00  0.00     0.124 S 
ATOM     73  O   UNL A   1      49.808  25.023  31.955  1.00  0.00    -0.237 OA
ATOM     74  O   UNL A   1      50.959  26.923  30.874  1.00  0.00    -0.237 OA
ATOM     75  O   UNL A   1      50.475  26.987  33.291  1.00  0.00    -0.744 OA
ENDBRANCH  71  72
ENDBRANCH  52  66
BRANCH  53  76
ATOM     76  C   UNL A   1      37.128  32.676  29.578  1.00  0.00    -0.014 A 
ATOM     77  C   UNL A   1      36.264  32.919  30.660  1.00  0.00     0.010 A 
ATOM     78  C   UNL A   1      36.743  33.088  28.289  1.00  0.00     0.010 A 
ATOM     79  C   UNL A   1      35.039  33.561  30.460  1.00  0.00     0.020 A 
ATOM     80  C   UNL A   1      35.529  33.750  28.088  1.00  0.00     0.020 A 
ATOM     81  C   UNL A   1      34.681  33.979  29.175  1.00  0.00     0.054 A 
BRANCH  81  82
ATOM     82  S   UNL A   1      33.124  34.885  28.955  1.00  0.00     0.124 S 
ATOM     83  O   UNL A   1      32.549  34.830  30.295  1.00  0.00    -0.237 OA
ATOM     84  O   UNL A   1      33.584  36.200  28.515  1.00  0.00    -0.237 OA
ATOM     85  O   UNL A   1      32.419  34.108  27.937  1.00  0.00    -0.744 OA
ENDBRANCH  81  82
ENDBRANCH  53  76
BRANCH  65  86
ATOM     86  C   UNL A   1      43.056  34.845  32.545  1.00  0.00    -0.014 A 
ATOM     87  C   UNL A   1      43.469  35.932  31.754  1.00  0.00     0.010 A 
ATOM     88  C   UNL A   1      42.965  35.004  33.939  1.00  0.00     0.010 A 
ATOM     89  C   UNL A   1      43.810  37.147  32.351  1.00  0.00     0.020 A 
ATOM     90  C   UNL A   1      43.282  36.225  34.538  1.00  0.00     0.020 A 
ATOM     91  C   UNL A   1      43.715  37.286  33.739  1.00  0.00     0.054 A 
BRANCH  91  92
ATOM     92  S   UNL A   1      44.115  38.889  34.488  1.00  0.00     0.124 S 
ATOM     93  O   UNL A   1      43.921  38.617  35.910  1.00  0.00    -0.237 OA
ATOM     94  O   UNL A   1      45.498  39.102  34.071  1.00  0.00    -0.237 OA
ATOM     95  O   UNL A   1      43.144  39.802  33.890  1.00  0.00    -0.744 OA
ENDBRANCH  91  92
ENDBRANCH  65  86
ENDBRANCH  39  40
ENDBRANCH  31  34
ENDBRANCH  29  30
ENDBRANCH  28  29
ENDBRANCH   1  28
TORSDOF 19
ENDMDL
MODEL 2
REMARK VINA RESULT:     -10.8      1.378      2.999
REMARK SMILES CC(=O)N[C@@H](Cc1c(OCC(C)C)ccc2ccccc12)C(=O)NCCCNC(=O)c1ccc(-c2c3nc(c(-c4ccc(S(=O)(=O)[O-])cc4)c4ccc([nH]4)c(-c4ccc(S(=O)(=O)[O-])cc4)c4nc(c(-c5ccc(S(=O)(=O)[O-])cc5)c5ccc2[nH]5)C=C4)C=C3)cc1
REMARK SMILES IDX 25 1 24 2 22 3 23 4 5 6 4 7 1 8 2 9 3 10 6 12 7 13 8 14
REMARK SMILES IDX 21 15 14 16 16 17 20 18 15 19 17 20 19 21 18 22 9 23 10 24
REMARK SMILES IDX 11 25 12 26 13 27 26 28 27 29 28 30 29 31 30 33 31 34 32 35
REMARK SMILES IDX 90 36 33 37 89 38 34 39 35 40 36 41 83 42 37 43 88 44 82 45
REMARK SMILES IDX 84 46 38 47 87 48 81 49 80 50 39 52 69 53 50 54 68 55 51 56
REMARK SMILES IDX 54 57 67 58 85 59 52 60 53 61 66 63 86 64 55 65 40 66 41 67
REMARK SMILES IDX 49 68 42 69 48 70 43 71 44 72 45 73 46 74 47 75 70 76 71 77
REMARK SMILES IDX 79 78 72 79 78 80 73 81 74 82 75 83 76 84 77 85 56 86 57 87
REMARK SMILES IDX 65 88 58 89 64 90 59 91 60 92 61 93 62 94 63 95
REMARK H PARENT 24 5 4 11 28 32 84 51 54 62
REMARK Flexibility Score: inf
ROOT
ATOM      1  C   UNL A   1      33.893  24.977  25.866  1.00  0.00     0.117 C 
ENDROOT
BRANCH   1   2
ATOM      2  N   UNL A   1      32.512  24.606  26.017  1.00  0.00    -0.354 N 
ATOM      3  C   UNL A   1      31.491  24.957  25.169  1.00  0.00     0.242 C 
ATOM      4  O   UNL A   1      30.510  24.206  25.120  1.00  0.00    -0.273 OA
ATOM      5  H   UNL A   1      32.277  24.052  26.797  1.00  0.00     0.163 HD
BRANCH   3   6
ATOM      6  C   UNL A   1      31.549  26.235  24.283  1.00  0.00     0.175 C 
BRANCH   6   7
ATOM      7  N   UNL A   1      32.102  25.924  22.957  1.00  0.00    -0.344 N 
ATOM      8  C   UNL A   1      33.765  27.743  22.857  1.00  0.00     0.114 C 
ATOM      9  C   UNL A   1      33.124  26.514  22.281  1.00  0.00     0.217 C 
ATOM     10  O   UNL A   1      33.488  26.039  21.208  1.00  0.00    -0.275 OA
ATOM     11  H   UNL A   1      31.667  25.175  22.486  1.00  0.00     0.164 HD
ENDBRANCH   6   7
BRANCH   6  12
ATOM     12  C   UNL A   1      30.301  27.178  24.271  1.00  0.00     0.075 C 
BRANCH  12  13
ATOM     13  C   UNL A   1      30.493  28.695  24.362  1.00  0.00     0.005 A 
ATOM     14  C   UNL A   1      31.343  29.229  25.365  1.00  0.00     0.123 A 
ATOM     15  C   UNL A   1      29.725  29.592  23.544  1.00  0.00    -0.011 A 
ATOM     16  C   UNL A   1      31.256  30.584  25.688  1.00  0.00     0.047 A 
ATOM     17  C   UNL A   1      29.673  30.966  23.898  1.00  0.00    -0.018 A 
ATOM     18  C   UNL A   1      28.943  29.197  22.433  1.00  0.00     0.009 A 
ATOM     19  C   UNL A   1      30.421  31.438  24.975  1.00  0.00     0.012 A 
ATOM     20  C   UNL A   1      28.829  31.854  23.215  1.00  0.00     0.009 A 
ATOM     21  C   UNL A   1      28.093  30.086  21.769  1.00  0.00     0.001 A 
ATOM     22  C   UNL A   1      28.029  31.414  22.167  1.00  0.00     0.001 A 
BRANCH  14  23
ATOM     23  O   UNL A   1      32.217  28.362  25.961  1.00  0.00    -0.493 OA
BRANCH  23  24
ATOM     24  C   UNL A   1      32.637  28.574  27.313  1.00  0.00     0.232 C 
BRANCH  24  25
ATOM     25  C   UNL A   1      34.114  29.007  27.462  1.00  0.00     0.020 C 
ATOM     26  C   UNL A   1      35.016  28.642  26.281  1.00  0.00     0.011 C 
ATOM     27  C   UNL A   1      34.181  30.522  27.677  1.00  0.00     0.011 C 
ENDBRANCH  24  25
ENDBRANCH  23  24
ENDBRANCH  14  23
ENDBRANCH  12  13
ENDBRANCH   6  12
ENDBRANCH   3   6
ENDBRANCH   1   2
BRANCH   1  28
ATOM     28  C   UNL A   1      34.837  23.945  25.296  1.00  0.00     0.042 C 
BRANCH  28  29
ATOM     29  C   UNL A   1      36.302  24.309  25.440  1.00  0.00     0.118 C 
BRANCH  29  30
ATOM     30  N   UNL A   1      37.191  23.151  25.565  1.00  0.00    -0.352 N 
ATOM     31  C   UNL A   1      38.468  23.008  26.061  1.00  0.00     0.251 C 
ATOM     32  H   UNL A   1      36.801  22.312  25.229  1.00  0.00     0.163 HD
ATOM     33  O   UNL A   1      39.046  21.937  25.911  1.00  0.00    -0.269 OA
BRANCH  31  34
ATOM     34  C   UNL A   1      39.156  24.136  26.730  1.00  0.00     0.039 A 
ATOM     35  C   UNL A   1      39.960  24.996  25.972  1.00  0.00     0.014 A 
ATOM     36  C   UNL A   1      39.011  24.363  28.095  1.00  0.00     0.014 A 
ATOM     37  C   UNL A   1      40.512  26.136  26.566  1.00  0.00     0.010 A 
ATOM     38  C   UNL A   1      39.434  25.564  28.647  1.00  0.00     0.010 A 
ATOM     39  C   UNL A   1      40.198  26.464  27.893  1.00  0.00    -0.014 A 
BRANCH  39  40
ATOM     40  C   UNL A   1      40.653  27.725  28.534  1.00  0.00     0.031 A 
ATOM     41  C   UNL A   1      42.055  27.827  29.080  1.00  0.00     0.074 A 
ATOM     42  C   UNL A   1      39.780  28.733  28.728  1.00  0.00     0.049 A 
ATOM     43  N   UNL A   1      42.596  28.777  29.798  1.00  0.00    -0.248 NA
ATOM     44  C   UNL A   1      42.951  26.686  28.825  1.00  0.00     0.031 C 
ATOM     45  C   UNL A   1      38.378  28.742  28.303  1.00  0.00     0.029 A 
ATOM     46  N   UNL A   1      39.944  29.950  29.345  1.00  0.00    -0.354 N 
ATOM     47  C   UNL A   1      43.873  28.327  30.118  1.00  0.00     0.074 A 
ATOM     48  C   UNL A   1      44.002  26.996  29.568  1.00  0.00     0.031 C 
ATOM     49  C   UNL A   1      37.825  29.921  28.626  1.00  0.00     0.029 A 
ATOM     50  C   UNL A   1      38.814  30.733  29.328  1.00  0.00     0.049 A 
ATOM     51  H   UNL A   1      40.790  30.234  29.758  1.00  0.00     0.167 HD
ATOM     52  C   UNL A   1      44.861  28.970  30.785  1.00  0.00     0.031 A 
ATOM     53  C   UNL A   1      38.596  31.966  29.823  1.00  0.00     0.031 A 
ATOM     54  C   UNL A   1      44.744  30.308  31.293  1.00  0.00     0.049 A 
ATOM     55  C   UNL A   1      39.713  32.677  30.532  1.00  0.00     0.074 A 
ATOM     56  C   UNL A   1      45.707  31.081  31.918  1.00  0.00     0.029 A 
ATOM     57  N   UNL A   1      43.592  31.078  31.226  1.00  0.00    -0.354 N 
ATOM     58  N   UNL A   1      40.932  32.257  30.778  1.00  0.00    -0.248 NA
ATOM     59  C   UNL A   1      39.430  34.032  31.023  1.00  0.00     0.031 C 
ATOM     60  C   UNL A   1      45.125  32.307  32.260  1.00  0.00     0.029 A 
ATOM     61  C   UNL A   1      43.814  32.314  31.808  1.00  0.00     0.049 A 
ATOM     62  H   UNL A   1      42.741  30.788  30.825  1.00  0.00     0.167 HD
ATOM     63  C   UNL A   1      41.569  33.305  31.431  1.00  0.00     0.074 A 
ATOM     64  C   UNL A   1      40.603  34.382  31.533  1.00  0.00     0.031 C 
ATOM     65  C   UNL A   1      42.839  33.371  31.901  1.00  0.00     0.031 A 
BRANCH  52  66
ATOM     66  C   UNL A   1      46.149  28.215  30.994  1.00  0.00    -0.014 A 
ATOM     67  C   UNL A   1      46.347  27.418  32.137  1.00  0.00     0.010 A 
ATOM     68  C   UNL A   1      47.185  28.322  30.049  1.00  0.00     0.010 A 
ATOM     69  C   UNL A   1      47.581  26.805  32.369  1.00  0.00     0.020 A 
ATOM     70  C   UNL A   1      48.410  27.682  30.260  1.00  0.00     0.020 A 
ATOM     71  C   UNL A   1      48.610  26.953  31.435  1.00  0.00     0.054 A 
BRANCH  71  72
ATOM     72  S   UNL A   1      50.212  26.173  31.772  1.00  0.00     0.124 S 
ATOM     73  O   UNL A   1      50.891  26.317  30.487  1.00  0.00    -0.237 OA
ATOM     74  O   UNL A   1      50.747  26.989  32.860  1.00  0.00    -0.237 OA
ATOM     75  O   UNL A   1      49.858  24.804  32.141  1.00  0.00    -0.744 OA
ENDBRANCH  71  72
ENDBRANCH  52  66
BRANCH  53  76
ATOM     76  C   UNL A   1      37.277  32.621  29.612  1.00  0.00    -0.014 A 
ATOM     77  C   UNL A   1      36.310  32.593  30.633  1.00  0.00     0.010 A 
ATOM     78  C   UNL A   1      36.998  33.319  28.423  1.00  0.00     0.010 A 
ATOM     79  C   UNL A   1      35.088  33.249  30.469  1.00  0.00     0.020 A 
ATOM     80  C   UNL A   1      35.785  33.996  28.265  1.00  0.00     0.020 A 
ATOM     81  C   UNL A   1      34.834  33.952  29.288  1.00  0.00     0.054 A 
BRANCH  81  82
ATOM     82  S   UNL A   1      33.273  34.865  29.135  1.00  0.00     0.124 S 
ATOM     83  O   UNL A   1      32.541  34.056  28.167  1.00  0.00    -0.237 OA
ATOM     84  O   UNL A   1      32.758  34.841  30.502  1.00  0.00    -0.237 OA
ATOM     85  O   UNL A   1      33.694  36.182  28.661  1.00  0.00    -0.744 OA
ENDBRANCH  81  82
ENDBRANCH  53  76
BRANCH  65  86
ATOM     86  C   UNL A   1      43.270  34.661  32.541  1.00  0.00    -0.014 A 
ATOM     87  C   UNL A   1      43.204  34.839  33.934  1.00  0.00     0.010 A 
ATOM     88  C   UNL A   1      43.802  35.688  31.740  1.00  0.00     0.010 A 
ATOM     89  C   UNL A   1      43.639  36.034  34.512  1.00  0.00     0.020 A 
ATOM     90  C   UNL A   1      44.260  36.874  32.317  1.00  0.00     0.020 A 
ATOM     91  C   UNL A   1      44.165  37.044  33.700  1.00  0.00     0.054 A 
BRANCH  91  92
ATOM     92  S   UNL A   1      44.770  38.566  34.478  1.00  0.00     0.124 S 
ATOM     93  O   UNL A   1      43.918  38.662  35.660  1.00  0.00    -0.237 OA
ATOM     94  O   UNL A   1      46.174  38.259  34.738  1.00  0.00    -0.237 OA
ATOM     95  O   UNL A   1      44.542  39.589  33.459  1.00  0.00    -0.744 OA
ENDBRANCH  91  92
ENDBRANCH  65  86
ENDBRANCH  39  40
ENDBRANCH  31  34
ENDBRANCH  29  30
ENDBRANCH  28  29
ENDBRANCH   1  28
TORSDOF 19
ENDMDL
MODEL 3
REMARK VINA RESULT:     -10.4      3.724      8.016
REMARK SMILES CC(=O)N[C@@H](Cc1c(OCC(C)C)ccc2ccccc12)C(=O)NCCCNC(=O)c1ccc(-c2c3nc(c(-c4ccc(S(=O)(=O)[O-])cc4)c4ccc([nH]4)c(-c4ccc(S(=O)(=O)[O-])cc4)c4nc(c(-c5ccc(S(=O)(=O)[O-])cc5)c5ccc2[nH]5)C=C4)C=C3)cc1
REMARK SMILES IDX 25 1 24 2 22 3 23 4 5 6 4 7 1 8 2 9 3 10 6 12 7 13 8 14
REMARK SMILES IDX 21 15 14 16 16 17 20 18 15 19 17 20 19 21 18 22 9 23 10 24
REMARK SMILES IDX 11 25 12 26 13 27 26 28 27 29 28 30 29 31 30 33 31 34 32 35
REMARK SMILES IDX 90 36 33 37 89 38 34 39 35 40 36 41 83 42 37 43 88 44 82 45
REMARK SMILES IDX 84 46 38 47 87 48 81 49 80 50 39 52 69 53 50 54 68 55 51 56
REMARK SMILES IDX 54 57 67 58 85 59 52 60 53 61 66 63 86 64 55 65 40 66 41 67
REMARK SMILES IDX 49 68 42 69 48 70 43 71 44 72 45 73 46 74 47 75 70 76 71 77
REMARK SMILES IDX 79 78 72 79 78 80 73 81 74 82 75 83 76 84 77 85 56 86 57 87
REMARK SMILES IDX 65 88 58 89 64 90 59 91 60 92 61 93 62 94 63 95
REMARK H PARENT 24 5 4 11 28 32 84 51 54 62
REMARK Flexibility Score: inf
ROOT
ATOM      1  C   UNL A   1      31.779  29.884  26.748  1.00  0.00     0.117 C 
ENDROOT
BRANCH   1   2
ATOM      2  N   UNL A   1      32.994  29.380  27.331  1.00  0.00    -0.354 N 
ATOM      3  C   UNL A   1      33.881  28.530  26.720  1.00  0.00     0.242 C 
ATOM      4  O   UNL A   1      35.059  28.573  27.094  1.00  0.00    -0.273 OA
ATOM      5  H   UNL A   1      33.207  29.670  28.247  1.00  0.00     0.163 HD
BRANCH   3   6
ATOM      6  C   UNL A   1      33.452  27.551  25.588  1.00  0.00     0.175 C 
BRANCH   6   7
ATOM      7  N   UNL A   1      34.085  27.919  24.314  1.00  0.00    -0.344 N 
ATOM      8  C   UNL A   1      32.107  28.928  23.240  1.00  0.00     0.114 C 
ATOM      9  C   UNL A   1      33.567  28.581  23.245  1.00  0.00     0.217 C 
ATOM     10  O   UNL A   1      34.301  28.866  22.301  1.00  0.00    -0.275 OA
ATOM     11  H   UNL A   1      35.027  27.645  24.220  1.00  0.00     0.164 HD
ENDBRANCH   6   7
BRANCH   6  12
ATOM     12  C   UNL A   1      33.447  26.019  25.904  1.00  0.00     0.075 C 
BRANCH  12  13
ATOM     13  C   UNL A   1      33.847  25.018  24.816  1.00  0.00     0.005 A 
ATOM     14  C   UNL A   1      32.926  24.713  23.780  1.00  0.00     0.123 A 
ATOM     15  C   UNL A   1      35.076  24.279  24.900  1.00  0.00    -0.011 A 
ATOM     16  C   UNL A   1      33.121  23.570  23.003  1.00  0.00     0.047 A 
ATOM     17  C   UNL A   1      35.241  23.130  24.083  1.00  0.00    -0.018 A 
ATOM     18  C   UNL A   1      36.127  24.568  25.802  1.00  0.00     0.009 A 
ATOM     19  C   UNL A   1      34.255  22.780  23.162  1.00  0.00     0.012 A 
ATOM     20  C   UNL A   1      36.361  22.299  24.227  1.00  0.00     0.009 A 
ATOM     21  C   UNL A   1      37.232  23.725  25.950  1.00  0.00     0.001 A 
ATOM     22  C   UNL A   1      37.344  22.584  25.168  1.00  0.00     0.001 A 
BRANCH  14  23
ATOM     23  O   UNL A   1      31.885  25.583  23.602  1.00  0.00    -0.493 OA
BRANCH  23  24
ATOM     24  C   UNL A   1      30.573  25.091  23.308  1.00  0.00     0.232 C 
BRANCH  24  25
ATOM     25  C   UNL A   1      29.456  25.678  24.201  1.00  0.00     0.020 C 
ATOM     26  C   UNL A   1      29.830  25.848  25.675  1.00  0.00     0.011 C 
ATOM     27  C   UNL A   1      29.025  27.040  23.648  1.00  0.00     0.011 C 
ENDBRANCH  24  25
ENDBRANCH  23  24
ENDBRANCH  14  23
ENDBRANCH  12  13
ENDBRANCH   6  12
ENDBRANCH   3   6
ENDBRANCH   1   2
BRANCH   1  28
ATOM     28  C   UNL A   1      31.568  31.379  26.754  1.00  0.00     0.042 C 
BRANCH  28  29
ATOM     29  C   UNL A   1      32.848  32.178  26.912  1.00  0.00     0.118 C 
BRANCH  29  30
ATOM     30  N   UNL A   1      32.659  33.477  27.562  1.00  0.00    -0.352 N 
ATOM     31  C   UNL A   1      33.333  34.112  28.582  1.00  0.00     0.251 C 
ATOM     32  H   UNL A   1      31.905  33.997  27.202  1.00  0.00     0.163 HD
ATOM     33  O   UNL A   1      32.870  35.151  29.041  1.00  0.00    -0.269 OA
BRANCH  31  34
ATOM     34  C   UNL A   1      34.574  33.537  29.150  1.00  0.00     0.039 A 
ATOM     35  C   UNL A   1      35.805  34.136  28.856  1.00  0.00     0.014 A 
ATOM     36  C   UNL A   1      34.539  32.420  29.978  1.00  0.00     0.014 A 
ATOM     37  C   UNL A   1      36.968  33.681  29.485  1.00  0.00     0.010 A 
ATOM     38  C   UNL A   1      35.662  32.065  30.711  1.00  0.00     0.010 A 
ATOM     39  C   UNL A   1      36.895  32.683  30.469  1.00  0.00    -0.014 A 
BRANCH  39  40
ATOM     40  C   UNL A   1      38.077  32.251  31.258  1.00  0.00     0.031 A 
ATOM     41  C   UNL A   1      38.947  31.127  30.754  1.00  0.00     0.074 A 
ATOM     42  C   UNL A   1      38.306  32.785  32.474  1.00  0.00     0.049 A 
ATOM     43  N   UNL A   1      39.930  30.508  31.356  1.00  0.00    -0.248 NA
ATOM     44  C   UNL A   1      38.637  30.597  29.415  1.00  0.00     0.031 C 
ATOM     45  C   UNL A   1      37.508  33.838  33.107  1.00  0.00     0.029 A 
ATOM     46  N   UNL A   1      39.279  32.507  33.404  1.00  0.00    -0.354 N 
ATOM     47  C   UNL A   1      40.320  29.490  30.490  1.00  0.00     0.074 A 
ATOM     48  C   UNL A   1      39.429  29.539  29.353  1.00  0.00     0.031 C 
ATOM     49  C   UNL A   1      38.049  34.150  34.295  1.00  0.00     0.029 A 
ATOM     50  C   UNL A   1      39.200  33.286  34.534  1.00  0.00     0.049 A 
ATOM     51  H   UNL A   1      39.966  31.816  33.272  1.00  0.00     0.167 HD
ATOM     52  C   UNL A   1      41.343  28.612  30.614  1.00  0.00     0.031 A 
ATOM     53  C   UNL A   1      39.967  33.303  35.640  1.00  0.00     0.031 A 
ATOM     54  C   UNL A   1      42.253  28.594  31.726  1.00  0.00     0.049 A 
ATOM     55  C   UNL A   1      41.117  32.342  35.747  1.00  0.00     0.074 A 
ATOM     56  C   UNL A   1      43.367  27.796  31.917  1.00  0.00     0.029 A 
ATOM     57  N   UNL A   1      42.156  29.423  32.835  1.00  0.00    -0.354 N 
ATOM     58  N   UNL A   1      41.505  31.423  34.894  1.00  0.00    -0.248 NA
ATOM     59  C   UNL A   1      41.940  32.426  36.961  1.00  0.00     0.031 C 
ATOM     60  C   UNL A   1      43.925  28.119  33.159  1.00  0.00     0.029 A 
ATOM     61  C   UNL A   1      43.184  29.148  33.721  1.00  0.00     0.049 A 
ATOM     62  H   UNL A   1      41.459  30.104  32.972  1.00  0.00     0.167 HD
ATOM     63  C   UNL A   1      42.631  30.835  35.457  1.00  0.00     0.074 A 
ATOM     64  C   UNL A   1      42.868  31.510  36.718  1.00  0.00     0.031 C 
ATOM     65  C   UNL A   1      43.401  29.830  34.972  1.00  0.00     0.031 A 
BRANCH  52  66
ATOM     66  C   UNL A   1      41.517  27.602  29.508  1.00  0.00    -0.014 A 
ATOM     67  C   UNL A   1      40.522  26.644  29.236  1.00  0.00     0.010 A 
ATOM     68  C   UNL A   1      42.698  27.595  28.746  1.00  0.00     0.010 A 
ATOM     69  C   UNL A   1      40.737  25.652  28.277  1.00  0.00     0.020 A 
ATOM     70  C   UNL A   1      42.904  26.623  27.761  1.00  0.00     0.020 A 
ATOM     71  C   UNL A   1      41.933  25.639  27.555  1.00  0.00     0.054 A 
BRANCH  71  72
ATOM     72  S   UNL A   1      42.202  24.324  26.336  1.00  0.00     0.124 S 
ATOM     73  O   UNL A   1      43.418  23.692  26.841  1.00  0.00    -0.237 OA
ATOM     74  O   UNL A   1      40.984  23.524  26.450  1.00  0.00    -0.237 OA
ATOM     75  O   UNL A   1      42.352  25.046  25.075  1.00  0.00    -0.744 OA
ENDBRANCH  71  72
ENDBRANCH  52  66
BRANCH  53  76
ATOM     76  C   UNL A   1      39.698  34.303  36.708  1.00  0.00    -0.014 A 
ATOM     77  C   UNL A   1      38.975  33.927  37.853  1.00  0.00     0.010 A 
ATOM     78  C   UNL A   1      40.203  35.613  36.616  1.00  0.00     0.010 A 
ATOM     79  C   UNL A   1      38.760  34.842  38.887  1.00  0.00     0.020 A 
ATOM     80  C   UNL A   1      40.009  36.524  37.659  1.00  0.00     0.020 A 
ATOM     81  C   UNL A   1      39.284  36.134  38.787  1.00  0.00     0.054 A 
BRANCH  81  82
ATOM     82  S   UNL A   1      39.062  37.275  40.180  1.00  0.00     0.124 S 
ATOM     83  O   UNL A   1      38.255  38.333  39.582  1.00  0.00    -0.237 OA
ATOM     84  O   UNL A   1      38.382  36.440  41.167  1.00  0.00    -0.237 OA
ATOM     85  O   UNL A   1      40.430  37.651  40.532  1.00  0.00    -0.744 OA
ENDBRANCH  81  82
ENDBRANCH  53  76
BRANCH  65  86
ATOM     86  C   UNL A   1      44.592  29.418  35.792  1.00  0.00    -0.014 A 
ATOM     87  C   UNL A   1      45.811  30.112  35.705  1.00  0.00     0.010 A 
ATOM     88  C   UNL A   1      44.468  28.356  36.706  1.00  0.00     0.010 A 
ATOM     89  C   UNL A   1      46.895  29.733  36.499  1.00  0.00     0.020 A 
ATOM     90  C   UNL A   1      45.543  27.990  37.520  1.00  0.00     0.020 A 
ATOM     91  C   UNL A   1      46.754  28.675  37.402  1.00  0.00     0.054 A 
BRANCH  91  92
ATOM     92  S   UNL A   1      48.160  28.233  38.460  1.00  0.00     0.124 S 
ATOM     93  O   UNL A   1      48.858  27.247  37.639  1.00  0.00    -0.237 OA
ATOM     94  O   UNL A   1      48.848  29.510  38.630  1.00  0.00    -0.237 OA
ATOM     95  O   UNL A   1      47.531  27.706  39.668  1.00  0.00    -0.744 OA
ENDBRANCH  91  92
ENDBRANCH  65  86
ENDBRANCH  39  40
ENDBRANCH  31  34
ENDBRANCH  29  30
ENDBRANCH  28  29
ENDBRANCH   1  28
TORSDOF 19
ENDMDL
