MODEL 1
REMARK VINA RESULT:     -11.4      0.000      0.000
REMARK SMILES O=C(NCCCNC(=O)c1ccc(-n2cc(CSc3nc4ccccc4c(=O)n3-c3ccc(Br)cc3)nn2)cc1)c1ccc(-c2c3nc(c(-c4ccc(S(=O)(=O)[O-])cc4)c4ccc([nH]4)c(-c4ccc(S(=O)(=O)[O-])cc4)c4nc(c(-c5ccc(S(=O)(=O)[O-])cc5)c5ccc2[nH]5)C=C4)C=C3)cc1
REMARK SMILES IDX 6 1 5 2 4 3 3 4 1 5 2 6 41 8 42 9 100 10 43 11 99 12 44 13
REMARK SMILES IDX 45 14 46 15 93 16 47 17 98 18 92 19 94 20 48 21 97 22 91 23
REMARK SMILES IDX 90 24 49 26 79 27 60 28 78 29 61 30 64 31 77 32 95 33 62 34
REMARK SMILES IDX 63 35 76 37 96 38 65 39 50 40 51 41 59 42 52 43 58 44 53 45
REMARK SMILES IDX 54 46 55 47 56 48 57 49 80 50 81 51 89 52 82 53 88 54 83 55
REMARK SMILES IDX 84 56 85 57 86 58 87 59 66 60 67 61 75 62 68 63 74 64 69 65
REMARK SMILES IDX 70 66 71 67 72 68 73 69 7 70 8 71 9 73 10 74 11 75 40 76
REMARK SMILES IDX 12 77 39 78 13 79 14 80 15 81 38 82 16 83 37 84 17 85 18 86
REMARK SMILES IDX 19 87 20 88 29 89 21 90 27 91 22 92 26 93 28 94 23 95 25 96
REMARK SMILES IDX 24 97 30 98 31 99 36 100 32 101 35 102 33 103 34 104
REMARK H PARENT 3 7 94 25 64 36 7 72
REMARK Flexibility Score: inf
ROOT
ATOM      1  C   UNL A   1      48.714  21.674  35.386  1.00  0.00     0.118 C 
ENDROOT
BRANCH   1   2
ATOM      2  C   UNL A   1      49.650  21.725  34.183  1.00  0.00     0.042 C 
BRANCH   2   3
ATOM      3  C   UNL A   1      51.129  21.934  34.508  1.00  0.00     0.118 C 
BRANCH   3   4
ATOM      4  N   UNL A   1      51.524  23.294  34.810  1.00  0.00    -0.352 N 
ATOM      5  O   UNL A   1      51.549  25.487  35.019  1.00  0.00    -0.269 OA
ATOM      6  C   UNL A   1      51.172  24.530  34.339  1.00  0.00     0.251 C 
ATOM      7  H   UNL A   1      52.204  23.342  35.519  1.00  0.00     0.163 HD
BRANCH   6   8
ATOM      8  C   UNL A   1      50.454  24.796  33.061  1.00  0.00     0.039 A 
ATOM      9  C   UNL A   1      51.027  24.816  31.790  1.00  0.00     0.014 A 
ATOM     10  C   UNL A   1      49.085  25.101  33.184  1.00  0.00     0.014 A 
ATOM     11  C   UNL A   1      50.280  25.226  30.685  1.00  0.00     0.010 A 
ATOM     12  C   UNL A   1      48.330  25.493  32.084  1.00  0.00     0.010 A 
ATOM     13  C   UNL A   1      48.940  25.591  30.837  1.00  0.00    -0.014 A 
BRANCH  13  14
ATOM     14  C   UNL A   1      48.167  25.928  29.644  1.00  0.00     0.031 A 
ATOM     15  C   UNL A   1      47.013  26.841  29.878  1.00  0.00     0.074 A 
ATOM     16  C   UNL A   1      48.547  25.614  28.390  1.00  0.00     0.049 A 
ATOM     17  N   UNL A   1      45.754  26.617  29.685  1.00  0.00    -0.248 NA
ATOM     18  C   UNL A   1      47.299  28.143  30.503  1.00  0.00     0.031 C 
ATOM     19  C   UNL A   1      49.812  25.006  27.971  1.00  0.00     0.029 A 
ATOM     20  N   UNL A   1      47.928  25.892  27.203  1.00  0.00    -0.354 N 
ATOM     21  C   UNL A   1      45.106  27.820  29.960  1.00  0.00     0.074 A 
ATOM     22  C   UNL A   1      46.077  28.660  30.614  1.00  0.00     0.031 C 
ATOM     23  C   UNL A   1      49.967  25.179  26.640  1.00  0.00     0.029 A 
ATOM     24  C   UNL A   1      48.765  25.790  26.097  1.00  0.00     0.049 A 
ATOM     25  H   UNL A   1      46.979  26.143  27.137  1.00  0.00     0.167 HD
ATOM     26  C   UNL A   1      43.897  28.135  29.414  1.00  0.00     0.031 A 
ATOM     27  C   UNL A   1      48.523  26.246  24.841  1.00  0.00     0.031 A 
ATOM     28  C   UNL A   1      43.229  26.981  28.873  1.00  0.00     0.049 A 
ATOM     29  C   UNL A   1      47.060  26.438  24.703  1.00  0.00     0.074 A 
ATOM     30  C   UNL A   1      42.800  25.767  29.370  1.00  0.00     0.029 A 
ATOM     31  N   UNL A   1      43.208  26.855  27.503  1.00  0.00    -0.354 N 
ATOM     32  N   UNL A   1      46.200  25.459  24.696  1.00  0.00    -0.248 NA
ATOM     33  C   UNL A   1      46.503  27.755  24.961  1.00  0.00     0.031 C 
ATOM     34  C   UNL A   1      42.992  24.839  28.304  1.00  0.00     0.029 A 
ATOM     35  C   UNL A   1      43.483  25.549  27.207  1.00  0.00     0.049 A 
ATOM     36  H   UNL A   1      43.028  27.575  26.855  1.00  0.00     0.167 HD
ATOM     37  C   UNL A   1      45.088  25.959  25.358  1.00  0.00     0.074 A 
ATOM     38  C   UNL A   1      45.289  27.405  25.393  1.00  0.00     0.031 C 
ATOM     39  C   UNL A   1      44.254  25.132  26.054  1.00  0.00     0.031 A 
BRANCH  26  40
ATOM     40  C   UNL A   1      43.525  29.538  28.973  1.00  0.00    -0.014 A 
ATOM     41  C   UNL A   1      44.091  30.044  27.781  1.00  0.00     0.010 A 
ATOM     42  C   UNL A   1      42.918  30.476  29.833  1.00  0.00     0.010 A 
ATOM     43  C   UNL A   1      44.166  31.422  27.538  1.00  0.00     0.020 A 
ATOM     44  C   UNL A   1      42.941  31.847  29.575  1.00  0.00     0.020 A 
ATOM     45  C   UNL A   1      43.613  32.315  28.455  1.00  0.00     0.054 A 
BRANCH  45  46
ATOM     46  S   UNL A   1      43.864  34.092  28.228  1.00  0.00     0.124 S 
ATOM     47  O   UNL A   1      44.965  34.353  29.149  1.00  0.00    -0.237 OA
ATOM     48  O   UNL A   1      44.188  34.180  26.807  1.00  0.00    -0.237 OA
ATOM     49  O   UNL A   1      42.576  34.668  28.606  1.00  0.00    -0.744 OA
ENDBRANCH  45  46
ENDBRANCH  26  40
BRANCH  27  50
ATOM     50  C   UNL A   1      49.495  26.801  23.866  1.00  0.00    -0.014 A 
ATOM     51  C   UNL A   1      49.215  26.821  22.486  1.00  0.00     0.010 A 
ATOM     52  C   UNL A   1      50.591  27.565  24.319  1.00  0.00     0.010 A 
ATOM     53  C   UNL A   1      49.965  27.622  21.605  1.00  0.00     0.020 A 
ATOM     54  C   UNL A   1      51.349  28.355  23.447  1.00  0.00     0.020 A 
ATOM     55  C   UNL A   1      51.017  28.399  22.096  1.00  0.00     0.054 A 
BRANCH  55  56
ATOM     56  S   UNL A   1      51.867  29.566  20.992  1.00  0.00     0.124 S 
ATOM     57  O   UNL A   1      51.530  29.045  19.671  1.00  0.00    -0.237 OA
ATOM     58  O   UNL A   1      51.252  30.844  21.343  1.00  0.00    -0.237 OA
ATOM     59  O   UNL A   1      53.273  29.435  21.370  1.00  0.00    -0.744 OA
ENDBRANCH  55  56
ENDBRANCH  27  50
BRANCH  39  60
ATOM     60  C   UNL A   1      44.324  23.647  25.800  1.00  0.00    -0.014 A 
ATOM     61  C   UNL A   1      43.262  22.895  25.262  1.00  0.00     0.010 A 
ATOM     62  C   UNL A   1      45.570  23.019  25.980  1.00  0.00     0.010 A 
ATOM     63  C   UNL A   1      43.439  21.544  24.936  1.00  0.00     0.020 A 
ATOM     64  C   UNL A   1      45.757  21.679  25.639  1.00  0.00     0.020 A 
ATOM     65  C   UNL A   1      44.687  20.944  25.125  1.00  0.00     0.054 A 
BRANCH  65  66
ATOM     66  S   UNL A   1      44.924  19.211  24.646  1.00  0.00     0.124 S 
ATOM     67  O   UNL A   1      44.030  18.503  25.557  1.00  0.00    -0.237 OA
ATOM     68  O   UNL A   1      44.522  19.205  23.240  1.00  0.00    -0.237 OA
ATOM     69  O   UNL A   1      46.350  18.977  24.872  1.00  0.00    -0.744 OA
ENDBRANCH  65  66
ENDBRANCH  39  60
ENDBRANCH  13  14
ENDBRANCH   6   8
ENDBRANCH   3   4
ENDBRANCH   2   3
ENDBRANCH   1   2
BRANCH   1  70
ATOM     70  N   UNL A   1      47.653  20.691  35.243  1.00  0.00    -0.352 N 
ATOM     71  C   UNL A   1      46.298  20.847  35.087  1.00  0.00     0.251 C 
ATOM     72  H   UNL A   1      47.958  19.755  35.264  1.00  0.00     0.163 HD
ATOM     73  O   UNL A   1      45.570  19.865  35.114  1.00  0.00    -0.269 OA
BRANCH  71  74
ATOM     74  C   UNL A   1      45.701  22.188  34.894  1.00  0.00     0.039 A 
ATOM     75  C   UNL A   1      45.159  22.835  36.010  1.00  0.00     0.016 A 
ATOM     76  C   UNL A   1      45.570  22.758  33.625  1.00  0.00     0.016 A 
ATOM     77  C   UNL A   1      44.518  24.069  35.867  1.00  0.00     0.029 A 
ATOM     78  C   UNL A   1      44.922  23.988  33.476  1.00  0.00     0.029 A 
ATOM     79  C   UNL A   1      44.376  24.639  34.595  1.00  0.00     0.066 A 
BRANCH  79  80
ATOM     80  N   UNL A   1      43.611  25.823  34.446  1.00  0.00    -0.220 N 
ATOM     81  C   UNL A   1      43.352  26.514  33.288  1.00  0.00     0.141 A 
ATOM     82  N   UNL A   1      42.944  26.412  35.468  1.00  0.00    -0.062 NA
ATOM     83  C   UNL A   1      42.426  27.474  33.632  1.00  0.00     0.093 A 
ATOM     84  N   UNL A   1      42.230  27.425  34.983  1.00  0.00    -0.134 NA
BRANCH  83  85
ATOM     85  C   UNL A   1      41.839  28.530  32.781  1.00  0.00     0.138 C 
BRANCH  85  86
ATOM     86  S   UNL A   1      40.073  28.870  32.788  1.00  0.00    -0.081 SA
BRANCH  86  87
ATOM     87  C   UNL A   1      39.621  29.991  31.528  1.00  0.00     0.176 A 
ATOM     88  N   UNL A   1      39.852  31.226  31.873  1.00  0.00    -0.223 NA
ATOM     89  N   UNL A   1      39.108  29.664  30.279  1.00  0.00    -0.255 N 
ATOM     90  C   UNL A   1      39.486  32.248  30.994  1.00  0.00     0.079 A 
ATOM     91  C   UNL A   1      38.200  30.604  29.769  1.00  0.00     0.266 A 
ATOM     92  C   UNL A   1      39.996  33.539  31.136  1.00  0.00     0.029 A 
ATOM     93  C   UNL A   1      38.545  32.012  30.005  1.00  0.00     0.066 A 
ATOM     94  O   UNL A   1      37.164  30.363  29.153  1.00  0.00    -0.268 OA
ATOM     95  C   UNL A   1      39.524  34.580  30.326  1.00  0.00     0.002 A 
ATOM     96  C   UNL A   1      38.026  33.046  29.219  1.00  0.00     0.016 A 
ATOM     97  C   UNL A   1      38.518  34.340  29.388  1.00  0.00     0.001 A 
BRANCH  89  98
ATOM     98  C   UNL A   1      39.390  28.480  29.482  1.00  0.00     0.051 A 
ATOM     99  C   UNL A   1      39.905  28.612  28.174  1.00  0.00     0.028 A 
ATOM    100  C   UNL A   1      39.231  27.163  29.932  1.00  0.00     0.028 A 
ATOM    101  C   UNL A   1      40.031  27.527  27.300  1.00  0.00     0.018 A 
ATOM    102  C   UNL A   1      39.301  26.070  29.052  1.00  0.00     0.018 A 
ATOM    103  C   UNL A   1      39.662  26.265  27.727  1.00  0.00     0.018 A 
ATOM    104  Br  UNL A   1      39.639  24.827  26.508  1.00  0.00    -0.051 Br
ENDBRANCH  89  98
ENDBRANCH  86  87
ENDBRANCH  85  86
ENDBRANCH  83  85
ENDBRANCH  79  80
ENDBRANCH  71  74
ENDBRANCH   1  70
TORSDOF 18
ENDMDL
MODEL 2
REMARK VINA RESULT:     -11.2      5.880     12.786
REMARK SMILES O=C(NCCCNC(=O)c1ccc(-n2cc(CSc3nc4ccccc4c(=O)n3-c3ccc(Br)cc3)nn2)cc1)c1ccc(-c2c3nc(c(-c4ccc(S(=O)(=O)[O-])cc4)c4ccc([nH]4)c(-c4ccc(S(=O)(=O)[O-])cc4)c4nc(c(-c5ccc(S(=O)(=O)[O-])cc5)c5ccc2[nH]5)C=C4)C=C3)cc1
REMARK SMILES IDX 6 1 5 2 4 3 3 4 1 5 2 6 41 8 42 9 100 10 43 11 99 12 44 13
REMARK SMILES IDX 45 14 46 15 93 16 47 17 98 18 92 19 94 20 48 21 97 22 91 23
REMARK SMILES IDX 90 24 49 26 79 27 60 28 78 29 61 30 64 31 77 32 95 33 62 34
REMARK SMILES IDX 63 35 76 37 96 38 65 39 50 40 51 41 59 42 52 43 58 44 53 45
REMARK SMILES IDX 54 46 55 47 56 48 57 49 80 50 81 51 89 52 82 53 88 54 83 55
REMARK SMILES IDX 84 56 85 57 86 58 87 59 66 60 67 61 75 62 68 63 74 64 69 65
REMARK SMILES IDX 70 66 71 67 72 68 73 69 7 70 8 71 9 73 10 74 11 75 40 76
REMARK SMILES IDX 12 77 39 78 13 79 14 80 15 81 38 82 16 83 37 84 17 85 18 86
REMARK SMILES IDX 19 87 20 88 29 89 21 90 27 91 22 92 26 93 28 94 23 95 25 96
REMARK SMILES IDX 24 97 30 98 31 99 36 100 32 101 35 102 33 103 34 104
REMARK H PARENT 3 7 94 25 64 36 7 72
REMARK Flexibility Score: inf
ROOT
ATOM      1  C   UNL A   1      34.245  31.284  27.714  1.00  0.00     0.118 C 
ENDROOT
BRANCH   1   2
ATOM      2  C   UNL A   1      35.031  32.583  27.851  1.00  0.00     0.042 C 
BRANCH   2   3
ATOM      3  C   UNL A   1      34.421  33.626  28.788  1.00  0.00     0.118 C 
BRANCH   3   4
ATOM      4  N   UNL A   1      34.068  33.156  30.112  1.00  0.00    -0.352 N 
ATOM      5  O   UNL A   1      34.136  32.600  32.242  1.00  0.00    -0.269 OA
ATOM      6  C   UNL A   1      34.766  32.670  31.183  1.00  0.00     0.251 C 
ATOM      7  H   UNL A   1      33.099  33.194  30.280  1.00  0.00     0.163 HD
BRANCH   6   8
ATOM      8  C   UNL A   1      36.166  32.163  31.147  1.00  0.00     0.039 A 
ATOM      9  C   UNL A   1      37.320  32.945  31.202  1.00  0.00     0.014 A 
ATOM     10  C   UNL A   1      36.306  30.771  30.993  1.00  0.00     0.014 A 
ATOM     11  C   UNL A   1      38.575  32.366  31.008  1.00  0.00     0.010 A 
ATOM     12  C   UNL A   1      37.555  30.185  30.817  1.00  0.00     0.010 A 
ATOM     13  C   UNL A   1      38.689  30.991  30.788  1.00  0.00    -0.014 A 
BRANCH  13  14
ATOM     14  C   UNL A   1      40.024  30.409  30.679  1.00  0.00     0.031 A 
ATOM     15  C   UNL A   1      40.771  30.295  31.963  1.00  0.00     0.074 A 
ATOM     16  C   UNL A   1      40.503  29.833  29.557  1.00  0.00     0.049 A 
ATOM     17  N   UNL A   1      41.887  30.855  32.300  1.00  0.00    -0.248 NA
ATOM     18  C   UNL A   1      40.132  29.534  33.049  1.00  0.00     0.031 C 
ATOM     19  C   UNL A   1      39.775  29.575  28.313  1.00  0.00     0.029 A 
ATOM     20  N   UNL A   1      41.713  29.237  29.339  1.00  0.00    -0.354 N 
ATOM     21  C   UNL A   1      42.203  30.347  33.560  1.00  0.00     0.074 A 
ATOM     22  C   UNL A   1      41.017  29.681  34.034  1.00  0.00     0.031 C 
ATOM     23  C   UNL A   1      40.466  28.680  27.573  1.00  0.00     0.029 A 
ATOM     24  C   UNL A   1      41.734  28.402  28.227  1.00  0.00     0.049 A 
ATOM     25  H   UNL A   1      42.496  29.385  29.916  1.00  0.00     0.167 HD
ATOM     26  C   UNL A   1      43.485  30.294  34.020  1.00  0.00     0.031 A 
ATOM     27  C   UNL A   1      42.687  27.490  27.907  1.00  0.00     0.031 A 
ATOM     28  C   UNL A   1      44.370  31.138  33.261  1.00  0.00     0.049 A 
ATOM     29  C   UNL A   1      43.922  27.844  28.646  1.00  0.00     0.074 A 
ATOM     30  C   UNL A   1      44.429  32.483  32.958  1.00  0.00     0.029 A 
ATOM     31  N   UNL A   1      45.230  30.516  32.387  1.00  0.00    -0.354 N 
ATOM     32  N   UNL A   1      44.626  28.913  28.407  1.00  0.00    -0.248 NA
ATOM     33  C   UNL A   1      44.174  27.206  29.928  1.00  0.00     0.031 C 
ATOM     34  C   UNL A   1      44.953  32.543  31.633  1.00  0.00     0.029 A 
ATOM     35  C   UNL A   1      45.225  31.236  31.224  1.00  0.00     0.049 A 
ATOM     36  H   UNL A   1      45.755  29.702  32.566  1.00  0.00     0.167 HD
ATOM     37  C   UNL A   1      45.085  29.322  29.650  1.00  0.00     0.074 A 
ATOM     38  C   UNL A   1      44.874  28.173  30.526  1.00  0.00     0.031 C 
ATOM     39  C   UNL A   1      45.334  30.639  29.910  1.00  0.00     0.031 A 
BRANCH  26  40
ATOM     40  C   UNL A   1      44.019  29.149  34.861  1.00  0.00    -0.014 A 
ATOM     41  C   UNL A   1      44.335  27.930  34.220  1.00  0.00     0.010 A 
ATOM     42  C   UNL A   1      43.910  29.116  36.266  1.00  0.00     0.010 A 
ATOM     43  C   UNL A   1      44.399  26.727  34.935  1.00  0.00     0.020 A 
ATOM     44  C   UNL A   1      44.025  27.930  36.994  1.00  0.00     0.020 A 
ATOM     45  C   UNL A   1      44.214  26.735  36.316  1.00  0.00     0.054 A 
BRANCH  45  46
ATOM     46  S   UNL A   1      44.124  25.165  37.210  1.00  0.00     0.124 S 
ATOM     47  O   UNL A   1      42.726  24.794  37.011  1.00  0.00    -0.237 OA
ATOM     48  O   UNL A   1      45.105  24.348  36.502  1.00  0.00    -0.237 OA
ATOM     49  O   UNL A   1      44.491  25.530  38.575  1.00  0.00    -0.744 OA
ENDBRANCH  45  46
ENDBRANCH  26  40
BRANCH  27  50
ATOM     50  C   UNL A   1      42.507  26.175  27.239  1.00  0.00    -0.014 A 
ATOM     51  C   UNL A   1      42.890  25.978  25.899  1.00  0.00     0.010 A 
ATOM     52  C   UNL A   1      42.208  25.030  28.006  1.00  0.00     0.010 A 
ATOM     53  C   UNL A   1      43.026  24.683  25.366  1.00  0.00     0.020 A 
ATOM     54  C   UNL A   1      42.331  23.738  27.480  1.00  0.00     0.020 A 
ATOM     55  C   UNL A   1      42.763  23.570  26.168  1.00  0.00     0.054 A 
BRANCH  55  56
ATOM     56  S   UNL A   1      43.111  21.902  25.536  1.00  0.00     0.124 S 
ATOM     57  O   UNL A   1      41.808  21.253  25.640  1.00  0.00    -0.237 OA
ATOM     58  O   UNL A   1      43.580  22.166  24.178  1.00  0.00    -0.237 OA
ATOM     59  O   UNL A   1      44.132  21.393  26.452  1.00  0.00    -0.744 OA
ENDBRANCH  55  56
ENDBRANCH  27  50
BRANCH  39  60
ATOM     60  C   UNL A   1      45.468  31.596  28.751  1.00  0.00    -0.014 A 
ATOM     61  C   UNL A   1      44.384  32.290  28.182  1.00  0.00     0.010 A 
ATOM     62  C   UNL A   1      46.770  31.910  28.321  1.00  0.00     0.010 A 
ATOM     63  C   UNL A   1      44.599  33.257  27.189  1.00  0.00     0.020 A 
ATOM     64  C   UNL A   1      46.991  32.885  27.348  1.00  0.00     0.020 A 
ATOM     65  C   UNL A   1      45.903  33.549  26.779  1.00  0.00     0.054 A 
BRANCH  65  66
ATOM     66  S   UNL A   1      46.176  34.843  25.538  1.00  0.00     0.124 S 
ATOM     67  O   UNL A   1      47.601  34.711  25.250  1.00  0.00    -0.237 OA
ATOM     68  O   UNL A   1      45.277  34.449  24.455  1.00  0.00    -0.237 OA
ATOM     69  O   UNL A   1      45.796  36.075  26.228  1.00  0.00    -0.744 OA
ENDBRANCH  65  66
ENDBRANCH  39  60
ENDBRANCH  13  14
ENDBRANCH   6   8
ENDBRANCH   3   4
ENDBRANCH   2   3
ENDBRANCH   1   2
BRANCH   1  70
ATOM     70  N   UNL A   1      32.822  31.495  27.512  1.00  0.00    -0.352 N 
ATOM     71  C   UNL A   1      31.922  30.848  26.701  1.00  0.00     0.251 C 
ATOM     72  H   UNL A   1      32.438  32.228  28.046  1.00  0.00     0.163 HD
ATOM     73  O   UNL A   1      30.784  31.282  26.595  1.00  0.00    -0.269 OA
BRANCH  71  74
ATOM     74  C   UNL A   1      32.311  29.636  25.944  1.00  0.00     0.039 A 
ATOM     75  C   UNL A   1      32.831  28.551  26.658  1.00  0.00     0.016 A 
ATOM     76  C   UNL A   1      32.274  29.599  24.548  1.00  0.00     0.016 A 
ATOM     77  C   UNL A   1      33.281  27.413  25.983  1.00  0.00     0.029 A 
ATOM     78  C   UNL A   1      32.731  28.467  23.867  1.00  0.00     0.029 A 
ATOM     79  C   UNL A   1      33.255  27.376  24.582  1.00  0.00     0.066 A 
BRANCH  79  80
ATOM     80  N   UNL A   1      33.834  26.274  23.905  1.00  0.00    -0.220 N 
ATOM     81  C   UNL A   1      34.704  25.341  24.413  1.00  0.00     0.141 A 
ATOM     82  N   UNL A   1      33.532  25.943  22.626  1.00  0.00    -0.062 NA
ATOM     83  C   UNL A   1      34.831  24.383  23.431  1.00  0.00     0.093 A 
ATOM     84  N   UNL A   1      34.144  24.801  22.326  1.00  0.00    -0.134 NA
BRANCH  83  85
ATOM     85  C   UNL A   1      35.688  23.180  23.427  1.00  0.00     0.138 C 
BRANCH  85  86
ATOM     86  S   UNL A   1      35.755  22.069  24.840  1.00  0.00    -0.081 SA
BRANCH  86  87
ATOM     87  C   UNL A   1      34.653  20.726  24.663  1.00  0.00     0.176 A 
ATOM     88  N   UNL A   1      35.248  19.583  24.860  1.00  0.00    -0.223 NA
ATOM     89  N   UNL A   1      33.294  20.805  24.385  1.00  0.00    -0.255 N 
ATOM     90  C   UNL A   1      34.512  18.406  24.694  1.00  0.00     0.079 A 
ATOM     91  C   UNL A   1      32.805  19.740  23.615  1.00  0.00     0.266 A 
ATOM     92  C   UNL A   1      34.971  17.191  25.203  1.00  0.00     0.029 A 
ATOM     93  C   UNL A   1      33.345  18.414  23.948  1.00  0.00     0.066 A 
ATOM     94  O   UNL A   1      31.980  19.810  22.706  1.00  0.00    -0.268 OA
ATOM     95  C   UNL A   1      34.286  16.001  24.921  1.00  0.00     0.002 A 
ATOM     96  C   UNL A   1      32.674  17.233  23.614  1.00  0.00     0.016 A 
ATOM     97  C   UNL A   1      33.156  16.019  24.102  1.00  0.00     0.001 A 
BRANCH  89  98
ATOM     98  C   UNL A   1      32.364  21.851  24.778  1.00  0.00     0.051 A 
ATOM     99  C   UNL A   1      31.741  22.652  23.797  1.00  0.00     0.028 A 
ATOM    100  C   UNL A   1      31.981  22.119  26.099  1.00  0.00     0.028 A 
ATOM    101  C   UNL A   1      30.978  23.780  24.116  1.00  0.00     0.018 A 
ATOM    102  C   UNL A   1      31.262  23.278  26.438  1.00  0.00     0.018 A 
ATOM    103  C   UNL A   1      30.799  24.125  25.442  1.00  0.00     0.018 A 
ATOM    104  Br  UNL A   1      29.942  25.745  25.888  1.00  0.00    -0.051 Br
ENDBRANCH  89  98
ENDBRANCH  86  87
ENDBRANCH  85  86
ENDBRANCH  83  85
ENDBRANCH  79  80
ENDBRANCH  71  74
ENDBRANCH   1  70
TORSDOF 18
ENDMDL
MODEL 3
REMARK VINA RESULT:     -11.2      5.206     10.147
REMARK SMILES O=C(NCCCNC(=O)c1ccc(-n2cc(CSc3nc4ccccc4c(=O)n3-c3ccc(Br)cc3)nn2)cc1)c1ccc(-c2c3nc(c(-c4ccc(S(=O)(=O)[O-])cc4)c4ccc([nH]4)c(-c4ccc(S(=O)(=O)[O-])cc4)c4nc(c(-c5ccc(S(=O)(=O)[O-])cc5)c5ccc2[nH]5)C=C4)C=C3)cc1
REMARK SMILES IDX 6 1 5 2 4 3 3 4 1 5 2 6 41 8 42 9 100 10 43 11 99 12 44 13
REMARK SMILES IDX 45 14 46 15 93 16 47 17 98 18 92 19 94 20 48 21 97 22 91 23
REMARK SMILES IDX 90 24 49 26 79 27 60 28 78 29 61 30 64 31 77 32 95 33 62 34
REMARK SMILES IDX 63 35 76 37 96 38 65 39 50 40 51 41 59 42 52 43 58 44 53 45
REMARK SMILES IDX 54 46 55 47 56 48 57 49 80 50 81 51 89 52 82 53 88 54 83 55
REMARK SMILES IDX 84 56 85 57 86 58 87 59 66 60 67 61 75 62 68 63 74 64 69 65
REMARK SMILES IDX 70 66 71 67 72 68 73 69 7 70 8 71 9 73 10 74 11 75 40 76
REMARK SMILES IDX 12 77 39 78 13 79 14 80 15 81 38 82 16 83 37 84 17 85 18 86
REMARK SMILES IDX 19 87 20 88 29 89 21 90 27 91 22 92 26 93 28 94 23 95 25 96
REMARK SMILES IDX 24 97 30 98 31 99 36 100 32 101 35 102 33 103 34 104
REMARK H PARENT 3 7 94 25 64 36 7 72
REMARK Flexibility Score: inf
ROOT
ATOM      1  C   UNL A   1      37.046  34.313  32.379  1.00  0.00     0.118 C 
ENDROOT
BRANCH   1   2
ATOM      2  C   UNL A   1      37.705  33.434  33.437  1.00  0.00     0.042 C 
BRANCH   2   3
ATOM      3  C   UNL A   1      36.960  32.145  33.780  1.00  0.00     0.118 C 
BRANCH   3   4
ATOM      4  N   UNL A   1      37.517  31.362  34.864  1.00  0.00    -0.352 N 
ATOM      5  O   UNL A   1      38.909  30.316  36.214  1.00  0.00    -0.269 OA
ATOM      6  C   UNL A   1      38.673  30.656  35.051  1.00  0.00     0.251 C 
ATOM      7  H   UNL A   1      36.925  31.329  35.650  1.00  0.00     0.163 HD
BRANCH   6   8
ATOM      8  C   UNL A   1      39.602  30.215  33.974  1.00  0.00     0.039 A 
ATOM      9  C   UNL A   1      39.280  29.372  32.910  1.00  0.00     0.014 A 
ATOM     10  C   UNL A   1      40.930  30.667  34.092  1.00  0.00     0.014 A 
ATOM     11  C   UNL A   1      40.275  28.910  32.048  1.00  0.00     0.010 A 
ATOM     12  C   UNL A   1      41.924  30.226  33.225  1.00  0.00     0.010 A 
ATOM     13  C   UNL A   1      41.601  29.316  32.222  1.00  0.00    -0.014 A 
BRANCH  13  14
ATOM     14  C   UNL A   1      42.599  28.884  31.247  1.00  0.00     0.031 A 
ATOM     15  C   UNL A   1      42.839  29.836  30.126  1.00  0.00     0.074 A 
ATOM     16  C   UNL A   1      43.396  27.809  31.414  1.00  0.00     0.049 A 
ATOM     17  N   UNL A   1      42.653  29.655  28.860  1.00  0.00    -0.248 NA
ATOM     18  C   UNL A   1      43.250  31.204  30.481  1.00  0.00     0.031 C 
ATOM     19  C   UNL A   1      43.507  26.964  32.604  1.00  0.00     0.029 A 
ATOM     20  N   UNL A   1      44.374  27.322  30.594  1.00  0.00    -0.354 N 
ATOM     21  C   UNL A   1      43.124  30.810  28.236  1.00  0.00     0.074 A 
ATOM     22  C   UNL A   1      43.317  31.782  29.282  1.00  0.00     0.031 C 
ATOM     23  C   UNL A   1      44.641  26.233  32.524  1.00  0.00     0.029 A 
ATOM     24  C   UNL A   1      45.263  26.463  31.231  1.00  0.00     0.049 A 
ATOM     25  H   UNL A   1      44.444  27.558  29.641  1.00  0.00     0.167 HD
ATOM     26  C   UNL A   1      43.557  30.812  26.944  1.00  0.00     0.031 A 
ATOM     27  C   UNL A   1      46.464  26.034  30.764  1.00  0.00     0.031 A 
ATOM     28  C   UNL A   1      43.122  29.644  26.224  1.00  0.00     0.049 A 
ATOM     29  C   UNL A   1      46.474  26.225  29.294  1.00  0.00     0.074 A 
ATOM     30  C   UNL A   1      41.904  29.071  25.919  1.00  0.00     0.029 A 
ATOM     31  N   UNL A   1      44.067  28.677  25.971  1.00  0.00    -0.354 N 
ATOM     32  N   UNL A   1      45.722  25.549  28.472  1.00  0.00    -0.248 NA
ATOM     33  C   UNL A   1      47.045  27.448  28.755  1.00  0.00     0.031 C 
ATOM     34  C   UNL A   1      42.137  27.664  25.950  1.00  0.00     0.029 A 
ATOM     35  C   UNL A   1      43.490  27.463  26.225  1.00  0.00     0.049 A 
ATOM     36  H   UNL A   1      44.990  28.831  25.663  1.00  0.00     0.167 HD
ATOM     37  C   UNL A   1      45.381  26.454  27.478  1.00  0.00     0.074 A 
ATOM     38  C   UNL A   1      46.315  27.564  27.643  1.00  0.00     0.031 C 
ATOM     39  C   UNL A   1      44.203  26.341  26.798  1.00  0.00     0.031 A 
BRANCH  26  40
ATOM     40  C   UNL A   1      44.736  31.638  26.464  1.00  0.00    -0.014 A 
ATOM     41  C   UNL A   1      46.036  31.259  26.868  1.00  0.00     0.010 A 
ATOM     42  C   UNL A   1      44.594  32.931  25.920  1.00  0.00     0.010 A 
ATOM     43  C   UNL A   1      47.098  32.173  26.855  1.00  0.00     0.020 A 
ATOM     44  C   UNL A   1      45.658  33.832  25.854  1.00  0.00     0.020 A 
ATOM     45  C   UNL A   1      46.891  33.464  26.373  1.00  0.00     0.054 A 
BRANCH  45  46
ATOM     46  S   UNL A   1      48.212  34.691  26.520  1.00  0.00     0.124 S 
ATOM     47  O   UNL A   1      47.540  35.760  27.253  1.00  0.00    -0.237 OA
ATOM     48  O   UNL A   1      49.235  33.958  27.260  1.00  0.00    -0.237 OA
ATOM     49  O   UNL A   1      48.549  34.995  25.132  1.00  0.00    -0.744 OA
ENDBRANCH  45  46
ENDBRANCH  26  40
BRANCH  27  50
ATOM     50  C   UNL A   1      47.699  25.749  31.539  1.00  0.00    -0.014 A 
ATOM     51  C   UNL A   1      47.637  25.331  32.882  1.00  0.00     0.010 A 
ATOM     52  C   UNL A   1      48.936  25.626  30.874  1.00  0.00     0.010 A 
ATOM     53  C   UNL A   1      48.754  24.756  33.515  1.00  0.00     0.020 A 
ATOM     54  C   UNL A   1      50.055  25.065  31.500  1.00  0.00     0.020 A 
ATOM     55  C   UNL A   1      49.952  24.609  32.812  1.00  0.00     0.054 A 
BRANCH  55  56
ATOM     56  S   UNL A   1      51.336  23.707  33.568  1.00  0.00     0.124 S 
ATOM     57  O   UNL A   1      51.252  22.404  32.915  1.00  0.00    -0.237 OA
ATOM     58  O   UNL A   1      52.490  24.524  33.202  1.00  0.00    -0.237 OA
ATOM     59  O   UNL A   1      51.009  23.707  34.994  1.00  0.00    -0.744 OA
ENDBRANCH  55  56
ENDBRANCH  27  50
BRANCH  39  60
ATOM     60  C   UNL A   1      43.449  25.035  26.863  1.00  0.00    -0.014 A 
ATOM     61  C   UNL A   1      42.562  24.696  27.901  1.00  0.00     0.010 A 
ATOM     62  C   UNL A   1      43.538  24.183  25.747  1.00  0.00     0.010 A 
ATOM     63  C   UNL A   1      41.801  23.520  27.833  1.00  0.00     0.020 A 
ATOM     64  C   UNL A   1      42.769  23.021  25.666  1.00  0.00     0.020 A 
ATOM     65  C   UNL A   1      41.909  22.690  26.714  1.00  0.00     0.054 A 
BRANCH  65  66
ATOM     66  S   UNL A   1      40.878  21.202  26.607  1.00  0.00     0.124 S 
ATOM     67  O   UNL A   1      40.754  20.800  28.005  1.00  0.00    -0.237 OA
ATOM     68  O   UNL A   1      39.653  21.700  25.984  1.00  0.00    -0.237 OA
ATOM     69  O   UNL A   1      41.662  20.294  25.770  1.00  0.00    -0.744 OA
ENDBRANCH  65  66
ENDBRANCH  39  60
ENDBRANCH  13  14
ENDBRANCH   6   8
ENDBRANCH   3   4
ENDBRANCH   2   3
ENDBRANCH   1   2
BRANCH   1  70
ATOM     70  N   UNL A   1      37.930  34.634  31.271  1.00  0.00    -0.352 N 
ATOM     71  C   UNL A   1      37.952  34.176  29.977  1.00  0.00     0.251 C 
ATOM     72  H   UNL A   1      38.632  35.290  31.486  1.00  0.00     0.163 HD
ATOM     73  O   UNL A   1      38.875  34.491  29.241  1.00  0.00    -0.269 OA
BRANCH  71  74
ATOM     74  C   UNL A   1      36.879  33.296  29.460  1.00  0.00     0.039 A 
ATOM     75  C   UNL A   1      37.076  31.912  29.517  1.00  0.00     0.016 A 
ATOM     76  C   UNL A   1      35.747  33.815  28.826  1.00  0.00     0.016 A 
ATOM     77  C   UNL A   1      36.126  31.042  28.974  1.00  0.00     0.029 A 
ATOM     78  C   UNL A   1      34.798  32.949  28.274  1.00  0.00     0.029 A 
ATOM     79  C   UNL A   1      34.994  31.558  28.329  1.00  0.00     0.066 A 
BRANCH  79  80
ATOM     80  N   UNL A   1      34.107  30.672  27.668  1.00  0.00    -0.220 N 
ATOM     81  C   UNL A   1      34.311  29.348  27.369  1.00  0.00     0.141 A 
ATOM     82  N   UNL A   1      32.851  31.019  27.293  1.00  0.00    -0.062 NA
ATOM     83  C   UNL A   1      33.102  28.886  26.899  1.00  0.00     0.093 A 
ATOM     84  N   UNL A   1      32.238  29.941  26.813  1.00  0.00    -0.134 NA
BRANCH  83  85
ATOM     85  C   UNL A   1      32.771  27.542  26.382  1.00  0.00     0.138 C 
BRANCH  85  86
ATOM     86  S   UNL A   1      34.029  26.475  25.664  1.00  0.00    -0.081 SA
BRANCH  86  87
ATOM     87  C   UNL A   1      33.353  24.976  25.077  1.00  0.00     0.176 A 
ATOM     88  N   UNL A   1      33.782  23.952  25.758  1.00  0.00    -0.223 NA
ATOM     89  N   UNL A   1      32.438  24.835  24.040  1.00  0.00    -0.255 N 
ATOM     90  C   UNL A   1      33.379  22.671  25.370  1.00  0.00     0.079 A 
ATOM     91  C   UNL A   1      32.588  23.651  23.303  1.00  0.00     0.266 A 
ATOM     92  C   UNL A   1      33.516  21.580  26.229  1.00  0.00     0.029 A 
ATOM     93  C   UNL A   1      32.904  22.450  24.087  1.00  0.00     0.066 A 
ATOM     94  O   UNL A   1      32.479  23.528  22.085  1.00  0.00    -0.268 OA
ATOM     95  C   UNL A   1      33.224  20.285  25.781  1.00  0.00     0.002 A 
ATOM     96  C   UNL A   1      32.654  21.161  23.606  1.00  0.00     0.016 A 
ATOM     97  C   UNL A   1      32.822  20.072  24.461  1.00  0.00     0.001 A 
BRANCH  89  98
ATOM     98  C   UNL A   1      31.392  25.763  23.642  1.00  0.00     0.051 A 
ATOM     99  C   UNL A   1      31.670  26.788  22.712  1.00  0.00     0.028 A 
ATOM    100  C   UNL A   1      30.065  25.702  24.086  1.00  0.00     0.028 A 
ATOM    101  C   UNL A   1      30.762  27.812  22.424  1.00  0.00     0.018 A 
ATOM    102  C   UNL A   1      29.159  26.751  23.849  1.00  0.00     0.018 A 
ATOM    103  C   UNL A   1      29.529  27.822  23.051  1.00  0.00     0.018 A 
ATOM    104  Br  UNL A   1      28.370  29.293  22.827  1.00  0.00    -0.051 Br
ENDBRANCH  89  98
ENDBRANCH  86  87
ENDBRANCH  85  86
ENDBRANCH  83  85
ENDBRANCH  79  80
ENDBRANCH  71  74
ENDBRANCH   1  70
TORSDOF 18
ENDMDL
