MODEL 1
REMARK VINA RESULT:     -11.1      0.000      0.000
REMARK SMILES COc1cccc(CC(=O)N[C@@](C)(C(=O)NCCCNC(=O)c2ccc(-c3c4nc(c(-c5ccc(S(=O)(=O)[O-])cc5)c5ccc([nH]5)c(-c5ccc(S(=O)(=O)[O-])cc5)c5nc(c(-c6ccc(S(=O)(=O)[O-])cc6)c6ccc3[nH]6)C=C5)C=C4)cc2)C(F)(F)F)c1
REMARK SMILES IDX 17 1 16 2 14 3 15 4 12 6 13 7 11 8 9 9 10 10 8 12 7 13 3 14
REMARK SMILES IDX 4 15 87 16 5 17 6 18 2 19 1 20 83 21 84 22 85 23 86 24 18 25
REMARK SMILES IDX 19 26 20 27 21 28 22 30 23 31 24 32 82 33 25 34 81 35 26 36
REMARK SMILES IDX 27 37 28 38 75 39 29 40 80 41 74 42 76 43 30 44 79 45 73 46
REMARK SMILES IDX 72 47 31 49 61 50 42 51 60 52 43 53 46 54 59 55 77 56 44 57
REMARK SMILES IDX 45 58 58 60 78 61 47 62 32 63 33 64 41 65 34 66 40 67 35 68
REMARK SMILES IDX 36 69 37 70 38 71 39 72 62 73 63 74 71 75 64 76 70 77 65 78
REMARK SMILES IDX 66 79 67 80 68 81 69 82 48 83 49 84 57 85 50 86 56 87 51 88
REMARK SMILES IDX 52 89 53 90 54 91 55 92
REMARK H PARENT 16 5 11 11 20 29 76 48 46 59
REMARK Flexibility Score: inf
ROOT
ATOM      1  C   UNL A   1      33.944  26.903  25.261  1.00  0.00     0.117 C 
ENDROOT
BRANCH   1   2
ATOM      2  N   UNL A   1      33.179  25.997  26.098  1.00  0.00    -0.354 N 
ATOM      3  C   UNL A   1      31.989  25.367  25.934  1.00  0.00     0.254 C 
ATOM      4  O   UNL A   1      31.451  25.010  26.987  1.00  0.00    -0.272 OA
ATOM      5  H   UNL A   1      33.612  25.799  26.960  1.00  0.00     0.163 HD
BRANCH   3   6
ATOM      6  C   UNL A   1      31.292  25.231  24.568  1.00  0.00     0.212 C 
ATOM      7  C   UNL A   1      30.459  23.940  24.437  1.00  0.00     0.056 C 
BRANCH   6   8
ATOM      8  N   UNL A   1      32.425  25.228  23.582  1.00  0.00    -0.334 N 
ATOM      9  C   UNL A   1      33.059  24.356  22.765  1.00  0.00     0.225 C 
ATOM     10  O   UNL A   1      34.085  24.789  22.226  1.00  0.00    -0.275 OA
ATOM     11  H   UNL A   1      32.824  26.125  23.510  1.00  0.00     0.164 HD
BRANCH   9  12
ATOM     12  C   UNL A   1      32.577  22.959  22.440  1.00  0.00     0.135 C 
BRANCH  12  13
ATOM     13  C   UNL A   1      33.105  21.885  23.352  1.00  0.00    -0.035 A 
ATOM     14  C   UNL A   1      32.756  19.738  24.428  1.00  0.00     0.119 A 
ATOM     15  C   UNL A   1      33.859  19.982  25.247  1.00  0.00     0.046 A 
ATOM     16  C   UNL A   1      32.437  20.652  23.425  1.00  0.00     0.050 A 
ATOM     17  C   UNL A   1      34.614  21.147  25.091  1.00  0.00     0.004 A 
ATOM     18  C   UNL A   1      34.234  22.101  24.150  1.00  0.00     0.004 A 
BRANCH  14  19
ATOM     19  O   UNL A   1      32.037  18.612  24.724  1.00  0.00    -0.497 OA
ATOM     20  C   UNL A   1      32.620  17.714  25.668  1.00  0.00     0.278 C 
ENDBRANCH  14  19
ENDBRANCH  12  13
ENDBRANCH   9  12
ENDBRANCH   6   8
BRANCH   6  21
ATOM     21  C   UNL A   1      30.266  26.385  24.605  1.00  0.00     0.420 C 
ATOM     22  F   UNL A   1      30.715  27.504  25.206  1.00  0.00    -0.168 F 
ATOM     23  F   UNL A   1      29.894  26.713  23.350  1.00  0.00    -0.168 F 
ATOM     24  F   UNL A   1      29.099  26.030  25.202  1.00  0.00    -0.168 F 
ENDBRANCH   6  21
ENDBRANCH   3   6
ENDBRANCH   1   2
BRANCH   1  25
ATOM     25  C   UNL A   1      33.769  28.345  25.708  1.00  0.00     0.042 C 
BRANCH  25  26
ATOM     26  C   UNL A   1      33.675  28.524  27.216  1.00  0.00     0.118 C 
BRANCH  26  27
ATOM     27  N   UNL A   1      33.621  29.923  27.615  1.00  0.00    -0.352 N 
ATOM     28  C   UNL A   1      34.568  30.681  28.267  1.00  0.00     0.251 C 
ATOM     29  H   UNL A   1      32.788  30.395  27.387  1.00  0.00     0.163 HD
ATOM     30  O   UNL A   1      34.280  31.789  28.690  1.00  0.00    -0.269 OA
BRANCH  28  31
ATOM     31  C   UNL A   1      35.920  30.120  28.470  1.00  0.00     0.039 A 
ATOM     32  C   UNL A   1      36.841  30.172  27.422  1.00  0.00     0.014 A 
ATOM     33  C   UNL A   1      36.284  29.579  29.704  1.00  0.00     0.014 A 
ATOM     34  C   UNL A   1      38.154  29.750  27.642  1.00  0.00     0.010 A 
ATOM     35  C   UNL A   1      37.612  29.257  29.951  1.00  0.00     0.010 A 
ATOM     36  C   UNL A   1      38.559  29.330  28.919  1.00  0.00    -0.014 A 
BRANCH  36  37
ATOM     37  C   UNL A   1      39.966  28.948  29.201  1.00  0.00     0.031 A 
ATOM     38  C   UNL A   1      40.906  29.951  29.815  1.00  0.00     0.074 A 
ATOM     39  C   UNL A   1      40.415  27.729  28.838  1.00  0.00     0.049 A 
ATOM     40  N   UNL A   1      42.184  29.834  30.069  1.00  0.00    -0.248 NA
ATOM     41  C   UNL A   1      40.344  31.269  30.158  1.00  0.00     0.031 C 
ATOM     42  C   UNL A   1      39.615  26.687  28.188  1.00  0.00     0.029 A 
ATOM     43  N   UNL A   1      41.658  27.162  28.958  1.00  0.00    -0.354 N 
ATOM     44  C   UNL A   1      42.581  31.065  30.577  1.00  0.00     0.074 A 
ATOM     45  C   UNL A   1      41.424  31.931  30.544  1.00  0.00     0.031 C 
ATOM     46  C   UNL A   1      40.378  25.600  27.996  1.00  0.00     0.029 A 
ATOM     47  C   UNL A   1      41.731  25.879  28.467  1.00  0.00     0.049 A 
ATOM     48  H   UNL A   1      42.427  27.630  29.358  1.00  0.00     0.167 HD
ATOM     49  C   UNL A   1      43.793  31.436  31.053  1.00  0.00     0.031 A 
ATOM     50  C   UNL A   1      42.772  25.025  28.399  1.00  0.00     0.031 A 
ATOM     51  C   UNL A   1      44.935  30.564  31.105  1.00  0.00     0.049 A 
ATOM     52  C   UNL A   1      44.108  25.458  28.937  1.00  0.00     0.074 A 
ATOM     53  C   UNL A   1      46.190  30.821  31.627  1.00  0.00     0.029 A 
ATOM     54  N   UNL A   1      44.961  29.266  30.617  1.00  0.00    -0.354 N 
ATOM     55  N   UNL A   1      44.445  26.603  29.481  1.00  0.00    -0.248 NA
ATOM     56  C   UNL A   1      45.200  24.478  28.866  1.00  0.00     0.031 C 
ATOM     57  C   UNL A   1      46.991  29.696  31.408  1.00  0.00     0.029 A 
ATOM     58  C   UNL A   1      46.217  28.717  30.805  1.00  0.00     0.049 A 
ATOM     59  H   UNL A   1      44.199  28.804  30.200  1.00  0.00     0.167 HD
ATOM     60  C   UNL A   1      45.782  26.473  29.840  1.00  0.00     0.074 A 
ATOM     61  C   UNL A   1      46.185  25.132  29.468  1.00  0.00     0.031 C 
ATOM     62  C   UNL A   1      46.601  27.379  30.428  1.00  0.00     0.031 A 
BRANCH  49  63
ATOM     63  C   UNL A   1      43.941  32.849  31.555  1.00  0.00    -0.014 A 
ATOM     64  C   UNL A   1      44.264  33.902  30.680  1.00  0.00     0.010 A 
ATOM     65  C   UNL A   1      43.723  33.133  32.915  1.00  0.00     0.010 A 
ATOM     66  C   UNL A   1      44.410  35.205  31.163  1.00  0.00     0.020 A 
ATOM     67  C   UNL A   1      43.837  34.441  33.398  1.00  0.00     0.020 A 
ATOM     68  C   UNL A   1      44.197  35.466  32.520  1.00  0.00     0.054 A 
BRANCH  68  69
ATOM     69  S   UNL A   1      44.371  37.170  33.114  1.00  0.00     0.124 S 
ATOM     70  O   UNL A   1      44.773  37.873  31.898  1.00  0.00    -0.237 OA
ATOM     71  O   UNL A   1      43.028  37.477  33.601  1.00  0.00    -0.237 OA
ATOM     72  O   UNL A   1      45.399  37.076  34.147  1.00  0.00    -0.744 OA
ENDBRANCH  68  69
ENDBRANCH  49  63
BRANCH  50  73
ATOM     73  C   UNL A   1      42.583  23.669  27.814  1.00  0.00    -0.014 A 
ATOM     74  C   UNL A   1      42.913  23.420  26.470  1.00  0.00     0.010 A 
ATOM     75  C   UNL A   1      42.087  22.614  28.602  1.00  0.00     0.010 A 
ATOM     76  C   UNL A   1      42.734  22.147  25.919  1.00  0.00     0.020 A 
ATOM     77  C   UNL A   1      41.935  21.333  28.063  1.00  0.00     0.020 A 
ATOM     78  C   UNL A   1      42.248  21.111  26.722  1.00  0.00     0.054 A 
BRANCH  78  79
ATOM     79  S   UNL A   1      42.074  19.455  26.000  1.00  0.00     0.124 S 
ATOM     80  O   UNL A   1      42.915  19.552  24.811  1.00  0.00    -0.237 OA
ATOM     81  O   UNL A   1      42.579  18.592  27.064  1.00  0.00    -0.237 OA
ATOM     82  O   UNL A   1      40.640  19.342  25.746  1.00  0.00    -0.744 OA
ENDBRANCH  78  79
ENDBRANCH  50  73
BRANCH  62  83
ATOM     83  C   UNL A   1      48.008  26.944  30.737  1.00  0.00    -0.014 A 
ATOM     84  C   UNL A   1      49.049  27.126  29.810  1.00  0.00     0.010 A 
ATOM     85  C   UNL A   1      48.301  26.398  32.001  1.00  0.00     0.010 A 
ATOM     86  C   UNL A   1      50.353  26.740  30.131  1.00  0.00     0.020 A 
ATOM     87  C   UNL A   1      49.607  26.039  32.335  1.00  0.00     0.020 A 
ATOM     88  C   UNL A   1      50.625  26.200  31.393  1.00  0.00     0.054 A 
BRANCH  88  89
ATOM     89  S   UNL A   1      52.333  25.751  31.801  1.00  0.00     0.124 S 
ATOM     90  O   UNL A   1      52.206  24.332  32.121  1.00  0.00    -0.237 OA
ATOM     91  O   UNL A   1      53.049  26.054  30.564  1.00  0.00    -0.237 OA
ATOM     92  O   UNL A   1      52.659  26.618  32.931  1.00  0.00    -0.744 OA
ENDBRANCH  88  89
ENDBRANCH  62  83
ENDBRANCH  36  37
ENDBRANCH  28  31
ENDBRANCH  26  27
ENDBRANCH  25  26
ENDBRANCH   1  25
TORSDOF 18
ENDMDL
MODEL 2
REMARK VINA RESULT:     -11.0      1.801      3.642
REMARK SMILES COc1cccc(CC(=O)N[C@@](C)(C(=O)NCCCNC(=O)c2ccc(-c3c4nc(c(-c5ccc(S(=O)(=O)[O-])cc5)c5ccc([nH]5)c(-c5ccc(S(=O)(=O)[O-])cc5)c5nc(c(-c6ccc(S(=O)(=O)[O-])cc6)c6ccc3[nH]6)C=C5)C=C4)cc2)C(F)(F)F)c1
REMARK SMILES IDX 17 1 16 2 14 3 15 4 12 6 13 7 11 8 9 9 10 10 8 12 7 13 3 14
REMARK SMILES IDX 4 15 87 16 5 17 6 18 2 19 1 20 83 21 84 22 85 23 86 24 18 25
REMARK SMILES IDX 19 26 20 27 21 28 22 30 23 31 24 32 82 33 25 34 81 35 26 36
REMARK SMILES IDX 27 37 28 38 75 39 29 40 80 41 74 42 76 43 30 44 79 45 73 46
REMARK SMILES IDX 72 47 31 49 61 50 42 51 60 52 43 53 46 54 59 55 77 56 44 57
REMARK SMILES IDX 45 58 58 60 78 61 47 62 32 63 33 64 41 65 34 66 40 67 35 68
REMARK SMILES IDX 36 69 37 70 38 71 39 72 62 73 63 74 71 75 64 76 70 77 65 78
REMARK SMILES IDX 66 79 67 80 68 81 69 82 48 83 49 84 57 85 50 86 56 87 51 88
REMARK SMILES IDX 52 89 53 90 54 91 55 92
REMARK H PARENT 16 5 11 11 20 29 76 48 46 59
REMARK Flexibility Score: inf
ROOT
ATOM      1  C   UNL A   1      33.836  26.556  25.627  1.00  0.00     0.117 C 
ENDROOT
BRANCH   1   2
ATOM      2  N   UNL A   1      33.751  26.254  24.209  1.00  0.00    -0.354 N 
ATOM      3  C   UNL A   1      33.266  25.193  23.516  1.00  0.00     0.254 C 
ATOM      4  O   UNL A   1      33.719  25.082  22.372  1.00  0.00    -0.272 OA
ATOM      5  H   UNL A   1      34.121  26.963  23.635  1.00  0.00     0.163 HD
BRANCH   3   6
ATOM      6  C   UNL A   1      32.339  24.134  24.140  1.00  0.00     0.212 C 
ATOM      7  C   UNL A   1      31.374  23.496  23.122  1.00  0.00     0.056 C 
BRANCH   6   8
ATOM      8  N   UNL A   1      31.574  24.894  25.186  1.00  0.00    -0.334 N 
ATOM      9  C   UNL A   1      30.521  25.740  25.260  1.00  0.00     0.225 C 
ATOM     10  O   UNL A   1      30.337  26.257  26.369  1.00  0.00    -0.275 OA
ATOM     11  H   UNL A   1      31.950  24.727  26.080  1.00  0.00     0.164 HD
BRANCH   9  12
ATOM     12  C   UNL A   1      29.561  26.036  24.129  1.00  0.00     0.135 C 
BRANCH  12  13
ATOM     13  C   UNL A   1      29.726  27.396  23.505  1.00  0.00    -0.035 A 
ATOM     14  C   UNL A   1      28.696  29.301  22.411  1.00  0.00     0.119 A 
ATOM     15  C   UNL A   1      29.963  29.776  22.071  1.00  0.00     0.046 A 
ATOM     16  C   UNL A   1      28.587  28.159  23.202  1.00  0.00     0.050 A 
ATOM     17  C   UNL A   1      31.110  29.095  22.485  1.00  0.00     0.004 A 
ATOM     18  C   UNL A   1      30.993  27.903  23.195  1.00  0.00     0.004 A 
BRANCH  14  19
ATOM     19  O   UNL A   1      27.643  29.995  21.880  1.00  0.00    -0.497 OA
ATOM     20  C   UNL A   1      27.966  31.058  20.985  1.00  0.00     0.278 C 
ENDBRANCH  14  19
ENDBRANCH  12  13
ENDBRANCH   9  12
ENDBRANCH   6   8
BRANCH   6  21
ATOM     21  C   UNL A   1      33.331  23.017  24.529  1.00  0.00     0.420 C 
ATOM     22  F   UNL A   1      34.486  23.463  25.060  1.00  0.00    -0.168 F 
ATOM     23  F   UNL A   1      32.761  22.183  25.425  1.00  0.00    -0.168 F 
ATOM     24  F   UNL A   1      33.639  22.202  23.486  1.00  0.00    -0.168 F 
ENDBRANCH   6  21
ENDBRANCH   3   6
ENDBRANCH   1   2
BRANCH   1  25
ATOM     25  C   UNL A   1      33.529  28.020  25.897  1.00  0.00     0.042 C 
BRANCH  25  26
ATOM     26  C   UNL A   1      33.528  28.396  27.370  1.00  0.00     0.118 C 
BRANCH  26  27
ATOM     27  N   UNL A   1      33.516  29.836  27.585  1.00  0.00    -0.352 N 
ATOM     28  C   UNL A   1      34.499  30.648  28.105  1.00  0.00     0.251 C 
ATOM     29  H   UNL A   1      32.686  30.295  27.321  1.00  0.00     0.163 HD
ATOM     30  O   UNL A   1      34.248  31.808  28.389  1.00  0.00    -0.269 OA
BRANCH  28  31
ATOM     31  C   UNL A   1      35.845  30.084  28.341  1.00  0.00     0.039 A 
ATOM     32  C   UNL A   1      36.776  30.092  27.301  1.00  0.00     0.014 A 
ATOM     33  C   UNL A   1      36.193  29.585  29.597  1.00  0.00     0.014 A 
ATOM     34  C   UNL A   1      38.083  29.668  27.548  1.00  0.00     0.010 A 
ATOM     35  C   UNL A   1      37.516  29.262  29.868  1.00  0.00     0.010 A 
ATOM     36  C   UNL A   1      38.473  29.290  28.844  1.00  0.00    -0.014 A 
BRANCH  36  37
ATOM     37  C   UNL A   1      39.875  28.908  29.153  1.00  0.00     0.031 A 
ATOM     38  C   UNL A   1      40.804  29.912  29.780  1.00  0.00     0.074 A 
ATOM     39  C   UNL A   1      40.329  27.688  28.801  1.00  0.00     0.049 A 
ATOM     40  N   UNL A   1      42.076  29.795  30.058  1.00  0.00    -0.248 NA
ATOM     41  C   UNL A   1      40.237  31.231  30.109  1.00  0.00     0.031 C 
ATOM     42  C   UNL A   1      39.540  26.644  28.140  1.00  0.00     0.029 A 
ATOM     43  N   UNL A   1      41.569  27.120  28.946  1.00  0.00    -0.354 N 
ATOM     44  C   UNL A   1      42.465  31.027  30.570  1.00  0.00     0.074 A 
ATOM     45  C   UNL A   1      41.310  31.894  30.513  1.00  0.00     0.031 C 
ATOM     46  C   UNL A   1      40.306  25.556  27.966  1.00  0.00     0.029 A 
ATOM     47  C   UNL A   1      41.650  25.836  28.460  1.00  0.00     0.049 A 
ATOM     48  H   UNL A   1      42.331  27.589  29.359  1.00  0.00     0.167 HD
ATOM     49  C   UNL A   1      43.669  31.398  31.066  1.00  0.00     0.031 A 
ATOM     50  C   UNL A   1      42.690  24.980  28.414  1.00  0.00     0.031 A 
ATOM     51  C   UNL A   1      44.809  30.526  31.142  1.00  0.00     0.049 A 
ATOM     52  C   UNL A   1      44.017  25.414  28.976  1.00  0.00     0.074 A 
ATOM     53  C   UNL A   1      46.054  30.783  31.686  1.00  0.00     0.029 A 
ATOM     54  N   UNL A   1      44.843  29.226  30.659  1.00  0.00    -0.354 N 
ATOM     55  N   UNL A   1      44.345  26.560  29.521  1.00  0.00    -0.248 NA
ATOM     56  C   UNL A   1      45.109  24.433  28.927  1.00  0.00     0.031 C 
ATOM     57  C   UNL A   1      46.859  29.656  31.486  1.00  0.00     0.029 A 
ATOM     58  C   UNL A   1      46.095  28.676  30.872  1.00  0.00     0.049 A 
ATOM     59  H   UNL A   1      44.088  28.763  30.229  1.00  0.00     0.167 HD
ATOM     60  C   UNL A   1      45.675  26.430  29.906  1.00  0.00     0.074 A 
ATOM     61  C   UNL A   1      46.083  25.088  29.545  1.00  0.00     0.031 C 
ATOM     62  C   UNL A   1      46.484  27.337  30.505  1.00  0.00     0.031 A 
BRANCH  49  63
ATOM     63  C   UNL A   1      43.810  32.812  31.567  1.00  0.00    -0.014 A 
ATOM     64  C   UNL A   1      43.564  33.136  32.914  1.00  0.00     0.010 A 
ATOM     65  C   UNL A   1      44.226  33.827  30.686  1.00  0.00     0.010 A 
ATOM     66  C   UNL A   1      43.687  34.454  33.360  1.00  0.00     0.020 A 
ATOM     67  C   UNL A   1      44.381  35.142  31.135  1.00  0.00     0.020 A 
ATOM     68  C   UNL A   1      44.094  35.449  32.467  1.00  0.00     0.054 A 
BRANCH  68  69
ATOM     69  S   UNL A   1      44.268  37.147  33.080  1.00  0.00     0.124 S 
ATOM     70  O   UNL A   1      42.970  37.374  33.711  1.00  0.00    -0.237 OA
ATOM     71  O   UNL A   1      45.401  37.041  33.995  1.00  0.00    -0.237 OA
ATOM     72  O   UNL A   1      44.517  37.930  31.872  1.00  0.00    -0.744 OA
ENDBRANCH  68  69
ENDBRANCH  49  63
BRANCH  50  73
ATOM     73  C   UNL A   1      42.511  23.623  27.829  1.00  0.00    -0.014 A 
ATOM     74  C   UNL A   1      43.043  23.315  26.564  1.00  0.00     0.010 A 
ATOM     75  C   UNL A   1      41.822  22.624  28.542  1.00  0.00     0.010 A 
ATOM     76  C   UNL A   1      42.873  22.040  26.015  1.00  0.00     0.020 A 
ATOM     77  C   UNL A   1      41.675  21.341  28.008  1.00  0.00     0.020 A 
ATOM     78  C   UNL A   1      42.192  21.061  26.742  1.00  0.00     0.054 A 
BRANCH  78  79
ATOM     79  S   UNL A   1      42.030  19.399  26.031  1.00  0.00     0.124 S 
ATOM     80  O   UNL A   1      42.570  18.559  27.094  1.00  0.00    -0.237 OA
ATOM     81  O   UNL A   1      40.591  19.291  25.807  1.00  0.00    -0.237 OA
ATOM     82  O   UNL A   1      42.837  19.469  24.814  1.00  0.00    -0.744 OA
ENDBRANCH  78  79
ENDBRANCH  50  73
BRANCH  62  83
ATOM     83  C   UNL A   1      47.885  26.902  30.842  1.00  0.00    -0.014 A 
ATOM     84  C   UNL A   1      48.952  27.127  29.956  1.00  0.00     0.010 A 
ATOM     85  C   UNL A   1      48.143  26.310  32.093  1.00  0.00     0.010 A 
ATOM     86  C   UNL A   1      50.249  26.740  30.303  1.00  0.00     0.020 A 
ATOM     87  C   UNL A   1      49.442  25.949  32.454  1.00  0.00     0.020 A 
ATOM     88  C   UNL A   1      50.487  26.154  31.550  1.00  0.00     0.054 A 
BRANCH  88  89
ATOM     89  S   UNL A   1      52.186  25.703  31.994  1.00  0.00     0.124 S 
ATOM     90  O   UNL A   1      52.068  24.266  32.225  1.00  0.00    -0.237 OA
ATOM     91  O   UNL A   1      52.941  26.089  30.804  1.00  0.00    -0.237 OA
ATOM     92  O   UNL A   1      52.457  26.506  33.185  1.00  0.00    -0.744 OA
ENDBRANCH  88  89
ENDBRANCH  62  83
ENDBRANCH  36  37
ENDBRANCH  28  31
ENDBRANCH  26  27
ENDBRANCH  25  26
ENDBRANCH   1  25
TORSDOF 18
ENDMDL
MODEL 3
REMARK VINA RESULT:     -10.8      1.127      1.994
REMARK SMILES COc1cccc(CC(=O)N[C@@](C)(C(=O)NCCCNC(=O)c2ccc(-c3c4nc(c(-c5ccc(S(=O)(=O)[O-])cc5)c5ccc([nH]5)c(-c5ccc(S(=O)(=O)[O-])cc5)c5nc(c(-c6ccc(S(=O)(=O)[O-])cc6)c6ccc3[nH]6)C=C5)C=C4)cc2)C(F)(F)F)c1
REMARK SMILES IDX 17 1 16 2 14 3 15 4 12 6 13 7 11 8 9 9 10 10 8 12 7 13 3 14
REMARK SMILES IDX 4 15 87 16 5 17 6 18 2 19 1 20 83 21 84 22 85 23 86 24 18 25
REMARK SMILES IDX 19 26 20 27 21 28 22 30 23 31 24 32 82 33 25 34 81 35 26 36
REMARK SMILES IDX 27 37 28 38 75 39 29 40 80 41 74 42 76 43 30 44 79 45 73 46
REMARK SMILES IDX 72 47 31 49 61 50 42 51 60 52 43 53 46 54 59 55 77 56 44 57
REMARK SMILES IDX 45 58 58 60 78 61 47 62 32 63 33 64 41 65 34 66 40 67 35 68
REMARK SMILES IDX 36 69 37 70 38 71 39 72 62 73 63 74 71 75 64 76 70 77 65 78
REMARK SMILES IDX 66 79 67 80 68 81 69 82 48 83 49 84 57 85 50 86 56 87 51 88
REMARK SMILES IDX 52 89 53 90 54 91 55 92
REMARK H PARENT 16 5 11 11 20 29 76 48 46 59
REMARK Flexibility Score: inf
ROOT
ATOM      1  C   UNL A   1      33.641  26.554  25.612  1.00  0.00     0.117 C 
ENDROOT
BRANCH   1   2
ATOM      2  N   UNL A   1      33.991  26.289  24.228  1.00  0.00    -0.354 N 
ATOM      3  C   UNL A   1      33.348  25.655  23.216  1.00  0.00     0.254 C 
ATOM      4  O   UNL A   1      34.090  25.257  22.311  1.00  0.00    -0.272 OA
ATOM      5  H   UNL A   1      34.875  26.640  23.973  1.00  0.00     0.163 HD
BRANCH   3   6
ATOM      6  C   UNL A   1      31.844  25.330  23.249  1.00  0.00     0.212 C 
ATOM      7  C   UNL A   1      31.229  25.440  24.658  1.00  0.00     0.056 C 
BRANCH   6   8
ATOM      8  N   UNL A   1      31.769  23.915  22.751  1.00  0.00    -0.334 N 
ATOM      9  C   UNL A   1      32.048  22.667  23.192  1.00  0.00     0.225 C 
ATOM     10  O   UNL A   1      31.964  21.775  22.339  1.00  0.00    -0.275 OA
ATOM     11  H   UNL A   1      31.412  23.888  21.834  1.00  0.00     0.164 HD
BRANCH   9  12
ATOM     12  C   UNL A   1      32.388  22.303  24.621  1.00  0.00     0.135 C 
BRANCH  12  13
ATOM     13  C   UNL A   1      33.826  21.924  24.847  1.00  0.00    -0.035 A 
ATOM     14  C   UNL A   1      36.147  22.622  24.972  1.00  0.00     0.119 A 
ATOM     15  C   UNL A   1      36.539  21.283  24.957  1.00  0.00     0.046 A 
ATOM     16  C   UNL A   1      34.789  22.934  25.005  1.00  0.00     0.050 A 
ATOM     17  C   UNL A   1      35.583  20.265  24.936  1.00  0.00     0.004 A 
ATOM     18  C   UNL A   1      34.229  20.584  24.873  1.00  0.00     0.004 A 
BRANCH  14  19
ATOM     19  O   UNL A   1      37.164  23.535  24.903  1.00  0.00    -0.497 OA
ATOM     20  C   UNL A   1      37.914  23.746  26.098  1.00  0.00     0.278 C 
ENDBRANCH  14  19
ENDBRANCH  12  13
ENDBRANCH   9  12
ENDBRANCH   6   8
BRANCH   6  21
ATOM     21  C   UNL A   1      31.238  26.496  22.439  1.00  0.00     0.420 C 
ATOM     22  F   UNL A   1      29.967  26.798  22.770  1.00  0.00    -0.168 F 
ATOM     23  F   UNL A   1      31.981  27.611  22.607  1.00  0.00    -0.168 F 
ATOM     24  F   UNL A   1      31.281  26.283  21.098  1.00  0.00    -0.168 F 
ENDBRANCH   6  21
ENDBRANCH   3   6
ENDBRANCH   1   2
BRANCH   1  25
ATOM     25  C   UNL A   1      33.508  28.046  25.870  1.00  0.00     0.042 C 
BRANCH  25  26
ATOM     26  C   UNL A   1      33.471  28.424  27.343  1.00  0.00     0.118 C 
BRANCH  26  27
ATOM     27  N   UNL A   1      33.423  29.863  27.555  1.00  0.00    -0.352 N 
ATOM     28  C   UNL A   1      34.381  30.699  28.085  1.00  0.00     0.251 C 
ATOM     29  H   UNL A   1      32.586  30.303  27.280  1.00  0.00     0.163 HD
ATOM     30  O   UNL A   1      34.100  31.853  28.363  1.00  0.00    -0.269 OA
BRANCH  28  31
ATOM     31  C   UNL A   1      35.737  30.167  28.337  1.00  0.00     0.039 A 
ATOM     32  C   UNL A   1      36.674  30.178  27.303  1.00  0.00     0.014 A 
ATOM     33  C   UNL A   1      36.087  29.694  29.604  1.00  0.00     0.014 A 
ATOM     34  C   UNL A   1      37.988  29.784  27.565  1.00  0.00     0.010 A 
ATOM     35  C   UNL A   1      37.415  29.403  29.887  1.00  0.00     0.010 A 
ATOM     36  C   UNL A   1      38.378  29.435  28.868  1.00  0.00    -0.014 A 
BRANCH  36  37
ATOM     37  C   UNL A   1      39.784  29.087  29.192  1.00  0.00     0.031 A 
ATOM     38  C   UNL A   1      40.684  30.114  29.825  1.00  0.00     0.074 A 
ATOM     39  C   UNL A   1      40.270  27.876  28.848  1.00  0.00     0.049 A 
ATOM     40  N   UNL A   1      41.956  30.027  30.116  1.00  0.00    -0.248 NA
ATOM     41  C   UNL A   1      40.083  31.420  30.146  1.00  0.00     0.031 C 
ATOM     42  C   UNL A   1      39.512  26.813  28.181  1.00  0.00     0.029 A 
ATOM     43  N   UNL A   1      41.522  27.339  29.005  1.00  0.00    -0.354 N 
ATOM     44  C   UNL A   1      42.311  31.269  30.628  1.00  0.00     0.074 A 
ATOM     45  C   UNL A   1      41.136  32.109  30.557  1.00  0.00     0.031 C 
ATOM     46  C   UNL A   1      40.305  25.743  28.017  1.00  0.00     0.029 A 
ATOM     47  C   UNL A   1      41.638  26.055  28.524  1.00  0.00     0.049 A 
ATOM     48  H   UNL A   1      42.269  27.826  29.424  1.00  0.00     0.167 HD
ATOM     49  C   UNL A   1      43.500  31.670  31.135  1.00  0.00     0.031 A 
ATOM     50  C   UNL A   1      42.699  25.225  28.490  1.00  0.00     0.031 A 
ATOM     51  C   UNL A   1      44.660  30.825  31.224  1.00  0.00     0.049 A 
ATOM     52  C   UNL A   1      44.009  25.690  29.063  1.00  0.00     0.074 A 
ATOM     53  C   UNL A   1      45.894  31.113  31.779  1.00  0.00     0.029 A 
ATOM     54  N   UNL A   1      44.729  29.525  30.744  1.00  0.00    -0.354 N 
ATOM     55  N   UNL A   1      44.305  26.846  29.609  1.00  0.00    -0.248 NA
ATOM     56  C   UNL A   1      45.124  24.735  29.027  1.00  0.00     0.031 C 
ATOM     57  C   UNL A   1      46.726  30.005  31.589  1.00  0.00     0.029 A 
ATOM     58  C   UNL A   1      45.992  29.005  30.970  1.00  0.00     0.049 A 
ATOM     59  H   UNL A   1      43.989  29.044  30.308  1.00  0.00     0.167 HD
ATOM     60  C   UNL A   1      45.634  26.747  30.006  1.00  0.00     0.074 A 
ATOM     61  C   UNL A   1      46.077  25.415  29.652  1.00  0.00     0.031 C 
ATOM     62  C   UNL A   1      46.416  27.675  30.611  1.00  0.00     0.031 A 
BRANCH  49  63
ATOM     63  C   UNL A   1      43.603  33.088  31.633  1.00  0.00    -0.014 A 
ATOM     64  C   UNL A   1      43.928  34.144  30.762  1.00  0.00     0.010 A 
ATOM     65  C   UNL A   1      43.338  33.375  32.984  1.00  0.00     0.010 A 
ATOM     66  C   UNL A   1      44.031  35.453  31.241  1.00  0.00     0.020 A 
ATOM     67  C   UNL A   1      43.410  34.687  33.463  1.00  0.00     0.020 A 
ATOM     68  C   UNL A   1      43.773  35.715  32.589  1.00  0.00     0.054 A 
BRANCH  68  69
ATOM     69  S   UNL A   1      43.891  37.426  33.179  1.00  0.00     0.124 S 
ATOM     70  O   UNL A   1      45.174  37.416  33.878  1.00  0.00    -0.237 OA
ATOM     71  O   UNL A   1      43.860  38.195  31.937  1.00  0.00    -0.237 OA
ATOM     72  O   UNL A   1      42.718  37.581  34.035  1.00  0.00    -0.744 OA
ENDBRANCH  68  69
ENDBRANCH  49  63
BRANCH  50  73
ATOM     73  C   UNL A   1      42.557  23.862  27.907  1.00  0.00    -0.014 A 
ATOM     74  C   UNL A   1      42.372  22.745  28.742  1.00  0.00     0.010 A 
ATOM     75  C   UNL A   1      42.591  23.674  26.513  1.00  0.00     0.010 A 
ATOM     76  C   UNL A   1      42.241  21.465  28.195  1.00  0.00     0.020 A 
ATOM     77  C   UNL A   1      42.432  22.400  25.961  1.00  0.00     0.020 A 
ATOM     78  C   UNL A   1      42.270  21.301  26.807  1.00  0.00     0.054 A 
BRANCH  78  79
ATOM     79  S   UNL A   1      42.045  19.637  26.119  1.00  0.00     0.124 S 
ATOM     80  O   UNL A   1      42.402  18.790  27.251  1.00  0.00    -0.237 OA
ATOM     81  O   UNL A   1      40.632  19.638  25.749  1.00  0.00    -0.237 OA
ATOM     82  O   UNL A   1      42.974  19.606  24.992  1.00  0.00    -0.744 OA
ENDBRANCH  78  79
ENDBRANCH  50  73
BRANCH  62  83
ATOM     83  C   UNL A   1      47.823  27.274  30.962  1.00  0.00    -0.014 A 
ATOM     84  C   UNL A   1      48.901  27.570  30.110  1.00  0.00     0.010 A 
ATOM     85  C   UNL A   1      48.075  26.640  32.194  1.00  0.00     0.010 A 
ATOM     86  C   UNL A   1      50.203  27.213  30.471  1.00  0.00     0.020 A 
ATOM     87  C   UNL A   1      49.377  26.309  32.570  1.00  0.00     0.020 A 
ATOM     88  C   UNL A   1      50.433  26.585  31.700  1.00  0.00     0.054 A 
BRANCH  88  89
ATOM     89  S   UNL A   1      52.137  26.174  32.164  1.00  0.00     0.124 S 
ATOM     90  O   UNL A   1      51.939  25.065  33.092  1.00  0.00    -0.237 OA
ATOM     91  O   UNL A   1      52.742  25.821  30.882  1.00  0.00    -0.237 OA
ATOM     92  O   UNL A   1      52.639  27.407  32.765  1.00  0.00    -0.744 OA
ENDBRANCH  88  89
ENDBRANCH  62  83
ENDBRANCH  36  37
ENDBRANCH  28  31
ENDBRANCH  26  27
ENDBRANCH  25  26
ENDBRANCH   1  25
TORSDOF 18
ENDMDL
