MODEL 1
REMARK VINA RESULT:     -15.8      0.000      0.000
REMARK SMILES Cc1ccc([C@@]23C[C@@H]4C[C@@H](C[C@@](C(=O)N5CCC(C(=O)NCCCNC(=O)c6ccc(-c7c8nc(c(-c9ccc(S(=O)(=O)[O-])cc9)c9ccc([nH]9)c(-c9ccc(S(=O)(=O)[O-])cc9)c9nc(c(-c%10ccc(S(=O)(=O)[O-])cc%10)c%10ccc7[nH]%10)C=C9)C=C8)cc6)CC5)(C4)C2)C3)cc1
REMARK SMILES IDX 23 1 22 2 21 3 19 4 20 5 18 7 13 8 14 9 15 10 16 11 89 12
REMARK SMILES IDX 17 13 88 14 12 15 6 16 7 17 91 18 92 19 8 20 10 21 9 22
REMARK SMILES IDX 90 23 11 24 5 25 1 26 2 27 3 28 94 29 4 30 93 31 24 32 25 33
REMARK SMILES IDX 26 34 27 36 28 37 29 38 87 39 30 40 86 41 31 42 32 43 33 44
REMARK SMILES IDX 80 45 34 46 85 47 79 48 81 49 35 50 84 51 78 52 77 53 36 55
REMARK SMILES IDX 66 56 47 57 65 58 48 59 51 60 64 61 82 62 49 63 50 64 63 66
REMARK SMILES IDX 83 67 52 68 37 69 38 70 46 71 39 72 45 73 40 74 41 75 42 76
REMARK SMILES IDX 43 77 44 78 67 79 68 80 76 81 69 82 75 83 70 84 71 85 72 86
REMARK SMILES IDX 73 87 74 88 53 89 54 90 62 91 55 92 61 93 56 94 57 95 58 96
REMARK SMILES IDX 59 97 60 98
REMARK H PARENT 21 6 25 35 81 54 51 65
REMARK Flexibility Score: inf
ROOT
ATOM      1  C   UNL A   1      33.022  29.784  26.926  1.00  0.00     0.042 C 
ENDROOT
BRANCH   1   2
ATOM      2  C   UNL A   1      32.723  29.970  25.446  1.00  0.00     0.117 C 
BRANCH   2   3
ATOM      3  N   UNL A   1      31.409  29.448  25.064  1.00  0.00    -0.356 N 
ATOM      4  C   UNL A   1      31.044  28.518  24.137  1.00  0.00     0.223 C 
ATOM      5  O   UNL A   1      29.848  28.236  24.022  1.00  0.00    -0.275 OA
ATOM      6  H   UNL A   1      30.658  29.838  25.565  1.00  0.00     0.163 HD
BRANCH   4   7
ATOM      7  C   UNL A   1      32.064  27.847  23.225  1.00  0.00     0.082 C 
ATOM      8  C   UNL A   1      32.897  23.944  23.234  1.00  0.00     0.228 C 
ATOM      9  O   UNL A   1      31.889  23.323  22.886  1.00  0.00    -0.274 OA
ATOM     10  N   UNL A   1      33.126  25.236  22.759  1.00  0.00    -0.342 N 
ATOM     11  C   UNL A   1      32.268  25.767  21.708  1.00  0.00     0.120 C 
ATOM     12  C   UNL A   1      34.030  26.249  23.294  1.00  0.00     0.120 C 
ATOM     13  C   UNL A   1      31.389  26.909  22.205  1.00  0.00     0.035 C 
ATOM     14  C   UNL A   1      33.213  27.268  24.059  1.00  0.00     0.035 C 
BRANCH   8  15
ATOM     15  C   UNL A   1      33.965  23.230  24.104  1.00  0.00     0.051 C 
ATOM     16  C   UNL A   1      34.523  20.897  25.051  1.00  0.00    -0.003 C 
ATOM     17  C   UNL A   1      35.939  21.086  24.427  1.00  0.00     0.015 C 
ATOM     18  C   UNL A   1      33.545  21.755  24.220  1.00  0.00     0.028 C 
ATOM     19  C   UNL A   1      34.530  21.485  26.485  1.00  0.00     0.015 C 
ATOM     20  C   UNL A   1      36.376  22.565  24.447  1.00  0.00    -0.009 C 
ATOM     21  C   UNL A   1      34.933  22.973  26.459  1.00  0.00    -0.009 C 
ATOM     22  C   UNL A   1      36.355  23.087  25.891  1.00  0.00     0.007 C 
ATOM     23  C   UNL A   1      35.411  23.406  23.598  1.00  0.00     0.020 C 
ATOM     24  C   UNL A   1      33.959  23.777  25.566  1.00  0.00     0.020 C 
BRANCH  16  25
ATOM     25  C   UNL A   1      34.101  19.416  25.045  1.00  0.00    -0.042 A 
ATOM     26  C   UNL A   1      33.024  15.211  25.237  1.00  0.00     0.044 C 
ATOM     27  C   UNL A   1      33.366  16.668  25.154  1.00  0.00    -0.051 A 
ATOM     28  C   UNL A   1      34.561  17.056  24.554  1.00  0.00     0.004 A 
ATOM     29  C   UNL A   1      32.527  17.655  25.678  1.00  0.00     0.004 A 
ATOM     30  C   UNL A   1      34.914  18.405  24.494  1.00  0.00     0.004 A 
ATOM     31  C   UNL A   1      32.888  19.008  25.620  1.00  0.00     0.004 A 
ENDBRANCH  16  25
ENDBRANCH   8  15
ENDBRANCH   4   7
ENDBRANCH   2   3
ENDBRANCH   1   2
BRANCH   1  32
ATOM     32  C   UNL A   1      34.497  29.563  27.210  1.00  0.00     0.118 C 
BRANCH  32  33
ATOM     33  N   UNL A   1      35.202  30.807  27.500  1.00  0.00    -0.352 N 
ATOM     34  C   UNL A   1      36.461  30.939  28.047  1.00  0.00     0.251 C 
ATOM     35  H   UNL A   1      34.729  31.642  27.282  1.00  0.00     0.163 HD
ATOM     36  O   UNL A   1      36.903  32.008  28.468  1.00  0.00    -0.269 OA
BRANCH  34  37
ATOM     37  C   UNL A   1      37.316  29.745  27.994  1.00  0.00     0.039 A 
ATOM     38  C   UNL A   1      37.410  28.989  29.169  1.00  0.00     0.014 A 
ATOM     39  C   UNL A   1      38.255  29.631  26.973  1.00  0.00     0.014 A 
ATOM     40  C   UNL A   1      38.558  28.242  29.402  1.00  0.00     0.010 A 
ATOM     41  C   UNL A   1      39.434  28.969  27.253  1.00  0.00     0.010 A 
ATOM     42  C   UNL A   1      39.604  28.315  28.484  1.00  0.00    -0.014 A 
BRANCH  42  43
ATOM     43  C   UNL A   1      40.934  27.782  28.739  1.00  0.00     0.031 A 
ATOM     44  C   UNL A   1      41.228  26.375  28.381  1.00  0.00     0.074 A 
ATOM     45  C   UNL A   1      41.919  28.559  29.245  1.00  0.00     0.049 A 
ATOM     46  N   UNL A   1      42.200  25.685  28.880  1.00  0.00    -0.248 NA
ATOM     47  C   UNL A   1      40.406  25.612  27.443  1.00  0.00     0.031 C 
ATOM     48  C   UNL A   1      43.350  28.255  29.265  1.00  0.00     0.029 A 
ATOM     49  N   UNL A   1      41.860  29.742  29.962  1.00  0.00    -0.354 N 
ATOM     50  C   UNL A   1      42.326  24.554  28.113  1.00  0.00     0.074 A 
ATOM     51  C   UNL A   1      41.142  24.511  27.286  1.00  0.00     0.031 C 
ATOM     52  C   UNL A   1      43.944  29.031  30.187  1.00  0.00     0.029 A 
ATOM     53  C   UNL A   1      42.891  29.723  30.905  1.00  0.00     0.049 A 
ATOM     54  H   UNL A   1      41.208  30.468  29.830  1.00  0.00     0.167 HD
ATOM     55  C   UNL A   1      43.485  23.840  28.137  1.00  0.00     0.031 A 
ATOM     56  C   UNL A   1      42.685  29.626  32.256  1.00  0.00     0.031 A 
ATOM     57  C   UNL A   1      44.448  24.360  29.104  1.00  0.00     0.049 A 
ATOM     58  C   UNL A   1      43.277  28.367  32.890  1.00  0.00     0.074 A 
ATOM     59  C   UNL A   1      45.618  25.097  29.015  1.00  0.00     0.029 A 
ATOM     60  N   UNL A   1      44.087  24.385  30.443  1.00  0.00    -0.354 N 
ATOM     61  N   UNL A   1      43.914  27.433  32.237  1.00  0.00    -0.248 NA
ATOM     62  C   UNL A   1      43.112  28.023  34.305  1.00  0.00     0.031 C 
ATOM     63  C   UNL A   1      45.950  25.571  30.320  1.00  0.00     0.029 A 
ATOM     64  C   UNL A   1      44.991  25.106  31.201  1.00  0.00     0.049 A 
ATOM     65  H   UNL A   1      43.286  23.944  30.808  1.00  0.00     0.167 HD
ATOM     66  C   UNL A   1      44.184  26.378  33.071  1.00  0.00     0.074 A 
ATOM     67  C   UNL A   1      43.671  26.801  34.362  1.00  0.00     0.031 C 
ATOM     68  C   UNL A   1      44.762  25.219  32.634  1.00  0.00     0.031 A 
BRANCH  55  69
ATOM     69  C   UNL A   1      43.791  22.847  27.047  1.00  0.00    -0.014 A 
ATOM     70  C   UNL A   1      42.872  21.823  26.752  1.00  0.00     0.010 A 
ATOM     71  C   UNL A   1      45.011  22.828  26.341  1.00  0.00     0.010 A 
ATOM     72  C   UNL A   1      43.197  20.770  25.887  1.00  0.00     0.020 A 
ATOM     73  C   UNL A   1      45.367  21.756  25.510  1.00  0.00     0.020 A 
ATOM     74  C   UNL A   1      44.458  20.724  25.297  1.00  0.00     0.054 A 
BRANCH  74  75
ATOM     75  S   UNL A   1      44.906  19.286  24.289  1.00  0.00     0.124 S 
ATOM     76  O   UNL A   1      46.362  19.249  24.412  1.00  0.00    -0.237 OA
ATOM     77  O   UNL A   1      44.189  18.204  24.957  1.00  0.00    -0.237 OA
ATOM     78  O   UNL A   1      44.413  19.631  22.956  1.00  0.00    -0.744 OA
ENDBRANCH  74  75
ENDBRANCH  55  69
BRANCH  56  79
ATOM     79  C   UNL A   1      41.452  30.323  32.724  1.00  0.00    -0.014 A 
ATOM     80  C   UNL A   1      40.311  29.526  32.964  1.00  0.00     0.010 A 
ATOM     81  C   UNL A   1      41.527  31.598  33.310  1.00  0.00     0.010 A 
ATOM     82  C   UNL A   1      39.369  29.908  33.922  1.00  0.00     0.020 A 
ATOM     83  C   UNL A   1      40.572  31.988  34.261  1.00  0.00     0.020 A 
ATOM     84  C   UNL A   1      39.546  31.107  34.612  1.00  0.00     0.054 A 
BRANCH  84  85
ATOM     85  S   UNL A   1      38.547  31.381  36.107  1.00  0.00     0.124 S 
ATOM     86  O   UNL A   1      37.306  31.915  35.559  1.00  0.00    -0.237 OA
ATOM     87  O   UNL A   1      38.463  30.031  36.666  1.00  0.00    -0.237 OA
ATOM     88  O   UNL A   1      39.351  32.323  36.881  1.00  0.00    -0.744 OA
ENDBRANCH  84  85
ENDBRANCH  56  79
BRANCH  68  89
ATOM     89  C   UNL A   1      45.118  24.041  33.513  1.00  0.00    -0.014 A 
ATOM     90  C   UNL A   1      44.209  23.026  33.853  1.00  0.00     0.010 A 
ATOM     91  C   UNL A   1      46.389  23.989  34.133  1.00  0.00     0.010 A 
ATOM     92  C   UNL A   1      44.583  21.965  34.693  1.00  0.00     0.020 A 
ATOM     93  C   UNL A   1      46.767  22.951  34.988  1.00  0.00     0.020 A 
ATOM     94  C   UNL A   1      45.866  21.926  35.243  1.00  0.00     0.054 A 
BRANCH  94  95
ATOM     95  S   UNL A   1      46.325  20.556  36.332  1.00  0.00     0.124 S 
ATOM     96  O   UNL A   1      45.806  20.989  37.627  1.00  0.00    -0.237 OA
ATOM     97  O   UNL A   1      45.620  19.433  35.718  1.00  0.00    -0.237 OA
ATOM     98  O   UNL A   1      47.782  20.503  36.237  1.00  0.00    -0.744 OA
ENDBRANCH  94  95
ENDBRANCH  68  89
ENDBRANCH  42  43
ENDBRANCH  34  37
ENDBRANCH  32  33
ENDBRANCH   1  32
TORSDOF 15
ENDMDL
MODEL 2
REMARK VINA RESULT:     -15.2      4.533     11.547
REMARK SMILES Cc1ccc([C@@]23C[C@@H]4C[C@@H](C[C@@](C(=O)N5CCC(C(=O)NCCCNC(=O)c6ccc(-c7c8nc(c(-c9ccc(S(=O)(=O)[O-])cc9)c9ccc([nH]9)c(-c9ccc(S(=O)(=O)[O-])cc9)c9nc(c(-c%10ccc(S(=O)(=O)[O-])cc%10)c%10ccc7[nH]%10)C=C9)C=C8)cc6)CC5)(C4)C2)C3)cc1
REMARK SMILES IDX 23 1 22 2 21 3 19 4 20 5 18 7 13 8 14 9 15 10 16 11 89 12
REMARK SMILES IDX 17 13 88 14 12 15 6 16 7 17 91 18 92 19 8 20 10 21 9 22
REMARK SMILES IDX 90 23 11 24 5 25 1 26 2 27 3 28 94 29 4 30 93 31 24 32 25 33
REMARK SMILES IDX 26 34 27 36 28 37 29 38 87 39 30 40 86 41 31 42 32 43 33 44
REMARK SMILES IDX 80 45 34 46 85 47 79 48 81 49 35 50 84 51 78 52 77 53 36 55
REMARK SMILES IDX 66 56 47 57 65 58 48 59 51 60 64 61 82 62 49 63 50 64 63 66
REMARK SMILES IDX 83 67 52 68 37 69 38 70 46 71 39 72 45 73 40 74 41 75 42 76
REMARK SMILES IDX 43 77 44 78 67 79 68 80 76 81 69 82 75 83 70 84 71 85 72 86
REMARK SMILES IDX 73 87 74 88 53 89 54 90 62 91 55 92 61 93 56 94 57 95 58 96
REMARK SMILES IDX 59 97 60 98
REMARK H PARENT 21 6 25 35 81 54 51 65
REMARK Flexibility Score: inf
ROOT
ATOM      1  C   UNL A   1      37.441  22.335  25.115  1.00  0.00     0.042 C 
ENDROOT
BRANCH   1   2
ATOM      2  C   UNL A   1      36.412  21.430  25.778  1.00  0.00     0.117 C 
BRANCH   2   3
ATOM      3  N   UNL A   1      35.382  20.967  24.847  1.00  0.00    -0.356 N 
ATOM      4  C   UNL A   1      34.034  21.168  24.822  1.00  0.00     0.223 C 
ATOM      5  O   UNL A   1      33.379  20.677  23.899  1.00  0.00    -0.275 OA
ATOM      6  H   UNL A   1      35.722  20.414  24.109  1.00  0.00     0.163 HD
BRANCH   4   7
ATOM      7  C   UNL A   1      33.316  21.953  25.915  1.00  0.00     0.082 C 
ATOM      8  C   UNL A   1      31.259  25.320  25.316  1.00  0.00     0.228 C 
ATOM      9  O   UNL A   1      30.291  25.069  24.592  1.00  0.00    -0.274 OA
ATOM     10  N   UNL A   1      31.770  24.341  26.170  1.00  0.00    -0.342 N 
ATOM     11  C   UNL A   1      31.038  23.092  26.337  1.00  0.00     0.120 C 
ATOM     12  C   UNL A   1      33.073  24.305  26.826  1.00  0.00     0.120 C 
ATOM     13  C   UNL A   1      31.786  21.904  25.743  1.00  0.00     0.035 C 
ATOM     14  C   UNL A   1      33.963  23.334  26.079  1.00  0.00     0.035 C 
BRANCH   8  15
ATOM     15  C   UNL A   1      31.821  26.765  25.357  1.00  0.00     0.051 C 
ATOM     16  C   UNL A   1      31.356  29.108  24.386  1.00  0.00    -0.003 C 
ATOM     17  C   UNL A   1      31.406  29.624  25.856  1.00  0.00     0.015 C 
ATOM     18  C   UNL A   1      30.933  27.625  24.441  1.00  0.00     0.028 C 
ATOM     19  C   UNL A   1      32.789  29.144  23.797  1.00  0.00     0.015 C 
ATOM     20  C   UNL A   1      32.406  28.816  26.707  1.00  0.00    -0.009 C 
ATOM     21  C   UNL A   1      33.749  28.294  24.654  1.00  0.00    -0.009 C 
ATOM     22  C   UNL A   1      33.800  28.887  26.070  1.00  0.00     0.007 C 
ATOM     23  C   UNL A   1      31.963  27.347  26.778  1.00  0.00     0.020 C 
ATOM     24  C   UNL A   1      33.249  26.832  24.728  1.00  0.00     0.020 C 
BRANCH  16  25
ATOM     25  C   UNL A   1      30.370  29.932  23.535  1.00  0.00    -0.042 A 
ATOM     26  C   UNL A   1      27.771  32.404  21.084  1.00  0.00     0.044 C 
ATOM     27  C   UNL A   1      28.649  31.524  21.921  1.00  0.00    -0.051 A 
ATOM     28  C   UNL A   1      28.808  31.806  23.275  1.00  0.00     0.004 A 
ATOM     29  C   UNL A   1      29.331  30.431  21.379  1.00  0.00     0.004 A 
ATOM     30  C   UNL A   1      29.646  31.018  24.066  1.00  0.00     0.004 A 
ATOM     31  C   UNL A   1      30.175  29.645  22.176  1.00  0.00     0.004 A 
ENDBRANCH  16  25
ENDBRANCH   8  15
ENDBRANCH   4   7
ENDBRANCH   2   3
ENDBRANCH   1   2
BRANCH   1  32
ATOM     32  C   UNL A   1      37.921  23.451  26.025  1.00  0.00     0.118 C 
BRANCH  32  33
ATOM     33  N   UNL A   1      39.073  23.060  26.830  1.00  0.00    -0.352 N 
ATOM     34  C   UNL A   1      39.963  23.898  27.469  1.00  0.00     0.251 C 
ATOM     35  H   UNL A   1      39.233  22.094  26.928  1.00  0.00     0.163 HD
ATOM     36  O   UNL A   1      41.031  23.510  27.942  1.00  0.00    -0.269 OA
BRANCH  34  37
ATOM     37  C   UNL A   1      39.513  25.283  27.670  1.00  0.00     0.039 A 
ATOM     38  C   UNL A   1      40.142  26.264  26.893  1.00  0.00     0.014 A 
ATOM     39  C   UNL A   1      38.811  25.605  28.828  1.00  0.00     0.014 A 
ATOM     40  C   UNL A   1      40.221  27.563  27.380  1.00  0.00     0.010 A 
ATOM     41  C   UNL A   1      38.979  26.871  29.352  1.00  0.00     0.010 A 
ATOM     42  C   UNL A   1      39.722  27.834  28.652  1.00  0.00    -0.014 A 
BRANCH  42  43
ATOM     43  C   UNL A   1      39.967  29.082  29.360  1.00  0.00     0.031 A 
ATOM     44  C   UNL A   1      38.951  30.159  29.298  1.00  0.00     0.074 A 
ATOM     45  C   UNL A   1      41.075  29.257  30.116  1.00  0.00     0.049 A 
ATOM     46  N   UNL A   1      39.193  31.403  29.545  1.00  0.00    -0.248 NA
ATOM     47  C   UNL A   1      37.565  29.912  28.904  1.00  0.00     0.031 C 
ATOM     48  C   UNL A   1      41.302  30.310  31.106  1.00  0.00     0.029 A 
ATOM     49  N   UNL A   1      42.299  28.609  30.091  1.00  0.00    -0.354 N 
ATOM     50  C   UNL A   1      37.980  32.033  29.667  1.00  0.00     0.074 A 
ATOM     51  C   UNL A   1      37.001  31.089  29.181  1.00  0.00     0.031 C 
ATOM     52  C   UNL A   1      42.621  30.411  31.337  1.00  0.00     0.029 A 
ATOM     53  C   UNL A   1      43.289  29.554  30.376  1.00  0.00     0.049 A 
ATOM     54  H   UNL A   1      42.445  27.654  29.906  1.00  0.00     0.167 HD
ATOM     55  C   UNL A   1      37.896  33.233  30.305  1.00  0.00     0.031 A 
ATOM     56  C   UNL A   1      44.209  29.991  29.461  1.00  0.00     0.031 A 
ATOM     57  C   UNL A   1      39.201  33.749  30.709  1.00  0.00     0.049 A 
ATOM     58  C   UNL A   1      44.119  31.484  29.148  1.00  0.00     0.074 A 
ATOM     59  C   UNL A   1      39.881  33.847  31.912  1.00  0.00     0.029 A 
ATOM     60  N   UNL A   1      40.142  34.004  29.722  1.00  0.00    -0.354 N 
ATOM     61  N   UNL A   1      43.247  32.304  29.669  1.00  0.00    -0.248 NA
ATOM     62  C   UNL A   1      44.956  32.150  28.146  1.00  0.00     0.031 C 
ATOM     63  C   UNL A   1      41.246  34.156  31.632  1.00  0.00     0.029 A 
ATOM     64  C   UNL A   1      41.388  34.264  30.261  1.00  0.00     0.049 A 
ATOM     65  H   UNL A   1      39.946  33.999  28.757  1.00  0.00     0.167 HD
ATOM     66  C   UNL A   1      43.342  33.535  29.071  1.00  0.00     0.074 A 
ATOM     67  C   UNL A   1      44.438  33.391  28.129  1.00  0.00     0.031 C 
ATOM     68  C   UNL A   1      42.488  34.563  29.355  1.00  0.00     0.031 A 
BRANCH  55  69
ATOM     69  C   UNL A   1      36.565  33.748  30.786  1.00  0.00    -0.014 A 
ATOM     70  C   UNL A   1      35.547  34.036  29.857  1.00  0.00     0.010 A 
ATOM     71  C   UNL A   1      36.296  34.049  32.136  1.00  0.00     0.010 A 
ATOM     72  C   UNL A   1      34.371  34.697  30.237  1.00  0.00     0.020 A 
ATOM     73  C   UNL A   1      35.145  34.751  32.522  1.00  0.00     0.020 A 
ATOM     74  C   UNL A   1      34.192  35.082  31.564  1.00  0.00     0.054 A 
BRANCH  74  75
ATOM     75  S   UNL A   1      32.726  36.051  32.008  1.00  0.00     0.124 S 
ATOM     76  O   UNL A   1      33.244  36.966  33.024  1.00  0.00    -0.237 OA
ATOM     77  O   UNL A   1      32.362  36.664  30.734  1.00  0.00    -0.237 OA
ATOM     78  O   UNL A   1      31.787  35.048  32.509  1.00  0.00    -0.744 OA
ENDBRANCH  74  75
ENDBRANCH  55  69
BRANCH  56  79
ATOM     79  C   UNL A   1      44.639  28.938  28.496  1.00  0.00    -0.014 A 
ATOM     80  C   UNL A   1      45.531  27.951  28.971  1.00  0.00     0.010 A 
ATOM     81  C   UNL A   1      43.887  28.673  27.340  1.00  0.00     0.010 A 
ATOM     82  C   UNL A   1      45.521  26.665  28.427  1.00  0.00     0.020 A 
ATOM     83  C   UNL A   1      43.888  27.385  26.782  1.00  0.00     0.020 A 
ATOM     84  C   UNL A   1      44.647  26.375  27.379  1.00  0.00     0.054 A 
BRANCH  84  85
ATOM     85  S   UNL A   1      44.369  24.626  26.964  1.00  0.00     0.124 S 
ATOM     86  O   UNL A   1      43.186  24.691  26.114  1.00  0.00    -0.237 OA
ATOM     87  O   UNL A   1      45.618  24.276  26.284  1.00  0.00    -0.237 OA
ATOM     88  O   UNL A   1      44.176  23.997  28.268  1.00  0.00    -0.744 OA
ENDBRANCH  84  85
ENDBRANCH  56  79
BRANCH  68  89
ATOM     89  C   UNL A   1      42.569  35.949  28.757  1.00  0.00    -0.014 A 
ATOM     90  C   UNL A   1      43.111  37.054  29.433  1.00  0.00     0.010 A 
ATOM     91  C   UNL A   1      41.972  36.204  27.498  1.00  0.00     0.010 A 
ATOM     92  C   UNL A   1      43.141  38.326  28.841  1.00  0.00     0.020 A 
ATOM     93  C   UNL A   1      41.975  37.470  26.907  1.00  0.00     0.020 A 
ATOM     94  C   UNL A   1      42.586  38.523  27.574  1.00  0.00     0.054 A 
BRANCH  94  95
ATOM     95  S   UNL A   1      42.625  40.174  26.833  1.00  0.00     0.124 S 
ATOM     96  O   UNL A   1      43.644  40.032  25.794  1.00  0.00    -0.237 OA
ATOM     97  O   UNL A   1      41.255  40.321  26.349  1.00  0.00    -0.237 OA
ATOM     98  O   UNL A   1      42.993  41.049  27.943  1.00  0.00    -0.744 OA
ENDBRANCH  94  95
ENDBRANCH  68  89
ENDBRANCH  42  43
ENDBRANCH  34  37
ENDBRANCH  32  33
ENDBRANCH   1  32
TORSDOF 15
ENDMDL
MODEL 3
REMARK VINA RESULT:     -15.2      4.762     11.562
REMARK SMILES Cc1ccc([C@@]23C[C@@H]4C[C@@H](C[C@@](C(=O)N5CCC(C(=O)NCCCNC(=O)c6ccc(-c7c8nc(c(-c9ccc(S(=O)(=O)[O-])cc9)c9ccc([nH]9)c(-c9ccc(S(=O)(=O)[O-])cc9)c9nc(c(-c%10ccc(S(=O)(=O)[O-])cc%10)c%10ccc7[nH]%10)C=C9)C=C8)cc6)CC5)(C4)C2)C3)cc1
REMARK SMILES IDX 23 1 22 2 21 3 19 4 20 5 18 7 13 8 14 9 15 10 16 11 89 12
REMARK SMILES IDX 17 13 88 14 12 15 6 16 7 17 91 18 92 19 8 20 10 21 9 22
REMARK SMILES IDX 90 23 11 24 5 25 1 26 2 27 3 28 94 29 4 30 93 31 24 32 25 33
REMARK SMILES IDX 26 34 27 36 28 37 29 38 87 39 30 40 86 41 31 42 32 43 33 44
REMARK SMILES IDX 80 45 34 46 85 47 79 48 81 49 35 50 84 51 78 52 77 53 36 55
REMARK SMILES IDX 66 56 47 57 65 58 48 59 51 60 64 61 82 62 49 63 50 64 63 66
REMARK SMILES IDX 83 67 52 68 37 69 38 70 46 71 39 72 45 73 40 74 41 75 42 76
REMARK SMILES IDX 43 77 44 78 67 79 68 80 76 81 69 82 75 83 70 84 71 85 72 86
REMARK SMILES IDX 73 87 74 88 53 89 54 90 62 91 55 92 61 93 56 94 57 95 58 96
REMARK SMILES IDX 59 97 60 98
REMARK H PARENT 21 6 25 35 81 54 51 65
REMARK Flexibility Score: inf
ROOT
ATOM      1  C   UNL A   1      37.978  22.392  25.088  1.00  0.00     0.042 C 
ENDROOT
BRANCH   1   2
ATOM      2  C   UNL A   1      37.864  20.963  25.600  1.00  0.00     0.117 C 
BRANCH   2   3
ATOM      3  N   UNL A   1      36.676  20.274  25.092  1.00  0.00    -0.356 N 
ATOM      4  C   UNL A   1      35.347  20.535  25.247  1.00  0.00     0.223 C 
ATOM      5  O   UNL A   1      34.531  19.798  24.687  1.00  0.00    -0.275 OA
ATOM      6  H   UNL A   1      36.872  19.483  24.540  1.00  0.00     0.163 HD
BRANCH   4   7
ATOM      7  C   UNL A   1      34.849  21.685  26.114  1.00  0.00     0.082 C 
ATOM      8  C   UNL A   1      31.612  23.884  25.329  1.00  0.00     0.228 C 
ATOM      9  O   UNL A   1      30.616  23.155  25.383  1.00  0.00    -0.274 OA
ATOM     10  N   UNL A   1      32.731  23.603  26.114  1.00  0.00    -0.342 N 
ATOM     11  C   UNL A   1      32.643  22.562  27.129  1.00  0.00     0.120 C 
ATOM     12  C   UNL A   1      34.095  24.099  25.955  1.00  0.00     0.120 C 
ATOM     13  C   UNL A   1      33.505  21.352  26.789  1.00  0.00     0.035 C 
ATOM     14  C   UNL A   1      34.938  23.004  25.336  1.00  0.00     0.035 C 
BRANCH   8  15
ATOM     15  C   UNL A   1      31.559  25.177  24.476  1.00  0.00     0.051 C 
ATOM     16  C   UNL A   1      31.944  27.719  24.690  1.00  0.00    -0.003 C 
ATOM     17  C   UNL A   1      32.884  27.585  23.455  1.00  0.00     0.015 C 
ATOM     18  C   UNL A   1      31.934  26.348  25.401  1.00  0.00     0.028 C 
ATOM     19  C   UNL A   1      30.500  27.976  24.190  1.00  0.00     0.015 C 
ATOM     20  C   UNL A   1      32.399  26.486  22.487  1.00  0.00    -0.009 C 
ATOM     21  C   UNL A   1      30.038  26.837  23.258  1.00  0.00    -0.009 C 
ATOM     22  C   UNL A   1      30.966  26.795  22.035  1.00  0.00     0.007 C 
ATOM     23  C   UNL A   1      32.417  25.123  23.195  1.00  0.00     0.020 C 
ATOM     24  C   UNL A   1      30.104  25.480  23.997  1.00  0.00     0.020 C 
BRANCH  16  25
ATOM     25  C   UNL A   1      32.423  28.831  25.642  1.00  0.00    -0.042 A 
ATOM     26  C   UNL A   1      33.891  32.066  28.143  1.00  0.00     0.044 C 
ATOM     27  C   UNL A   1      33.356  30.949  27.299  1.00  0.00    -0.051 A 
ATOM     28  C   UNL A   1      34.106  29.785  27.152  1.00  0.00     0.004 A 
ATOM     29  C   UNL A   1      32.129  31.044  26.638  1.00  0.00     0.004 A 
ATOM     30  C   UNL A   1      33.641  28.744  26.346  1.00  0.00     0.004 A 
ATOM     31  C   UNL A   1      31.668  29.999  25.826  1.00  0.00     0.004 A 
ENDBRANCH  16  25
ENDBRANCH   8  15
ENDBRANCH   4   7
ENDBRANCH   2   3
ENDBRANCH   1   2
BRANCH   1  32
ATOM     32  C   UNL A   1      38.245  23.398  26.193  1.00  0.00     0.118 C 
BRANCH  32  33
ATOM     33  N   UNL A   1      39.454  23.090  26.950  1.00  0.00    -0.352 N 
ATOM     34  C   UNL A   1      40.313  23.990  27.544  1.00  0.00     0.251 C 
ATOM     35  H   UNL A   1      39.681  22.137  27.047  1.00  0.00     0.163 HD
ATOM     36  O   UNL A   1      41.424  23.677  27.973  1.00  0.00    -0.269 OA
BRANCH  34  37
ATOM     37  C   UNL A   1      39.783  25.345  27.756  1.00  0.00     0.039 A 
ATOM     38  C   UNL A   1      40.313  26.358  26.949  1.00  0.00     0.014 A 
ATOM     39  C   UNL A   1      39.109  25.629  28.940  1.00  0.00     0.014 A 
ATOM     40  C   UNL A   1      40.328  27.664  27.424  1.00  0.00     0.010 A 
ATOM     41  C   UNL A   1      39.215  26.908  29.450  1.00  0.00     0.010 A 
ATOM     42  C   UNL A   1      39.864  27.912  28.714  1.00  0.00    -0.014 A 
BRANCH  42  43
ATOM     43  C   UNL A   1      40.057  29.179  29.405  1.00  0.00     0.031 A 
ATOM     44  C   UNL A   1      39.010  30.223  29.302  1.00  0.00     0.074 A 
ATOM     45  C   UNL A   1      41.142  29.401  30.181  1.00  0.00     0.049 A 
ATOM     46  N   UNL A   1      39.210  31.478  29.532  1.00  0.00    -0.248 NA
ATOM     47  C   UNL A   1      37.641  29.926  28.883  1.00  0.00     0.031 C 
ATOM     48  C   UNL A   1      41.315  30.477  31.157  1.00  0.00     0.029 A 
ATOM     49  N   UNL A   1      42.385  28.790  30.194  1.00  0.00    -0.354 N 
ATOM     50  C   UNL A   1      37.976  32.073  29.616  1.00  0.00     0.074 A 
ATOM     51  C   UNL A   1      37.036  31.091  29.126  1.00  0.00     0.031 C 
ATOM     52  C   UNL A   1      42.626  30.622  31.413  1.00  0.00     0.029 A 
ATOM     53  C   UNL A   1      43.340  29.769  30.483  1.00  0.00     0.049 A 
ATOM     54  H   UNL A   1      42.564  27.836  30.029  1.00  0.00     0.167 HD
ATOM     55  C   UNL A   1      37.841  33.280  30.230  1.00  0.00     0.031 A 
ATOM     56  C   UNL A   1      44.266  30.218  29.579  1.00  0.00     0.031 A 
ATOM     57  C   UNL A   1      39.121  33.843  30.653  1.00  0.00     0.049 A 
ATOM     58  C   UNL A   1      44.138  31.702  29.237  1.00  0.00     0.074 A 
ATOM     59  C   UNL A   1      39.772  33.983  31.868  1.00  0.00     0.029 A 
ATOM     60  N   UNL A   1      40.075  34.109  29.682  1.00  0.00    -0.354 N 
ATOM     61  N   UNL A   1      43.231  32.504  29.725  1.00  0.00    -0.248 NA
ATOM     62  C   UNL A   1      44.976  32.376  28.241  1.00  0.00     0.031 C 
ATOM     63  C   UNL A   1      41.132  34.329  31.611  1.00  0.00     0.029 A 
ATOM     64  C   UNL A   1      41.301  34.416  30.242  1.00  0.00     0.049 A 
ATOM     65  H   UNL A   1      39.901  34.082  28.713  1.00  0.00     0.167 HD
ATOM     66  C   UNL A   1      43.302  33.726  29.107  1.00  0.00     0.074 A 
ATOM     67  C   UNL A   1      44.421  33.600  28.191  1.00  0.00     0.031 C 
ATOM     68  C   UNL A   1      42.411  34.733  29.354  1.00  0.00     0.031 A 
BRANCH  55  69
ATOM     69  C   UNL A   1      36.486  33.763  30.673  1.00  0.00    -0.014 A 
ATOM     70  C   UNL A   1      35.633  34.402  29.753  1.00  0.00     0.010 A 
ATOM     71  C   UNL A   1      36.038  33.689  32.008  1.00  0.00     0.010 A 
ATOM     72  C   UNL A   1      34.453  35.037  30.163  1.00  0.00     0.020 A 
ATOM     73  C   UNL A   1      34.885  34.360  32.439  1.00  0.00     0.020 A 
ATOM     74  C   UNL A   1      34.102  35.042  31.512  1.00  0.00     0.054 A 
BRANCH  74  75
ATOM     75  S   UNL A   1      32.645  35.981  32.038  1.00  0.00     0.124 S 
ATOM     76  O   UNL A   1      31.790  34.947  32.618  1.00  0.00    -0.237 OA
ATOM     77  O   UNL A   1      33.215  36.933  32.988  1.00  0.00    -0.237 OA
ATOM     78  O   UNL A   1      32.142  36.565  30.795  1.00  0.00    -0.744 OA
ENDBRANCH  74  75
ENDBRANCH  55  69
BRANCH  56  79
ATOM     79  C   UNL A   1      44.749  29.162  28.643  1.00  0.00    -0.014 A 
ATOM     80  C   UNL A   1      44.082  29.041  27.405  1.00  0.00     0.010 A 
ATOM     81  C   UNL A   1      46.039  28.620  28.775  1.00  0.00     0.010 A 
ATOM     82  C   UNL A   1      44.760  28.576  26.276  1.00  0.00     0.020 A 
ATOM     83  C   UNL A   1      46.715  28.137  27.645  1.00  0.00     0.020 A 
ATOM     84  C   UNL A   1      46.095  28.191  26.394  1.00  0.00     0.054 A 
BRANCH  84  85
ATOM     85  S   UNL A   1      47.054  27.976  24.864  1.00  0.00     0.124 S 
ATOM     86  O   UNL A   1      46.621  29.113  24.060  1.00  0.00    -0.237 OA
ATOM     87  O   UNL A   1      48.431  28.040  25.359  1.00  0.00    -0.237 OA
ATOM     88  O   UNL A   1      46.630  26.664  24.382  1.00  0.00    -0.744 OA
ENDBRANCH  84  85
ENDBRANCH  56  79
BRANCH  68  89
ATOM     89  C   UNL A   1      42.463  36.111  28.732  1.00  0.00    -0.014 A 
ATOM     90  C   UNL A   1      41.977  36.398  27.447  1.00  0.00     0.010 A 
ATOM     91  C   UNL A   1      43.131  37.159  29.409  1.00  0.00     0.010 A 
ATOM     92  C   UNL A   1      42.071  37.690  26.906  1.00  0.00     0.020 A 
ATOM     93  C   UNL A   1      43.251  38.443  28.873  1.00  0.00     0.020 A 
ATOM     94  C   UNL A   1      42.694  38.710  27.630  1.00  0.00     0.054 A 
BRANCH  94  95
ATOM     95  S   UNL A   1      42.814  40.366  26.911  1.00  0.00     0.124 S 
ATOM     96  O   UNL A   1      41.420  40.679  26.599  1.00  0.00    -0.237 OA
ATOM     97  O   UNL A   1      43.397  41.132  28.009  1.00  0.00    -0.237 OA
ATOM     98  O   UNL A   1      43.680  40.184  25.749  1.00  0.00    -0.744 OA
ENDBRANCH  94  95
ENDBRANCH  68  89
ENDBRANCH  42  43
ENDBRANCH  34  37
ENDBRANCH  32  33
ENDBRANCH   1  32
TORSDOF 15
ENDMDL
