MODEL 1
REMARK VINA RESULT:      -9.8      0.000      0.000
REMARK SMILES CC[C@H](O)C[C@@H](Cc1ccccc1OC)C(=O)NCCCNC(=O)c1ccc(-c2c3nc(c(-c4ccc(S(=O)(=O)[O-])cc4)c4ccc([nH]4)c(-c4ccc(S(=O)(=O)[O-])cc4)c4nc(c(-c5ccc(S(=O)(=O)[O-])cc5)c5ccc2[nH]5)C=C4)C=C3)cc1
REMARK SMILES IDX 20 1 19 2 18 3 16 4 17 5 6 7 5 8 3 9 2 10 1 11 4 12 7 14
REMARK SMILES IDX 8 15 9 16 13 17 10 18 12 19 11 20 14 21 15 22 21 23 22 24
REMARK SMILES IDX 23 25 24 27 25 28 26 29 84 30 27 31 83 32 28 33 29 34 30 35
REMARK SMILES IDX 77 36 31 37 82 38 76 39 78 40 32 41 81 42 75 43 74 44 33 46
REMARK SMILES IDX 63 47 44 48 62 49 45 50 48 51 61 52 79 53 46 54 47 55 60 57
REMARK SMILES IDX 80 58 49 59 34 60 35 61 43 62 36 63 42 64 37 65 38 66 39 67
REMARK SMILES IDX 40 68 41 69 64 70 65 71 73 72 66 73 72 74 67 75 68 76 69 77
REMARK SMILES IDX 70 78 71 79 50 80 51 81 59 82 52 83 58 84 53 85 54 86 55 87
REMARK SMILES IDX 56 88 57 89
REMARK H PARENT 18 6 4 13 22 26 78 45 48 56
REMARK Flexibility Score: inf
ROOT
ATOM      1  C   UNL A   1      33.537  28.127  24.549  1.00  0.00     0.042 C 
ENDROOT
BRANCH   1   2
ATOM      2  C   UNL A   1      32.282  27.346  24.131  1.00  0.00     0.117 C 
BRANCH   2   3
ATOM      3  N   UNL A   1      32.026  26.172  25.004  1.00  0.00    -0.356 N 
ATOM      4  C   UNL A   1      32.535  24.972  25.372  1.00  0.00     0.223 C 
ATOM      5  O   UNL A   1      31.852  24.419  26.256  1.00  0.00    -0.275 OA
ATOM      6  H   UNL A   1      31.182  26.319  25.490  1.00  0.00     0.163 HD
BRANCH   4   7
ATOM      7  C   UNL A   1      33.785  24.193  24.893  1.00  0.00     0.085 C 
BRANCH   7   8
ATOM      8  C   UNL A   1      33.864  24.024  23.347  1.00  0.00     0.045 C 
BRANCH   8   9
ATOM      9  C   UNL A   1      32.634  23.402  22.637  1.00  0.00     0.115 C 
BRANCH   9  10
ATOM     10  C   UNL A   1      32.301  22.002  23.191  1.00  0.00     0.028 C 
ATOM     11  C   UNL A   1      31.933  20.992  22.109  1.00  0.00     0.006 C 
ENDBRANCH   9  10
BRANCH   9  12
ATOM     12  O   UNL A   1      32.909  23.257  21.238  1.00  0.00    -0.393 OA
ATOM     13  H   UNL A   1      33.286  22.378  21.073  1.00  0.00     0.210 HD
ENDBRANCH   9  12
ENDBRANCH   8   9
ENDBRANCH   7   8
BRANCH   7  14
ATOM     14  C   UNL A   1      35.076  24.334  25.685  1.00  0.00     0.053 C 
BRANCH  14  15
ATOM     15  C   UNL A   1      36.191  23.326  25.736  1.00  0.00    -0.005 A 
ATOM     16  C   UNL A   1      37.423  23.884  26.153  1.00  0.00     0.007 A 
ATOM     17  C   UNL A   1      36.152  21.959  25.423  1.00  0.00     0.122 A 
ATOM     18  C   UNL A   1      38.598  23.146  26.147  1.00  0.00     0.001 A 
ATOM     19  C   UNL A   1      37.349  21.233  25.363  1.00  0.00     0.047 A 
ATOM     20  C   UNL A   1      38.569  21.833  25.700  1.00  0.00     0.004 A 
BRANCH  17  21
ATOM     21  O   UNL A   1      34.969  21.281  25.457  1.00  0.00    -0.496 OA
ATOM     22  C   UNL A   1      34.901  19.982  24.871  1.00  0.00     0.278 C 
ENDBRANCH  17  21
ENDBRANCH  14  15
ENDBRANCH   7  14
ENDBRANCH   4   7
ENDBRANCH   2   3
ENDBRANCH   1   2
BRANCH   1  23
ATOM     23  C   UNL A   1      34.028  28.154  25.998  1.00  0.00     0.118 C 
BRANCH  23  24
ATOM     24  N   UNL A   1      33.670  29.336  26.758  1.00  0.00    -0.352 N 
ATOM     25  C   UNL A   1      34.388  30.181  27.589  1.00  0.00     0.251 C 
ATOM     26  H   UNL A   1      32.724  29.590  26.663  1.00  0.00     0.163 HD
ATOM     27  O   UNL A   1      33.795  31.136  28.061  1.00  0.00    -0.269 OA
BRANCH  25  28
ATOM     28  C   UNL A   1      35.817  29.954  27.980  1.00  0.00     0.039 A 
ATOM     29  C   UNL A   1      36.070  29.548  29.302  1.00  0.00     0.014 A 
ATOM     30  C   UNL A   1      36.909  30.151  27.136  1.00  0.00     0.014 A 
ATOM     31  C   UNL A   1      37.375  29.258  29.736  1.00  0.00     0.010 A 
ATOM     32  C   UNL A   1      38.198  29.774  27.538  1.00  0.00     0.010 A 
ATOM     33  C   UNL A   1      38.450  29.312  28.840  1.00  0.00    -0.014 A 
BRANCH  33  34
ATOM     34  C   UNL A   1      39.827  28.874  29.227  1.00  0.00     0.031 A 
ATOM     35  C   UNL A   1      40.755  29.808  29.965  1.00  0.00     0.074 A 
ATOM     36  C   UNL A   1      40.282  27.663  28.841  1.00  0.00     0.049 A 
ATOM     37  N   UNL A   1      42.016  29.647  30.281  1.00  0.00    -0.248 NA
ATOM     38  C   UNL A   1      40.198  31.107  30.371  1.00  0.00     0.031 C 
ATOM     39  C   UNL A   1      39.509  26.665  28.099  1.00  0.00     0.029 A 
ATOM     40  N   UNL A   1      41.508  27.065  29.013  1.00  0.00    -0.354 N 
ATOM     41  C   UNL A   1      42.412  30.835  30.889  1.00  0.00     0.074 A 
ATOM     42  C   UNL A   1      41.269  31.723  30.850  1.00  0.00     0.031 C 
ATOM     43  C   UNL A   1      40.262  25.569  27.914  1.00  0.00     0.029 A 
ATOM     44  C   UNL A   1      41.590  25.801  28.475  1.00  0.00     0.049 A 
ATOM     45  H   UNL A   1      42.259  27.501  29.477  1.00  0.00     0.167 HD
ATOM     46  C   UNL A   1      43.607  31.157  31.444  1.00  0.00     0.031 A 
ATOM     47  C   UNL A   1      42.613  24.926  28.426  1.00  0.00     0.031 A 
ATOM     48  C   UNL A   1      44.739  30.268  31.497  1.00  0.00     0.049 A 
ATOM     49  C   UNL A   1      43.937  25.306  29.028  1.00  0.00     0.074 A 
ATOM     50  C   UNL A   1      45.972  30.475  32.091  1.00  0.00     0.029 A 
ATOM     51  N   UNL A   1      44.777  29.002  30.931  1.00  0.00    -0.354 N 
ATOM     52  N   UNL A   1      44.273  26.414  29.643  1.00  0.00    -0.248 NA
ATOM     53  C   UNL A   1      45.020  24.316  28.931  1.00  0.00     0.031 C 
ATOM     54  C   UNL A   1      46.773  29.354  31.840  1.00  0.00     0.029 A 
ATOM     55  C   UNL A   1      46.021  28.426  31.136  1.00  0.00     0.049 A 
ATOM     56  H   UNL A   1      44.030  28.574  30.454  1.00  0.00     0.167 HD
ATOM     57  C   UNL A   1      45.600  26.250  30.023  1.00  0.00     0.074 A 
ATOM     58  C   UNL A   1      46.002  24.930  29.581  1.00  0.00     0.031 C 
ATOM     59  C   UNL A   1      46.412  27.115  30.679  1.00  0.00     0.031 A 
BRANCH  46  60
ATOM     60  C   UNL A   1      43.747  32.546  32.021  1.00  0.00    -0.014 A 
ATOM     61  C   UNL A   1      43.454  32.808  33.373  1.00  0.00     0.010 A 
ATOM     62  C   UNL A   1      44.162  33.608  31.198  1.00  0.00     0.010 A 
ATOM     63  C   UNL A   1      43.488  34.114  33.867  1.00  0.00     0.020 A 
ATOM     64  C   UNL A   1      44.231  34.914  31.697  1.00  0.00     0.020 A 
ATOM     65  C   UNL A   1      43.861  35.162  33.021  1.00  0.00     0.054 A 
BRANCH  65  66
ATOM     66  S   UNL A   1      43.852  36.855  33.674  1.00  0.00     0.124 S 
ATOM     67  O   UNL A   1      44.070  37.643  32.464  1.00  0.00    -0.237 OA
ATOM     68  O   UNL A   1      42.520  36.966  34.263  1.00  0.00    -0.237 OA
ATOM     69  O   UNL A   1      44.956  36.863  34.630  1.00  0.00    -0.744 OA
ENDBRANCH  65  66
ENDBRANCH  46  60
BRANCH  47  70
ATOM     70  C   UNL A   1      42.407  23.583  27.812  1.00  0.00    -0.014 A 
ATOM     71  C   UNL A   1      42.891  23.322  26.518  1.00  0.00     0.010 A 
ATOM     72  C   UNL A   1      41.781  22.548  28.530  1.00  0.00     0.010 A 
ATOM     73  C   UNL A   1      42.760  22.050  25.955  1.00  0.00     0.020 A 
ATOM     74  C   UNL A   1      41.670  21.266  27.978  1.00  0.00     0.020 A 
ATOM     75  C   UNL A   1      42.159  21.025  26.693  1.00  0.00     0.054 A 
BRANCH  75  76
ATOM     76  S   UNL A   1      42.089  19.360  25.976  1.00  0.00     0.124 S 
ATOM     77  O   UNL A   1      40.661  19.196  25.726  1.00  0.00    -0.237 OA
ATOM     78  O   UNL A   1      42.929  19.494  24.788  1.00  0.00    -0.237 OA
ATOM     79  O   UNL A   1      42.643  18.511  27.028  1.00  0.00    -0.744 OA
ENDBRANCH  75  76
ENDBRANCH  47  70
BRANCH  59  80
ATOM     80  C   UNL A   1      47.816  26.661  30.974  1.00  0.00    -0.014 A 
ATOM     81  C   UNL A   1      48.879  26.982  30.111  1.00  0.00     0.010 A 
ATOM     82  C   UNL A   1      48.087  25.961  32.166  1.00  0.00     0.010 A 
ATOM     83  C   UNL A   1      50.184  26.596  30.425  1.00  0.00     0.020 A 
ATOM     84  C   UNL A   1      49.394  25.597  32.495  1.00  0.00     0.020 A 
ATOM     85  C   UNL A   1      50.435  25.909  31.618  1.00  0.00     0.054 A 
BRANCH  85  86
ATOM     86  S   UNL A   1      52.147  25.476  32.032  1.00  0.00     0.124 S 
ATOM     87  O   UNL A   1      52.406  26.329  33.188  1.00  0.00    -0.237 OA
ATOM     88  O   UNL A   1      52.057  24.045  32.313  1.00  0.00    -0.237 OA
ATOM     89  O   UNL A   1      52.894  25.821  30.823  1.00  0.00    -0.744 OA
ENDBRANCH  85  86
ENDBRANCH  59  80
ENDBRANCH  33  34
ENDBRANCH  25  28
ENDBRANCH  23  24
ENDBRANCH   1  23
TORSDOF 20
ENDMDL
MODEL 2
REMARK VINA RESULT:      -9.6      4.301     10.266
REMARK SMILES CC[C@H](O)C[C@@H](Cc1ccccc1OC)C(=O)NCCCNC(=O)c1ccc(-c2c3nc(c(-c4ccc(S(=O)(=O)[O-])cc4)c4ccc([nH]4)c(-c4ccc(S(=O)(=O)[O-])cc4)c4nc(c(-c5ccc(S(=O)(=O)[O-])cc5)c5ccc2[nH]5)C=C4)C=C3)cc1
REMARK SMILES IDX 20 1 19 2 18 3 16 4 17 5 6 7 5 8 3 9 2 10 1 11 4 12 7 14
REMARK SMILES IDX 8 15 9 16 13 17 10 18 12 19 11 20 14 21 15 22 21 23 22 24
REMARK SMILES IDX 23 25 24 27 25 28 26 29 84 30 27 31 83 32 28 33 29 34 30 35
REMARK SMILES IDX 77 36 31 37 82 38 76 39 78 40 32 41 81 42 75 43 74 44 33 46
REMARK SMILES IDX 63 47 44 48 62 49 45 50 48 51 61 52 79 53 46 54 47 55 60 57
REMARK SMILES IDX 80 58 49 59 34 60 35 61 43 62 36 63 42 64 37 65 38 66 39 67
REMARK SMILES IDX 40 68 41 69 64 70 65 71 73 72 66 73 72 74 67 75 68 76 69 77
REMARK SMILES IDX 70 78 71 79 50 80 51 81 59 82 52 83 58 84 53 85 54 86 55 87
REMARK SMILES IDX 56 88 57 89
REMARK H PARENT 18 6 4 13 22 26 78 45 48 56
REMARK Flexibility Score: inf
ROOT
ATOM      1  C   UNL A   1      37.332  23.111  25.265  1.00  0.00     0.042 C 
ENDROOT
BRANCH   1   2
ATOM      2  C   UNL A   1      36.572  21.872  25.760  1.00  0.00     0.117 C 
BRANCH   2   3
ATOM      3  N   UNL A   1      35.365  22.223  26.551  1.00  0.00    -0.356 N 
ATOM      4  C   UNL A   1      34.249  22.990  26.529  1.00  0.00     0.223 C 
ATOM      5  O   UNL A   1      33.526  22.802  27.527  1.00  0.00    -0.275 OA
ATOM      6  H   UNL A   1      35.383  21.716  27.395  1.00  0.00     0.163 HD
BRANCH   4   7
ATOM      7  C   UNL A   1      33.736  24.031  25.505  1.00  0.00     0.085 C 
BRANCH   7   8
ATOM      8  C   UNL A   1      33.766  23.530  24.032  1.00  0.00     0.045 C 
BRANCH   8   9
ATOM      9  C   UNL A   1      32.403  23.237  23.353  1.00  0.00     0.115 C 
BRANCH   9  10
ATOM     10  C   UNL A   1      32.237  21.740  23.023  1.00  0.00     0.028 C 
ATOM     11  C   UNL A   1      32.468  20.824  24.220  1.00  0.00     0.006 C 
ENDBRANCH   9  10
BRANCH   9  12
ATOM     12  O   UNL A   1      32.314  23.962  22.121  1.00  0.00    -0.393 OA
ATOM     13  H   UNL A   1      31.884  24.818  22.280  1.00  0.00     0.210 HD
ENDBRANCH   9  12
ENDBRANCH   8   9
ENDBRANCH   7   8
BRANCH   7  14
ATOM     14  C   UNL A   1      32.634  24.990  25.934  1.00  0.00     0.053 C 
BRANCH  14  15
ATOM     15  C   UNL A   1      32.567  26.456  25.608  1.00  0.00    -0.005 A 
ATOM     16  C   UNL A   1      33.661  27.189  26.127  1.00  0.00     0.007 A 
ATOM     17  C   UNL A   1      31.583  27.150  24.888  1.00  0.00     0.122 A 
ATOM     18  C   UNL A   1      33.720  28.573  26.041  1.00  0.00     0.001 A 
ATOM     19  C   UNL A   1      31.617  28.550  24.853  1.00  0.00     0.047 A 
ATOM     20  C   UNL A   1      32.669  29.257  25.448  1.00  0.00     0.004 A 
BRANCH  17  21
ATOM     21  O   UNL A   1      30.780  26.486  24.007  1.00  0.00    -0.496 OA
ATOM     22  C   UNL A   1      29.365  26.594  24.147  1.00  0.00     0.278 C 
ENDBRANCH  17  21
ENDBRANCH  14  15
ENDBRANCH   7  14
ENDBRANCH   4   7
ENDBRANCH   2   3
ENDBRANCH   1   2
BRANCH   1  23
ATOM     23  C   UNL A   1      38.182  23.969  26.206  1.00  0.00     0.118 C 
BRANCH  23  24
ATOM     24  N   UNL A   1      39.617  23.813  26.069  1.00  0.00    -0.352 N 
ATOM     25  C   UNL A   1      40.699  24.458  26.647  1.00  0.00     0.251 C 
ATOM     26  H   UNL A   1      39.875  23.105  25.437  1.00  0.00     0.163 HD
ATOM     27  O   UNL A   1      41.811  24.059  26.348  1.00  0.00    -0.269 OA
BRANCH  25  28
ATOM     28  C   UNL A   1      40.577  25.639  27.562  1.00  0.00     0.039 A 
ATOM     29  C   UNL A   1      39.626  25.563  28.596  1.00  0.00     0.014 A 
ATOM     30  C   UNL A   1      41.312  26.817  27.436  1.00  0.00     0.014 A 
ATOM     31  C   UNL A   1      39.486  26.601  29.532  1.00  0.00     0.010 A 
ATOM     32  C   UNL A   1      41.239  27.812  28.421  1.00  0.00     0.010 A 
ATOM     33  C   UNL A   1      40.334  27.716  29.490  1.00  0.00    -0.014 A 
BRANCH  33  34
ATOM     34  C   UNL A   1      40.310  28.769  30.551  1.00  0.00     0.031 A 
ATOM     35  C   UNL A   1      41.263  28.711  31.719  1.00  0.00     0.074 A 
ATOM     36  C   UNL A   1      39.371  29.739  30.516  1.00  0.00     0.049 A 
ATOM     37  N   UNL A   1      41.315  29.466  32.788  1.00  0.00    -0.248 NA
ATOM     38  C   UNL A   1      42.272  27.641  31.694  1.00  0.00     0.031 C 
ATOM     39  C   UNL A   1      38.364  29.906  29.465  1.00  0.00     0.029 A 
ATOM     40  N   UNL A   1      39.102  30.765  31.391  1.00  0.00    -0.354 N 
ATOM     41  C   UNL A   1      42.333  28.941  33.578  1.00  0.00     0.074 A 
ATOM     42  C   UNL A   1      42.837  27.774  32.885  1.00  0.00     0.031 C 
ATOM     43  C   UNL A   1      37.617  30.988  29.734  1.00  0.00     0.029 A 
ATOM     44  C   UNL A   1      38.052  31.565  31.003  1.00  0.00     0.049 A 
ATOM     45  H   UNL A   1      39.615  30.913  32.218  1.00  0.00     0.167 HD
ATOM     46  C   UNL A   1      42.819  29.393  34.762  1.00  0.00     0.031 A 
ATOM     47  C   UNL A   1      37.491  32.636  31.598  1.00  0.00     0.031 A 
ATOM     48  C   UNL A   1      42.328  30.562  35.443  1.00  0.00     0.049 A 
ATOM     49  C   UNL A   1      38.028  33.111  32.919  1.00  0.00     0.074 A 
ATOM     50  C   UNL A   1      42.793  31.138  36.613  1.00  0.00     0.029 A 
ATOM     51  N   UNL A   1      41.257  31.334  35.017  1.00  0.00    -0.354 N 
ATOM     52  N   UNL A   1      39.025  32.630  33.622  1.00  0.00    -0.248 NA
ATOM     53  C   UNL A   1      37.365  34.274  33.527  1.00  0.00     0.031 C 
ATOM     54  C   UNL A   1      41.970  32.229  36.921  1.00  0.00     0.029 A 
ATOM     55  C   UNL A   1      41.027  32.365  35.914  1.00  0.00     0.049 A 
ATOM     56  H   UNL A   1      40.737  31.174  34.197  1.00  0.00     0.167 HD
ATOM     57  C   UNL A   1      39.122  33.443  34.746  1.00  0.00     0.074 A 
ATOM     58  C   UNL A   1      38.091  34.453  34.623  1.00  0.00     0.031 C 
ATOM     59  C   UNL A   1      39.989  33.358  35.786  1.00  0.00     0.031 A 
BRANCH  46  60
ATOM     60  C   UNL A   1      43.932  28.595  35.399  1.00  0.00    -0.014 A 
ATOM     61  C   UNL A   1      43.659  27.563  36.317  1.00  0.00     0.010 A 
ATOM     62  C   UNL A   1      45.272  28.891  35.090  1.00  0.00     0.010 A 
ATOM     63  C   UNL A   1      44.700  26.904  36.975  1.00  0.00     0.020 A 
ATOM     64  C   UNL A   1      46.318  28.209  35.722  1.00  0.00     0.020 A 
ATOM     65  C   UNL A   1      46.024  27.243  36.685  1.00  0.00     0.054 A 
BRANCH  65  66
ATOM     66  S   UNL A   1      47.356  26.405  37.588  1.00  0.00     0.124 S 
ATOM     67  O   UNL A   1      48.541  26.869  36.872  1.00  0.00    -0.237 OA
ATOM     68  O   UNL A   1      47.201  26.924  38.945  1.00  0.00    -0.237 OA
ATOM     69  O   UNL A   1      47.045  24.987  37.428  1.00  0.00    -0.744 OA
ENDBRANCH  65  66
ENDBRANCH  46  60
BRANCH  47  70
ATOM     70  C   UNL A   1      36.373  33.354  30.921  1.00  0.00    -0.014 A 
ATOM     71  C   UNL A   1      35.160  33.563  31.600  1.00  0.00     0.010 A 
ATOM     72  C   UNL A   1      36.530  33.879  29.626  1.00  0.00     0.010 A 
ATOM     73  C   UNL A   1      34.127  34.289  31.001  1.00  0.00     0.020 A 
ATOM     74  C   UNL A   1      35.507  34.628  29.032  1.00  0.00     0.020 A 
ATOM     75  C   UNL A   1      34.311  34.827  29.723  1.00  0.00     0.054 A 
BRANCH  75  76
ATOM     76  S   UNL A   1      32.991  35.847  29.009  1.00  0.00     0.124 S 
ATOM     77  O   UNL A   1      33.745  36.934  28.394  1.00  0.00    -0.237 OA
ATOM     78  O   UNL A   1      32.345  34.920  28.082  1.00  0.00    -0.237 OA
ATOM     79  O   UNL A   1      32.183  36.221  30.167  1.00  0.00    -0.744 OA
ENDBRANCH  75  76
ENDBRANCH  47  70
BRANCH  59  80
ATOM     80  C   UNL A   1      39.872  34.393  36.873  1.00  0.00    -0.014 A 
ATOM     81  C   UNL A   1      40.530  35.630  36.770  1.00  0.00     0.010 A 
ATOM     82  C   UNL A   1      39.037  34.149  37.981  1.00  0.00     0.010 A 
ATOM     83  C   UNL A   1      40.371  36.600  37.762  1.00  0.00     0.020 A 
ATOM     84  C   UNL A   1      38.855  35.126  38.962  1.00  0.00     0.020 A 
ATOM     85  C   UNL A   1      39.531  36.343  38.852  1.00  0.00     0.054 A 
BRANCH  85  86
ATOM     86  S   UNL A   1      39.291  37.643  40.094  1.00  0.00     0.124 S 
ATOM     87  O   UNL A   1      40.600  38.289  40.116  1.00  0.00    -0.237 OA
ATOM     88  O   UNL A   1      38.207  38.438  39.521  1.00  0.00    -0.237 OA
ATOM     89  O   UNL A   1      38.940  36.905  41.305  1.00  0.00    -0.744 OA
ENDBRANCH  85  86
ENDBRANCH  59  80
ENDBRANCH  33  34
ENDBRANCH  25  28
ENDBRANCH  23  24
ENDBRANCH   1  23
TORSDOF 20
ENDMDL
MODEL 3
REMARK VINA RESULT:      -9.3      2.742      9.473
REMARK SMILES CC[C@H](O)C[C@@H](Cc1ccccc1OC)C(=O)NCCCNC(=O)c1ccc(-c2c3nc(c(-c4ccc(S(=O)(=O)[O-])cc4)c4ccc([nH]4)c(-c4ccc(S(=O)(=O)[O-])cc4)c4nc(c(-c5ccc(S(=O)(=O)[O-])cc5)c5ccc2[nH]5)C=C4)C=C3)cc1
REMARK SMILES IDX 20 1 19 2 18 3 16 4 17 5 6 7 5 8 3 9 2 10 1 11 4 12 7 14
REMARK SMILES IDX 8 15 9 16 13 17 10 18 12 19 11 20 14 21 15 22 21 23 22 24
REMARK SMILES IDX 23 25 24 27 25 28 26 29 84 30 27 31 83 32 28 33 29 34 30 35
REMARK SMILES IDX 77 36 31 37 82 38 76 39 78 40 32 41 81 42 75 43 74 44 33 46
REMARK SMILES IDX 63 47 44 48 62 49 45 50 48 51 61 52 79 53 46 54 47 55 60 57
REMARK SMILES IDX 80 58 49 59 34 60 35 61 43 62 36 63 42 64 37 65 38 66 39 67
REMARK SMILES IDX 40 68 41 69 64 70 65 71 73 72 66 73 72 74 67 75 68 76 69 77
REMARK SMILES IDX 70 78 71 79 50 80 51 81 59 82 52 83 58 84 53 85 54 86 55 87
REMARK SMILES IDX 56 88 57 89
REMARK H PARENT 18 6 4 13 22 26 78 45 48 56
REMARK Flexibility Score: inf
ROOT
ATOM      1  C   UNL A   1      35.498  22.996  25.664  1.00  0.00     0.042 C 
ENDROOT
BRANCH   1   2
ATOM      2  C   UNL A   1      34.142  23.280  25.002  1.00  0.00     0.117 C 
BRANCH   2   3
ATOM      3  N   UNL A   1      33.020  23.268  25.975  1.00  0.00    -0.356 N 
ATOM      4  C   UNL A   1      31.979  24.006  26.427  1.00  0.00     0.223 C 
ATOM      5  O   UNL A   1      31.302  23.399  27.280  1.00  0.00    -0.275 OA
ATOM      6  H   UNL A   1      33.041  22.417  26.471  1.00  0.00     0.163 HD
BRANCH   4   7
ATOM      7  C   UNL A   1      31.502  25.437  26.076  1.00  0.00     0.085 C 
BRANCH   7   8
ATOM      8  C   UNL A   1      32.184  26.551  26.922  1.00  0.00     0.045 C 
BRANCH   8   9
ATOM      9  C   UNL A   1      31.460  27.920  27.010  1.00  0.00     0.115 C 
BRANCH   9  10
ATOM     10  C   UNL A   1      32.352  29.073  26.510  1.00  0.00     0.028 C 
ATOM     11  C   UNL A   1      33.796  28.979  26.994  1.00  0.00     0.006 C 
ENDBRANCH   9  10
BRANCH   9  12
ATOM     12  O   UNL A   1      31.122  28.198  28.374  1.00  0.00    -0.393 OA
ATOM     13  H   UNL A   1      31.106  29.158  28.514  1.00  0.00     0.210 HD
ENDBRANCH   9  12
ENDBRANCH   8   9
ENDBRANCH   7   8
BRANCH   7  14
ATOM     14  C   UNL A   1      31.114  25.741  24.636  1.00  0.00     0.053 C 
BRANCH  14  15
ATOM     15  C   UNL A   1      31.701  26.825  23.776  1.00  0.00    -0.005 A 
ATOM     16  C   UNL A   1      33.063  26.605  23.459  1.00  0.00     0.007 A 
ATOM     17  C   UNL A   1      31.082  27.983  23.282  1.00  0.00     0.122 A 
ATOM     18  C   UNL A   1      33.817  27.551  22.781  1.00  0.00     0.001 A 
ATOM     19  C   UNL A   1      31.860  28.961  22.648  1.00  0.00     0.047 A 
ATOM     20  C   UNL A   1      33.227  28.754  22.421  1.00  0.00     0.004 A 
BRANCH  17  21
ATOM     21  O   UNL A   1      29.725  28.038  23.160  1.00  0.00    -0.496 OA
ATOM     22  C   UNL A   1      29.136  29.147  22.484  1.00  0.00     0.278 C 
ENDBRANCH  17  21
ENDBRANCH  14  15
ENDBRANCH   7  14
ENDBRANCH   4   7
ENDBRANCH   2   3
ENDBRANCH   1   2
BRANCH   1  23
ATOM     23  C   UNL A   1      36.815  23.116  24.894  1.00  0.00     0.118 C 
BRANCH  23  24
ATOM     24  N   UNL A   1      37.918  22.332  25.415  1.00  0.00    -0.352 N 
ATOM     25  C   UNL A   1      39.003  22.641  26.220  1.00  0.00     0.251 C 
ATOM     26  H   UNL A   1      37.890  21.388  25.140  1.00  0.00     0.163 HD
ATOM     27  O   UNL A   1      39.752  21.729  26.522  1.00  0.00    -0.269 OA
BRANCH  25  28
ATOM     28  C   UNL A   1      39.330  24.028  26.685  1.00  0.00     0.039 A 
ATOM     29  C   UNL A   1      38.929  24.388  27.984  1.00  0.00     0.014 A 
ATOM     30  C   UNL A   1      39.971  24.992  25.908  1.00  0.00     0.014 A 
ATOM     31  C   UNL A   1      39.246  25.648  28.519  1.00  0.00     0.010 A 
ATOM     32  C   UNL A   1      40.368  26.213  26.471  1.00  0.00     0.010 A 
ATOM     33  C   UNL A   1      40.022  26.557  27.788  1.00  0.00    -0.014 A 
BRANCH  33  34
ATOM     34  C   UNL A   1      40.498  27.846  28.378  1.00  0.00     0.031 A 
ATOM     35  C   UNL A   1      41.917  27.992  28.870  1.00  0.00     0.074 A 
ATOM     36  C   UNL A   1      39.632  28.866  28.555  1.00  0.00     0.049 A 
ATOM     37  N   UNL A   1      42.475  28.989  29.511  1.00  0.00    -0.248 NA
ATOM     38  C   UNL A   1      42.817  26.853  28.637  1.00  0.00     0.031 C 
ATOM     39  C   UNL A   1      38.222  28.860  28.156  1.00  0.00     0.029 A 
ATOM     40  N   UNL A   1      39.804  30.106  29.123  1.00  0.00    -0.354 N 
ATOM     41  C   UNL A   1      43.777  28.583  29.790  1.00  0.00     0.074 A 
ATOM     42  C   UNL A   1      43.906  27.230  29.290  1.00  0.00     0.031 C 
ATOM     43  C   UNL A   1      37.672  30.047  28.454  1.00  0.00     0.029 A 
ATOM     44  C   UNL A   1      38.668  30.884  29.114  1.00  0.00     0.049 A 
ATOM     45  H   UNL A   1      40.661  30.409  29.502  1.00  0.00     0.167 HD
ATOM     46  C   UNL A   1      44.780  29.272  30.389  1.00  0.00     0.031 A 
ATOM     47  C   UNL A   1      38.445  32.125  29.589  1.00  0.00     0.031 A 
ATOM     48  C   UNL A   1      44.656  30.623  30.872  1.00  0.00     0.049 A 
ATOM     49  C   UNL A   1      39.561  32.867  30.268  1.00  0.00     0.074 A 
ATOM     50  C   UNL A   1      45.629  31.431  31.437  1.00  0.00     0.029 A 
ATOM     51  N   UNL A   1      43.485  31.366  30.849  1.00  0.00    -0.354 N 
ATOM     52  N   UNL A   1      40.798  32.483  30.474  1.00  0.00    -0.248 NA
ATOM     53  C   UNL A   1      39.252  34.211  30.779  1.00  0.00     0.031 C 
ATOM     54  C   UNL A   1      45.032  32.644  31.802  1.00  0.00     0.029 A 
ATOM     55  C   UNL A   1      43.701  32.612  31.415  1.00  0.00     0.049 A 
ATOM     56  H   UNL A   1      42.626  31.055  30.484  1.00  0.00     0.167 HD
ATOM     57  C   UNL A   1      41.421  33.544  31.122  1.00  0.00     0.074 A 
ATOM     58  C   UNL A   1      40.429  34.590  31.261  1.00  0.00     0.031 C 
ATOM     59  C   UNL A   1      42.701  33.641  31.560  1.00  0.00     0.031 A 
BRANCH  46  60
ATOM     60  C   UNL A   1      46.097  28.554  30.570  1.00  0.00    -0.014 A 
ATOM     61  C   UNL A   1      46.377  27.825  31.742  1.00  0.00     0.010 A 
ATOM     62  C   UNL A   1      47.077  28.623  29.563  1.00  0.00     0.010 A 
ATOM     63  C   UNL A   1      47.636  27.254  31.939  1.00  0.00     0.020 A 
ATOM     64  C   UNL A   1      48.328  28.022  29.741  1.00  0.00     0.020 A 
ATOM     65  C   UNL A   1      48.610  27.370  30.943  1.00  0.00     0.054 A 
BRANCH  65  66
ATOM     66  S   UNL A   1      50.252  26.660  31.244  1.00  0.00     0.124 S 
ATOM     67  O   UNL A   1      50.349  26.735  32.699  1.00  0.00    -0.237 OA
ATOM     68  O   UNL A   1      50.127  25.313  30.693  1.00  0.00    -0.237 OA
ATOM     69  O   UNL A   1      51.153  27.547  30.512  1.00  0.00    -0.744 OA
ENDBRANCH  65  66
ENDBRANCH  46  60
BRANCH  47  70
ATOM     70  C   UNL A   1      37.107  32.757  29.399  1.00  0.00    -0.014 A 
ATOM     71  C   UNL A   1      36.122  32.624  30.393  1.00  0.00     0.010 A 
ATOM     72  C   UNL A   1      36.830  33.535  28.261  1.00  0.00     0.010 A 
ATOM     73  C   UNL A   1      34.887  33.263  30.257  1.00  0.00     0.020 A 
ATOM     74  C   UNL A   1      35.603  34.196  28.133  1.00  0.00     0.020 A 
ATOM     75  C   UNL A   1      34.638  34.055  29.132  1.00  0.00     0.054 A 
BRANCH  75  76
ATOM     76  S   UNL A   1      33.063  34.950  29.027  1.00  0.00     0.124 S 
ATOM     77  O   UNL A   1      32.292  34.104  28.121  1.00  0.00    -0.237 OA
ATOM     78  O   UNL A   1      32.615  34.961  30.418  1.00  0.00    -0.237 OA
ATOM     79  O   UNL A   1      33.446  36.254  28.493  1.00  0.00    -0.744 OA
ENDBRANCH  75  76
ENDBRANCH  47  70
BRANCH  59  80
ATOM     80  C   UNL A   1      43.112  34.929  32.223  1.00  0.00    -0.014 A 
ATOM     81  C   UNL A   1      43.787  35.931  31.505  1.00  0.00     0.010 A 
ATOM     82  C   UNL A   1      42.757  35.165  33.565  1.00  0.00     0.010 A 
ATOM     83  C   UNL A   1      44.116  37.141  32.121  1.00  0.00     0.020 A 
ATOM     84  C   UNL A   1      43.062  36.384  34.176  1.00  0.00     0.020 A 
ATOM     85  C   UNL A   1      43.748  37.362  33.453  1.00  0.00     0.054 A 
BRANCH  85  86
ATOM     86  S   UNL A   1      44.131  38.965  34.209  1.00  0.00     0.124 S 
ATOM     87  O   UNL A   1      42.897  39.712  33.983  1.00  0.00    -0.237 OA
ATOM     88  O   UNL A   1      44.404  38.607  35.599  1.00  0.00    -0.237 OA
ATOM     89  O   UNL A   1      45.291  39.436  33.455  1.00  0.00    -0.744 OA
ENDBRANCH  85  86
ENDBRANCH  59  80
ENDBRANCH  33  34
ENDBRANCH  25  28
ENDBRANCH  23  24
ENDBRANCH   1  23
TORSDOF 20
ENDMDL
