MODEL 1
REMARK VINA RESULT:     -11.7      0.000      0.000
REMARK SMILES O=C(NCCCNC(=O)[C@@H]1C[NH2+]C[C@H]1c1ccncc1)c1ccc(-c2c3nc(c(-c4ccc(S(=O)(=O)[O-])cc4)c4ccc([nH]4)c(-c4ccc(S(=O)(=O)[O-])cc4)c4nc(c(-c5ccc(S(=O)(=O)[O-])cc5)c5ccc2[nH]5)C=C4)C=C3)cc1
REMARK SMILES IDX 4 1 3 2 1 3 2 4 21 6 22 7 80 8 23 9 79 10 24 11 25 12 26 13
REMARK SMILES IDX 73 14 27 15 78 16 72 17 74 18 28 19 77 20 71 21 70 22 29 24
REMARK SMILES IDX 59 25 40 26 58 27 41 28 44 29 57 30 75 31 42 32 43 33 56 35
REMARK SMILES IDX 76 36 45 37 30 38 31 39 39 40 32 41 38 42 33 43 34 44 35 45
REMARK SMILES IDX 36 46 37 47 60 48 61 49 69 50 62 51 68 52 63 53 64 54 65 55
REMARK SMILES IDX 66 56 67 57 46 58 47 59 55 60 48 61 54 62 49 63 50 64 51 65
REMARK SMILES IDX 52 66 53 67 5 68 6 69 7 70 8 71 9 73 10 74 11 75 14 76 12 77
REMARK SMILES IDX 13 78 15 81 16 82 20 83 17 84 19 85 18 86
REMARK H PARENT 3 5 74 23 44 34 7 72 12 79 12 80
REMARK Flexibility Score: inf
ROOT
ATOM      1  C   UNL A   1      38.298  24.168  26.310  1.00  0.00     0.118 C 
ENDROOT
BRANCH   1   2
ATOM      2  N   UNL A   1      39.710  23.869  26.128  1.00  0.00    -0.352 N 
ATOM      3  O   UNL A   1      41.908  24.306  26.041  1.00  0.00    -0.269 OA
ATOM      4  C   UNL A   1      40.816  24.571  26.534  1.00  0.00     0.251 C 
ATOM      5  H   UNL A   1      39.900  23.035  25.639  1.00  0.00     0.163 HD
BRANCH   4   6
ATOM      6  C   UNL A   1      40.703  25.634  27.556  1.00  0.00     0.039 A 
ATOM      7  C   UNL A   1      39.731  25.573  28.560  1.00  0.00     0.014 A 
ATOM      8  C   UNL A   1      41.646  26.667  27.558  1.00  0.00     0.014 A 
ATOM      9  C   UNL A   1      39.645  26.589  29.511  1.00  0.00     0.010 A 
ATOM     10  C   UNL A   1      41.596  27.652  28.546  1.00  0.00     0.010 A 
ATOM     11  C   UNL A   1      40.586  27.629  29.522  1.00  0.00    -0.014 A 
BRANCH  11  12
ATOM     12  C   UNL A   1      40.555  28.663  30.586  1.00  0.00     0.031 A 
ATOM     13  C   UNL A   1      41.482  28.575  31.765  1.00  0.00     0.074 A 
ATOM     14  C   UNL A   1      39.653  29.660  30.510  1.00  0.00     0.049 A 
ATOM     15  N   UNL A   1      41.537  29.334  32.829  1.00  0.00    -0.248 NA
ATOM     16  C   UNL A   1      42.470  27.485  31.748  1.00  0.00     0.031 C 
ATOM     17  C   UNL A   1      38.698  29.851  29.415  1.00  0.00     0.029 A 
ATOM     18  N   UNL A   1      39.379  30.690  31.373  1.00  0.00    -0.354 N 
ATOM     19  C   UNL A   1      42.544  28.800  33.623  1.00  0.00     0.074 A 
ATOM     20  C   UNL A   1      43.061  27.642  32.925  1.00  0.00     0.031 C 
ATOM     21  C   UNL A   1      37.947  30.932  29.671  1.00  0.00     0.029 A 
ATOM     22  C   UNL A   1      38.327  31.478  30.971  1.00  0.00     0.049 A 
ATOM     23  H   UNL A   1      39.887  30.850  32.201  1.00  0.00     0.167 HD
ATOM     24  C   UNL A   1      42.993  29.234  34.827  1.00  0.00     0.031 A 
ATOM     25  C   UNL A   1      37.709  32.503  31.588  1.00  0.00     0.031 A 
ATOM     26  C   UNL A   1      42.463  30.378  35.520  1.00  0.00     0.049 A 
ATOM     27  C   UNL A   1      38.199  32.950  32.934  1.00  0.00     0.074 A 
ATOM     28  C   UNL A   1      42.869  30.918  36.728  1.00  0.00     0.029 A 
ATOM     29  N   UNL A   1      41.401  31.152  35.074  1.00  0.00    -0.354 N 
ATOM     30  N   UNL A   1      39.178  32.457  33.655  1.00  0.00    -0.248 NA
ATOM     31  C   UNL A   1      37.509  34.091  33.549  1.00  0.00     0.031 C 
ATOM     32  C   UNL A   1      42.019  31.987  37.035  1.00  0.00     0.029 A 
ATOM     33  C   UNL A   1      41.123  32.150  35.992  1.00  0.00     0.049 A 
ATOM     34  H   UNL A   1      40.917  31.013  34.227  1.00  0.00     0.167 HD
ATOM     35  C   UNL A   1      39.239  33.244  34.799  1.00  0.00     0.074 A 
ATOM     36  C   UNL A   1      38.199  34.246  34.673  1.00  0.00     0.031 C 
ATOM     37  C   UNL A   1      40.086  33.145  35.852  1.00  0.00     0.031 A 
BRANCH  24  38
ATOM     38  C   UNL A   1      44.083  28.430  35.487  1.00  0.00    -0.014 A 
ATOM     39  C   UNL A   1      43.791  27.282  36.246  1.00  0.00     0.010 A 
ATOM     40  C   UNL A   1      45.424  28.831  35.345  1.00  0.00     0.010 A 
ATOM     41  C   UNL A   1      44.812  26.592  36.907  1.00  0.00     0.020 A 
ATOM     42  C   UNL A   1      46.451  28.127  35.980  1.00  0.00     0.020 A 
ATOM     43  C   UNL A   1      46.134  27.028  36.780  1.00  0.00     0.054 A 
BRANCH  43  44
ATOM     44  S   UNL A   1      47.437  26.138  37.676  1.00  0.00     0.124 S 
ATOM     45  O   UNL A   1      47.147  26.500  39.062  1.00  0.00    -0.237 OA
ATOM     46  O   UNL A   1      47.174  24.743  37.326  1.00  0.00    -0.237 OA
ATOM     47  O   UNL A   1      48.672  26.692  37.131  1.00  0.00    -0.744 OA
ENDBRANCH  43  44
ENDBRANCH  24  38
BRANCH  25  48
ATOM     48  C   UNL A   1      36.551  33.154  30.919  1.00  0.00    -0.014 A 
ATOM     49  C   UNL A   1      35.294  33.195  31.545  1.00  0.00     0.010 A 
ATOM     50  C   UNL A   1      36.730  33.823  29.693  1.00  0.00     0.010 A 
ATOM     51  C   UNL A   1      34.239  33.903  30.962  1.00  0.00     0.020 A 
ATOM     52  C   UNL A   1      35.685  34.552  29.121  1.00  0.00     0.020 A 
ATOM     53  C   UNL A   1      34.444  34.587  29.759  1.00  0.00     0.054 A 
BRANCH  53  54
ATOM     54  S   UNL A   1      33.093  35.590  29.081  1.00  0.00     0.124 S 
ATOM     55  O   UNL A   1      32.385  36.003  30.288  1.00  0.00    -0.237 OA
ATOM     56  O   UNL A   1      33.810  36.649  28.374  1.00  0.00    -0.237 OA
ATOM     57  O   UNL A   1      32.372  34.655  28.220  1.00  0.00    -0.744 OA
ENDBRANCH  53  54
ENDBRANCH  25  48
BRANCH  37  58
ATOM     58  C   UNL A   1      39.965  34.170  36.946  1.00  0.00    -0.014 A 
ATOM     59  C   UNL A   1      40.544  35.444  36.821  1.00  0.00     0.010 A 
ATOM     60  C   UNL A   1      39.169  33.884  38.071  1.00  0.00     0.010 A 
ATOM     61  C   UNL A   1      40.333  36.413  37.805  1.00  0.00     0.020 A 
ATOM     62  C   UNL A   1      38.937  34.856  39.045  1.00  0.00     0.020 A 
ATOM     63  C   UNL A   1      39.525  36.116  38.909  1.00  0.00     0.054 A 
BRANCH  63  64
ATOM     64  S   UNL A   1      39.191  37.418  40.127  1.00  0.00     0.124 S 
ATOM     65  O   UNL A   1      38.512  36.677  41.186  1.00  0.00    -0.237 OA
ATOM     66  O   UNL A   1      40.531  37.899  40.457  1.00  0.00    -0.237 OA
ATOM     67  O   UNL A   1      38.357  38.370  39.396  1.00  0.00    -0.744 OA
ENDBRANCH  63  64
ENDBRANCH  37  58
ENDBRANCH  11  12
ENDBRANCH   4   6
ENDBRANCH   1   2
BRANCH   1  68
ATOM     68  C   UNL A   1      37.428  23.456  25.271  1.00  0.00     0.042 C 
BRANCH  68  69
ATOM     69  C   UNL A   1      37.412  21.935  25.431  1.00  0.00     0.117 C 
BRANCH  69  70
ATOM     70  N   UNL A   1      36.315  21.523  26.285  1.00  0.00    -0.356 N 
ATOM     71  C   UNL A   1      34.968  21.592  26.139  1.00  0.00     0.229 C 
ATOM     72  H   UNL A   1      36.602  21.116  27.133  1.00  0.00     0.163 HD
ATOM     73  O   UNL A   1      34.327  21.440  27.183  1.00  0.00    -0.275 OA
BRANCH  71  74
ATOM     74  C   UNL A   1      34.280  21.701  24.777  1.00  0.00     0.146 C 
ATOM     75  C   UNL A   1      33.767  23.085  24.407  1.00  0.00     0.274 C 
ATOM     76  C   UNL A   1      32.989  20.831  24.717  1.00  0.00     0.092 C 
ATOM     77  N   UNL A   1      32.697  22.846  23.432  1.00  0.00    -0.345 N 
ATOM     78  C   UNL A   1      31.952  21.723  24.005  1.00  0.00     0.269 C 
ATOM     79  H   UNL A   1      33.083  22.600  22.521  1.00  0.00     0.346 HD
ATOM     80  H   UNL A   1      32.115  23.669  23.276  1.00  0.00     0.346 HD
BRANCH  76  81
ATOM     81  C   UNL A   1      33.206  19.437  24.142  1.00  0.00    -0.035 A 
ATOM     82  C   UNL A   1      32.380  18.998  23.096  1.00  0.00     0.024 A 
ATOM     83  C   UNL A   1      34.217  18.566  24.558  1.00  0.00     0.024 A 
ATOM     84  C   UNL A   1      32.599  17.756  22.519  1.00  0.00     0.111 A 
ATOM     85  C   UNL A   1      34.372  17.347  23.905  1.00  0.00     0.111 A 
ATOM     86  N   UNL A   1      33.584  16.920  22.897  1.00  0.00    -0.265 NA
ENDBRANCH  76  81
ENDBRANCH  71  74
ENDBRANCH  69  70
ENDBRANCH  68  69
ENDBRANCH   1  68
TORSDOF 14
ENDMDL
MODEL 2
REMARK VINA RESULT:     -11.6      4.339      6.979
REMARK SMILES O=C(NCCCNC(=O)[C@@H]1C[NH2+]C[C@H]1c1ccncc1)c1ccc(-c2c3nc(c(-c4ccc(S(=O)(=O)[O-])cc4)c4ccc([nH]4)c(-c4ccc(S(=O)(=O)[O-])cc4)c4nc(c(-c5ccc(S(=O)(=O)[O-])cc5)c5ccc2[nH]5)C=C4)C=C3)cc1
REMARK SMILES IDX 4 1 3 2 1 3 2 4 21 6 22 7 80 8 23 9 79 10 24 11 25 12 26 13
REMARK SMILES IDX 73 14 27 15 78 16 72 17 74 18 28 19 77 20 71 21 70 22 29 24
REMARK SMILES IDX 59 25 40 26 58 27 41 28 44 29 57 30 75 31 42 32 43 33 56 35
REMARK SMILES IDX 76 36 45 37 30 38 31 39 39 40 32 41 38 42 33 43 34 44 35 45
REMARK SMILES IDX 36 46 37 47 60 48 61 49 69 50 62 51 68 52 63 53 64 54 65 55
REMARK SMILES IDX 66 56 67 57 46 58 47 59 55 60 48 61 54 62 49 63 50 64 51 65
REMARK SMILES IDX 52 66 53 67 5 68 6 69 7 70 8 71 9 73 10 74 11 75 14 76 12 77
REMARK SMILES IDX 13 78 15 81 16 82 20 83 17 84 19 85 18 86
REMARK H PARENT 3 5 74 23 44 34 7 72 12 79 12 80
REMARK Flexibility Score: inf
ROOT
ATOM      1  C   UNL A   1      40.461  21.396  26.720  1.00  0.00     0.118 C 
ENDROOT
BRANCH   1   2
ATOM      2  N   UNL A   1      39.220  21.768  26.057  1.00  0.00    -0.352 N 
ATOM      3  O   UNL A   1      37.328  22.931  25.741  1.00  0.00    -0.269 OA
ATOM      4  C   UNL A   1      38.484  22.920  26.156  1.00  0.00     0.251 C 
ATOM      5  H   UNL A   1      38.854  21.089  25.445  1.00  0.00     0.163 HD
BRANCH   4   6
ATOM      6  C   UNL A   1      39.069  24.143  26.749  1.00  0.00     0.039 A 
ATOM      7  C   UNL A   1      39.828  25.030  25.978  1.00  0.00     0.014 A 
ATOM      8  C   UNL A   1      38.778  24.448  28.082  1.00  0.00     0.014 A 
ATOM      9  C   UNL A   1      40.369  26.175  26.561  1.00  0.00     0.010 A 
ATOM     10  C   UNL A   1      39.272  25.625  28.649  1.00  0.00     0.010 A 
ATOM     11  C   UNL A   1      40.084  26.490  27.898  1.00  0.00    -0.014 A 
BRANCH  11  12
ATOM     12  C   UNL A   1      40.581  27.753  28.498  1.00  0.00     0.031 A 
ATOM     13  C   UNL A   1      41.985  27.850  29.023  1.00  0.00     0.074 A 
ATOM     14  C   UNL A   1      39.743  28.802  28.614  1.00  0.00     0.049 A 
ATOM     15  N   UNL A   1      42.563  28.838  29.657  1.00  0.00    -0.248 NA
ATOM     16  C   UNL A   1      42.850  26.678  28.814  1.00  0.00     0.031 C 
ATOM     17  C   UNL A   1      38.356  28.827  28.144  1.00  0.00     0.029 A 
ATOM     18  N   UNL A   1      39.929  30.040  29.173  1.00  0.00    -0.354 N 
ATOM     19  C   UNL A   1      43.849  28.400  29.949  1.00  0.00     0.074 A 
ATOM     20  C   UNL A   1      43.960  27.050  29.438  1.00  0.00     0.031 C 
ATOM     21  C   UNL A   1      37.818  30.022  28.432  1.00  0.00     0.029 A 
ATOM     22  C   UNL A   1      38.801  30.824  29.154  1.00  0.00     0.049 A 
ATOM     23  H   UNL A   1      40.787  30.339  29.552  1.00  0.00     0.167 HD
ATOM     24  C   UNL A   1      44.843  29.063  30.589  1.00  0.00     0.031 A 
ATOM     25  C   UNL A   1      38.564  32.039  29.686  1.00  0.00     0.031 A 
ATOM     26  C   UNL A   1      44.718  30.400  31.106  1.00  0.00     0.049 A 
ATOM     27  C   UNL A   1      39.667  32.745  30.419  1.00  0.00     0.074 A 
ATOM     28  C   UNL A   1      45.676  31.171  31.742  1.00  0.00     0.029 A 
ATOM     29  N   UNL A   1      43.558  31.162  31.060  1.00  0.00    -0.354 N 
ATOM     30  N   UNL A   1      40.890  32.332  30.654  1.00  0.00    -0.248 NA
ATOM     31  C   UNL A   1      39.365  34.079  30.954  1.00  0.00     0.031 C 
ATOM     32  C   UNL A   1      45.080  32.378  32.125  1.00  0.00     0.029 A 
ATOM     33  C   UNL A   1      43.770  32.384  31.676  1.00  0.00     0.049 A 
ATOM     34  H   UNL A   1      42.711  30.875  30.649  1.00  0.00     0.167 HD
ATOM     35  C   UNL A   1      41.513  33.366  31.343  1.00  0.00     0.074 A 
ATOM     36  C   UNL A   1      40.533  34.424  31.485  1.00  0.00     0.031 C 
ATOM     37  C   UNL A   1      42.785  33.431  31.806  1.00  0.00     0.031 A 
BRANCH  24  38
ATOM     38  C   UNL A   1      46.137  28.323  30.804  1.00  0.00    -0.014 A 
ATOM     39  C   UNL A   1      46.363  27.562  31.966  1.00  0.00     0.010 A 
ATOM     40  C   UNL A   1      47.146  28.390  29.827  1.00  0.00     0.010 A 
ATOM     41  C   UNL A   1      47.598  26.941  32.176  1.00  0.00     0.020 A 
ATOM     42  C   UNL A   1      48.372  27.746  30.019  1.00  0.00     0.020 A 
ATOM     43  C   UNL A   1      48.600  27.049  31.207  1.00  0.00     0.054 A 
BRANCH  43  44
ATOM     44  S   UNL A   1      50.205  26.264  31.518  1.00  0.00     0.124 S 
ATOM     45  O   UNL A   1      49.810  24.895  31.846  1.00  0.00    -0.237 OA
ATOM     46  O   UNL A   1      50.897  26.427  30.242  1.00  0.00    -0.237 OA
ATOM     47  O   UNL A   1      50.759  27.035  32.627  1.00  0.00    -0.744 OA
ENDBRANCH  43  44
ENDBRANCH  24  38
BRANCH  25  48
ATOM     48  C   UNL A   1      37.211  32.638  29.541  1.00  0.00    -0.014 A 
ATOM     49  C   UNL A   1      36.386  32.824  30.662  1.00  0.00     0.010 A 
ATOM     50  C   UNL A   1      36.783  33.116  28.287  1.00  0.00     0.010 A 
ATOM     51  C   UNL A   1      35.162  33.488  30.536  1.00  0.00     0.020 A 
ATOM     52  C   UNL A   1      35.572  33.802  28.162  1.00  0.00     0.020 A 
ATOM     53  C   UNL A   1      34.769  33.983  29.288  1.00  0.00     0.054 A 
BRANCH  53  54
ATOM     54  S   UNL A   1      33.230  34.938  29.171  1.00  0.00     0.124 S 
ATOM     55  O   UNL A   1      33.714  36.243  28.733  1.00  0.00    -0.237 OA
ATOM     56  O   UNL A   1      32.464  34.182  28.183  1.00  0.00    -0.237 OA
ATOM     57  O   UNL A   1      32.694  34.891  30.530  1.00  0.00    -0.744 OA
ENDBRANCH  53  54
ENDBRANCH  25  48
BRANCH  37  58
ATOM     58  C   UNL A   1      43.219  34.704  32.480  1.00  0.00    -0.014 A 
ATOM     59  C   UNL A   1      43.819  35.746  31.753  1.00  0.00     0.010 A 
ATOM     60  C   UNL A   1      42.926  34.895  33.843  1.00  0.00     0.010 A 
ATOM     61  C   UNL A   1      44.123  36.958  32.381  1.00  0.00     0.020 A 
ATOM     62  C   UNL A   1      43.207  36.111  34.468  1.00  0.00     0.020 A 
ATOM     63  C   UNL A   1      43.808  37.136  33.733  1.00  0.00     0.054 A 
BRANCH  63  64
ATOM     64  S   UNL A   1      44.128  38.747  34.502  1.00  0.00     0.124 S 
ATOM     65  O   UNL A   1      45.434  39.094  33.950  1.00  0.00    -0.237 OA
ATOM     66  O   UNL A   1      43.009  39.557  34.027  1.00  0.00    -0.237 OA
ATOM     67  O   UNL A   1      44.113  38.456  35.934  1.00  0.00    -0.744 OA
ENDBRANCH  63  64
ENDBRANCH  37  58
ENDBRANCH  11  12
ENDBRANCH   4   6
ENDBRANCH   1   2
BRANCH   1  68
ATOM     68  C   UNL A   1      41.688  21.828  25.912  1.00  0.00     0.042 C 
BRANCH  68  69
ATOM     69  C   UNL A   1      42.990  21.185  26.393  1.00  0.00     0.117 C 
BRANCH  69  70
ATOM     70  N   UNL A   1      43.700  22.079  27.287  1.00  0.00    -0.356 N 
ATOM     71  C   UNL A   1      44.736  22.932  27.093  1.00  0.00     0.229 C 
ATOM     72  H   UNL A   1      43.365  22.064  28.212  1.00  0.00     0.163 HD
ATOM     73  O   UNL A   1      45.298  23.306  28.127  1.00  0.00    -0.275 OA
BRANCH  71  74
ATOM     74  C   UNL A   1      45.099  23.507  25.723  1.00  0.00     0.146 C 
ATOM     75  C   UNL A   1      45.916  22.594  24.821  1.00  0.00     0.274 C 
ATOM     76  C   UNL A   1      46.011  24.764  25.853  1.00  0.00     0.092 C 
ATOM     77  N   UNL A   1      46.612  23.496  23.896  1.00  0.00    -0.345 N 
ATOM     78  C   UNL A   1      47.085  24.579  24.761  1.00  0.00     0.269 C 
ATOM     79  H   UNL A   1      45.974  23.850  23.184  1.00  0.00     0.346 HD
ATOM     80  H   UNL A   1      47.369  23.036  23.389  1.00  0.00     0.346 HD
BRANCH  76  81
ATOM     81  C   UNL A   1      45.253  26.084  25.855  1.00  0.00    -0.035 A 
ATOM     82  C   UNL A   1      45.896  27.236  26.334  1.00  0.00     0.024 A 
ATOM     83  C   UNL A   1      43.955  26.243  25.362  1.00  0.00     0.024 A 
ATOM     84  C   UNL A   1      45.243  28.459  26.290  1.00  0.00     0.111 A 
ATOM     85  C   UNL A   1      43.390  27.515  25.340  1.00  0.00     0.111 A 
ATOM     86  N   UNL A   1      44.002  28.626  25.796  1.00  0.00    -0.265 NA
ENDBRANCH  76  81
ENDBRANCH  71  74
ENDBRANCH  69  70
ENDBRANCH  68  69
ENDBRANCH   1  68
TORSDOF 14
ENDMDL
MODEL 3
REMARK VINA RESULT:     -11.6      0.761      8.524
REMARK SMILES O=C(NCCCNC(=O)[C@@H]1C[NH2+]C[C@H]1c1ccncc1)c1ccc(-c2c3nc(c(-c4ccc(S(=O)(=O)[O-])cc4)c4ccc([nH]4)c(-c4ccc(S(=O)(=O)[O-])cc4)c4nc(c(-c5ccc(S(=O)(=O)[O-])cc5)c5ccc2[nH]5)C=C4)C=C3)cc1
REMARK SMILES IDX 4 1 3 2 1 3 2 4 21 6 22 7 80 8 23 9 79 10 24 11 25 12 26 13
REMARK SMILES IDX 73 14 27 15 78 16 72 17 74 18 28 19 77 20 71 21 70 22 29 24
REMARK SMILES IDX 59 25 40 26 58 27 41 28 44 29 57 30 75 31 42 32 43 33 56 35
REMARK SMILES IDX 76 36 45 37 30 38 31 39 39 40 32 41 38 42 33 43 34 44 35 45
REMARK SMILES IDX 36 46 37 47 60 48 61 49 69 50 62 51 68 52 63 53 64 54 65 55
REMARK SMILES IDX 66 56 67 57 46 58 47 59 55 60 48 61 54 62 49 63 50 64 51 65
REMARK SMILES IDX 52 66 53 67 5 68 6 69 7 70 8 71 9 73 10 74 11 75 14 76 12 77
REMARK SMILES IDX 13 78 15 81 16 82 20 83 17 84 19 85 18 86
REMARK H PARENT 3 5 74 23 44 34 7 72 12 79 12 80
REMARK Flexibility Score: inf
ROOT
ATOM      1  C   UNL A   1      38.857  23.964  26.792  1.00  0.00     0.118 C 
ENDROOT
BRANCH   1   2
ATOM      2  N   UNL A   1      39.972  24.437  25.987  1.00  0.00    -0.352 N 
ATOM      3  O   UNL A   1      41.411  25.942  25.152  1.00  0.00    -0.269 OA
ATOM      4  C   UNL A   1      40.703  25.592  26.092  1.00  0.00     0.251 C 
ATOM      5  H   UNL A   1      40.243  23.836  25.255  1.00  0.00     0.163 HD
BRANCH   4   6
ATOM      6  C   UNL A   1      40.648  26.412  27.323  1.00  0.00     0.039 A 
ATOM      7  C   UNL A   1      41.419  27.572  27.453  1.00  0.00     0.014 A 
ATOM      8  C   UNL A   1      39.744  26.057  28.327  1.00  0.00     0.014 A 
ATOM      9  C   UNL A   1      41.350  28.327  28.624  1.00  0.00     0.010 A 
ATOM     10  C   UNL A   1      39.633  26.846  29.474  1.00  0.00     0.010 A 
ATOM     11  C   UNL A   1      40.446  27.979  29.638  1.00  0.00    -0.014 A 
BRANCH  11  12
ATOM     12  C   UNL A   1      40.303  28.829  30.846  1.00  0.00     0.031 A 
ATOM     13  C   UNL A   1      39.273  29.921  30.895  1.00  0.00     0.074 A 
ATOM     14  C   UNL A   1      41.141  28.644  31.885  1.00  0.00     0.049 A 
ATOM     15  N   UNL A   1      39.063  30.816  31.826  1.00  0.00    -0.248 NA
ATOM     16  C   UNL A   1      38.366  30.025  29.742  1.00  0.00     0.031 C 
ATOM     17  C   UNL A   1      42.184  27.618  31.953  1.00  0.00     0.029 A 
ATOM     18  N   UNL A   1      41.259  29.320  33.072  1.00  0.00    -0.354 N 
ATOM     19  C   UNL A   1      38.020  31.608  31.362  1.00  0.00     0.074 A 
ATOM     20  C   UNL A   1      37.653  31.098  30.058  1.00  0.00     0.031 C 
ATOM     21  C   UNL A   1      42.833  27.729  33.122  1.00  0.00     0.029 A 
ATOM     22  C   UNL A   1      42.292  28.867  33.859  1.00  0.00     0.049 A 
ATOM     23  H   UNL A   1      40.663  30.057  33.337  1.00  0.00     0.167 HD
ATOM     24  C   UNL A   1      37.427  32.667  31.967  1.00  0.00     0.031 A 
ATOM     25  C   UNL A   1      42.777  29.331  35.027  1.00  0.00     0.031 A 
ATOM     26  C   UNL A   1      37.810  33.175  33.258  1.00  0.00     0.049 A 
ATOM     27  C   UNL A   1      42.128  30.524  35.667  1.00  0.00     0.074 A 
ATOM     28  C   UNL A   1      37.252  34.222  33.971  1.00  0.00     0.029 A 
ATOM     29  N   UNL A   1      38.857  32.683  34.025  1.00  0.00    -0.354 N 
ATOM     30  N   UNL A   1      41.118  31.239  35.233  1.00  0.00    -0.248 NA
ATOM     31  C   UNL A   1      42.677  30.971  36.954  1.00  0.00     0.031 C 
ATOM     32  C   UNL A   1      37.994  34.395  35.145  1.00  0.00     0.029 A 
ATOM     33  C   UNL A   1      38.976  33.419  35.192  1.00  0.00     0.049 A 
ATOM     34  H   UNL A   1      39.430  31.922  33.775  1.00  0.00     0.167 HD
ATOM     35  C   UNL A   1      40.892  32.206  36.205  1.00  0.00     0.074 A 
ATOM     36  C   UNL A   1      41.870  31.983  37.250  1.00  0.00     0.031 C 
ATOM     37  C   UNL A   1      39.954  33.183  36.228  1.00  0.00     0.031 A 
BRANCH  24  38
ATOM     38  C   UNL A   1      36.333  33.370  31.208  1.00  0.00    -0.014 A 
ATOM     39  C   UNL A   1      36.524  33.810  29.885  1.00  0.00     0.010 A 
ATOM     40  C   UNL A   1      35.092  33.598  31.829  1.00  0.00     0.010 A 
ATOM     41  C   UNL A   1      35.519  34.522  29.224  1.00  0.00     0.020 A 
ATOM     42  C   UNL A   1      34.074  34.285  31.162  1.00  0.00     0.020 A 
ATOM     43  C   UNL A   1      34.305  34.767  29.873  1.00  0.00     0.054 A 
BRANCH  43  44
ATOM     44  S   UNL A   1      33.030  35.725  29.008  1.00  0.00     0.124 S 
ATOM     45  O   UNL A   1      32.232  36.234  30.122  1.00  0.00    -0.237 OA
ATOM     46  O   UNL A   1      33.811  36.728  28.288  1.00  0.00    -0.237 OA
ATOM     47  O   UNL A   1      32.364  34.735  28.166  1.00  0.00    -0.744 OA
ENDBRANCH  43  44
ENDBRANCH  24  38
BRANCH  25  48
ATOM     48  C   UNL A   1      43.949  28.654  35.641  1.00  0.00    -0.014 A 
ATOM     49  C   UNL A   1      43.772  27.570  36.517  1.00  0.00     0.010 A 
ATOM     50  C   UNL A   1      45.254  29.031  35.271  1.00  0.00     0.010 A 
ATOM     51  C   UNL A   1      44.878  26.868  37.003  1.00  0.00     0.020 A 
ATOM     52  C   UNL A   1      46.361  28.317  35.736  1.00  0.00     0.020 A 
ATOM     53  C   UNL A   1      46.166  27.238  36.600  1.00  0.00     0.054 A 
BRANCH  53  54
ATOM     54  S   UNL A   1      47.578  26.243  37.157  1.00  0.00     0.124 S 
ATOM     55  O   UNL A   1      47.766  26.719  38.522  1.00  0.00    -0.237 OA
ATOM     56  O   UNL A   1      47.072  24.878  37.025  1.00  0.00    -0.237 OA
ATOM     57  O   UNL A   1      48.638  26.597  36.215  1.00  0.00    -0.744 OA
ENDBRANCH  53  54
ENDBRANCH  25  48
BRANCH  37  58
ATOM     58  C   UNL A   1      39.899  34.072  37.440  1.00  0.00    -0.014 A 
ATOM     59  C   UNL A   1      40.533  35.326  37.455  1.00  0.00     0.010 A 
ATOM     60  C   UNL A   1      39.113  33.685  38.541  1.00  0.00     0.010 A 
ATOM     61  C   UNL A   1      40.385  36.176  38.554  1.00  0.00     0.020 A 
ATOM     62  C   UNL A   1      38.944  34.541  39.631  1.00  0.00     0.020 A 
ATOM     63  C   UNL A   1      39.585  35.782  39.633  1.00  0.00     0.054 A 
BRANCH  63  64
ATOM     64  S   UNL A   1      39.334  36.939  41.007  1.00  0.00     0.124 S 
ATOM     65  O   UNL A   1      38.640  36.105  41.984  1.00  0.00    -0.237 OA
ATOM     66  O   UNL A   1      40.700  37.317  41.361  1.00  0.00    -0.237 OA
ATOM     67  O   UNL A   1      38.532  38.008  40.416  1.00  0.00    -0.744 OA
ENDBRANCH  63  64
ENDBRANCH  37  58
ENDBRANCH  11  12
ENDBRANCH   4   6
ENDBRANCH   1   2
BRANCH   1  68
ATOM     68  C   UNL A   1      37.579  23.815  25.961  1.00  0.00     0.042 C 
BRANCH  68  69
ATOM     69  C   UNL A   1      37.253  22.364  25.601  1.00  0.00     0.117 C 
BRANCH  69  70
ATOM     70  N   UNL A   1      36.222  21.841  26.476  1.00  0.00    -0.356 N 
ATOM     71  C   UNL A   1      34.932  21.484  26.256  1.00  0.00     0.229 C 
ATOM     72  H   UNL A   1      36.514  21.722  27.408  1.00  0.00     0.163 HD
ATOM     73  O   UNL A   1      34.245  21.376  27.276  1.00  0.00    -0.275 OA
BRANCH  71  74
ATOM     74  C   UNL A   1      34.395  21.102  24.876  1.00  0.00     0.146 C 
ATOM     75  C   UNL A   1      33.918  22.259  24.011  1.00  0.00     0.274 C 
ATOM     76  C   UNL A   1      33.122  20.209  24.984  1.00  0.00     0.092 C 
ATOM     77  N   UNL A   1      32.961  21.663  23.072  1.00  0.00    -0.345 N 
ATOM     78  C   UNL A   1      32.164  20.768  23.913  1.00  0.00     0.269 C 
ATOM     79  H   UNL A   1      33.445  21.142  22.341  1.00  0.00     0.346 HD
ATOM     80  H   UNL A   1      32.395  22.361  22.588  1.00  0.00     0.346 HD
BRANCH  76  81
ATOM     81  C   UNL A   1      33.407  18.714  24.939  1.00  0.00    -0.035 A 
ATOM     82  C   UNL A   1      32.629  17.851  25.727  1.00  0.00     0.024 A 
ATOM     83  C   UNL A   1      34.373  18.124  24.120  1.00  0.00     0.024 A 
ATOM     84  C   UNL A   1      32.833  16.481  25.655  1.00  0.00     0.111 A 
ATOM     85  C   UNL A   1      34.490  16.738  24.101  1.00  0.00     0.111 A 
ATOM     86  N   UNL A   1      33.746  15.902  24.852  1.00  0.00    -0.265 NA
ENDBRANCH  76  81
ENDBRANCH  71  74
ENDBRANCH  69  70
ENDBRANCH  68  69
ENDBRANCH   1  68
TORSDOF 14
ENDMDL
