MODEL 1
REMARK VINA RESULT:      -9.1      0.000      0.000
REMARK SMILES CC(C)(C[S@](=O)c1cccc(Cl)c1)C(=O)NCCCNC(=O)c1ccc(-c2c3nc(c(-c4ccc(S(=O)(=O)[O-])cc4)c4ccc([nH]4)c(-c4ccc(S(=O)(=O)[O-])cc4)c4nc(c(-c5ccc(S(=O)(=O)[O-])cc5)c5ccc2[nH]5)C=C4)C=C3)cc1
REMARK SMILES IDX 18 1 17 2 16 3 14 4 15 5 2 7 1 8 3 9 4 10 5 11 6 12 7 13
REMARK SMILES IDX 8 14 13 15 9 16 11 17 10 18 12 19 19 20 20 21 21 22 22 24
REMARK SMILES IDX 23 25 24 26 82 27 25 28 81 29 26 30 27 31 28 32 75 33 29 34
REMARK SMILES IDX 80 35 74 36 76 37 30 38 79 39 73 40 72 41 31 43 61 44 42 45
REMARK SMILES IDX 60 46 43 47 46 48 59 49 77 50 44 51 45 52 58 54 78 55 47 56
REMARK SMILES IDX 32 57 33 58 41 59 34 60 40 61 35 62 36 63 37 64 38 65 39 66
REMARK SMILES IDX 62 67 63 68 71 69 64 70 70 71 65 72 66 73 67 74 68 75 69 76
REMARK SMILES IDX 48 77 49 78 57 79 50 80 56 81 51 82 52 83 53 84 54 85 55 86
REMARK H PARENT 16 6 20 23 76 42 46 53
REMARK Flexibility Score: inf
ROOT
ATOM      1  C   UNL A   1      34.486  33.121  29.538  1.00  0.00     0.042 C 
ENDROOT
BRANCH   1   2
ATOM      2  C   UNL A   1      35.461  34.227  29.905  1.00  0.00     0.117 C 
BRANCH   2   3
ATOM      3  N   UNL A   1      35.350  34.639  31.292  1.00  0.00    -0.356 N 
ATOM      4  C   UNL A   1      36.183  34.543  32.362  1.00  0.00     0.226 C 
ATOM      5  O   UNL A   1      35.859  35.207  33.352  1.00  0.00    -0.274 OA
ATOM      6  H   UNL A   1      34.495  35.079  31.502  1.00  0.00     0.163 HD
BRANCH   4   7
ATOM      7  C   UNL A   1      37.499  33.743  32.330  1.00  0.00     0.055 C 
ATOM      8  C   UNL A   1      38.511  34.476  31.415  1.00  0.00     0.022 C 
ATOM      9  C   UNL A   1      37.238  32.388  31.635  1.00  0.00     0.022 C 
BRANCH   7  10
ATOM     10  C   UNL A   1      38.126  33.509  33.721  1.00  0.00     0.126 C 
BRANCH  10  11
ATOM     11  S   UNL A   1      37.541  32.054  34.666  1.00  0.00     0.054 S 
ATOM     12  O   UNL A   1      37.305  32.440  36.092  1.00  0.00    -0.254 OA
BRANCH  11  13
ATOM     13  C   UNL A   1      39.080  31.105  34.660  1.00  0.00     0.040 A 
ATOM     14  C   UNL A   1      39.255  30.090  33.711  1.00  0.00     0.018 A 
ATOM     15  C   UNL A   1      40.092  31.361  35.591  1.00  0.00     0.038 A 
ATOM     16  C   UNL A   1      40.443  29.357  33.676  1.00  0.00     0.003 A 
ATOM     17  C   UNL A   1      41.281  30.636  35.541  1.00  0.00     0.042 A 
ATOM     18  C   UNL A   1      41.461  29.637  34.586  1.00  0.00     0.020 A 
ATOM     19  Cl  UNL A   1      42.543  30.983  36.658  1.00  0.00    -0.084 Cl
ENDBRANCH  11  13
ENDBRANCH  10  11
ENDBRANCH   7  10
ENDBRANCH   4   7
ENDBRANCH   2   3
ENDBRANCH   1   2
BRANCH   1  20
ATOM     20  C   UNL A   1      34.556  32.694  28.078  1.00  0.00     0.118 C 
BRANCH  20  21
ATOM     21  N   UNL A   1      33.901  31.414  27.836  1.00  0.00    -0.352 N 
ATOM     22  C   UNL A   1      34.424  30.147  27.760  1.00  0.00     0.251 C 
ATOM     23  H   UNL A   1      32.926  31.467  27.706  1.00  0.00     0.163 HD
ATOM     24  O   UNL A   1      33.721  29.228  27.340  1.00  0.00    -0.269 OA
BRANCH  22  25
ATOM     25  C   UNL A   1      35.824  29.887  28.157  1.00  0.00     0.039 A 
ATOM     26  C   UNL A   1      36.095  29.449  29.457  1.00  0.00     0.014 A 
ATOM     27  C   UNL A   1      36.873  30.087  27.257  1.00  0.00     0.014 A 
ATOM     28  C   UNL A   1      37.407  29.145  29.826  1.00  0.00     0.010 A 
ATOM     29  C   UNL A   1      38.162  29.688  27.594  1.00  0.00     0.010 A 
ATOM     30  C   UNL A   1      38.446  29.223  28.886  1.00  0.00    -0.014 A 
BRANCH  30  31
ATOM     31  C   UNL A   1      39.840  28.841  29.231  1.00  0.00     0.031 A 
ATOM     32  C   UNL A   1      40.732  29.812  29.957  1.00  0.00     0.074 A 
ATOM     33  C   UNL A   1      40.323  27.646  28.837  1.00  0.00     0.049 A 
ATOM     34  N   UNL A   1      41.989  29.683  30.298  1.00  0.00    -0.248 NA
ATOM     35  C   UNL A   1      40.142  31.109  30.324  1.00  0.00     0.031 C 
ATOM     36  C   UNL A   1      39.569  26.627  28.101  1.00  0.00     0.029 A 
ATOM     37  N   UNL A   1      41.564  27.085  29.000  1.00  0.00    -0.354 N 
ATOM     38  C   UNL A   1      42.340  30.883  30.906  1.00  0.00     0.074 A 
ATOM     39  C   UNL A   1      41.187  31.751  30.823  1.00  0.00     0.031 C 
ATOM     40  C   UNL A   1      40.350  25.550  27.918  1.00  0.00     0.029 A 
ATOM     41  C   UNL A   1      41.671  25.817  28.477  1.00  0.00     0.049 A 
ATOM     42  H   UNL A   1      42.308  27.545  29.451  1.00  0.00     0.167 HD
ATOM     43  C   UNL A   1      43.508  31.227  31.503  1.00  0.00     0.031 A 
ATOM     44  C   UNL A   1      42.715  24.966  28.449  1.00  0.00     0.031 A 
ATOM     45  C   UNL A   1      44.656  30.362  31.576  1.00  0.00     0.049 A 
ATOM     46  C   UNL A   1      44.017  25.384  29.075  1.00  0.00     0.074 A 
ATOM     47  C   UNL A   1      45.875  30.599  32.186  1.00  0.00     0.029 A 
ATOM     48  N   UNL A   1      44.729  29.097  31.012  1.00  0.00    -0.354 N 
ATOM     49  N   UNL A   1      44.314  26.503  29.692  1.00  0.00    -0.248 NA
ATOM     50  C   UNL A   1      45.122  24.419  29.009  1.00  0.00     0.031 C 
ATOM     51  C   UNL A   1      46.705  29.500  31.941  1.00  0.00     0.029 A 
ATOM     52  C   UNL A   1      45.981  28.548  31.239  1.00  0.00     0.049 A 
ATOM     53  H   UNL A   1      43.999  28.653  30.523  1.00  0.00     0.167 HD
ATOM     54  C   UNL A   1      45.630  26.361  30.120  1.00  0.00     0.074 A 
ATOM     55  C   UNL A   1      46.066  25.046  29.698  1.00  0.00     0.031 C 
ATOM     56  C   UNL A   1      46.404  27.239  30.806  1.00  0.00     0.031 A 
BRANCH  43  57
ATOM     57  C   UNL A   1      43.591  32.605  32.109  1.00  0.00    -0.014 A 
ATOM     58  C   UNL A   1      44.017  33.711  31.348  1.00  0.00     0.010 A 
ATOM     59  C   UNL A   1      43.246  32.801  33.459  1.00  0.00     0.010 A 
ATOM     60  C   UNL A   1      44.164  34.967  31.941  1.00  0.00     0.020 A 
ATOM     61  C   UNL A   1      43.357  34.065  34.047  1.00  0.00     0.020 A 
ATOM     62  C   UNL A   1      43.843  35.134  33.290  1.00  0.00     0.054 A 
BRANCH  62  63
ATOM     63  S   UNL A   1      44.062  36.771  34.039  1.00  0.00     0.124 S 
ATOM     64  O   UNL A   1      44.954  37.421  33.082  1.00  0.00    -0.237 OA
ATOM     65  O   UNL A   1      42.697  37.291  34.077  1.00  0.00    -0.237 OA
ATOM     66  O   UNL A   1      44.652  36.482  35.343  1.00  0.00    -0.744 OA
ENDBRANCH  62  63
ENDBRANCH  43  57
BRANCH  44  67
ATOM     67  C   UNL A   1      42.554  23.616  27.842  1.00  0.00    -0.014 A 
ATOM     68  C   UNL A   1      42.842  23.416  26.480  1.00  0.00     0.010 A 
ATOM     69  C   UNL A   1      42.146  22.520  28.624  1.00  0.00     0.010 A 
ATOM     70  C   UNL A   1      42.716  22.146  25.909  1.00  0.00     0.020 A 
ATOM     71  C   UNL A   1      42.046  21.244  28.062  1.00  0.00     0.020 A 
ATOM     72  C   UNL A   1      42.325  21.066  26.705  1.00  0.00     0.054 A 
BRANCH  72  73
ATOM     73  S   UNL A   1      42.237  19.416  25.955  1.00  0.00     0.124 S 
ATOM     74  O   UNL A   1      43.132  19.555  24.809  1.00  0.00    -0.237 OA
ATOM     75  O   UNL A   1      42.716  18.556  27.033  1.00  0.00    -0.237 OA
ATOM     76  O   UNL A   1      40.821  19.265  25.630  1.00  0.00    -0.744 OA
ENDBRANCH  72  73
ENDBRANCH  44  67
BRANCH  56  77
ATOM     77  C   UNL A   1      47.792  26.790  31.185  1.00  0.00    -0.014 A 
ATOM     78  C   UNL A   1      48.028  26.035  32.347  1.00  0.00     0.010 A 
ATOM     79  C   UNL A   1      48.871  27.088  30.332  1.00  0.00     0.010 A 
ATOM     80  C   UNL A   1      49.323  25.615  32.666  1.00  0.00     0.020 A 
ATOM     81  C   UNL A   1      50.160  26.642  30.628  1.00  0.00     0.020 A 
ATOM     82  C   UNL A   1      50.380  25.919  31.803  1.00  0.00     0.054 A 
BRANCH  82  83
ATOM     83  S   UNL A   1      52.043  25.324  32.217  1.00  0.00     0.124 S 
ATOM     84  O   UNL A   1      51.824  23.888  32.365  1.00  0.00    -0.237 OA
ATOM     85  O   UNL A   1      52.824  25.724  31.050  1.00  0.00    -0.237 OA
ATOM     86  O   UNL A   1      52.368  26.035  33.452  1.00  0.00    -0.744 OA
ENDBRANCH  82  83
ENDBRANCH  56  77
ENDBRANCH  30  31
ENDBRANCH  22  25
ENDBRANCH  20  21
ENDBRANCH   1  20
TORSDOF 16
ENDMDL
MODEL 2
REMARK VINA RESULT:      -9.1      3.345      6.056
REMARK SMILES CC(C)(C[S@](=O)c1cccc(Cl)c1)C(=O)NCCCNC(=O)c1ccc(-c2c3nc(c(-c4ccc(S(=O)(=O)[O-])cc4)c4ccc([nH]4)c(-c4ccc(S(=O)(=O)[O-])cc4)c4nc(c(-c5ccc(S(=O)(=O)[O-])cc5)c5ccc2[nH]5)C=C4)C=C3)cc1
REMARK SMILES IDX 18 1 17 2 16 3 14 4 15 5 2 7 1 8 3 9 4 10 5 11 6 12 7 13
REMARK SMILES IDX 8 14 13 15 9 16 11 17 10 18 12 19 19 20 20 21 21 22 22 24
REMARK SMILES IDX 23 25 24 26 82 27 25 28 81 29 26 30 27 31 28 32 75 33 29 34
REMARK SMILES IDX 80 35 74 36 76 37 30 38 79 39 73 40 72 41 31 43 61 44 42 45
REMARK SMILES IDX 60 46 43 47 46 48 59 49 77 50 44 51 45 52 58 54 78 55 47 56
REMARK SMILES IDX 32 57 33 58 41 59 34 60 40 61 35 62 36 63 37 64 38 65 39 66
REMARK SMILES IDX 62 67 63 68 71 69 64 70 70 71 65 72 66 73 67 74 68 75 69 76
REMARK SMILES IDX 48 77 49 78 57 79 50 80 56 81 51 82 52 83 53 84 54 85 55 86
REMARK H PARENT 16 6 20 23 76 42 46 53
REMARK Flexibility Score: inf
ROOT
ATOM      1  C   UNL A   1      33.982  28.129  25.730  1.00  0.00     0.042 C 
ENDROOT
BRANCH   1   2
ATOM      2  C   UNL A   1      32.892  28.317  24.687  1.00  0.00     0.117 C 
BRANCH   2   3
ATOM      3  N   UNL A   1      31.633  27.706  25.073  1.00  0.00    -0.356 N 
ATOM      4  C   UNL A   1      31.067  26.498  24.817  1.00  0.00     0.226 C 
ATOM      5  O   UNL A   1      30.074  26.218  25.497  1.00  0.00    -0.274 OA
ATOM      6  H   UNL A   1      31.073  28.287  25.638  1.00  0.00     0.163 HD
BRANCH   4   7
ATOM      7  C   UNL A   1      31.664  25.488  23.819  1.00  0.00     0.055 C 
ATOM      8  C   UNL A   1      32.038  26.231  22.513  1.00  0.00     0.022 C 
ATOM      9  C   UNL A   1      30.560  24.487  23.408  1.00  0.00     0.022 C 
BRANCH   7  10
ATOM     10  C   UNL A   1      32.892  24.724  24.357  1.00  0.00     0.126 C 
BRANCH  10  11
ATOM     11  S   UNL A   1      32.571  23.269  25.421  1.00  0.00     0.054 S 
ATOM     12  O   UNL A   1      32.350  23.715  26.832  1.00  0.00    -0.254 OA
BRANCH  11  13
ATOM     13  C   UNL A   1      34.229  22.549  25.385  1.00  0.00     0.040 A 
ATOM     14  C   UNL A   1      34.387  21.210  25.008  1.00  0.00     0.018 A 
ATOM     15  C   UNL A   1      35.353  23.304  25.736  1.00  0.00     0.038 A 
ATOM     16  C   UNL A   1      35.660  20.639  24.955  1.00  0.00     0.003 A 
ATOM     17  C   UNL A   1      36.623  22.733  25.667  1.00  0.00     0.042 A 
ATOM     18  C   UNL A   1      36.780  21.404  25.276  1.00  0.00     0.020 A 
ATOM     19  Cl  UNL A   1      38.009  23.675  26.055  1.00  0.00    -0.084 Cl
ENDBRANCH  11  13
ENDBRANCH  10  11
ENDBRANCH   7  10
ENDBRANCH   4   7
ENDBRANCH   2   3
ENDBRANCH   1   2
BRANCH   1  20
ATOM     20  C   UNL A   1      33.533  28.424  27.154  1.00  0.00     0.118 C 
BRANCH  20  21
ATOM     21  N   UNL A   1      33.513  29.852  27.451  1.00  0.00    -0.352 N 
ATOM     22  C   UNL A   1      34.447  30.645  28.070  1.00  0.00     0.251 C 
ATOM     23  H   UNL A   1      32.698  30.323  27.160  1.00  0.00     0.163 HD
ATOM     24  O   UNL A   1      34.140  31.789  28.405  1.00  0.00    -0.269 OA
BRANCH  22  25
ATOM     25  C   UNL A   1      35.804  30.129  28.352  1.00  0.00     0.039 A 
ATOM     26  C   UNL A   1      36.777  30.184  27.352  1.00  0.00     0.014 A 
ATOM     27  C   UNL A   1      36.115  29.577  29.597  1.00  0.00     0.014 A 
ATOM     28  C   UNL A   1      38.077  29.752  27.624  1.00  0.00     0.010 A 
ATOM     29  C   UNL A   1      37.431  29.243  29.898  1.00  0.00     0.010 A 
ATOM     30  C   UNL A   1      38.425  29.316  28.912  1.00  0.00    -0.014 A 
BRANCH  30  31
ATOM     31  C   UNL A   1      39.815  28.915  29.251  1.00  0.00     0.031 A 
ATOM     32  C   UNL A   1      40.726  29.878  29.964  1.00  0.00     0.074 A 
ATOM     33  C   UNL A   1      40.277  27.710  28.862  1.00  0.00     0.049 A 
ATOM     34  N   UNL A   1      41.983  29.732  30.299  1.00  0.00    -0.248 NA
ATOM     35  C   UNL A   1      40.158  31.187  30.326  1.00  0.00     0.031 C 
ATOM     36  C   UNL A   1      39.504  26.698  28.138  1.00  0.00     0.029 A 
ATOM     37  N   UNL A   1      41.511  27.132  29.023  1.00  0.00    -0.354 N 
ATOM     38  C   UNL A   1      42.356  30.931  30.896  1.00  0.00     0.074 A 
ATOM     39  C   UNL A   1      41.216  31.816  30.814  1.00  0.00     0.031 C 
ATOM     40  C   UNL A   1      40.267  25.607  27.959  1.00  0.00     0.029 A 
ATOM     41  C   UNL A   1      41.595  25.859  28.508  1.00  0.00     0.049 A 
ATOM     42  H   UNL A   1      42.264  27.584  29.465  1.00  0.00     0.167 HD
ATOM     43  C   UNL A   1      43.532  31.261  31.484  1.00  0.00     0.031 A 
ATOM     44  C   UNL A   1      42.625  24.992  28.480  1.00  0.00     0.031 A 
ATOM     45  C   UNL A   1      44.668  30.380  31.556  1.00  0.00     0.049 A 
ATOM     46  C   UNL A   1      43.938  25.394  29.095  1.00  0.00     0.074 A 
ATOM     47  C   UNL A   1      45.894  30.602  32.157  1.00  0.00     0.029 A 
ATOM     48  N   UNL A   1      44.719  29.109  31.000  1.00  0.00    -0.354 N 
ATOM     49  N   UNL A   1      44.256  26.513  29.702  1.00  0.00    -0.248 NA
ATOM     50  C   UNL A   1      45.027  24.412  29.028  1.00  0.00     0.031 C 
ATOM     51  C   UNL A   1      46.706  29.489  31.915  1.00  0.00     0.029 A 
ATOM     52  C   UNL A   1      45.963  28.544  31.224  1.00  0.00     0.049 A 
ATOM     53  H   UNL A   1      43.979  28.673  30.519  1.00  0.00     0.167 HD
ATOM     54  C   UNL A   1      45.572  26.354  30.122  1.00  0.00     0.074 A 
ATOM     55  C   UNL A   1      45.985  25.029  29.707  1.00  0.00     0.031 C 
ATOM     56  C   UNL A   1      46.363  27.225  30.798  1.00  0.00     0.031 A 
BRANCH  43  57
ATOM     57  C   UNL A   1      43.640  32.642  32.079  1.00  0.00    -0.014 A 
ATOM     58  C   UNL A   1      43.066  32.944  33.329  1.00  0.00     0.010 A 
ATOM     59  C   UNL A   1      44.317  33.658  31.379  1.00  0.00     0.010 A 
ATOM     60  C   UNL A   1      43.105  34.246  33.833  1.00  0.00     0.020 A 
ATOM     61  C   UNL A   1      44.390  34.955  31.898  1.00  0.00     0.020 A 
ATOM     62  C   UNL A   1      43.759  35.246  33.109  1.00  0.00     0.054 A 
BRANCH  62  63
ATOM     63  S   UNL A   1      43.778  36.931  33.778  1.00  0.00     0.124 S 
ATOM     64  O   UNL A   1      45.128  37.018  34.330  1.00  0.00    -0.237 OA
ATOM     65  O   UNL A   1      43.532  37.749  32.593  1.00  0.00    -0.237 OA
ATOM     66  O   UNL A   1      42.701  36.927  34.764  1.00  0.00    -0.744 OA
ENDBRANCH  62  63
ENDBRANCH  43  57
BRANCH  44  67
ATOM     67  C   UNL A   1      42.441  23.640  27.883  1.00  0.00    -0.014 A 
ATOM     68  C   UNL A   1      42.743  23.419  26.528  1.00  0.00     0.010 A 
ATOM     69  C   UNL A   1      41.995  22.562  28.669  1.00  0.00     0.010 A 
ATOM     70  C   UNL A   1      42.594  22.147  25.967  1.00  0.00     0.020 A 
ATOM     71  C   UNL A   1      41.872  21.283  28.118  1.00  0.00     0.020 A 
ATOM     72  C   UNL A   1      42.166  21.086  26.768  1.00  0.00     0.054 A 
BRANCH  72  73
ATOM     73  S   UNL A   1      42.049  19.431  26.032  1.00  0.00     0.124 S 
ATOM     74  O   UNL A   1      42.878  19.569  24.838  1.00  0.00    -0.237 OA
ATOM     75  O   UNL A   1      42.592  18.580  27.087  1.00  0.00    -0.237 OA
ATOM     76  O   UNL A   1      40.618  19.268  25.786  1.00  0.00    -0.744 OA
ENDBRANCH  72  73
ENDBRANCH  44  67
BRANCH  56  77
ATOM     77  C   UNL A   1      47.747  26.758  31.172  1.00  0.00    -0.014 A 
ATOM     78  C   UNL A   1      47.995  26.093  32.386  1.00  0.00     0.010 A 
ATOM     79  C   UNL A   1      48.806  26.942  30.264  1.00  0.00     0.010 A 
ATOM     80  C   UNL A   1      49.284  25.654  32.700  1.00  0.00     0.020 A 
ATOM     81  C   UNL A   1      50.089  26.475  30.559  1.00  0.00     0.020 A 
ATOM     82  C   UNL A   1      50.322  25.845  31.783  1.00  0.00     0.054 A 
BRANCH  82  83
ATOM     83  S   UNL A   1      51.976  25.225  32.196  1.00  0.00     0.124 S 
ATOM     84  O   UNL A   1      52.241  25.889  33.469  1.00  0.00    -0.237 OA
ATOM     85  O   UNL A   1      51.765  23.782  32.272  1.00  0.00    -0.237 OA
ATOM     86  O   UNL A   1      52.803  25.671  31.077  1.00  0.00    -0.744 OA
ENDBRANCH  82  83
ENDBRANCH  56  77
ENDBRANCH  30  31
ENDBRANCH  22  25
ENDBRANCH  20  21
ENDBRANCH   1  20
TORSDOF 16
ENDMDL
MODEL 3
REMARK VINA RESULT:      -9.1      4.799     11.747
REMARK SMILES CC(C)(C[S@](=O)c1cccc(Cl)c1)C(=O)NCCCNC(=O)c1ccc(-c2c3nc(c(-c4ccc(S(=O)(=O)[O-])cc4)c4ccc([nH]4)c(-c4ccc(S(=O)(=O)[O-])cc4)c4nc(c(-c5ccc(S(=O)(=O)[O-])cc5)c5ccc2[nH]5)C=C4)C=C3)cc1
REMARK SMILES IDX 18 1 17 2 16 3 14 4 15 5 2 7 1 8 3 9 4 10 5 11 6 12 7 13
REMARK SMILES IDX 8 14 13 15 9 16 11 17 10 18 12 19 19 20 20 21 21 22 22 24
REMARK SMILES IDX 23 25 24 26 82 27 25 28 81 29 26 30 27 31 28 32 75 33 29 34
REMARK SMILES IDX 80 35 74 36 76 37 30 38 79 39 73 40 72 41 31 43 61 44 42 45
REMARK SMILES IDX 60 46 43 47 46 48 59 49 77 50 44 51 45 52 58 54 78 55 47 56
REMARK SMILES IDX 32 57 33 58 41 59 34 60 40 61 35 62 36 63 37 64 38 65 39 66
REMARK SMILES IDX 62 67 63 68 71 69 64 70 70 71 65 72 66 73 67 74 68 75 69 76
REMARK SMILES IDX 48 77 49 78 57 79 50 80 56 81 51 82 52 83 53 84 54 85 55 86
REMARK H PARENT 16 6 20 23 76 42 46 53
REMARK Flexibility Score: inf
ROOT
ATOM      1  C   UNL A   1      37.478  23.377  25.377  1.00  0.00     0.042 C 
ENDROOT
BRANCH   1   2
ATOM      2  C   UNL A   1      36.024  23.813  25.293  1.00  0.00     0.117 C 
BRANCH   2   3
ATOM      3  N   UNL A   1      35.383  23.402  24.057  1.00  0.00    -0.356 N 
ATOM      4  C   UNL A   1      34.264  23.815  23.406  1.00  0.00     0.226 C 
ATOM      5  O   UNL A   1      34.135  23.399  22.250  1.00  0.00    -0.274 OA
ATOM      6  H   UNL A   1      35.858  22.675  23.593  1.00  0.00     0.163 HD
BRANCH   4   7
ATOM      7  C   UNL A   1      33.262  24.814  24.014  1.00  0.00     0.055 C 
ATOM      8  C   UNL A   1      33.012  24.438  25.495  1.00  0.00     0.022 C 
ATOM      9  C   UNL A   1      31.894  24.628  23.317  1.00  0.00     0.022 C 
BRANCH   7  10
ATOM     10  C   UNL A   1      33.706  26.289  23.916  1.00  0.00     0.126 C 
BRANCH  10  11
ATOM     11  S   UNL A   1      32.402  27.534  23.593  1.00  0.00     0.054 S 
ATOM     12  O   UNL A   1      32.792  28.380  22.421  1.00  0.00    -0.254 OA
BRANCH  11  13
ATOM     13  C   UNL A   1      32.661  28.566  25.055  1.00  0.00     0.040 A 
ATOM     14  C   UNL A   1      33.616  28.182  26.003  1.00  0.00     0.018 A 
ATOM     15  C   UNL A   1      31.918  29.734  25.257  1.00  0.00     0.038 A 
ATOM     16  C   UNL A   1      33.847  28.974  27.130  1.00  0.00     0.003 A 
ATOM     17  C   UNL A   1      32.162  30.527  26.376  1.00  0.00     0.042 A 
ATOM     18  C   UNL A   1      33.125  30.153  27.312  1.00  0.00     0.020 A 
ATOM     19  Cl  UNL A   1      31.279  31.987  26.601  1.00  0.00    -0.084 Cl
ENDBRANCH  11  13
ENDBRANCH  10  11
ENDBRANCH   7  10
ENDBRANCH   4   7
ENDBRANCH   2   3
ENDBRANCH   1   2
BRANCH   1  20
ATOM     20  C   UNL A   1      38.318  24.210  26.334  1.00  0.00     0.118 C 
BRANCH  20  21
ATOM     21  N   UNL A   1      39.750  24.043  26.115  1.00  0.00    -0.352 N 
ATOM     22  C   UNL A   1      40.811  24.791  26.560  1.00  0.00     0.251 C 
ATOM     23  H   UNL A   1      39.995  23.268  25.559  1.00  0.00     0.163 HD
ATOM     24  O   UNL A   1      41.930  24.593  26.085  1.00  0.00    -0.269 OA
BRANCH  22  25
ATOM     25  C   UNL A   1      40.616  25.841  27.583  1.00  0.00     0.039 A 
ATOM     26  C   UNL A   1      39.671  25.641  28.593  1.00  0.00     0.014 A 
ATOM     27  C   UNL A   1      41.350  27.028  27.540  1.00  0.00     0.014 A 
ATOM     28  C   UNL A   1      39.517  26.600  29.597  1.00  0.00     0.010 A 
ATOM     29  C   UNL A   1      41.269  27.931  28.594  1.00  0.00     0.010 A 
ATOM     30  C   UNL A   1      40.343  27.734  29.629  1.00  0.00    -0.014 A 
BRANCH  30  31
ATOM     31  C   UNL A   1      40.250  28.736  30.722  1.00  0.00     0.031 A 
ATOM     32  C   UNL A   1      41.153  28.633  31.921  1.00  0.00     0.074 A 
ATOM     33  C   UNL A   1      39.313  29.702  30.664  1.00  0.00     0.049 A 
ATOM     34  N   UNL A   1      41.188  29.377  32.996  1.00  0.00    -0.248 NA
ATOM     35  C   UNL A   1      42.129  27.530  31.925  1.00  0.00     0.031 C 
ATOM     36  C   UNL A   1      38.356  29.894  29.570  1.00  0.00     0.029 A 
ATOM     37  N   UNL A   1      39.009  30.707  31.548  1.00  0.00    -0.354 N 
ATOM     38  C   UNL A   1      42.175  28.827  33.806  1.00  0.00     0.074 A 
ATOM     39  C   UNL A   1      42.665  27.647  33.130  1.00  0.00     0.031 C 
ATOM     40  C   UNL A   1      37.606  30.977  29.827  1.00  0.00     0.029 A 
ATOM     41  C   UNL A   1      37.990  31.528  31.122  1.00  0.00     0.049 A 
ATOM     42  H   UNL A   1      39.477  30.831  32.405  1.00  0.00     0.167 HD
ATOM     43  C   UNL A   1      42.651  29.275  34.994  1.00  0.00     0.031 A 
ATOM     44  C   UNL A   1      37.427  32.602  31.709  1.00  0.00     0.031 A 
ATOM     45  C   UNL A   1      42.155  30.446  35.668  1.00  0.00     0.049 A 
ATOM     46  C   UNL A   1      37.938  33.055  33.050  1.00  0.00     0.074 A 
ATOM     47  C   UNL A   1      42.589  31.005  36.856  1.00  0.00     0.029 A 
ATOM     48  N   UNL A   1      41.106  31.233  35.214  1.00  0.00    -0.354 N 
ATOM     49  N   UNL A   1      38.908  32.553  33.776  1.00  0.00    -0.248 NA
ATOM     50  C   UNL A   1      37.282  34.227  33.645  1.00  0.00     0.031 C 
ATOM     51  C   UNL A   1      41.765  32.096  37.150  1.00  0.00     0.029 A 
ATOM     52  C   UNL A   1      40.862  32.260  36.111  1.00  0.00     0.049 A 
ATOM     53  H   UNL A   1      40.609  31.084  34.377  1.00  0.00     0.167 HD
ATOM     54  C   UNL A   1      39.004  33.370  34.897  1.00  0.00     0.074 A 
ATOM     55  C   UNL A   1      37.998  34.403  34.747  1.00  0.00     0.031 C 
ATOM     56  C   UNL A   1      39.853  33.278  35.951  1.00  0.00     0.031 A 
BRANCH  43  57
ATOM     57  C   UNL A   1      43.758  28.476  35.636  1.00  0.00    -0.014 A 
ATOM     58  C   UNL A   1      43.475  27.437  36.543  1.00  0.00     0.010 A 
ATOM     59  C   UNL A   1      45.101  28.770  35.336  1.00  0.00     0.010 A 
ATOM     60  C   UNL A   1      44.509  26.757  37.190  1.00  0.00     0.020 A 
ATOM     61  C   UNL A   1      46.140  28.067  35.955  1.00  0.00     0.020 A 
ATOM     62  C   UNL A   1      45.836  27.084  36.899  1.00  0.00     0.054 A 
BRANCH  62  63
ATOM     63  S   UNL A   1      47.159  26.198  37.768  1.00  0.00     0.124 S 
ATOM     64  O   UNL A   1      46.408  25.175  38.492  1.00  0.00    -0.237 OA
ATOM     65  O   UNL A   1      47.990  25.707  36.671  1.00  0.00    -0.237 OA
ATOM     66  O   UNL A   1      47.776  27.225  38.602  1.00  0.00    -0.744 OA
ENDBRANCH  62  63
ENDBRANCH  43  57
BRANCH  44  67
ATOM     67  C   UNL A   1      36.345  33.347  31.009  1.00  0.00    -0.014 A 
ATOM     68  C   UNL A   1      35.102  33.543  31.638  1.00  0.00     0.010 A 
ATOM     69  C   UNL A   1      36.558  33.891  29.730  1.00  0.00     0.010 A 
ATOM     70  C   UNL A   1      34.089  34.261  30.996  1.00  0.00     0.020 A 
ATOM     71  C   UNL A   1      35.556  34.634  29.097  1.00  0.00     0.020 A 
ATOM     72  C   UNL A   1      34.325  34.809  29.732  1.00  0.00     0.054 A 
BRANCH  72  73
ATOM     73  S   UNL A   1      33.018  35.796  28.952  1.00  0.00     0.124 S 
ATOM     74  O   UNL A   1      32.350  34.807  28.111  1.00  0.00    -0.237 OA
ATOM     75  O   UNL A   1      32.254  36.270  30.102  1.00  0.00    -0.237 OA
ATOM     76  O   UNL A   1      33.756  36.833  28.234  1.00  0.00    -0.744 OA
ENDBRANCH  72  73
ENDBRANCH  44  67
BRANCH  56  77
ATOM     77  C   UNL A   1      39.763  34.347  37.010  1.00  0.00    -0.014 A 
ATOM     78  C   UNL A   1      40.429  35.578  36.869  1.00  0.00     0.010 A 
ATOM     79  C   UNL A   1      38.953  34.133  38.140  1.00  0.00     0.010 A 
ATOM     80  C   UNL A   1      40.314  36.559  37.857  1.00  0.00     0.020 A 
ATOM     81  C   UNL A   1      38.808  35.124  39.113  1.00  0.00     0.020 A 
ATOM     82  C   UNL A   1      39.502  36.328  38.971  1.00  0.00     0.054 A 
BRANCH  82  83
ATOM     83  S   UNL A   1      39.334  37.636  40.216  1.00  0.00     0.124 S 
ATOM     84  O   UNL A   1      38.952  36.879  41.404  1.00  0.00    -0.237 OA
ATOM     85  O   UNL A   1      40.672  38.220  40.247  1.00  0.00    -0.237 OA
ATOM     86  O   UNL A   1      38.294  38.504  39.669  1.00  0.00    -0.744 OA
ENDBRANCH  82  83
ENDBRANCH  56  77
ENDBRANCH  30  31
ENDBRANCH  22  25
ENDBRANCH  20  21
ENDBRANCH   1  20
TORSDOF 16
ENDMDL
