MODEL 1
REMARK VINA RESULT:     -13.3      0.000      0.000
REMARK SMILES Cc1ccnc(C(=O)c2[nH]c3cc(Cl)c(F)cc3c2CC(=O)NCCCNC(=O)c2ccc(-c3c4nc(c(-c5ccc(S(=O)(=O)[O-])cc5)c5ccc([nH]5)c(-c5ccc(S(=O)(=O)[O-])cc5)c5nc(c(-c6ccc(S(=O)(=O)[O-])cc6)c6ccc3[nH]6)C=C5)C=C4)cc2)c1
REMARK SMILES IDX 25 1 24 2 23 3 21 4 22 5 20 7 19 8 9 9 10 10 11 11 18 13
REMARK SMILES IDX 12 14 17 15 13 16 15 17 14 18 16 19 7 20 8 21 6 22 1 23 2 24
REMARK SMILES IDX 3 25 90 26 4 27 5 28 26 29 27 30 28 31 29 33 30 34 31 35
REMARK SMILES IDX 89 36 32 37 88 38 33 39 34 40 35 41 82 42 36 43 87 44 81 45
REMARK SMILES IDX 83 46 37 47 86 48 80 49 79 50 38 52 68 53 49 54 67 55 50 56
REMARK SMILES IDX 53 57 66 58 84 59 51 60 52 61 65 63 85 64 54 65 39 66 40 67
REMARK SMILES IDX 48 68 41 69 47 70 42 71 43 72 44 73 45 74 46 75 69 76 70 77
REMARK SMILES IDX 78 78 71 79 77 80 72 81 73 82 74 83 75 84 76 85 55 86 56 87
REMARK SMILES IDX 64 88 57 89 63 90 58 91 59 92 60 93 61 94 62 95
REMARK H PARENT 23 6 10 12 27 32 83 51 53 62
REMARK Flexibility Score: inf
ROOT
ATOM      1  C   UNL A   1      38.659  23.505  26.350  1.00  0.00     0.042 C 
ENDROOT
BRANCH   1   2
ATOM      2  C   UNL A   1      37.465  22.912  25.603  1.00  0.00     0.117 C 
BRANCH   2   3
ATOM      3  N   UNL A   1      36.487  23.868  25.111  1.00  0.00    -0.356 N 
ATOM      4  C   UNL A   1      35.225  24.179  25.518  1.00  0.00     0.224 C 
ATOM      5  O   UNL A   1      34.716  25.187  25.014  1.00  0.00    -0.275 OA
ATOM      6  H   UNL A   1      36.796  24.390  24.336  1.00  0.00     0.163 HD
BRANCH   4   7
ATOM      7  C   UNL A   1      34.468  23.395  26.571  1.00  0.00     0.138 C 
BRANCH   7   8
ATOM      8  C   UNL A   1      33.409  22.452  26.080  1.00  0.00    -0.002 A 
ATOM      9  C   UNL A   1      32.015  22.579  26.090  1.00  0.00     0.093 A 
ATOM     10  N   UNL A   1      31.509  21.369  25.649  1.00  0.00    -0.351 N 
ATOM     11  C   UNL A   1      32.505  20.523  25.243  1.00  0.00     0.048 A 
ATOM     12  H   UNL A   1      30.551  21.145  25.629  1.00  0.00     0.167 HD
ATOM     13  C   UNL A   1      33.709  21.131  25.582  1.00  0.00     0.007 A 
ATOM     14  C   UNL A   1      32.433  19.270  24.622  1.00  0.00     0.050 A 
ATOM     15  C   UNL A   1      34.904  20.415  25.354  1.00  0.00     0.051 A 
ATOM     16  C   UNL A   1      33.637  18.623  24.327  1.00  0.00     0.078 A 
ATOM     17  C   UNL A   1      34.851  19.181  24.706  1.00  0.00     0.142 A 
ATOM     18  Cl  UNL A   1      33.579  17.143  23.465  1.00  0.00    -0.081 Cl
ATOM     19  F   UNL A   1      36.014  18.570  24.435  1.00  0.00    -0.205 F 
BRANCH   9  20
ATOM     20  C   UNL A   1      31.073  23.605  26.540  1.00  0.00     0.227 C 
ATOM     21  O   UNL A   1      30.189  23.303  27.342  1.00  0.00    -0.285 OA
BRANCH  20  22
ATOM     22  C   UNL A   1      31.051  24.990  25.949  1.00  0.00     0.113 A 
ATOM     23  C   UNL A   1      32.207  28.552  26.630  1.00  0.00     0.044 C 
ATOM     24  C   UNL A   1      31.635  27.332  25.972  1.00  0.00    -0.047 A 
ATOM     25  C   UNL A   1      31.011  27.459  24.736  1.00  0.00     0.023 A 
ATOM     26  C   UNL A   1      31.701  26.059  26.554  1.00  0.00     0.036 A 
ATOM     27  C   UNL A   1      30.444  26.333  24.166  1.00  0.00     0.112 A 
ATOM     28  N   UNL A   1      30.440  25.112  24.742  1.00  0.00    -0.253 NA
ENDBRANCH  20  22
ENDBRANCH   9  20
ENDBRANCH   7   8
ENDBRANCH   4   7
ENDBRANCH   2   3
ENDBRANCH   1   2
BRANCH   1  29
ATOM     29  C   UNL A   1      39.810  22.571  26.699  1.00  0.00     0.118 C 
BRANCH  29  30
ATOM     30  N   UNL A   1      40.921  22.527  25.773  1.00  0.00    -0.352 N 
ATOM     31  C   UNL A   1      42.065  23.259  25.615  1.00  0.00     0.251 C 
ATOM     32  H   UNL A   1      40.835  21.808  25.106  1.00  0.00     0.163 HD
ATOM     33  O   UNL A   1      42.906  22.827  24.826  1.00  0.00    -0.269 OA
BRANCH  31  34
ATOM     34  C   UNL A   1      42.255  24.591  26.225  1.00  0.00     0.039 A 
ATOM     35  C   UNL A   1      43.093  24.854  27.305  1.00  0.00     0.014 A 
ATOM     36  C   UNL A   1      41.448  25.616  25.713  1.00  0.00     0.014 A 
ATOM     37  C   UNL A   1      42.912  26.007  28.046  1.00  0.00     0.010 A 
ATOM     38  C   UNL A   1      41.344  26.817  26.392  1.00  0.00     0.010 A 
ATOM     39  C   UNL A   1      41.982  26.957  27.623  1.00  0.00    -0.014 A 
BRANCH  39  40
ATOM     40  C   UNL A   1      41.740  28.107  28.486  1.00  0.00     0.031 A 
ATOM     41  C   UNL A   1      42.774  29.187  28.441  1.00  0.00     0.074 A 
ATOM     42  C   UNL A   1      40.592  28.234  29.183  1.00  0.00     0.049 A 
ATOM     43  N   UNL A   1      43.412  29.750  29.417  1.00  0.00    -0.248 NA
ATOM     44  C   UNL A   1      43.217  29.625  27.106  1.00  0.00     0.031 C 
ATOM     45  C   UNL A   1      39.386  27.398  29.108  1.00  0.00     0.029 A 
ATOM     46  N   UNL A   1      40.205  29.245  30.003  1.00  0.00    -0.354 N 
ATOM     47  C   UNL A   1      44.229  30.721  28.837  1.00  0.00     0.074 A 
ATOM     48  C   UNL A   1      44.154  30.521  27.412  1.00  0.00     0.031 C 
ATOM     49  C   UNL A   1      38.336  28.091  29.600  1.00  0.00     0.029 A 
ATOM     50  C   UNL A   1      38.829  29.330  30.171  1.00  0.00     0.049 A 
ATOM     51  H   UNL A   1      40.840  29.859  30.437  1.00  0.00     0.167 HD
ATOM     52  C   UNL A   1      44.809  31.734  29.539  1.00  0.00     0.031 A 
ATOM     53  C   UNL A   1      38.142  30.403  30.635  1.00  0.00     0.031 A 
ATOM     54  C   UNL A   1      44.858  31.471  30.948  1.00  0.00     0.049 A 
ATOM     55  C   UNL A   1      39.108  31.248  31.380  1.00  0.00     0.074 A 
ATOM     56  C   UNL A   1      45.514  30.545  31.734  1.00  0.00     0.029 A 
ATOM     57  N   UNL A   1      43.875  32.008  31.742  1.00  0.00    -0.354 N 
ATOM     58  N   UNL A   1      39.718  30.866  32.467  1.00  0.00    -0.248 NA
ATOM     59  C   UNL A   1      39.731  32.355  30.669  1.00  0.00     0.031 C 
ATOM     60  C   UNL A   1      44.586  30.219  32.764  1.00  0.00     0.029 A 
ATOM     61  C   UNL A   1      43.445  31.003  32.572  1.00  0.00     0.049 A 
ATOM     62  H   UNL A   1      43.544  32.935  31.721  1.00  0.00     0.167 HD
ATOM     63  C   UNL A   1      40.998  31.393  32.364  1.00  0.00     0.074 A 
ATOM     64  C   UNL A   1      40.917  32.371  31.281  1.00  0.00     0.031 C 
ATOM     65  C   UNL A   1      42.068  30.805  32.976  1.00  0.00     0.031 A 
BRANCH  52  66
ATOM     66  C   UNL A   1      45.092  33.094  28.954  1.00  0.00    -0.014 A 
ATOM     67  C   UNL A   1      44.082  33.877  28.356  1.00  0.00     0.010 A 
ATOM     68  C   UNL A   1      46.327  33.726  29.201  1.00  0.00     0.010 A 
ATOM     69  C   UNL A   1      44.289  35.208  27.995  1.00  0.00     0.020 A 
ATOM     70  C   UNL A   1      46.533  35.078  28.881  1.00  0.00     0.020 A 
ATOM     71  C   UNL A   1      45.511  35.808  28.275  1.00  0.00     0.054 A 
BRANCH  71  72
ATOM     72  S   UNL A   1      45.690  37.573  27.916  1.00  0.00     0.124 S 
ATOM     73  O   UNL A   1      44.490  37.843  27.130  1.00  0.00    -0.237 OA
ATOM     74  O   UNL A   1      45.714  38.163  29.253  1.00  0.00    -0.237 OA
ATOM     75  O   UNL A   1      46.950  37.648  27.182  1.00  0.00    -0.744 OA
ENDBRANCH  71  72
ENDBRANCH  52  66
BRANCH  53  76
ATOM     76  C   UNL A   1      36.905  30.956  30.022  1.00  0.00    -0.014 A 
ATOM     77  C   UNL A   1      36.901  31.321  28.658  1.00  0.00     0.010 A 
ATOM     78  C   UNL A   1      35.842  31.405  30.825  1.00  0.00     0.010 A 
ATOM     79  C   UNL A   1      35.916  32.157  28.128  1.00  0.00     0.020 A 
ATOM     80  C   UNL A   1      34.847  32.249  30.299  1.00  0.00     0.020 A 
ATOM     81  C   UNL A   1      34.913  32.647  28.962  1.00  0.00     0.054 A 
BRANCH  81  82
ATOM     82  S   UNL A   1      33.764  33.879  28.283  1.00  0.00     0.124 S 
ATOM     83  O   UNL A   1      32.824  33.043  27.545  1.00  0.00    -0.237 OA
ATOM     84  O   UNL A   1      33.231  34.509  29.488  1.00  0.00    -0.237 OA
ATOM     85  O   UNL A   1      34.619  34.734  27.464  1.00  0.00    -0.744 OA
ENDBRANCH  81  82
ENDBRANCH  53  76
BRANCH  65  86
ATOM     86  C   UNL A   1      41.828  29.669  33.951  1.00  0.00    -0.014 A 
ATOM     87  C   UNL A   1      42.082  29.914  35.311  1.00  0.00     0.010 A 
ATOM     88  C   UNL A   1      41.588  28.339  33.543  1.00  0.00     0.010 A 
ATOM     89  C   UNL A   1      42.129  28.867  36.235  1.00  0.00     0.020 A 
ATOM     90  C   UNL A   1      41.614  27.284  34.472  1.00  0.00     0.020 A 
ATOM     91  C   UNL A   1      41.902  27.556  35.810  1.00  0.00     0.054 A 
BRANCH  91  92
ATOM     92  S   UNL A   1      42.021  26.237  37.050  1.00  0.00     0.124 S 
ATOM     93  O   UNL A   1      40.648  26.141  37.538  1.00  0.00    -0.237 OA
ATOM     94  O   UNL A   1      42.475  25.096  36.260  1.00  0.00    -0.237 OA
ATOM     95  O   UNL A   1      42.999  26.743  38.014  1.00  0.00    -0.744 OA
ENDBRANCH  91  92
ENDBRANCH  65  86
ENDBRANCH  39  40
ENDBRANCH  31  34
ENDBRANCH  29  30
ENDBRANCH   1  29
TORSDOF 16
ENDMDL
MODEL 2
REMARK VINA RESULT:     -13.1      1.492      1.826
REMARK SMILES Cc1ccnc(C(=O)c2[nH]c3cc(Cl)c(F)cc3c2CC(=O)NCCCNC(=O)c2ccc(-c3c4nc(c(-c5ccc(S(=O)(=O)[O-])cc5)c5ccc([nH]5)c(-c5ccc(S(=O)(=O)[O-])cc5)c5nc(c(-c6ccc(S(=O)(=O)[O-])cc6)c6ccc3[nH]6)C=C5)C=C4)cc2)c1
REMARK SMILES IDX 25 1 24 2 23 3 21 4 22 5 20 7 19 8 9 9 10 10 11 11 18 13
REMARK SMILES IDX 12 14 17 15 13 16 15 17 14 18 16 19 7 20 8 21 6 22 1 23 2 24
REMARK SMILES IDX 3 25 90 26 4 27 5 28 26 29 27 30 28 31 29 33 30 34 31 35
REMARK SMILES IDX 89 36 32 37 88 38 33 39 34 40 35 41 82 42 36 43 87 44 81 45
REMARK SMILES IDX 83 46 37 47 86 48 80 49 79 50 38 52 68 53 49 54 67 55 50 56
REMARK SMILES IDX 53 57 66 58 84 59 51 60 52 61 65 63 85 64 54 65 39 66 40 67
REMARK SMILES IDX 48 68 41 69 47 70 42 71 43 72 44 73 45 74 46 75 69 76 70 77
REMARK SMILES IDX 78 78 71 79 77 80 72 81 73 82 74 83 75 84 76 85 55 86 56 87
REMARK SMILES IDX 64 88 57 89 63 90 58 91 59 92 60 93 61 94 62 95
REMARK H PARENT 23 6 10 12 27 32 83 51 53 62
REMARK Flexibility Score: inf
ROOT
ATOM      1  C   UNL A   1      39.190  23.784  26.883  1.00  0.00     0.042 C 
ENDROOT
BRANCH   1   2
ATOM      2  C   UNL A   1      37.771  23.800  26.319  1.00  0.00     0.117 C 
BRANCH   2   3
ATOM      3  N   UNL A   1      37.638  23.415  24.924  1.00  0.00    -0.356 N 
ATOM      4  C   UNL A   1      36.607  23.515  24.041  1.00  0.00     0.224 C 
ATOM      5  O   UNL A   1      36.870  23.276  22.856  1.00  0.00    -0.275 OA
ATOM      6  H   UNL A   1      38.449  23.004  24.546  1.00  0.00     0.163 HD
BRANCH   4   7
ATOM      7  C   UNL A   1      35.207  23.945  24.432  1.00  0.00     0.138 C 
BRANCH   7   8
ATOM      8  C   UNL A   1      34.071  23.313  23.684  1.00  0.00    -0.002 A 
ATOM      9  C   UNL A   1      33.126  23.887  22.826  1.00  0.00     0.093 A 
ATOM     10  N   UNL A   1      32.220  22.889  22.518  1.00  0.00    -0.351 N 
ATOM     11  C   UNL A   1      32.604  21.681  23.034  1.00  0.00     0.048 A 
ATOM     12  H   UNL A   1      31.400  23.030  21.992  1.00  0.00     0.167 HD
ATOM     13  C   UNL A   1      33.707  21.925  23.844  1.00  0.00     0.007 A 
ATOM     14  C   UNL A   1      32.053  20.405  22.860  1.00  0.00     0.050 A 
ATOM     15  C   UNL A   1      34.246  20.846  24.578  1.00  0.00     0.051 A 
ATOM     16  C   UNL A   1      32.664  19.340  23.530  1.00  0.00     0.078 A 
ATOM     17  C   UNL A   1      33.731  19.563  24.390  1.00  0.00     0.142 A 
ATOM     18  Cl  UNL A   1      32.081  17.754  23.243  1.00  0.00    -0.081 Cl
ATOM     19  F   UNL A   1      34.322  18.553  25.044  1.00  0.00    -0.205 F 
BRANCH   9  20
ATOM     20  C   UNL A   1      32.870  25.239  22.327  1.00  0.00     0.227 C 
ATOM     21  O   UNL A   1      33.725  25.802  21.644  1.00  0.00    -0.285 OA
BRANCH  20  22
ATOM     22  C   UNL A   1      31.656  26.030  22.739  1.00  0.00     0.113 A 
ATOM     23  C   UNL A   1      29.972  29.406  22.232  1.00  0.00     0.044 C 
ATOM     24  C   UNL A   1      30.257  27.995  22.651  1.00  0.00    -0.047 A 
ATOM     25  C   UNL A   1      29.366  27.349  23.502  1.00  0.00     0.023 A 
ATOM     26  C   UNL A   1      31.391  27.293  22.222  1.00  0.00     0.036 A 
ATOM     27  C   UNL A   1      29.668  26.066  23.921  1.00  0.00     0.112 A 
ATOM     28  N   UNL A   1      30.788  25.398  23.571  1.00  0.00    -0.253 NA
ENDBRANCH  20  22
ENDBRANCH   9  20
ENDBRANCH   7   8
ENDBRANCH   4   7
ENDBRANCH   2   3
ENDBRANCH   1   2
BRANCH   1  29
ATOM     29  C   UNL A   1      40.005  22.508  26.716  1.00  0.00     0.118 C 
BRANCH  29  30
ATOM     30  N   UNL A   1      41.064  22.532  25.730  1.00  0.00    -0.352 N 
ATOM     31  C   UNL A   1      42.199  23.275  25.563  1.00  0.00     0.251 C 
ATOM     32  H   UNL A   1      40.940  21.861  25.019  1.00  0.00     0.163 HD
ATOM     33  O   UNL A   1      42.995  22.902  24.700  1.00  0.00    -0.269 OA
BRANCH  31  34
ATOM     34  C   UNL A   1      42.424  24.561  26.254  1.00  0.00     0.039 A 
ATOM     35  C   UNL A   1      43.134  24.706  27.443  1.00  0.00     0.014 A 
ATOM     36  C   UNL A   1      41.784  25.675  25.694  1.00  0.00     0.014 A 
ATOM     37  C   UNL A   1      42.959  25.844  28.209  1.00  0.00     0.010 A 
ATOM     38  C   UNL A   1      41.697  26.855  26.410  1.00  0.00     0.010 A 
ATOM     39  C   UNL A   1      42.180  26.891  27.717  1.00  0.00    -0.014 A 
BRANCH  39  40
ATOM     40  C   UNL A   1      41.929  28.027  28.597  1.00  0.00     0.031 A 
ATOM     41  C   UNL A   1      42.987  29.083  28.617  1.00  0.00     0.074 A 
ATOM     42  C   UNL A   1      40.758  28.164  29.251  1.00  0.00     0.049 A 
ATOM     43  N   UNL A   1      43.599  29.610  29.629  1.00  0.00    -0.248 NA
ATOM     44  C   UNL A   1      43.493  29.541  27.310  1.00  0.00     0.031 C 
ATOM     45  C   UNL A   1      39.538  27.357  29.110  1.00  0.00     0.029 A 
ATOM     46  N   UNL A   1      40.361  29.165  30.078  1.00  0.00    -0.354 N 
ATOM     47  C   UNL A   1      44.459  30.575  29.104  1.00  0.00     0.074 A 
ATOM     48  C   UNL A   1      44.436  30.408  27.673  1.00  0.00     0.031 C 
ATOM     49  C   UNL A   1      38.485  28.063  29.577  1.00  0.00     0.029 A 
ATOM     50  C   UNL A   1      38.982  29.278  30.195  1.00  0.00     0.049 A 
ATOM     51  H   UNL A   1      40.991  29.755  30.551  1.00  0.00     0.167 HD
ATOM     52  C   UNL A   1      45.032  31.559  29.851  1.00  0.00     0.031 A 
ATOM     53  C   UNL A   1      38.300  30.355  30.657  1.00  0.00     0.031 A 
ATOM     54  C   UNL A   1      45.021  31.263  31.254  1.00  0.00     0.049 A 
ATOM     55  C   UNL A   1      39.255  31.162  31.457  1.00  0.00     0.074 A 
ATOM     56  C   UNL A   1      45.624  30.305  32.044  1.00  0.00     0.029 A 
ATOM     57  N   UNL A   1      44.019  31.805  32.022  1.00  0.00    -0.354 N 
ATOM     58  N   UNL A   1      39.813  30.742  32.559  1.00  0.00    -0.248 NA
ATOM     59  C   UNL A   1      39.929  32.269  30.797  1.00  0.00     0.031 C 
ATOM     60  C   UNL A   1      44.650  29.978  33.029  1.00  0.00     0.029 A 
ATOM     61  C   UNL A   1      43.535  30.792  32.811  1.00  0.00     0.049 A 
ATOM     62  H   UNL A   1      43.709  32.739  32.010  1.00  0.00     0.167 HD
ATOM     63  C   UNL A   1      41.107  31.242  32.517  1.00  0.00     0.074 A 
ATOM     64  C   UNL A   1      41.090  32.245  31.455  1.00  0.00     0.031 C 
ATOM     65  C   UNL A   1      42.139  30.616  33.157  1.00  0.00     0.031 A 
BRANCH  52  66
ATOM     66  C   UNL A   1      45.368  32.924  29.308  1.00  0.00    -0.014 A 
ATOM     67  C   UNL A   1      46.638  33.224  28.770  1.00  0.00     0.010 A 
ATOM     68  C   UNL A   1      44.347  33.872  29.101  1.00  0.00     0.010 A 
ATOM     69  C   UNL A   1      46.894  34.413  28.087  1.00  0.00     0.020 A 
ATOM     70  C   UNL A   1      44.582  35.053  28.378  1.00  0.00     0.020 A 
ATOM     71  C   UNL A   1      45.859  35.316  27.879  1.00  0.00     0.054 A 
BRANCH  71  72
ATOM     72  S   UNL A   1      46.200  36.780  26.870  1.00  0.00     0.124 S 
ATOM     73  O   UNL A   1      46.695  36.182  25.633  1.00  0.00    -0.237 OA
ATOM     74  O   UNL A   1      44.886  37.411  26.782  1.00  0.00    -0.237 OA
ATOM     75  O   UNL A   1      47.191  37.513  27.653  1.00  0.00    -0.744 OA
ENDBRANCH  71  72
ENDBRANCH  52  66
BRANCH  53  76
ATOM     76  C   UNL A   1      37.101  30.950  30.008  1.00  0.00    -0.014 A 
ATOM     77  C   UNL A   1      37.193  31.457  28.694  1.00  0.00     0.010 A 
ATOM     78  C   UNL A   1      35.969  31.294  30.767  1.00  0.00     0.010 A 
ATOM     79  C   UNL A   1      36.231  32.329  28.178  1.00  0.00     0.020 A 
ATOM     80  C   UNL A   1      34.996  32.172  30.255  1.00  0.00     0.020 A 
ATOM     81  C   UNL A   1      35.155  32.710  28.977  1.00  0.00     0.054 A 
BRANCH  81  82
ATOM     82  S   UNL A   1      34.032  33.989  28.341  1.00  0.00     0.124 S 
ATOM     83  O   UNL A   1      34.861  34.649  27.338  1.00  0.00    -0.237 OA
ATOM     84  O   UNL A   1      32.921  33.199  27.815  1.00  0.00    -0.237 OA
ATOM     85  O   UNL A   1      33.718  34.791  29.520  1.00  0.00    -0.744 OA
ENDBRANCH  81  82
ENDBRANCH  53  76
BRANCH  65  86
ATOM     86  C   UNL A   1      41.836  29.464  34.095  1.00  0.00    -0.014 A 
ATOM     87  C   UNL A   1      42.003  29.687  35.473  1.00  0.00     0.010 A 
ATOM     88  C   UNL A   1      41.623  28.142  33.651  1.00  0.00     0.010 A 
ATOM     89  C   UNL A   1      41.989  28.625  36.380  1.00  0.00     0.020 A 
ATOM     90  C   UNL A   1      41.588  27.072  34.561  1.00  0.00     0.020 A 
ATOM     91  C   UNL A   1      41.790  27.321  35.920  1.00  0.00     0.054 A 
BRANCH  91  92
ATOM     92  S   UNL A   1      41.828  25.982  37.143  1.00  0.00     0.124 S 
ATOM     93  O   UNL A   1      40.459  25.985  37.653  1.00  0.00    -0.237 OA
ATOM     94  O   UNL A   1      42.181  24.819  36.333  1.00  0.00    -0.237 OA
ATOM     95  O   UNL A   1      42.856  26.400  38.096  1.00  0.00    -0.744 OA
ENDBRANCH  91  92
ENDBRANCH  65  86
ENDBRANCH  39  40
ENDBRANCH  31  34
ENDBRANCH  29  30
ENDBRANCH   1  29
TORSDOF 16
ENDMDL
MODEL 3
REMARK VINA RESULT:     -12.9      1.955      3.506
REMARK SMILES Cc1ccnc(C(=O)c2[nH]c3cc(Cl)c(F)cc3c2CC(=O)NCCCNC(=O)c2ccc(-c3c4nc(c(-c5ccc(S(=O)(=O)[O-])cc5)c5ccc([nH]5)c(-c5ccc(S(=O)(=O)[O-])cc5)c5nc(c(-c6ccc(S(=O)(=O)[O-])cc6)c6ccc3[nH]6)C=C5)C=C4)cc2)c1
REMARK SMILES IDX 25 1 24 2 23 3 21 4 22 5 20 7 19 8 9 9 10 10 11 11 18 13
REMARK SMILES IDX 12 14 17 15 13 16 15 17 14 18 16 19 7 20 8 21 6 22 1 23 2 24
REMARK SMILES IDX 3 25 90 26 4 27 5 28 26 29 27 30 28 31 29 33 30 34 31 35
REMARK SMILES IDX 89 36 32 37 88 38 33 39 34 40 35 41 82 42 36 43 87 44 81 45
REMARK SMILES IDX 83 46 37 47 86 48 80 49 79 50 38 52 68 53 49 54 67 55 50 56
REMARK SMILES IDX 53 57 66 58 84 59 51 60 52 61 65 63 85 64 54 65 39 66 40 67
REMARK SMILES IDX 48 68 41 69 47 70 42 71 43 72 44 73 45 74 46 75 69 76 70 77
REMARK SMILES IDX 78 78 71 79 77 80 72 81 73 82 74 83 75 84 76 85 55 86 56 87
REMARK SMILES IDX 64 88 57 89 63 90 58 91 59 92 60 93 61 94 62 95
REMARK H PARENT 23 6 10 12 27 32 83 51 53 62
REMARK Flexibility Score: inf
ROOT
ATOM      1  C   UNL A   1      38.412  22.993  26.189  1.00  0.00     0.042 C 
ENDROOT
BRANCH   1   2
ATOM      2  C   UNL A   1      37.498  21.909  25.621  1.00  0.00     0.117 C 
BRANCH   2   3
ATOM      3  N   UNL A   1      37.060  22.103  24.250  1.00  0.00    -0.356 N 
ATOM      4  C   UNL A   1      36.240  23.024  23.672  1.00  0.00     0.224 C 
ATOM      5  O   UNL A   1      36.218  23.045  22.436  1.00  0.00    -0.275 OA
ATOM      6  H   UNL A   1      37.425  21.443  23.617  1.00  0.00     0.163 HD
BRANCH   4   7
ATOM      7  C   UNL A   1      35.421  24.028  24.460  1.00  0.00     0.138 C 
BRANCH   7   8
ATOM      8  C   UNL A   1      33.940  23.798  24.515  1.00  0.00    -0.002 A 
ATOM      9  C   UNL A   1      33.218  22.649  24.858  1.00  0.00     0.093 A 
ATOM     10  N   UNL A   1      31.887  22.934  24.609  1.00  0.00    -0.351 N 
ATOM     11  C   UNL A   1      31.711  24.241  24.243  1.00  0.00     0.048 A 
ATOM     12  H   UNL A   1      31.157  22.278  24.686  1.00  0.00     0.167 HD
ATOM     13  C   UNL A   1      32.980  24.787  24.086  1.00  0.00     0.007 A 
ATOM     14  C   UNL A   1      30.535  24.970  24.025  1.00  0.00     0.050 A 
ATOM     15  C   UNL A   1      33.080  26.114  23.614  1.00  0.00     0.051 A 
ATOM     16  C   UNL A   1      30.665  26.310  23.645  1.00  0.00     0.078 A 
ATOM     17  C   UNL A   1      31.919  26.864  23.425  1.00  0.00     0.142 A 
ATOM     18  Cl  UNL A   1      29.244  27.254  23.484  1.00  0.00    -0.081 Cl
ATOM     19  F   UNL A   1      32.059  28.146  23.055  1.00  0.00    -0.205 F 
BRANCH   9  20
ATOM     20  C   UNL A   1      33.572  21.294  25.282  1.00  0.00     0.227 C 
ATOM     21  O   UNL A   1      34.215  21.135  26.319  1.00  0.00    -0.285 OA
BRANCH  20  22
ATOM     22  C   UNL A   1      33.305  20.087  24.421  1.00  0.00     0.113 A 
ATOM     23  C   UNL A   1      34.368  16.465  23.934  1.00  0.00     0.044 C 
ATOM     24  C   UNL A   1      33.652  17.776  23.815  1.00  0.00    -0.047 A 
ATOM     25  C   UNL A   1      32.680  17.930  22.832  1.00  0.00     0.023 A 
ATOM     26  C   UNL A   1      33.921  18.864  24.657  1.00  0.00     0.036 A 
ATOM     27  C   UNL A   1      32.065  19.162  22.701  1.00  0.00     0.112 A 
ATOM     28  N   UNL A   1      32.357  20.240  23.460  1.00  0.00    -0.253 NA
ENDBRANCH  20  22
ENDBRANCH   9  20
ENDBRANCH   7   8
ENDBRANCH   4   7
ENDBRANCH   2   3
ENDBRANCH   1   2
BRANCH   1  29
ATOM     29  C   UNL A   1      39.742  22.556  26.789  1.00  0.00     0.118 C 
BRANCH  29  30
ATOM     30  N   UNL A   1      40.871  22.474  25.888  1.00  0.00    -0.352 N 
ATOM     31  C   UNL A   1      42.007  23.214  25.706  1.00  0.00     0.251 C 
ATOM     32  H   UNL A   1      40.809  21.714  25.265  1.00  0.00     0.163 HD
ATOM     33  O   UNL A   1      42.869  22.749  24.961  1.00  0.00    -0.269 OA
BRANCH  31  34
ATOM     34  C   UNL A   1      42.164  24.584  26.236  1.00  0.00     0.039 A 
ATOM     35  C   UNL A   1      43.104  24.959  27.193  1.00  0.00     0.014 A 
ATOM     36  C   UNL A   1      41.223  25.521  25.791  1.00  0.00     0.014 A 
ATOM     37  C   UNL A   1      42.924  26.129  27.907  1.00  0.00     0.010 A 
ATOM     38  C   UNL A   1      41.107  26.742  26.432  1.00  0.00     0.010 A 
ATOM     39  C   UNL A   1      41.878  26.987  27.567  1.00  0.00    -0.014 A 
BRANCH  39  40
ATOM     40  C   UNL A   1      41.652  28.156  28.410  1.00  0.00     0.031 A 
ATOM     41  C   UNL A   1      42.683  29.236  28.317  1.00  0.00     0.074 A 
ATOM     42  C   UNL A   1      40.521  28.296  29.130  1.00  0.00     0.049 A 
ATOM     43  N   UNL A   1      43.342  29.822  29.264  1.00  0.00    -0.248 NA
ATOM     44  C   UNL A   1      43.094  29.645  26.962  1.00  0.00     0.031 C 
ATOM     45  C   UNL A   1      39.316  27.455  29.102  1.00  0.00     0.029 A 
ATOM     46  N   UNL A   1      40.150  29.324  29.936  1.00  0.00    -0.354 N 
ATOM     47  C   UNL A   1      44.143  30.782  28.645  1.00  0.00     0.074 A 
ATOM     48  C   UNL A   1      44.035  30.549  27.226  1.00  0.00     0.031 C 
ATOM     49  C   UNL A   1      38.276  28.157  29.603  1.00  0.00     0.029 A 
ATOM     50  C   UNL A   1      38.778  29.410  30.134  1.00  0.00     0.049 A 
ATOM     51  H   UNL A   1      40.794  29.949  30.342  1.00  0.00     0.167 HD
ATOM     52  C   UNL A   1      44.735  31.812  29.310  1.00  0.00     0.031 A 
ATOM     53  C   UNL A   1      38.099  30.491  30.590  1.00  0.00     0.031 A 
ATOM     54  C   UNL A   1      44.818  31.580  30.722  1.00  0.00     0.049 A 
ATOM     55  C   UNL A   1      39.080  31.356  31.293  1.00  0.00     0.074 A 
ATOM     56  C   UNL A   1      45.494  30.673  31.514  1.00  0.00     0.029 A 
ATOM     57  N   UNL A   1      43.853  32.132  31.527  1.00  0.00    -0.354 N 
ATOM     58  N   UNL A   1      39.717  30.999  32.374  1.00  0.00    -0.248 NA
ATOM     59  C   UNL A   1      39.684  32.447  30.543  1.00  0.00     0.031 C 
ATOM     60  C   UNL A   1      44.592  30.369  32.572  1.00  0.00     0.029 A 
ATOM     61  C   UNL A   1      43.445  31.146  32.389  1.00  0.00     0.049 A 
ATOM     62  H   UNL A   1      43.519  33.058  31.493  1.00  0.00     0.167 HD
ATOM     63  C   UNL A   1      40.992  31.526  32.229  1.00  0.00     0.074 A 
ATOM     64  C   UNL A   1      40.884  32.479  31.127  1.00  0.00     0.031 C 
ATOM     65  C   UNL A   1      42.077  30.954  32.829  1.00  0.00     0.031 A 
BRANCH  52  66
ATOM     66  C   UNL A   1      45.002  33.158  28.687  1.00  0.00    -0.014 A 
ATOM     67  C   UNL A   1      43.970  33.941  28.126  1.00  0.00     0.010 A 
ATOM     68  C   UNL A   1      46.253  33.782  28.864  1.00  0.00     0.010 A 
ATOM     69  C   UNL A   1      44.172  35.264  27.732  1.00  0.00     0.020 A 
ATOM     70  C   UNL A   1      46.454  35.127  28.511  1.00  0.00     0.020 A 
ATOM     71  C   UNL A   1      45.410  35.857  27.942  1.00  0.00     0.054 A 
BRANCH  71  72
ATOM     72  S   UNL A   1      45.588  37.613  27.544  1.00  0.00     0.124 S 
ATOM     73  O   UNL A   1      44.301  37.911  26.920  1.00  0.00    -0.237 OA
ATOM     74  O   UNL A   1      45.803  38.211  28.859  1.00  0.00    -0.237 OA
ATOM     75  O   UNL A   1      46.740  37.648  26.649  1.00  0.00    -0.744 OA
ENDBRANCH  71  72
ENDBRANCH  52  66
BRANCH  53  76
ATOM     76  C   UNL A   1      36.848  31.028  29.993  1.00  0.00    -0.014 A 
ATOM     77  C   UNL A   1      36.801  31.331  28.615  1.00  0.00     0.010 A 
ATOM     78  C   UNL A   1      35.816  31.524  30.810  1.00  0.00     0.010 A 
ATOM     79  C   UNL A   1      35.805  32.152  28.080  1.00  0.00     0.020 A 
ATOM     80  C   UNL A   1      34.810  32.352  30.279  1.00  0.00     0.020 A 
ATOM     81  C   UNL A   1      34.834  32.688  28.924  1.00  0.00     0.054 A 
BRANCH  81  82
ATOM     82  S   UNL A   1      33.674  33.900  28.227  1.00  0.00     0.124 S 
ATOM     83  O   UNL A   1      32.755  33.046  27.482  1.00  0.00    -0.237 OA
ATOM     84  O   UNL A   1      33.118  34.526  29.424  1.00  0.00    -0.237 OA
ATOM     85  O   UNL A   1      34.524  34.765  27.414  1.00  0.00    -0.744 OA
ENDBRANCH  81  82
ENDBRANCH  53  76
BRANCH  65  86
ATOM     86  C   UNL A   1      41.863  29.839  33.835  1.00  0.00    -0.014 A 
ATOM     87  C   UNL A   1      42.140  30.118  35.184  1.00  0.00     0.010 A 
ATOM     88  C   UNL A   1      41.626  28.499  33.463  1.00  0.00     0.010 A 
ATOM     89  C   UNL A   1      42.211  29.094  36.131  1.00  0.00     0.020 A 
ATOM     90  C   UNL A   1      41.676  27.466  34.415  1.00  0.00     0.020 A 
ATOM     91  C   UNL A   1      41.986  27.772  35.741  1.00  0.00     0.054 A 
BRANCH  91  92
ATOM     92  S   UNL A   1      42.137  26.483  37.010  1.00  0.00     0.124 S 
ATOM     93  O   UNL A   1      43.227  26.988  37.841  1.00  0.00    -0.237 OA
ATOM     94  O   UNL A   1      40.820  26.502  37.642  1.00  0.00    -0.237 OA
ATOM     95  O   UNL A   1      42.434  25.269  36.248  1.00  0.00    -0.744 OA
ENDBRANCH  91  92
ENDBRANCH  65  86
ENDBRANCH  39  40
ENDBRANCH  31  34
ENDBRANCH  29  30
ENDBRANCH   1  29
TORSDOF 16
ENDMDL
