MODEL 1
REMARK VINA RESULT:     -10.6      0.000      0.000
REMARK SMILES CC(C)[NH2+][C@@H](C(=O)NCCCNC(=O)c1ccc(-c2c3nc(c(-c4ccc(S(=O)(=O)[O-])cc4)c4ccc([nH]4)c(-c4ccc(S(=O)(=O)[O-])cc4)c4nc(c(-c5ccc(S(=O)(=O)[O-])cc5)c5ccc2[nH]5)C=C4)C=C3)cc1)c1c[nH]c2ccc(Br)cc12
REMARK SMILES IDX 10 1 9 2 8 3 6 4 7 5 5 7 4 8 2 11 1 12 3 13 75 14 76 15
REMARK SMILES IDX 84 16 77 17 78 18 83 19 79 21 81 22 80 23 82 24 11 25 12 26
REMARK SMILES IDX 13 27 14 29 15 30 16 31 74 32 17 33 73 34 18 35 19 36 20 37
REMARK SMILES IDX 67 38 21 39 72 40 66 41 68 42 22 43 71 44 65 45 64 46 23 48
REMARK SMILES IDX 53 49 34 50 52 51 35 52 38 53 51 54 69 55 36 56 37 57 50 59
REMARK SMILES IDX 70 60 39 61 24 62 25 63 33 64 26 65 32 66 27 67 28 68 29 69
REMARK SMILES IDX 30 70 31 71 54 72 55 73 63 74 56 75 62 76 57 77 58 78 59 79
REMARK SMILES IDX 60 80 61 81 40 82 41 83 49 84 42 85 48 86 43 87 44 88 45 89
REMARK SMILES IDX 46 90 47 91
REMARK H PARENT 8 6 4 9 4 10 77 20 12 28 68 47 38 58
REMARK Flexibility Score: inf
ROOT
ATOM      1  C   UNL A   1      33.803  28.071  25.504  1.00  0.00     0.042 C 
ENDROOT
BRANCH   1   2
ATOM      2  C   UNL A   1      32.693  27.529  24.571  1.00  0.00     0.118 C 
BRANCH   2   3
ATOM      3  N   UNL A   1      33.146  26.865  23.353  1.00  0.00    -0.351 N 
ATOM      4  C   UNL A   1      33.607  25.609  23.042  1.00  0.00     0.283 C 
ATOM      5  O   UNL A   1      33.659  25.379  21.826  1.00  0.00    -0.268 OA
ATOM      6  H   UNL A   1      33.114  27.458  22.568  1.00  0.00     0.163 HD
BRANCH   4   7
ATOM      7  C   UNL A   1      33.918  24.516  24.089  1.00  0.00     0.306 C 
BRANCH   7   8
ATOM      8  N   UNL A   1      35.108  23.661  23.890  1.00  0.00    -0.330 N 
ATOM      9  H   UNL A   1      34.788  22.871  23.329  1.00  0.00     0.347 HD
ATOM     10  H   UNL A   1      35.770  24.343  23.518  1.00  0.00     0.347 HD
BRANCH   8  11
ATOM     11  C   UNL A   1      35.894  23.086  24.958  1.00  0.00     0.176 C 
ATOM     12  C   UNL A   1      36.423  21.716  24.520  1.00  0.00     0.075 C 
ATOM     13  C   UNL A   1      37.027  23.888  25.591  1.00  0.00     0.075 C 
ENDBRANCH   8  11
ENDBRANCH   7   8
BRANCH   7  14
ATOM     14  C   UNL A   1      32.790  23.531  24.474  1.00  0.00     0.044 A 
ATOM     15  C   UNL A   1      31.971  23.756  25.599  1.00  0.00     0.094 A 
ATOM     16  C   UNL A   1      32.749  22.090  24.441  1.00  0.00     0.010 A 
ATOM     17  N   UNL A   1      32.663  22.905  26.494  1.00  0.00    -0.361 N 
ATOM     18  C   UNL A   1      32.853  21.725  25.792  1.00  0.00     0.046 A 
ATOM     19  C   UNL A   1      32.696  21.058  23.485  1.00  0.00     0.026 A 
ATOM     20  H   UNL A   1      32.947  23.107  27.414  1.00  0.00     0.166 HD
ATOM     21  C   UNL A   1      33.142  20.434  26.231  1.00  0.00     0.028 A 
ATOM     22  C   UNL A   1      32.755  19.731  23.942  1.00  0.00     0.018 A 
ATOM     23  C   UNL A   1      33.043  19.424  25.274  1.00  0.00     0.018 A 
ATOM     24  Br  UNL A   1      32.370  18.310  22.747  1.00  0.00    -0.051 Br
ENDBRANCH   7  14
ENDBRANCH   4   7
ENDBRANCH   2   3
ENDBRANCH   1   2
BRANCH   1  25
ATOM     25  C   UNL A   1      33.458  28.249  26.983  1.00  0.00     0.118 C 
BRANCH  25  26
ATOM     26  N   UNL A   1      33.397  29.654  27.338  1.00  0.00    -0.352 N 
ATOM     27  C   UNL A   1      34.301  30.421  28.035  1.00  0.00     0.251 C 
ATOM     28  H   UNL A   1      32.590  30.128  27.035  1.00  0.00     0.163 HD
ATOM     29  O   UNL A   1      33.924  31.497  28.496  1.00  0.00    -0.269 OA
BRANCH  27  30
ATOM     30  C   UNL A   1      35.707  29.987  28.242  1.00  0.00     0.039 A 
ATOM     31  C   UNL A   1      36.099  29.580  29.523  1.00  0.00     0.014 A 
ATOM     32  C   UNL A   1      36.670  30.076  27.230  1.00  0.00     0.014 A 
ATOM     33  C   UNL A   1      37.434  29.248  29.784  1.00  0.00     0.010 A 
ATOM     34  C   UNL A   1      37.995  29.694  27.479  1.00  0.00     0.010 A 
ATOM     35  C   UNL A   1      38.397  29.293  28.762  1.00  0.00    -0.014 A 
BRANCH  35  36
ATOM     36  C   UNL A   1      39.821  28.948  29.036  1.00  0.00     0.031 A 
ATOM     37  C   UNL A   1      40.751  29.961  29.656  1.00  0.00     0.074 A 
ATOM     38  C   UNL A   1      40.294  27.728  28.708  1.00  0.00     0.049 A 
ATOM     39  N   UNL A   1      42.024  29.847  29.942  1.00  0.00    -0.248 NA
ATOM     40  C   UNL A   1      40.180  31.277  29.984  1.00  0.00     0.031 C 
ATOM     41  C   UNL A   1      39.512  26.655  28.092  1.00  0.00     0.029 A 
ATOM     42  N   UNL A   1      41.549  27.185  28.846  1.00  0.00    -0.354 N 
ATOM     43  C   UNL A   1      42.408  31.075  30.472  1.00  0.00     0.074 A 
ATOM     44  C   UNL A   1      41.243  31.932  30.428  1.00  0.00     0.031 C 
ATOM     45  C   UNL A   1      40.297  25.577  27.929  1.00  0.00     0.029 A 
ATOM     46  C   UNL A   1      41.646  25.891  28.392  1.00  0.00     0.049 A 
ATOM     47  H   UNL A   1      42.309  27.677  29.237  1.00  0.00     0.167 HD
ATOM     48  C   UNL A   1      43.614  31.453  30.965  1.00  0.00     0.031 A 
ATOM     49  C   UNL A   1      42.698  25.049  28.343  1.00  0.00     0.031 A 
ATOM     50  C   UNL A   1      44.775  30.603  31.016  1.00  0.00     0.049 A 
ATOM     51  C   UNL A   1      44.035  25.502  28.866  1.00  0.00     0.074 A 
ATOM     52  C   UNL A   1      46.026  30.887  31.537  1.00  0.00     0.029 A 
ATOM     53  N   UNL A   1      44.831  29.305  30.531  1.00  0.00    -0.354 N 
ATOM     54  N   UNL A   1      44.362  26.652  29.406  1.00  0.00    -0.248 NA
ATOM     55  C   UNL A   1      45.142  24.538  28.784  1.00  0.00     0.031 C 
ATOM     56  C   UNL A   1      46.854  29.780  31.319  1.00  0.00     0.029 A 
ATOM     57  C   UNL A   1      46.102  28.784  30.717  1.00  0.00     0.049 A 
ATOM     58  H   UNL A   1      44.079  28.825  30.114  1.00  0.00     0.167 HD
ATOM     59  C   UNL A   1      45.704  26.538  29.753  1.00  0.00     0.074 A 
ATOM     60  C   UNL A   1      46.124  25.205  29.375  1.00  0.00     0.031 C 
ATOM     61  C   UNL A   1      46.513  27.456  30.337  1.00  0.00     0.031 A 
BRANCH  48  62
ATOM     62  C   UNL A   1      43.747  32.862  31.485  1.00  0.00    -0.014 A 
ATOM     63  C   UNL A   1      43.522  33.159  32.842  1.00  0.00     0.010 A 
ATOM     64  C   UNL A   1      44.155  33.894  30.619  1.00  0.00     0.010 A 
ATOM     65  C   UNL A   1      43.665  34.467  33.315  1.00  0.00     0.020 A 
ATOM     66  C   UNL A   1      44.325  35.198  31.094  1.00  0.00     0.020 A 
ATOM     67  C   UNL A   1      44.063  35.480  32.436  1.00  0.00     0.054 A 
BRANCH  67  68
ATOM     68  S   UNL A   1      44.262  37.163  33.084  1.00  0.00     0.124 S 
ATOM     69  O   UNL A   1      45.536  37.065  33.789  1.00  0.00    -0.237 OA
ATOM     70  O   UNL A   1      44.275  37.974  31.871  1.00  0.00    -0.237 OA
ATOM     71  O   UNL A   1      43.089  37.345  33.940  1.00  0.00    -0.744 OA
ENDBRANCH  67  68
ENDBRANCH  48  62
BRANCH  49  72
ATOM     72  C   UNL A   1      42.528  23.679  27.784  1.00  0.00    -0.014 A 
ATOM     73  C   UNL A   1      42.700  23.443  26.410  1.00  0.00     0.010 A 
ATOM     74  C   UNL A   1      42.203  22.601  28.628  1.00  0.00     0.010 A 
ATOM     75  C   UNL A   1      42.535  22.158  25.885  1.00  0.00     0.020 A 
ATOM     76  C   UNL A   1      42.065  21.310  28.113  1.00  0.00     0.020 A 
ATOM     77  C   UNL A   1      42.222  21.098  26.741  1.00  0.00     0.054 A 
BRANCH  77  78
ATOM     78  S   UNL A   1      42.070  19.428  26.048  1.00  0.00     0.124 S 
ATOM     79  O   UNL A   1      42.599  18.602  27.128  1.00  0.00    -0.237 OA
ATOM     80  O   UNL A   1      40.633  19.316  25.810  1.00  0.00    -0.237 OA
ATOM     81  O   UNL A   1      42.890  19.484  24.840  1.00  0.00    -0.744 OA
ENDBRANCH  77  78
ENDBRANCH  49  72
BRANCH  61  82
ATOM     82  C   UNL A   1      47.931  27.044  30.638  1.00  0.00    -0.014 A 
ATOM     83  C   UNL A   1      48.992  27.403  29.790  1.00  0.00     0.010 A 
ATOM     84  C   UNL A   1      48.209  26.332  31.820  1.00  0.00     0.010 A 
ATOM     85  C   UNL A   1      50.303  27.029  30.101  1.00  0.00     0.020 A 
ATOM     86  C   UNL A   1      49.521  25.981  32.149  1.00  0.00     0.020 A 
ATOM     87  C   UNL A   1      50.559  26.320  31.279  1.00  0.00     0.054 A 
BRANCH  87  88
ATOM     88  S   UNL A   1      52.274  25.884  31.683  1.00  0.00     0.124 S 
ATOM     89  O   UNL A   1      52.632  26.923  32.646  1.00  0.00    -0.237 OA
ATOM     90  O   UNL A   1      52.141  24.537  32.231  1.00  0.00    -0.237 OA
ATOM     91  O   UNL A   1      52.963  25.962  30.397  1.00  0.00    -0.744 OA
ENDBRANCH  87  88
ENDBRANCH  61  82
ENDBRANCH  35  36
ENDBRANCH  27  30
ENDBRANCH  25  26
ENDBRANCH   1  25
TORSDOF 16
ENDMDL
MODEL 2
REMARK VINA RESULT:     -10.5      1.299      2.173
REMARK SMILES CC(C)[NH2+][C@@H](C(=O)NCCCNC(=O)c1ccc(-c2c3nc(c(-c4ccc(S(=O)(=O)[O-])cc4)c4ccc([nH]4)c(-c4ccc(S(=O)(=O)[O-])cc4)c4nc(c(-c5ccc(S(=O)(=O)[O-])cc5)c5ccc2[nH]5)C=C4)C=C3)cc1)c1c[nH]c2ccc(Br)cc12
REMARK SMILES IDX 10 1 9 2 8 3 6 4 7 5 5 7 4 8 2 11 1 12 3 13 75 14 76 15
REMARK SMILES IDX 84 16 77 17 78 18 83 19 79 21 81 22 80 23 82 24 11 25 12 26
REMARK SMILES IDX 13 27 14 29 15 30 16 31 74 32 17 33 73 34 18 35 19 36 20 37
REMARK SMILES IDX 67 38 21 39 72 40 66 41 68 42 22 43 71 44 65 45 64 46 23 48
REMARK SMILES IDX 53 49 34 50 52 51 35 52 38 53 51 54 69 55 36 56 37 57 50 59
REMARK SMILES IDX 70 60 39 61 24 62 25 63 33 64 26 65 32 66 27 67 28 68 29 69
REMARK SMILES IDX 30 70 31 71 54 72 55 73 63 74 56 75 62 76 57 77 58 78 59 79
REMARK SMILES IDX 60 80 61 81 40 82 41 83 49 84 42 85 48 86 43 87 44 88 45 89
REMARK SMILES IDX 46 90 47 91
REMARK H PARENT 8 6 4 9 4 10 77 20 12 28 68 47 38 58
REMARK Flexibility Score: inf
ROOT
ATOM      1  C   UNL A   1      32.128  27.581  27.287  1.00  0.00     0.042 C 
ENDROOT
BRANCH   1   2
ATOM      2  C   UNL A   1      31.340  26.772  26.229  1.00  0.00     0.118 C 
BRANCH   2   3
ATOM      3  N   UNL A   1      30.803  25.489  26.670  1.00  0.00    -0.351 N 
ATOM      4  C   UNL A   1      31.119  24.172  26.445  1.00  0.00     0.283 C 
ATOM      5  O   UNL A   1      30.553  23.381  27.212  1.00  0.00    -0.268 OA
ATOM      6  H   UNL A   1      30.031  25.593  27.272  1.00  0.00     0.163 HD
BRANCH   4   7
ATOM      7  C   UNL A   1      32.175  23.696  25.422  1.00  0.00     0.306 C 
BRANCH   7   8
ATOM      8  N   UNL A   1      31.932  22.436  24.686  1.00  0.00    -0.330 N 
ATOM      9  H   UNL A   1      32.729  21.836  24.899  1.00  0.00     0.347 HD
ATOM     10  H   UNL A   1      30.993  22.206  25.010  1.00  0.00     0.347 HD
BRANCH   8  11
ATOM     11  C   UNL A   1      31.749  22.344  23.255  1.00  0.00     0.176 C 
ATOM     12  C   UNL A   1      32.492  23.497  22.572  1.00  0.00     0.075 C 
ATOM     13  C   UNL A   1      32.059  21.040  22.528  1.00  0.00     0.075 C 
ENDBRANCH   8  11
ENDBRANCH   7   8
BRANCH   7  14
ATOM     14  C   UNL A   1      33.648  23.602  25.883  1.00  0.00     0.044 A 
ATOM     15  C   UNL A   1      34.373  24.749  26.264  1.00  0.00     0.094 A 
ATOM     16  C   UNL A   1      34.735  22.791  25.393  1.00  0.00     0.010 A 
ATOM     17  N   UNL A   1      35.044  24.950  25.034  1.00  0.00    -0.361 N 
ATOM     18  C   UNL A   1      35.533  23.702  24.684  1.00  0.00     0.046 A 
ATOM     19  C   UNL A   1      35.128  21.439  25.398  1.00  0.00     0.026 A 
ATOM     20  H   UNL A   1      35.141  25.794  24.536  1.00  0.00     0.166 HD
ATOM     21  C   UNL A   1      36.543  23.329  23.799  1.00  0.00     0.028 A 
ATOM     22  C   UNL A   1      36.289  21.087  24.689  1.00  0.00     0.018 A 
ATOM     23  C   UNL A   1      36.942  21.993  23.851  1.00  0.00     0.018 A 
ATOM     24  Br  UNL A   1      37.040  19.361  24.919  1.00  0.00    -0.051 Br
ENDBRANCH   7  14
ENDBRANCH   4   7
ENDBRANCH   2   3
ENDBRANCH   1   2
BRANCH   1  25
ATOM     25  C   UNL A   1      33.406  28.287  26.830  1.00  0.00     0.118 C 
BRANCH  25  26
ATOM     26  N   UNL A   1      33.359  29.703  27.143  1.00  0.00    -0.352 N 
ATOM     27  C   UNL A   1      34.255  30.475  27.845  1.00  0.00     0.251 C 
ATOM     28  H   UNL A   1      32.570  30.182  26.803  1.00  0.00     0.163 HD
ATOM     29  O   UNL A   1      33.884  31.570  28.263  1.00  0.00    -0.269 OA
BRANCH  27  30
ATOM     30  C   UNL A   1      35.648  30.024  28.105  1.00  0.00     0.039 A 
ATOM     31  C   UNL A   1      35.991  29.634  29.405  1.00  0.00     0.014 A 
ATOM     32  C   UNL A   1      36.644  30.081  27.124  1.00  0.00     0.014 A 
ATOM     33  C   UNL A   1      37.312  29.287  29.716  1.00  0.00     0.010 A 
ATOM     34  C   UNL A   1      37.954  29.684  27.423  1.00  0.00     0.010 A 
ATOM     35  C   UNL A   1      38.308  29.300  28.725  1.00  0.00    -0.014 A 
BRANCH  35  36
ATOM     36  C   UNL A   1      39.716  28.939  29.052  1.00  0.00     0.031 A 
ATOM     37  C   UNL A   1      40.628  29.934  29.727  1.00  0.00     0.074 A 
ATOM     38  C   UNL A   1      40.194  27.721  28.723  1.00  0.00     0.049 A 
ATOM     39  N   UNL A   1      41.886  29.805  30.064  1.00  0.00    -0.248 NA
ATOM     40  C   UNL A   1      40.053  31.248  30.054  1.00  0.00     0.031 C 
ATOM     41  C   UNL A   1      39.430  26.665  28.057  1.00  0.00     0.029 A 
ATOM     42  N   UNL A   1      41.439  27.165  28.904  1.00  0.00    -0.354 N 
ATOM     43  C   UNL A   1      42.258  31.021  30.630  1.00  0.00     0.074 A 
ATOM     44  C   UNL A   1      41.102  31.888  30.553  1.00  0.00     0.031 C 
ATOM     45  C   UNL A   1      40.213  25.584  27.908  1.00  0.00     0.029 A 
ATOM     46  C   UNL A   1      41.545  25.879  28.431  1.00  0.00     0.049 A 
ATOM     47  H   UNL A   1      42.185  27.644  29.333  1.00  0.00     0.167 HD
ATOM     48  C   UNL A   1      43.445  31.380  31.179  1.00  0.00     0.031 A 
ATOM     49  C   UNL A   1      42.592  25.030  28.411  1.00  0.00     0.031 A 
ATOM     50  C   UNL A   1      44.597  30.520  31.263  1.00  0.00     0.049 A 
ATOM     51  C   UNL A   1      43.909  25.463  28.997  1.00  0.00     0.074 A 
ATOM     52  C   UNL A   1      45.827  30.785  31.840  1.00  0.00     0.029 A 
ATOM     53  N   UNL A   1      44.663  29.230  30.758  1.00  0.00    -0.354 N 
ATOM     54  N   UNL A   1      44.221  26.601  29.570  1.00  0.00    -0.248 NA
ATOM     55  C   UNL A   1      45.011  24.491  28.945  1.00  0.00     0.031 C 
ATOM     56  C   UNL A   1      46.655  29.676  31.638  1.00  0.00     0.029 A 
ATOM     57  C   UNL A   1      45.921  28.696  30.988  1.00  0.00     0.049 A 
ATOM     58  H   UNL A   1      43.926  28.764  30.303  1.00  0.00     0.167 HD
ATOM     59  C   UNL A   1      45.547  26.470  29.970  1.00  0.00     0.074 A 
ATOM     60  C   UNL A   1      45.973  25.140  29.587  1.00  0.00     0.031 C 
ATOM     61  C   UNL A   1      46.338  27.372  30.602  1.00  0.00     0.031 A 
BRANCH  48  62
ATOM     62  C   UNL A   1      43.566  32.779  31.728  1.00  0.00    -0.014 A 
ATOM     63  C   UNL A   1      43.244  33.064  33.068  1.00  0.00     0.010 A 
ATOM     64  C   UNL A   1      44.061  33.814  30.911  1.00  0.00     0.010 A 
ATOM     65  C   UNL A   1      43.376  34.362  33.569  1.00  0.00     0.020 A 
ATOM     66  C   UNL A   1      44.221  35.107  31.417  1.00  0.00     0.020 A 
ATOM     67  C   UNL A   1      43.862  35.377  32.739  1.00  0.00     0.054 A 
BRANCH  67  68
ATOM     68  S   UNL A   1      44.045  37.047  33.424  1.00  0.00     0.124 S 
ATOM     69  O   UNL A   1      43.803  37.882  32.252  1.00  0.00    -0.237 OA
ATOM     70  O   UNL A   1      43.009  37.088  34.451  1.00  0.00    -0.237 OA
ATOM     71  O   UNL A   1      45.419  37.065  33.928  1.00  0.00    -0.744 OA
ENDBRANCH  67  68
ENDBRANCH  48  62
BRANCH  49  72
ATOM     72  C   UNL A   1      42.435  23.671  27.823  1.00  0.00    -0.014 A 
ATOM     73  C   UNL A   1      42.735  23.441  26.470  1.00  0.00     0.010 A 
ATOM     74  C   UNL A   1      41.994  22.597  28.618  1.00  0.00     0.010 A 
ATOM     75  C   UNL A   1      42.583  22.166  25.916  1.00  0.00     0.020 A 
ATOM     76  C   UNL A   1      41.867  21.315  28.076  1.00  0.00     0.020 A 
ATOM     77  C   UNL A   1      42.153  21.109  26.724  1.00  0.00     0.054 A 
BRANCH  77  78
ATOM     78  S   UNL A   1      42.018  19.451  26.001  1.00  0.00     0.124 S 
ATOM     79  O   UNL A   1      40.589  19.356  25.725  1.00  0.00    -0.237 OA
ATOM     80  O   UNL A   1      42.885  19.547  24.829  1.00  0.00    -0.237 OA
ATOM     81  O   UNL A   1      42.513  18.576  27.061  1.00  0.00    -0.744 OA
ENDBRANCH  77  78
ENDBRANCH  49  72
BRANCH  61  82
ATOM     82  C   UNL A   1      47.739  26.944  30.955  1.00  0.00    -0.014 A 
ATOM     83  C   UNL A   1      48.818  27.187  30.088  1.00  0.00     0.010 A 
ATOM     84  C   UNL A   1      47.985  26.335  32.201  1.00  0.00     0.010 A 
ATOM     85  C   UNL A   1      50.113  26.801  30.446  1.00  0.00     0.020 A 
ATOM     86  C   UNL A   1      49.282  25.973  32.574  1.00  0.00     0.020 A 
ATOM     87  C   UNL A   1      50.336  26.197  31.687  1.00  0.00     0.054 A 
BRANCH  87  88
ATOM     88  S   UNL A   1      52.033  25.744  32.147  1.00  0.00     0.124 S 
ATOM     89  O   UNL A   1      52.783  26.123  30.952  1.00  0.00    -0.237 OA
ATOM     90  O   UNL A   1      52.275  26.568  33.329  1.00  0.00    -0.237 OA
ATOM     91  O   UNL A   1      51.952  24.308  32.403  1.00  0.00    -0.744 OA
ENDBRANCH  87  88
ENDBRANCH  61  82
ENDBRANCH  35  36
ENDBRANCH  27  30
ENDBRANCH  25  26
ENDBRANCH   1  25
TORSDOF 16
ENDMDL
MODEL 3
REMARK VINA RESULT:     -10.3      2.978      9.412
REMARK SMILES CC(C)[NH2+][C@@H](C(=O)NCCCNC(=O)c1ccc(-c2c3nc(c(-c4ccc(S(=O)(=O)[O-])cc4)c4ccc([nH]4)c(-c4ccc(S(=O)(=O)[O-])cc4)c4nc(c(-c5ccc(S(=O)(=O)[O-])cc5)c5ccc2[nH]5)C=C4)C=C3)cc1)c1c[nH]c2ccc(Br)cc12
REMARK SMILES IDX 10 1 9 2 8 3 6 4 7 5 5 7 4 8 2 11 1 12 3 13 75 14 76 15
REMARK SMILES IDX 84 16 77 17 78 18 83 19 79 21 81 22 80 23 82 24 11 25 12 26
REMARK SMILES IDX 13 27 14 29 15 30 16 31 74 32 17 33 73 34 18 35 19 36 20 37
REMARK SMILES IDX 67 38 21 39 72 40 66 41 68 42 22 43 71 44 65 45 64 46 23 48
REMARK SMILES IDX 53 49 34 50 52 51 35 52 38 53 51 54 69 55 36 56 37 57 50 59
REMARK SMILES IDX 70 60 39 61 24 62 25 63 33 64 26 65 32 66 27 67 28 68 29 69
REMARK SMILES IDX 30 70 31 71 54 72 55 73 63 74 56 75 62 76 57 77 58 78 59 79
REMARK SMILES IDX 60 80 61 81 40 82 41 83 49 84 42 85 48 86 43 87 44 88 45 89
REMARK SMILES IDX 46 90 47 91
REMARK H PARENT 8 6 4 9 4 10 77 20 12 28 68 47 38 58
REMARK Flexibility Score: inf
ROOT
ATOM      1  C   UNL A   1      36.289  23.428  23.917  1.00  0.00     0.042 C 
ENDROOT
BRANCH   1   2
ATOM      2  C   UNL A   1      34.807  23.820  23.705  1.00  0.00     0.118 C 
BRANCH   2   3
ATOM      3  N   UNL A   1      34.011  23.999  24.916  1.00  0.00    -0.351 N 
ATOM      4  C   UNL A   1      33.201  24.992  25.411  1.00  0.00     0.283 C 
ATOM      5  O   UNL A   1      32.512  24.642  26.379  1.00  0.00    -0.268 OA
ATOM      6  H   UNL A   1      34.070  23.225  25.521  1.00  0.00     0.163 HD
BRANCH   4   7
ATOM      7  C   UNL A   1      33.044  26.386  24.763  1.00  0.00     0.306 C 
BRANCH   7   8
ATOM      8  N   UNL A   1      32.628  27.520  25.615  1.00  0.00    -0.330 N 
ATOM      9  H   UNL A   1      31.672  27.739  25.334  1.00  0.00     0.347 HD
ATOM     10  H   UNL A   1      32.837  27.147  26.541  1.00  0.00     0.347 HD
BRANCH   8  11
ATOM     11  C   UNL A   1      33.313  28.792  25.681  1.00  0.00     0.176 C 
ATOM     12  C   UNL A   1      32.282  29.924  25.719  1.00  0.00     0.075 C 
ATOM     13  C   UNL A   1      34.372  29.034  26.752  1.00  0.00     0.075 C 
ENDBRANCH   8  11
ENDBRANCH   7   8
BRANCH   7  14
ATOM     14  C   UNL A   1      32.168  26.508  23.495  1.00  0.00     0.044 A 
ATOM     15  C   UNL A   1      32.738  26.508  22.206  1.00  0.00     0.094 A 
ATOM     16  C   UNL A   1      31.001  27.314  23.233  1.00  0.00     0.010 A 
ATOM     17  N   UNL A   1      32.748  27.910  22.016  1.00  0.00    -0.361 N 
ATOM     18  C   UNL A   1      31.484  28.332  22.396  1.00  0.00     0.046 A 
ATOM     19  C   UNL A   1      29.647  27.365  23.615  1.00  0.00     0.026 A 
ATOM     20  H   UNL A   1      33.491  28.465  21.687  1.00  0.00     0.166 HD
ATOM     21  C   UNL A   1      30.785  29.505  22.113  1.00  0.00     0.028 A 
ATOM     22  C   UNL A   1      28.867  28.433  23.140  1.00  0.00     0.018 A 
ATOM     23  C   UNL A   1      29.436  29.515  22.464  1.00  0.00     0.018 A 
ATOM     24  Br  UNL A   1      26.984  28.384  23.353  1.00  0.00    -0.051 Br
ENDBRANCH   7  14
ENDBRANCH   4   7
ENDBRANCH   2   3
ENDBRANCH   1   2
BRANCH   1  25
ATOM     25  C   UNL A   1      36.923  23.763  25.267  1.00  0.00     0.118 C 
BRANCH  25  26
ATOM     26  N   UNL A   1      37.983  22.827  25.592  1.00  0.00    -0.352 N 
ATOM     27  C   UNL A   1      39.212  23.058  26.164  1.00  0.00     0.251 C 
ATOM     28  H   UNL A   1      37.793  21.887  25.371  1.00  0.00     0.163 HD
ATOM     29  O   UNL A   1      40.076  22.189  26.068  1.00  0.00    -0.269 OA
BRANCH  27  30
ATOM     30  C   UNL A   1      39.517  24.319  26.889  1.00  0.00     0.039 A 
ATOM     31  C   UNL A   1      40.324  25.274  26.257  1.00  0.00     0.014 A 
ATOM     32  C   UNL A   1      39.117  24.532  28.212  1.00  0.00     0.014 A 
ATOM     33  C   UNL A   1      40.712  26.436  26.936  1.00  0.00     0.010 A 
ATOM     34  C   UNL A   1      39.461  25.720  28.872  1.00  0.00     0.010 A 
ATOM     35  C   UNL A   1      40.277  26.677  28.250  1.00  0.00    -0.014 A 
BRANCH  35  36
ATOM     36  C   UNL A   1      40.691  27.908  28.979  1.00  0.00     0.031 A 
ATOM     37  C   UNL A   1      42.058  28.003  29.612  1.00  0.00     0.074 A 
ATOM     38  C   UNL A   1      39.833  28.943  29.099  1.00  0.00     0.049 A 
ATOM     39  N   UNL A   1      42.580  28.983  30.306  1.00  0.00    -0.248 NA
ATOM     40  C   UNL A   1      42.946  26.841  29.456  1.00  0.00     0.031 C 
ATOM     41  C   UNL A   1      38.477  28.983  28.549  1.00  0.00     0.029 A 
ATOM     42  N   UNL A   1      39.974  30.159  29.723  1.00  0.00    -0.354 N 
ATOM     43  C   UNL A   1      43.851  28.554  30.677  1.00  0.00     0.074 A 
ATOM     44  C   UNL A   1      44.003  27.208  30.168  1.00  0.00     0.031 C 
ATOM     45  C   UNL A   1      37.922  30.172  28.839  1.00  0.00     0.029 A 
ATOM     46  C   UNL A   1      38.864  30.964  29.626  1.00  0.00     0.049 A 
ATOM     47  H   UNL A   1      40.796  30.430  30.195  1.00  0.00     0.167 HD
ATOM     48  C   UNL A   1      44.810  29.220  31.366  1.00  0.00     0.031 A 
ATOM     49  C   UNL A   1      38.621  32.195  30.118  1.00  0.00     0.031 A 
ATOM     50  C   UNL A   1      44.667  30.561  31.871  1.00  0.00     0.049 A 
ATOM     51  C   UNL A   1      39.690  32.903  30.906  1.00  0.00     0.074 A 
ATOM     52  C   UNL A   1      45.601  31.332  32.543  1.00  0.00     0.029 A 
ATOM     53  N   UNL A   1      43.519  31.332  31.762  1.00  0.00    -0.354 N 
ATOM     54  N   UNL A   1      40.900  32.495  31.204  1.00  0.00    -0.248 NA
ATOM     55  C   UNL A   1      39.362  34.243  31.415  1.00  0.00     0.031 C 
ATOM     56  C   UNL A   1      45.002  32.548  32.886  1.00  0.00     0.029 A 
ATOM     57  C   UNL A   1      43.713  32.559  32.376  1.00  0.00     0.049 A 
ATOM     58  H   UNL A   1      42.689  31.049  31.316  1.00  0.00     0.167 HD
ATOM     59  C   UNL A   1      41.488  33.539  31.910  1.00  0.00     0.074 A 
ATOM     60  C   UNL A   1      40.506  34.601  31.983  1.00  0.00     0.031 C 
ATOM     61  C   UNL A   1      42.731  33.611  32.446  1.00  0.00     0.031 A 
BRANCH  48  62
ATOM     62  C   UNL A   1      46.111  28.503  31.626  1.00  0.00    -0.014 A 
ATOM     63  C   UNL A   1      46.282  27.701  32.769  1.00  0.00     0.010 A 
ATOM     64  C   UNL A   1      47.158  28.587  30.689  1.00  0.00     0.010 A 
ATOM     65  C   UNL A   1      47.487  27.028  32.990  1.00  0.00     0.020 A 
ATOM     66  C   UNL A   1      48.355  27.894  30.892  1.00  0.00     0.020 A 
ATOM     67  C   UNL A   1      48.518  27.131  32.051  1.00  0.00     0.054 A 
BRANCH  67  68
ATOM     68  S   UNL A   1      50.062  26.228  32.353  1.00  0.00     0.124 S 
ATOM     69  O   UNL A   1      49.653  24.846  32.119  1.00  0.00    -0.237 OA
ATOM     70  O   UNL A   1      50.966  26.793  31.355  1.00  0.00    -0.237 OA
ATOM     71  O   UNL A   1      50.388  26.554  33.741  1.00  0.00    -0.744 OA
ENDBRANCH  67  68
ENDBRANCH  48  62
BRANCH  49  72
ATOM     72  C   UNL A   1      37.306  32.849  29.867  1.00  0.00    -0.014 A 
ATOM     73  C   UNL A   1      37.112  33.643  28.724  1.00  0.00     0.010 A 
ATOM     74  C   UNL A   1      36.239  32.672  30.767  1.00  0.00     0.010 A 
ATOM     75  C   UNL A   1      35.879  34.261  28.492  1.00  0.00     0.020 A 
ATOM     76  C   UNL A   1      34.998  33.264  30.524  1.00  0.00     0.020 A 
ATOM     77  C   UNL A   1      34.828  34.064  29.392  1.00  0.00     0.054 A 
BRANCH  77  78
ATOM     78  S   UNL A   1      33.220  34.828  29.042  1.00  0.00     0.124 S 
ATOM     79  O   UNL A   1      32.568  34.777  30.346  1.00  0.00    -0.237 OA
ATOM     80  O   UNL A   1      33.598  36.159  28.574  1.00  0.00    -0.237 OA
ATOM     81  O   UNL A   1      32.645  33.958  28.018  1.00  0.00    -0.744 OA
ENDBRANCH  77  78
ENDBRANCH  49  72
BRANCH  61  82
ATOM     82  C   UNL A   1      43.121  34.895  33.131  1.00  0.00    -0.014 A 
ATOM     83  C   UNL A   1      43.034  35.035  34.527  1.00  0.00     0.010 A 
ATOM     84  C   UNL A   1      43.635  35.961  32.367  1.00  0.00     0.010 A 
ATOM     85  C   UNL A   1      43.423  36.228  35.144  1.00  0.00     0.020 A 
ATOM     86  C   UNL A   1      44.050  37.144  32.983  1.00  0.00     0.020 A 
ATOM     87  C   UNL A   1      43.929  37.275  34.368  1.00  0.00     0.054 A 
BRANCH  87  88
ATOM     88  S   UNL A   1      44.467  38.797  35.197  1.00  0.00     0.124 S 
ATOM     89  O   UNL A   1      44.037  38.562  36.572  1.00  0.00    -0.237 OA
ATOM     90  O   UNL A   1      45.912  38.786  34.979  1.00  0.00    -0.237 OA
ATOM     91  O   UNL A   1      43.745  39.852  34.489  1.00  0.00    -0.744 OA
ENDBRANCH  87  88
ENDBRANCH  61  82
ENDBRANCH  35  36
ENDBRANCH  27  30
ENDBRANCH  25  26
ENDBRANCH   1  25
TORSDOF 16
ENDMDL
