MODEL 1
REMARK VINA RESULT:     -10.7      0.000      0.000
REMARK SMILES Cc1cccc2c1[C@H]1c3c(C)cccc3[C@H](CC(=O)NCCCNC(=O)c3ccc(-c4c5nc(c(-c6ccc(S(=O)(=O)[O-])cc6)c6ccc([nH]6)c(-c6ccc(S(=O)(=O)[O-])cc6)c6nc(c(-c7ccc(S(=O)(=O)[O-])cc7)c7ccc4[nH]7)C=C6)C=C5)cc3)C[C@H]1CC2
REMARK SMILES IDX 23 1 22 2 21 3 20 4 18 5 19 6 17 8 16 9 1 10 2 11 3 12 7 13
REMARK SMILES IDX 4 14 6 15 8 16 5 17 90 18 9 19 88 20 89 21 10 22 15 23 87 24
REMARK SMILES IDX 12 25 11 26 14 27 13 28 24 29 25 30 26 32 27 33 28 34 86 35
REMARK SMILES IDX 29 36 85 37 30 38 31 39 32 40 79 41 33 42 84 43 78 44 80 45
REMARK SMILES IDX 34 46 83 47 77 48 76 49 35 51 65 52 46 53 64 54 47 55 50 56
REMARK SMILES IDX 63 57 81 58 48 59 49 60 62 62 82 63 51 64 36 65 37 66 45 67
REMARK SMILES IDX 38 68 44 69 39 70 40 71 41 72 42 73 43 74 66 75 67 76 75 77
REMARK SMILES IDX 68 78 74 79 69 80 70 81 71 82 72 83 73 84 52 85 53 86 61 87
REMARK SMILES IDX 54 88 60 89 55 90 56 91 57 92 58 93 59 94
REMARK H PARENT 20 7 24 31 80 50 50 61
REMARK Flexibility Score: inf
ROOT
ATOM      1  C   UNL A   1      34.982  32.616  27.811  1.00  0.00     0.118 C 
ENDROOT
BRANCH   1   2
ATOM      2  C   UNL A   1      34.114  33.851  28.015  1.00  0.00     0.042 C 
BRANCH   2   3
ATOM      3  C   UNL A   1      34.796  34.996  28.749  1.00  0.00     0.117 C 
BRANCH   3   4
ATOM      4  N   UNL A   1      34.403  35.113  30.137  1.00  0.00    -0.356 N 
ATOM      5  C   UNL A   1      34.596  34.239  31.156  1.00  0.00     0.220 C 
ATOM      6  O   UNL A   1      34.619  34.691  32.304  1.00  0.00    -0.275 OA
ATOM      7  H   UNL A   1      33.929  35.942  30.374  1.00  0.00     0.163 HD
BRANCH   5   8
ATOM      8  C   UNL A   1      34.773  32.754  30.898  1.00  0.00     0.108 C 
BRANCH   8   9
ATOM      9  C   UNL A   1      36.093  32.111  31.412  1.00  0.00     0.029 C 
ATOM     10  C   UNL A   1      39.193  34.107  36.110  1.00  0.00     0.044 C 
ATOM     11  C   UNL A   1      39.914  32.959  35.447  1.00  0.00    -0.047 A 
ATOM     12  C   UNL A   1      41.203  32.682  35.943  1.00  0.00     0.004 A 
ATOM     13  C   UNL A   1      39.390  32.167  34.392  1.00  0.00    -0.034 A 
ATOM     14  C   UNL A   1      41.940  31.602  35.470  1.00  0.00     0.001 A 
ATOM     15  C   UNL A   1      40.073  30.976  34.053  1.00  0.00    -0.044 A 
ATOM     16  C   UNL A   1      38.134  32.540  33.600  1.00  0.00     0.053 C 
ATOM     17  C   UNL A   1      41.359  30.728  34.563  1.00  0.00     0.004 A 
ATOM     18  C   UNL A   1      39.415  29.859  33.282  1.00  0.00     0.036 C 
ATOM     19  C   UNL A   1      38.326  33.198  32.203  1.00  0.00    -0.034 A 
ATOM     20  C   UNL A   1      37.277  31.253  33.492  1.00  0.00     0.002 C 
ATOM     21  C   UNL A   1      38.026  30.147  32.727  1.00  0.00     0.009 C 
ATOM     22  C   UNL A   1      39.375  34.105  31.878  1.00  0.00    -0.047 A 
ATOM     23  C   UNL A   1      37.366  32.923  31.181  1.00  0.00    -0.040 A 
ATOM     24  C   UNL A   1      35.933  31.603  32.849  1.00  0.00     0.013 C 
ATOM     25  C   UNL A   1      39.505  34.601  30.563  1.00  0.00     0.004 A 
ATOM     26  C   UNL A   1      40.408  34.614  32.843  1.00  0.00     0.044 C 
ATOM     27  C   UNL A   1      37.592  33.370  29.862  1.00  0.00     0.004 A 
ATOM     28  C   UNL A   1      38.640  34.217  29.557  1.00  0.00     0.001 A 
ENDBRANCH   8   9
ENDBRANCH   5   8
ENDBRANCH   3   4
ENDBRANCH   2   3
ENDBRANCH   1   2
BRANCH   1  29
ATOM     29  N   UNL A   1      34.208  31.382  27.823  1.00  0.00    -0.352 N 
ATOM     30  C   UNL A   1      34.634  30.077  27.841  1.00  0.00     0.251 C 
ATOM     31  H   UNL A   1      33.231  31.502  27.818  1.00  0.00     0.163 HD
ATOM     32  O   UNL A   1      33.836  29.171  27.608  1.00  0.00    -0.269 OA
BRANCH  30  33
ATOM     33  C   UNL A   1      36.050  29.764  28.116  1.00  0.00     0.039 A 
ATOM     34  C   UNL A   1      36.415  29.327  29.392  1.00  0.00     0.014 A 
ATOM     35  C   UNL A   1      37.020  29.934  27.124  1.00  0.00     0.014 A 
ATOM     36  C   UNL A   1      37.746  28.999  29.654  1.00  0.00     0.010 A 
ATOM     37  C   UNL A   1      38.334  29.546  27.368  1.00  0.00     0.010 A 
ATOM     38  C   UNL A   1      38.711  29.083  28.638  1.00  0.00    -0.014 A 
BRANCH  38  39
ATOM     39  C   UNL A   1      40.128  28.735  28.894  1.00  0.00     0.031 A 
ATOM     40  C   UNL A   1      41.044  29.756  29.512  1.00  0.00     0.074 A 
ATOM     41  C   UNL A   1      40.597  27.521  28.546  1.00  0.00     0.049 A 
ATOM     42  N   UNL A   1      42.320  29.660  29.773  1.00  0.00    -0.248 NA
ATOM     43  C   UNL A   1      40.453  31.057  29.873  1.00  0.00     0.031 C 
ATOM     44  C   UNL A   1      39.807  26.450  27.931  1.00  0.00     0.029 A 
ATOM     45  N   UNL A   1      41.854  26.980  28.661  1.00  0.00    -0.354 N 
ATOM     46  C   UNL A   1      42.684  30.881  30.326  1.00  0.00     0.074 A 
ATOM     47  C   UNL A   1      41.509  31.722  30.321  1.00  0.00     0.031 C 
ATOM     48  C   UNL A   1      40.590  25.373  27.753  1.00  0.00     0.029 A 
ATOM     49  C   UNL A   1      41.944  25.685  28.205  1.00  0.00     0.049 A 
ATOM     50  H   UNL A   1      42.619  27.473  29.036  1.00  0.00     0.167 HD
ATOM     51  C   UNL A   1      43.886  31.259  30.817  1.00  0.00     0.031 A 
ATOM     52  C   UNL A   1      42.997  24.845  28.156  1.00  0.00     0.031 A 
ATOM     53  C   UNL A   1      45.049  30.417  30.842  1.00  0.00     0.049 A 
ATOM     54  C   UNL A   1      44.333  25.310  28.669  1.00  0.00     0.074 A 
ATOM     55  C   UNL A   1      46.301  30.706  31.354  1.00  0.00     0.029 A 
ATOM     56  N   UNL A   1      45.104  29.127  30.343  1.00  0.00    -0.354 N 
ATOM     57  N   UNL A   1      44.649  26.461  29.210  1.00  0.00    -0.248 NA
ATOM     58  C   UNL A   1      45.454  24.363  28.567  1.00  0.00     0.031 C 
ATOM     59  C   UNL A   1      47.128  29.604  31.125  1.00  0.00     0.029 A 
ATOM     60  C   UNL A   1      46.376  28.612  30.517  1.00  0.00     0.049 A 
ATOM     61  H   UNL A   1      44.352  28.648  29.928  1.00  0.00     0.167 HD
ATOM     62  C   UNL A   1      45.997  26.369  29.537  1.00  0.00     0.074 A 
ATOM     63  C   UNL A   1      46.437  25.048  29.138  1.00  0.00     0.031 C 
ATOM     64  C   UNL A   1      46.796  27.294  30.120  1.00  0.00     0.031 A 
BRANCH  51  65
ATOM     65  C   UNL A   1      44.013  32.640  31.395  1.00  0.00    -0.014 A 
ATOM     66  C   UNL A   1      44.212  33.749  30.554  1.00  0.00     0.010 A 
ATOM     67  C   UNL A   1      43.811  32.843  32.771  1.00  0.00     0.010 A 
ATOM     68  C   UNL A   1      44.201  35.042  31.082  1.00  0.00     0.020 A 
ATOM     69  C   UNL A   1      43.779  34.137  33.299  1.00  0.00     0.020 A 
ATOM     70  C   UNL A   1      43.969  35.228  32.449  1.00  0.00     0.054 A 
BRANCH  70  71
ATOM     71  S   UNL A   1      43.887  36.924  33.085  1.00  0.00     0.124 S 
ATOM     72  O   UNL A   1      42.715  36.869  33.956  1.00  0.00    -0.237 OA
ATOM     73  O   UNL A   1      45.171  37.064  33.767  1.00  0.00    -0.237 OA
ATOM     74  O   UNL A   1      43.726  37.739  31.884  1.00  0.00    -0.744 OA
ENDBRANCH  70  71
ENDBRANCH  51  65
BRANCH  52  75
ATOM     75  C   UNL A   1      42.825  23.469  27.618  1.00  0.00    -0.014 A 
ATOM     76  C   UNL A   1      42.278  22.456  28.426  1.00  0.00     0.010 A 
ATOM     77  C   UNL A   1      43.191  23.167  26.294  1.00  0.00     0.010 A 
ATOM     78  C   UNL A   1      42.111  21.163  27.921  1.00  0.00     0.020 A 
ATOM     79  C   UNL A   1      43.004  21.881  25.780  1.00  0.00     0.020 A 
ATOM     80  C   UNL A   1      42.467  20.886  26.598  1.00  0.00     0.054 A 
BRANCH  80  81
ATOM     81  S   UNL A   1      42.206  19.206  25.962  1.00  0.00     0.124 S 
ATOM     82  O   UNL A   1      40.763  19.180  25.744  1.00  0.00    -0.237 OA
ATOM     83  O   UNL A   1      43.028  19.205  24.756  1.00  0.00    -0.237 OA
ATOM     84  O   UNL A   1      42.690  18.350  27.042  1.00  0.00    -0.744 OA
ENDBRANCH  80  81
ENDBRANCH  52  75
BRANCH  64  85
ATOM     85  C   UNL A   1      48.227  26.925  30.391  1.00  0.00    -0.014 A 
ATOM     86  C   UNL A   1      49.265  27.419  29.582  1.00  0.00     0.010 A 
ATOM     87  C   UNL A   1      48.544  26.183  31.544  1.00  0.00     0.010 A 
ATOM     88  C   UNL A   1      50.597  27.173  29.921  1.00  0.00     0.020 A 
ATOM     89  C   UNL A   1      49.876  25.955  31.898  1.00  0.00     0.020 A 
ATOM     90  C   UNL A   1      50.894  26.454  31.084  1.00  0.00     0.054 A 
BRANCH  90  91
ATOM     91  S   UNL A   1      52.636  26.210  31.529  1.00  0.00     0.124 S 
ATOM     92  O   UNL A   1      52.972  27.481  32.165  1.00  0.00    -0.237 OA
ATOM     93  O   UNL A   1      52.571  25.057  32.422  1.00  0.00    -0.237 OA
ATOM     94  O   UNL A   1      53.293  25.967  30.246  1.00  0.00    -0.744 OA
ENDBRANCH  90  91
ENDBRANCH  64  85
ENDBRANCH  38  39
ENDBRANCH  30  33
ENDBRANCH   1  29
TORSDOF 14
ENDMDL
MODEL 2
REMARK VINA RESULT:     -10.7      0.378      7.995
REMARK SMILES Cc1cccc2c1[C@H]1c3c(C)cccc3[C@H](CC(=O)NCCCNC(=O)c3ccc(-c4c5nc(c(-c6ccc(S(=O)(=O)[O-])cc6)c6ccc([nH]6)c(-c6ccc(S(=O)(=O)[O-])cc6)c6nc(c(-c7ccc(S(=O)(=O)[O-])cc7)c7ccc4[nH]7)C=C6)C=C5)cc3)C[C@H]1CC2
REMARK SMILES IDX 23 1 22 2 21 3 20 4 18 5 19 6 17 8 16 9 1 10 2 11 3 12 7 13
REMARK SMILES IDX 4 14 6 15 8 16 5 17 90 18 9 19 88 20 89 21 10 22 15 23 87 24
REMARK SMILES IDX 12 25 11 26 14 27 13 28 24 29 25 30 26 32 27 33 28 34 86 35
REMARK SMILES IDX 29 36 85 37 30 38 31 39 32 40 79 41 33 42 84 43 78 44 80 45
REMARK SMILES IDX 34 46 83 47 77 48 76 49 35 51 65 52 46 53 64 54 47 55 50 56
REMARK SMILES IDX 63 57 81 58 48 59 49 60 62 62 82 63 51 64 36 65 37 66 45 67
REMARK SMILES IDX 38 68 44 69 39 70 40 71 41 72 42 73 43 74 66 75 67 76 75 77
REMARK SMILES IDX 68 78 74 79 69 80 70 81 71 82 72 83 73 84 52 85 53 86 61 87
REMARK SMILES IDX 54 88 60 89 55 90 56 91 57 92 58 93 59 94
REMARK H PARENT 20 7 24 31 80 50 50 61
REMARK Flexibility Score: inf
ROOT
ATOM      1  C   UNL A   1      34.754  32.476  27.997  1.00  0.00     0.118 C 
ENDROOT
BRANCH   1   2
ATOM      2  C   UNL A   1      33.836  33.655  28.294  1.00  0.00     0.042 C 
BRANCH   2   3
ATOM      3  C   UNL A   1      34.537  34.883  28.857  1.00  0.00     0.117 C 
BRANCH   3   4
ATOM      4  N   UNL A   1      34.328  35.072  30.276  1.00  0.00    -0.356 N 
ATOM      5  C   UNL A   1      34.669  34.257  31.306  1.00  0.00     0.220 C 
ATOM      6  O   UNL A   1      34.836  34.771  32.415  1.00  0.00    -0.275 OA
ATOM      7  H   UNL A   1      33.876  35.908  30.530  1.00  0.00     0.163 HD
BRANCH   5   8
ATOM      8  C   UNL A   1      34.836  32.761  31.105  1.00  0.00     0.108 C 
BRANCH   8   9
ATOM      9  C   UNL A   1      36.191  32.146  31.555  1.00  0.00     0.029 C 
ATOM     10  C   UNL A   1      39.515  34.261  36.042  1.00  0.00     0.044 C 
ATOM     11  C   UNL A   1      40.216  33.113  35.358  1.00  0.00    -0.047 A 
ATOM     12  C   UNL A   1      41.535  32.862  35.786  1.00  0.00     0.004 A 
ATOM     13  C   UNL A   1      39.646  32.297  34.347  1.00  0.00    -0.034 A 
ATOM     14  C   UNL A   1      42.260  31.785  35.290  1.00  0.00     0.001 A 
ATOM     15  C   UNL A   1      40.328  31.111  33.988  1.00  0.00    -0.044 A 
ATOM     16  C   UNL A   1      38.343  32.639  33.619  1.00  0.00     0.053 C 
ATOM     17  C   UNL A   1      41.643  30.889  34.430  1.00  0.00     0.004 A 
ATOM     18  C   UNL A   1      39.645  29.971  33.272  1.00  0.00     0.036 C 
ATOM     19  C   UNL A   1      38.448  33.277  32.204  1.00  0.00    -0.034 A 
ATOM     20  C   UNL A   1      37.501  31.339  33.579  1.00  0.00     0.002 C 
ATOM     21  C   UNL A   1      38.223  30.231  32.791  1.00  0.00     0.009 C 
ATOM     22  C   UNL A   1      39.464  34.193  31.807  1.00  0.00    -0.047 A 
ATOM     23  C   UNL A   1      37.437  32.972  31.241  1.00  0.00    -0.040 A 
ATOM     24  C   UNL A   1      36.119  31.659  33.007  1.00  0.00     0.013 C 
ATOM     25  C   UNL A   1      39.513  34.670  30.480  1.00  0.00     0.004 A 
ATOM     26  C   UNL A   1      40.541  34.732  32.706  1.00  0.00     0.044 C 
ATOM     27  C   UNL A   1      37.583  33.400  29.905  1.00  0.00     0.004 A 
ATOM     28  C   UNL A   1      38.600  34.257  29.529  1.00  0.00     0.001 A 
ENDBRANCH   8   9
ENDBRANCH   5   8
ENDBRANCH   3   4
ENDBRANCH   2   3
ENDBRANCH   1   2
BRANCH   1  29
ATOM     29  N   UNL A   1      34.043  31.205  27.985  1.00  0.00    -0.352 N 
ATOM     30  C   UNL A   1      34.534  29.924  27.965  1.00  0.00     0.251 C 
ATOM     31  H   UNL A   1      33.061  31.276  27.993  1.00  0.00     0.163 HD
ATOM     32  O   UNL A   1      33.780  28.985  27.717  1.00  0.00    -0.269 OA
BRANCH  30  33
ATOM     33  C   UNL A   1      35.967  29.675  28.217  1.00  0.00     0.039 A 
ATOM     34  C   UNL A   1      36.369  29.237  29.481  1.00  0.00     0.014 A 
ATOM     35  C   UNL A   1      36.915  29.908  27.217  1.00  0.00     0.014 A 
ATOM     36  C   UNL A   1      37.718  28.969  29.722  1.00  0.00     0.010 A 
ATOM     37  C   UNL A   1      38.249  29.580  27.439  1.00  0.00     0.010 A 
ATOM     38  C   UNL A   1      38.664  29.116  28.696  1.00  0.00    -0.014 A 
BRANCH  38  39
ATOM     39  C   UNL A   1      40.099  28.834  28.929  1.00  0.00     0.031 A 
ATOM     40  C   UNL A   1      40.655  27.479  28.586  1.00  0.00     0.074 A 
ATOM     41  C   UNL A   1      40.892  29.777  29.475  1.00  0.00     0.049 A 
ATOM     42  N   UNL A   1      41.868  27.024  28.757  1.00  0.00    -0.248 NA
ATOM     43  C   UNL A   1      39.727  26.505  27.985  1.00  0.00     0.031 C 
ATOM     44  C   UNL A   1      40.465  31.126  29.858  1.00  0.00     0.029 A 
ATOM     45  N   UNL A   1      42.225  29.748  29.801  1.00  0.00    -0.354 N 
ATOM     46  C   UNL A   1      41.850  25.717  28.286  1.00  0.00     0.074 A 
ATOM     47  C   UNL A   1      40.496  25.432  27.867  1.00  0.00     0.031 C 
ATOM     48  C   UNL A   1      41.523  31.802  30.337  1.00  0.00     0.029 A 
ATOM     49  C   UNL A   1      42.693  30.928  30.330  1.00  0.00     0.049 A 
ATOM     50  H   UNL A   1      42.794  28.955  29.667  1.00  0.00     0.167 HD
ATOM     51  C   UNL A   1      42.876  24.841  28.190  1.00  0.00     0.031 A 
ATOM     52  C   UNL A   1      43.924  31.268  30.761  1.00  0.00     0.031 A 
ATOM     53  C   UNL A   1      44.224  25.131  28.587  1.00  0.00     0.049 A 
ATOM     54  C   UNL A   1      45.036  30.257  30.683  1.00  0.00     0.074 A 
ATOM     55  C   UNL A   1      45.337  24.314  28.491  1.00  0.00     0.029 A 
ATOM     56  N   UNL A   1      44.647  26.326  29.146  1.00  0.00    -0.354 N 
ATOM     57  N   UNL A   1      45.001  29.034  30.211  1.00  0.00    -0.248 NA
ATOM     58  C   UNL A   1      46.352  30.670  31.192  1.00  0.00     0.031 C 
ATOM     59  C   UNL A   1      46.426  25.000  29.034  1.00  0.00     0.029 A 
ATOM     60  C   UNL A   1      46.001  26.261  29.419  1.00  0.00     0.049 A 
ATOM     61  H   UNL A   1      44.071  27.103  29.321  1.00  0.00     0.167 HD
ATOM     62  C   UNL A   1      46.294  28.541  30.343  1.00  0.00     0.074 A 
ATOM     63  C   UNL A   1      47.090  29.597  30.933  1.00  0.00     0.031 C 
ATOM     64  C   UNL A   1      46.779  27.323  30.000  1.00  0.00     0.031 A 
BRANCH  51  65
ATOM     65  C   UNL A   1      42.596  23.483  27.611  1.00  0.00    -0.014 A 
ATOM     66  C   UNL A   1      42.858  23.219  26.255  1.00  0.00     0.010 A 
ATOM     67  C   UNL A   1      42.185  22.435  28.452  1.00  0.00     0.010 A 
ATOM     68  C   UNL A   1      42.719  21.924  25.752  1.00  0.00     0.020 A 
ATOM     69  C   UNL A   1      42.063  21.134  27.956  1.00  0.00     0.020 A 
ATOM     70  C   UNL A   1      42.337  20.887  26.609  1.00  0.00     0.054 A 
BRANCH  70  71
ATOM     71  S   UNL A   1      42.239  19.206  25.937  1.00  0.00     0.124 S 
ATOM     72  O   UNL A   1      40.808  19.065  25.671  1.00  0.00    -0.237 OA
ATOM     73  O   UNL A   1      43.093  19.292  24.756  1.00  0.00    -0.237 OA
ATOM     74  O   UNL A   1      42.751  18.368  27.018  1.00  0.00    -0.744 OA
ENDBRANCH  70  71
ENDBRANCH  51  65
BRANCH  52  75
ATOM     75  C   UNL A   1      44.176  32.636  31.288  1.00  0.00    -0.014 A 
ATOM     76  C   UNL A   1      44.576  33.667  30.419  1.00  0.00     0.010 A 
ATOM     77  C   UNL A   1      44.002  32.920  32.654  1.00  0.00     0.010 A 
ATOM     78  C   UNL A   1      44.808  34.955  30.911  1.00  0.00     0.020 A 
ATOM     79  C   UNL A   1      44.211  34.212  33.145  1.00  0.00     0.020 A 
ATOM     80  C   UNL A   1      44.616  35.221  32.269  1.00  0.00     0.054 A 
BRANCH  80  81
ATOM     81  S   UNL A   1      44.893  36.911  32.870  1.00  0.00     0.124 S 
ATOM     82  O   UNL A   1      43.561  37.298  33.327  1.00  0.00    -0.237 OA
ATOM     83  O   UNL A   1      45.886  36.703  33.920  1.00  0.00    -0.237 OA
ATOM     84  O   UNL A   1      45.379  37.621  31.690  1.00  0.00    -0.744 OA
ENDBRANCH  80  81
ENDBRANCH  52  75
BRANCH  64  85
ATOM     85  C   UNL A   1      48.239  27.052  30.226  1.00  0.00    -0.014 A 
ATOM     86  C   UNL A   1      49.197  27.419  29.265  1.00  0.00     0.010 A 
ATOM     87  C   UNL A   1      48.666  26.544  31.466  1.00  0.00     0.010 A 
ATOM     88  C   UNL A   1      50.559  27.280  29.542  1.00  0.00     0.020 A 
ATOM     89  C   UNL A   1      50.028  26.425  31.755  1.00  0.00     0.020 A 
ATOM     90  C   UNL A   1      50.965  26.795  30.790  1.00  0.00     0.054 A 
BRANCH  90  91
ATOM     91  S   UNL A   1      52.742  26.689  31.140  1.00  0.00     0.124 S 
ATOM     92  O   UNL A   1      53.316  26.614  29.799  1.00  0.00    -0.237 OA
ATOM     93  O   UNL A   1      52.994  27.932  31.862  1.00  0.00    -0.237 OA
ATOM     94  O   UNL A   1      52.869  25.470  31.936  1.00  0.00    -0.744 OA
ENDBRANCH  90  91
ENDBRANCH  64  85
ENDBRANCH  38  39
ENDBRANCH  30  33
ENDBRANCH   1  29
TORSDOF 14
ENDMDL
MODEL 3
REMARK VINA RESULT:     -10.7      5.097     11.733
REMARK SMILES Cc1cccc2c1[C@H]1c3c(C)cccc3[C@H](CC(=O)NCCCNC(=O)c3ccc(-c4c5nc(c(-c6ccc(S(=O)(=O)[O-])cc6)c6ccc([nH]6)c(-c6ccc(S(=O)(=O)[O-])cc6)c6nc(c(-c7ccc(S(=O)(=O)[O-])cc7)c7ccc4[nH]7)C=C6)C=C5)cc3)C[C@H]1CC2
REMARK SMILES IDX 23 1 22 2 21 3 20 4 18 5 19 6 17 8 16 9 1 10 2 11 3 12 7 13
REMARK SMILES IDX 4 14 6 15 8 16 5 17 90 18 9 19 88 20 89 21 10 22 15 23 87 24
REMARK SMILES IDX 12 25 11 26 14 27 13 28 24 29 25 30 26 32 27 33 28 34 86 35
REMARK SMILES IDX 29 36 85 37 30 38 31 39 32 40 79 41 33 42 84 43 78 44 80 45
REMARK SMILES IDX 34 46 83 47 77 48 76 49 35 51 65 52 46 53 64 54 47 55 50 56
REMARK SMILES IDX 63 57 81 58 48 59 49 60 62 62 82 63 51 64 36 65 37 66 45 67
REMARK SMILES IDX 38 68 44 69 39 70 40 71 41 72 42 73 43 74 66 75 67 76 75 77
REMARK SMILES IDX 68 78 74 79 69 80 70 81 71 82 72 83 73 84 52 85 53 86 61 87
REMARK SMILES IDX 54 88 60 89 55 90 56 91 57 92 58 93 59 94
REMARK H PARENT 20 7 24 31 80 50 50 61
REMARK Flexibility Score: inf
ROOT
ATOM      1  C   UNL A   1      38.847  24.087  26.604  1.00  0.00     0.118 C 
ENDROOT
BRANCH   1   2
ATOM      2  C   UNL A   1      37.633  23.788  25.734  1.00  0.00     0.042 C 
BRANCH   2   3
ATOM      3  C   UNL A   1      37.156  22.343  25.781  1.00  0.00     0.117 C 
BRANCH   3   4
ATOM      4  N   UNL A   1      35.937  22.157  26.537  1.00  0.00    -0.356 N 
ATOM      5  C   UNL A   1      34.811  21.485  26.189  1.00  0.00     0.220 C 
ATOM      6  O   UNL A   1      34.099  21.049  27.098  1.00  0.00    -0.275 OA
ATOM      7  H   UNL A   1      35.922  22.577  27.426  1.00  0.00     0.163 HD
BRANCH   5   8
ATOM      8  C   UNL A   1      34.433  21.278  24.734  1.00  0.00     0.108 C 
BRANCH   8   9
ATOM      9  C   UNL A   1      33.655  22.434  24.045  1.00  0.00     0.029 C 
ATOM     10  C   UNL A   1      33.867  28.138  25.801  1.00  0.00     0.044 C 
ATOM     11  C   UNL A   1      32.890  27.969  24.664  1.00  0.00    -0.047 A 
ATOM     12  C   UNL A   1      32.127  29.108  24.341  1.00  0.00     0.004 A 
ATOM     13  C   UNL A   1      32.701  26.774  23.922  1.00  0.00    -0.034 A 
ATOM     14  C   UNL A   1      31.248  29.106  23.264  1.00  0.00     0.001 A 
ATOM     15  C   UNL A   1      31.943  26.844  22.730  1.00  0.00    -0.044 A 
ATOM     16  C   UNL A   1      33.265  25.416  24.351  1.00  0.00     0.053 C 
ATOM     17  C   UNL A   1      31.191  27.994  22.437  1.00  0.00     0.004 A 
ATOM     18  C   UNL A   1      32.027  25.788  21.656  1.00  0.00     0.036 C 
ATOM     19  C   UNL A   1      32.301  24.419  25.055  1.00  0.00    -0.034 A 
ATOM     20  C   UNL A   1      33.895  24.777  23.087  1.00  0.00     0.002 C 
ATOM     21  C   UNL A   1      32.837  24.542  21.994  1.00  0.00     0.009 C 
ATOM     22  C   UNL A   1      31.261  24.801  25.951  1.00  0.00    -0.047 A 
ATOM     23  C   UNL A   1      32.488  23.019  24.838  1.00  0.00    -0.040 A 
ATOM     24  C   UNL A   1      34.617  23.489  23.488  1.00  0.00     0.013 C 
ATOM     25  C   UNL A   1      30.394  23.828  26.492  1.00  0.00     0.004 A 
ATOM     26  C   UNL A   1      30.982  26.207  26.402  1.00  0.00     0.044 C 
ATOM     27  C   UNL A   1      31.540  22.096  25.328  1.00  0.00     0.004 A 
ATOM     28  C   UNL A   1      30.512  22.492  26.163  1.00  0.00     0.001 A 
ENDBRANCH   8   9
ENDBRANCH   5   8
ENDBRANCH   3   4
ENDBRANCH   2   3
ENDBRANCH   1   2
BRANCH   1  29
ATOM     29  N   UNL A   1      40.020  24.449  25.820  1.00  0.00    -0.352 N 
ATOM     30  C   UNL A   1      40.860  25.527  25.941  1.00  0.00     0.251 C 
ATOM     31  H   UNL A   1      40.244  23.825  25.092  1.00  0.00     0.163 HD
ATOM     32  O   UNL A   1      41.654  25.788  25.038  1.00  0.00    -0.269 OA
BRANCH  30  33
ATOM     33  C   UNL A   1      40.796  26.385  27.140  1.00  0.00     0.039 A 
ATOM     34  C   UNL A   1      41.527  27.575  27.166  1.00  0.00     0.014 A 
ATOM     35  C   UNL A   1      40.042  25.997  28.251  1.00  0.00     0.014 A 
ATOM     36  C   UNL A   1      41.450  28.408  28.283  1.00  0.00     0.010 A 
ATOM     37  C   UNL A   1      39.915  26.858  29.337  1.00  0.00     0.010 A 
ATOM     38  C   UNL A   1      40.625  28.068  29.367  1.00  0.00    -0.014 A 
BRANCH  38  39
ATOM     39  C   UNL A   1      40.525  28.940  30.560  1.00  0.00     0.031 A 
ATOM     40  C   UNL A   1      39.482  30.023  30.603  1.00  0.00     0.074 A 
ATOM     41  C   UNL A   1      41.386  28.781  31.584  1.00  0.00     0.049 A 
ATOM     42  N   UNL A   1      39.265  30.914  31.534  1.00  0.00    -0.248 NA
ATOM     43  C   UNL A   1      38.574  30.127  29.448  1.00  0.00     0.031 C 
ATOM     44  C   UNL A   1      42.446  27.771  31.653  1.00  0.00     0.029 A 
ATOM     45  N   UNL A   1      41.505  29.466  32.768  1.00  0.00    -0.354 N 
ATOM     46  C   UNL A   1      38.200  31.681  31.079  1.00  0.00     0.074 A 
ATOM     47  C   UNL A   1      37.843  31.185  29.769  1.00  0.00     0.031 C 
ATOM     48  C   UNL A   1      43.085  27.884  32.830  1.00  0.00     0.029 A 
ATOM     49  C   UNL A   1      42.508  28.995  33.583  1.00  0.00     0.049 A 
ATOM     50  H   UNL A   1      40.926  30.224  33.011  1.00  0.00     0.167 HD
ATOM     51  C   UNL A   1      37.561  32.694  31.708  1.00  0.00     0.031 A 
ATOM     52  C   UNL A   1      42.916  29.409  34.799  1.00  0.00     0.031 A 
ATOM     53  C   UNL A   1      37.902  33.173  33.018  1.00  0.00     0.049 A 
ATOM     54  C   UNL A   1      42.214  30.568  35.456  1.00  0.00     0.074 A 
ATOM     55  C   UNL A   1      37.284  34.172  33.749  1.00  0.00     0.029 A 
ATOM     56  N   UNL A   1      38.941  32.688  33.794  1.00  0.00    -0.354 N 
ATOM     57  N   UNL A   1      41.192  31.262  35.017  1.00  0.00    -0.248 NA
ATOM     58  C   UNL A   1      42.716  30.996  36.769  1.00  0.00     0.031 C 
ATOM     59  C   UNL A   1      37.978  34.322  34.951  1.00  0.00     0.029 A 
ATOM     60  C   UNL A   1      38.996  33.381  34.989  1.00  0.00     0.049 A 
ATOM     61  H   UNL A   1      39.549  31.959  33.534  1.00  0.00     0.167 HD
ATOM     62  C   UNL A   1      40.914  32.193  36.012  1.00  0.00     0.074 A 
ATOM     63  C   UNL A   1      41.870  31.971  37.077  1.00  0.00     0.031 C 
ATOM     64  C   UNL A   1      39.949  33.144  36.040  1.00  0.00     0.031 A 
BRANCH  51  65
ATOM     65  C   UNL A   1      36.405  33.347  31.005  1.00  0.00    -0.014 A 
ATOM     66  C   UNL A   1      35.176  33.523  31.666  1.00  0.00     0.010 A 
ATOM     67  C   UNL A   1      36.586  33.897  29.724  1.00  0.00     0.010 A 
ATOM     68  C   UNL A   1      34.148  34.244  31.056  1.00  0.00     0.020 A 
ATOM     69  C   UNL A   1      35.565  34.635  29.120  1.00  0.00     0.020 A 
ATOM     70  C   UNL A   1      34.354  34.809  29.794  1.00  0.00     0.054 A 
BRANCH  70  71
ATOM     71  S   UNL A   1      33.023  35.801  29.066  1.00  0.00     0.124 S 
ATOM     72  O   UNL A   1      33.765  36.866  28.395  1.00  0.00    -0.237 OA
ATOM     73  O   UNL A   1      32.365  34.841  28.183  1.00  0.00    -0.237 OA
ATOM     74  O   UNL A   1      32.236  36.228  30.220  1.00  0.00    -0.744 OA
ENDBRANCH  70  71
ENDBRANCH  51  65
BRANCH  52  75
ATOM     75  C   UNL A   1      44.035  28.710  35.486  1.00  0.00    -0.014 A 
ATOM     76  C   UNL A   1      43.773  27.628  36.345  1.00  0.00     0.010 A 
ATOM     77  C   UNL A   1      45.366  29.110  35.273  1.00  0.00     0.010 A 
ATOM     78  C   UNL A   1      44.824  26.965  36.987  1.00  0.00     0.020 A 
ATOM     79  C   UNL A   1      46.420  28.435  35.896  1.00  0.00     0.020 A 
ATOM     80  C   UNL A   1      46.141  27.368  36.752  1.00  0.00     0.054 A 
BRANCH  80  81
ATOM     81  S   UNL A   1      47.485  26.466  37.574  1.00  0.00     0.124 S 
ATOM     82  O   UNL A   1      47.916  25.539  36.533  1.00  0.00    -0.237 OA
ATOM     83  O   UNL A   1      48.422  27.540  37.894  1.00  0.00    -0.237 OA
ATOM     84  O   UNL A   1      46.832  25.852  38.727  1.00  0.00    -0.744 OA
ENDBRANCH  80  81
ENDBRANCH  52  75
BRANCH  64  85
ATOM     85  C   UNL A   1      39.846  34.012  37.262  1.00  0.00    -0.014 A 
ATOM     86  C   UNL A   1      40.444  35.283  37.296  1.00  0.00     0.010 A 
ATOM     87  C   UNL A   1      39.033  33.604  38.335  1.00  0.00     0.010 A 
ATOM     88  C   UNL A   1      40.233  36.130  38.386  1.00  0.00     0.020 A 
ATOM     89  C   UNL A   1      38.800  34.457  39.416  1.00  0.00     0.020 A 
ATOM     90  C   UNL A   1      39.402  35.716  39.433  1.00  0.00     0.054 A 
BRANCH  90  91
ATOM     91  S   UNL A   1      39.097  36.868  40.801  1.00  0.00     0.124 S 
ATOM     92  O   UNL A   1      40.452  37.229  41.207  1.00  0.00    -0.237 OA
ATOM     93  O   UNL A   1      38.331  37.928  40.153  1.00  0.00    -0.237 OA
ATOM     94  O   UNL A   1      38.353  36.067  41.772  1.00  0.00    -0.744 OA
ENDBRANCH  90  91
ENDBRANCH  64  85
ENDBRANCH  38  39
ENDBRANCH  30  33
ENDBRANCH   1  29
TORSDOF 14
ENDMDL
