MODEL 1
REMARK VINA RESULT:     -11.0      0.000      0.000
REMARK SMILES CC(C)C[N@@H+](C[C@@H](C)C(=O)NCCCNC(=O)c1ccc(-c2c3nc(c(-c4ccc(S(=O)(=O)[O-])cc4)c4ccc([nH]4)c(-c4ccc(S(=O)(=O)[O-])cc4)c4nc(c(-c5ccc(S(=O)(=O)[O-])cc5)c5ccc2[nH]5)C=C4)C=C3)cc1)C1CCCC1
REMARK SMILES IDX 12 1 11 2 9 3 10 4 7 6 8 7 6 8 5 9 4 11 2 12 1 13 3 14 78 15
REMARK SMILES IDX 79 16 82 17 80 18 81 19 13 20 14 21 15 22 16 23 17 25 18 26
REMARK SMILES IDX 19 27 77 28 20 29 76 30 21 31 22 32 23 33 70 34 24 35 75 36
REMARK SMILES IDX 69 37 71 38 25 39 74 40 68 41 67 42 26 44 56 45 37 46 55 47
REMARK SMILES IDX 38 48 41 49 54 50 72 51 39 52 40 53 53 55 73 56 42 57 27 58
REMARK SMILES IDX 28 59 36 60 29 61 35 62 30 63 31 64 32 65 33 66 34 67 57 68
REMARK SMILES IDX 58 69 66 70 59 71 65 72 60 73 61 74 62 75 63 76 64 77 43 78
REMARK SMILES IDX 44 79 52 80 45 81 51 82 46 83 47 84 48 85 49 86 50 87
REMARK H PARENT 11 5 5 10 15 24 71 43 41 54
REMARK Flexibility Score: inf
ROOT
ATOM      1  C   UNL A   1      33.870  29.666  26.945  1.00  0.00     0.117 C 
ENDROOT
BRANCH   1   2
ATOM      2  N   UNL A   1      32.809  28.992  27.671  1.00  0.00    -0.356 N 
ATOM      3  C   UNL A   1      31.819  28.163  27.246  1.00  0.00     0.228 C 
ATOM      4  O   UNL A   1      30.939  27.869  28.059  1.00  0.00    -0.275 OA
ATOM      5  H   UNL A   1      32.804  29.167  28.640  1.00  0.00     0.163 HD
BRANCH   3   6
ATOM      6  C   UNL A   1      31.859  27.493  25.875  1.00  0.00     0.130 C 
ATOM      7  C   UNL A   1      33.179  26.726  25.829  1.00  0.00     0.024 C 
BRANCH   6   8
ATOM      8  C   UNL A   1      31.430  28.447  24.714  1.00  0.00     0.275 C 
BRANCH   8   9
ATOM      9  N   UNL A   1      30.859  27.959  23.427  1.00  0.00    -0.332 N 
ATOM     10  H   UNL A   1      30.374  27.079  23.603  1.00  0.00     0.348 HD
BRANCH   9  11
ATOM     11  C   UNL A   1      31.870  27.463  22.482  1.00  0.00     0.265 C 
BRANCH  11  12
ATOM     12  C   UNL A   1      31.673  26.055  21.822  1.00  0.00     0.038 C 
ATOM     13  C   UNL A   1      32.820  25.506  20.973  1.00  0.00     0.013 C 
ATOM     14  C   UNL A   1      31.423  25.028  22.941  1.00  0.00     0.013 C 
ENDBRANCH  11  12
ENDBRANCH   9  11
BRANCH   9  15
ATOM     15  C   UNL A   1      29.703  28.740  22.948  1.00  0.00     0.184 C 
ATOM     16  C   UNL A   1      28.312  28.234  23.319  1.00  0.00     0.065 C 
ATOM     17  C   UNL A   1      29.603  30.205  23.377  1.00  0.00     0.065 C 
ATOM     18  C   UNL A   1      27.350  29.370  23.013  1.00  0.00     0.006 C 
ATOM     19  C   UNL A   1      28.152  30.640  23.208  1.00  0.00     0.006 C 
ENDBRANCH   9  15
ENDBRANCH   8   9
ENDBRANCH   6   8
ENDBRANCH   3   6
ENDBRANCH   1   2
BRANCH   1  20
ATOM     20  C   UNL A   1      35.211  29.439  27.635  1.00  0.00     0.042 C 
BRANCH  20  21
ATOM     21  C   UNL A   1      35.675  30.654  28.432  1.00  0.00     0.118 C 
BRANCH  21  22
ATOM     22  N   UNL A   1      35.615  30.421  29.868  1.00  0.00    -0.352 N 
ATOM     23  C   UNL A   1      36.564  29.896  30.703  1.00  0.00     0.251 C 
ATOM     24  H   UNL A   1      34.770  30.680  30.301  1.00  0.00     0.163 HD
ATOM     25  O   UNL A   1      36.253  29.591  31.856  1.00  0.00    -0.269 OA
BRANCH  23  26
ATOM     26  C   UNL A   1      37.941  29.676  30.218  1.00  0.00     0.039 A 
ATOM     27  C   UNL A   1      38.818  28.931  31.007  1.00  0.00     0.014 A 
ATOM     28  C   UNL A   1      38.368  30.206  28.997  1.00  0.00     0.014 A 
ATOM     29  C   UNL A   1      40.110  28.680  30.547  1.00  0.00     0.010 A 
ATOM     30  C   UNL A   1      39.626  29.878  28.501  1.00  0.00     0.010 A 
ATOM     31  C   UNL A   1      40.515  29.121  29.275  1.00  0.00    -0.014 A 
BRANCH  31  32
ATOM     32  C   UNL A   1      41.861  28.780  28.752  1.00  0.00     0.031 A 
ATOM     33  C   UNL A   1      42.941  29.823  28.674  1.00  0.00     0.074 A 
ATOM     34  C   UNL A   1      42.097  27.524  28.324  1.00  0.00     0.049 A 
ATOM     35  N   UNL A   1      44.185  29.691  28.290  1.00  0.00    -0.248 NA
ATOM     36  C   UNL A   1      42.576  31.199  29.051  1.00  0.00     0.031 C 
ATOM     37  C   UNL A   1      41.109  26.440  28.292  1.00  0.00     0.029 A 
ATOM     38  N   UNL A   1      43.242  26.939  27.847  1.00  0.00    -0.354 N 
ATOM     39  C   UNL A   1      44.747  30.960  28.374  1.00  0.00     0.074 A 
ATOM     40  C   UNL A   1      43.693  31.861  28.784  1.00  0.00     0.031 C 
ATOM     41  C   UNL A   1      41.705  25.314  27.872  1.00  0.00     0.029 A 
ATOM     42  C   UNL A   1      43.102  25.601  27.565  1.00  0.00     0.049 A 
ATOM     43  H   UNL A   1      44.085  27.431  27.718  1.00  0.00     0.167 HD
ATOM     44  C   UNL A   1      46.029  31.338  28.153  1.00  0.00     0.031 A 
ATOM     45  C   UNL A   1      43.998  24.701  27.119  1.00  0.00     0.031 A 
ATOM     46  C   UNL A   1      47.072  30.434  27.744  1.00  0.00     0.049 A 
ATOM     47  C   UNL A   1      45.417  25.143  26.890  1.00  0.00     0.074 A 
ATOM     48  C   UNL A   1      48.415  30.704  27.543  1.00  0.00     0.029 A 
ATOM     49  N   UNL A   1      46.891  29.086  27.469  1.00  0.00    -0.354 N 
ATOM     50  N   UNL A   1      45.947  26.333  27.049  1.00  0.00    -0.248 NA
ATOM     51  C   UNL A   1      46.363  24.115  26.441  1.00  0.00     0.031 C 
ATOM     52  C   UNL A   1      49.034  29.533  27.089  1.00  0.00     0.029 A 
ATOM     53  C   UNL A   1      48.092  28.517  27.077  1.00  0.00     0.049 A 
ATOM     54  H   UNL A   1      46.035  28.606  27.542  1.00  0.00     0.167 HD
ATOM     55  C   UNL A   1      47.296  26.190  26.746  1.00  0.00     0.074 A 
ATOM     56  C   UNL A   1      47.502  24.792  26.421  1.00  0.00     0.031 C 
ATOM     57  C   UNL A   1      48.277  27.128  26.740  1.00  0.00     0.031 A 
BRANCH  44  58
ATOM     58  C   UNL A   1      46.371  32.794  28.343  1.00  0.00    -0.014 A 
ATOM     59  C   UNL A   1      46.817  33.282  29.587  1.00  0.00     0.010 A 
ATOM     60  C   UNL A   1      46.285  33.682  27.255  1.00  0.00     0.010 A 
ATOM     61  C   UNL A   1      47.131  34.635  29.748  1.00  0.00     0.020 A 
ATOM     62  C   UNL A   1      46.629  35.029  27.404  1.00  0.00     0.020 A 
ATOM     63  C   UNL A   1      47.034  35.500  28.654  1.00  0.00     0.054 A 
BRANCH  63  64
ATOM     64  S   UNL A   1      47.476  37.244  28.886  1.00  0.00     0.124 S 
ATOM     65  O   UNL A   1      46.796  37.879  27.760  1.00  0.00    -0.237 OA
ATOM     66  O   UNL A   1      46.920  37.542  30.203  1.00  0.00    -0.237 OA
ATOM     67  O   UNL A   1      48.935  37.246  28.814  1.00  0.00    -0.744 OA
ENDBRANCH  63  64
ENDBRANCH  44  58
BRANCH  45  68
ATOM     68  C   UNL A   1      43.585  23.289  26.891  1.00  0.00    -0.014 A 
ATOM     69  C   UNL A   1      43.843  22.655  25.662  1.00  0.00     0.010 A 
ATOM     70  C   UNL A   1      42.943  22.564  27.911  1.00  0.00     0.010 A 
ATOM     71  C   UNL A   1      43.447  21.331  25.450  1.00  0.00     0.020 A 
ATOM     72  C   UNL A   1      42.574  21.230  27.714  1.00  0.00     0.020 A 
ATOM     73  C   UNL A   1      42.816  20.627  26.480  1.00  0.00     0.054 A 
BRANCH  73  74
ATOM     74  S   UNL A   1      42.354  18.895  26.198  1.00  0.00     0.124 S 
ATOM     75  O   UNL A   1      42.620  18.294  27.502  1.00  0.00    -0.237 OA
ATOM     76  O   UNL A   1      40.947  19.001  25.823  1.00  0.00    -0.237 OA
ATOM     77  O   UNL A   1      43.247  18.474  25.120  1.00  0.00    -0.744 OA
ENDBRANCH  73  74
ENDBRANCH  45  68
BRANCH  57  78
ATOM     78  C   UNL A   1      49.669  26.658  26.403  1.00  0.00    -0.014 A 
ATOM     79  C   UNL A   1      50.226  26.865  25.128  1.00  0.00     0.010 A 
ATOM     80  C   UNL A   1      50.433  26.003  27.386  1.00  0.00     0.010 A 
ATOM     81  C   UNL A   1      51.496  26.366  24.823  1.00  0.00     0.020 A 
ATOM     82  C   UNL A   1      51.717  25.535  27.095  1.00  0.00     0.020 A 
ATOM     83  C   UNL A   1      52.229  25.697  25.807  1.00  0.00     0.054 A 
BRANCH  83  84
ATOM     84  S   UNL A   1      53.871  25.051  25.385  1.00  0.00     0.124 S 
ATOM     85  O   UNL A   1      54.067  25.582  24.039  1.00  0.00    -0.237 OA
ATOM     86  O   UNL A   1      54.721  25.634  26.421  1.00  0.00    -0.237 OA
ATOM     87  O   UNL A   1      53.704  23.602  25.465  1.00  0.00    -0.744 OA
ENDBRANCH  83  84
ENDBRANCH  57  78
ENDBRANCH  31  32
ENDBRANCH  23  26
ENDBRANCH  21  22
ENDBRANCH  20  21
ENDBRANCH   1  20
TORSDOF 18
ENDMDL
MODEL 2
REMARK VINA RESULT:     -10.8      5.434      7.113
REMARK SMILES CC(C)C[N@@H+](C[C@@H](C)C(=O)NCCCNC(=O)c1ccc(-c2c3nc(c(-c4ccc(S(=O)(=O)[O-])cc4)c4ccc([nH]4)c(-c4ccc(S(=O)(=O)[O-])cc4)c4nc(c(-c5ccc(S(=O)(=O)[O-])cc5)c5ccc2[nH]5)C=C4)C=C3)cc1)C1CCCC1
REMARK SMILES IDX 12 1 11 2 9 3 10 4 7 6 8 7 6 8 5 9 4 11 2 12 1 13 3 14 78 15
REMARK SMILES IDX 79 16 82 17 80 18 81 19 13 20 14 21 15 22 16 23 17 25 18 26
REMARK SMILES IDX 19 27 77 28 20 29 76 30 21 31 22 32 23 33 70 34 24 35 75 36
REMARK SMILES IDX 69 37 71 38 25 39 74 40 68 41 67 42 26 44 56 45 37 46 55 47
REMARK SMILES IDX 38 48 41 49 54 50 72 51 39 52 40 53 53 55 73 56 42 57 27 58
REMARK SMILES IDX 28 59 36 60 29 61 35 62 30 63 31 64 32 65 33 66 34 67 57 68
REMARK SMILES IDX 58 69 66 70 59 71 65 72 60 73 61 74 62 75 63 76 64 77 43 78
REMARK SMILES IDX 44 79 52 80 45 81 51 82 46 83 47 84 48 85 49 86 50 87
REMARK H PARENT 11 5 5 10 15 24 71 43 41 54
REMARK Flexibility Score: inf
ROOT
ATOM      1  C   UNL A   1      32.587  26.992  25.703  1.00  0.00     0.117 C 
ENDROOT
BRANCH   1   2
ATOM      2  N   UNL A   1      31.703  26.062  26.382  1.00  0.00    -0.356 N 
ATOM      3  C   UNL A   1      31.174  24.875  25.983  1.00  0.00     0.228 C 
ATOM      4  O   UNL A   1      30.306  24.372  26.702  1.00  0.00    -0.275 OA
ATOM      5  H   UNL A   1      31.441  26.339  27.290  1.00  0.00     0.163 HD
BRANCH   3   6
ATOM      6  C   UNL A   1      31.723  24.107  24.783  1.00  0.00     0.130 C 
ATOM      7  C   UNL A   1      30.699  24.301  23.667  1.00  0.00     0.024 C 
BRANCH   6   8
ATOM      8  C   UNL A   1      32.263  22.689  25.157  1.00  0.00     0.275 C 
BRANCH   8   9
ATOM      9  N   UNL A   1      33.509  22.113  24.577  1.00  0.00    -0.332 N 
ATOM     10  H   UNL A   1      34.214  22.064  25.312  1.00  0.00     0.348 HD
BRANCH   9  11
ATOM     11  C   UNL A   1      34.212  23.024  23.662  1.00  0.00     0.265 C 
BRANCH  11  12
ATOM     12  C   UNL A   1      35.555  23.684  24.125  1.00  0.00     0.038 C 
ATOM     13  C   UNL A   1      35.902  23.615  25.612  1.00  0.00     0.013 C 
ATOM     14  C   UNL A   1      36.713  23.003  23.372  1.00  0.00     0.013 C 
ENDBRANCH  11  12
ENDBRANCH   9  11
BRANCH   9  15
ATOM     15  C   UNL A   1      33.421  20.670  24.279  1.00  0.00     0.184 C 
ATOM     16  C   UNL A   1      34.615  19.801  24.666  1.00  0.00     0.065 C 
ATOM     17  C   UNL A   1      32.272  19.880  24.906  1.00  0.00     0.065 C 
ATOM     18  C   UNL A   1      34.139  18.361  24.574  1.00  0.00     0.006 C 
ATOM     19  C   UNL A   1      32.657  18.405  24.887  1.00  0.00     0.006 C 
ENDBRANCH   9  15
ENDBRANCH   8   9
ENDBRANCH   6   8
ENDBRANCH   3   6
ENDBRANCH   1   2
BRANCH   1  20
ATOM     20  C   UNL A   1      33.535  27.647  26.701  1.00  0.00     0.042 C 
BRANCH  20  21
ATOM     21  C   UNL A   1      34.333  28.793  26.090  1.00  0.00     0.118 C 
BRANCH  21  22
ATOM     22  N   UNL A   1      33.807  30.095  26.478  1.00  0.00    -0.352 N 
ATOM     23  C   UNL A   1      34.223  30.937  27.474  1.00  0.00     0.251 C 
ATOM     24  H   UNL A   1      33.043  30.415  25.948  1.00  0.00     0.163 HD
ATOM     25  O   UNL A   1      33.523  31.904  27.779  1.00  0.00    -0.269 OA
BRANCH  23  26
ATOM     26  C   UNL A   1      35.486  30.674  28.191  1.00  0.00     0.039 A 
ATOM     27  C   UNL A   1      35.498  29.702  29.193  1.00  0.00     0.014 A 
ATOM     28  C   UNL A   1      36.649  31.385  27.885  1.00  0.00     0.014 A 
ATOM     29  C   UNL A   1      36.691  29.412  29.853  1.00  0.00     0.010 A 
ATOM     30  C   UNL A   1      37.856  31.031  28.482  1.00  0.00     0.010 A 
ATOM     31  C   UNL A   1      37.888  30.048  29.480  1.00  0.00    -0.014 A 
BRANCH  31  32
ATOM     32  C   UNL A   1      39.171  29.678  30.126  1.00  0.00     0.031 A 
ATOM     33  C   UNL A   1      39.651  30.404  31.353  1.00  0.00     0.074 A 
ATOM     34  C   UNL A   1      39.916  28.695  29.583  1.00  0.00     0.049 A 
ATOM     35  N   UNL A   1      40.721  30.182  32.073  1.00  0.00    -0.248 NA
ATOM     36  C   UNL A   1      38.842  31.541  31.821  1.00  0.00     0.031 C 
ATOM     37  C   UNL A   1      39.586  27.960  28.358  1.00  0.00     0.029 A 
ATOM     38  N   UNL A   1      41.097  28.133  29.996  1.00  0.00    -0.354 N 
ATOM     39  C   UNL A   1      40.716  31.150  33.071  1.00  0.00     0.074 A 
ATOM     40  C   UNL A   1      39.572  32.000  32.827  1.00  0.00     0.031 C 
ATOM     41  C   UNL A   1      40.512  27.012  28.150  1.00  0.00     0.029 A 
ATOM     42  C   UNL A   1      41.522  27.096  29.199  1.00  0.00     0.049 A 
ATOM     43  H   UNL A   1      41.594  28.443  30.787  1.00  0.00     0.167 HD
ATOM     44  C   UNL A   1      41.572  31.304  34.110  1.00  0.00     0.031 A 
ATOM     45  C   UNL A   1      42.599  26.295  29.304  1.00  0.00     0.031 A 
ATOM     46  C   UNL A   1      42.709  30.453  34.345  1.00  0.00     0.049 A 
ATOM     47  C   UNL A   1      43.529  26.480  30.471  1.00  0.00     0.074 A 
ATOM     48  C   UNL A   1      43.609  30.490  35.396  1.00  0.00     0.029 A 
ATOM     49  N   UNL A   1      43.107  29.413  33.516  1.00  0.00    -0.354 N 
ATOM     50  N   UNL A   1      43.465  27.354  31.448  1.00  0.00    -0.248 NA
ATOM     51  C   UNL A   1      44.666  25.556  30.560  1.00  0.00     0.031 C 
ATOM     52  C   UNL A   1      44.585  29.511  35.171  1.00  0.00     0.029 A 
ATOM     53  C   UNL A   1      44.252  28.818  34.019  1.00  0.00     0.049 A 
ATOM     54  H   UNL A   1      42.643  29.140  32.692  1.00  0.00     0.167 HD
ATOM     55  C   UNL A   1      44.537  27.066  32.284  1.00  0.00     0.074 A 
ATOM     56  C   UNL A   1      45.216  25.922  31.709  1.00  0.00     0.031 C 
ATOM     57  C   UNL A   1      44.925  27.690  33.425  1.00  0.00     0.031 A 
BRANCH  44  58
ATOM     58  C   UNL A   1      41.313  32.440  35.067  1.00  0.00    -0.014 A 
ATOM     59  C   UNL A   1      40.438  32.288  36.160  1.00  0.00     0.010 A 
ATOM     60  C   UNL A   1      41.982  33.666  34.898  1.00  0.00     0.010 A 
ATOM     61  C   UNL A   1      40.207  33.350  37.039  1.00  0.00     0.020 A 
ATOM     62  C   UNL A   1      41.780  34.720  35.793  1.00  0.00     0.020 A 
ATOM     63  C   UNL A   1      40.880  34.560  36.849  1.00  0.00     0.054 A 
BRANCH  63  64
ATOM     64  S   UNL A   1      40.584  35.911  38.023  1.00  0.00     0.124 S 
ATOM     65  O   UNL A   1      39.611  36.728  37.302  1.00  0.00    -0.237 OA
ATOM     66  O   UNL A   1      40.067  35.209  39.194  1.00  0.00    -0.237 OA
ATOM     67  O   UNL A   1      41.901  36.518  38.196  1.00  0.00    -0.744 OA
ENDBRANCH  63  64
ENDBRANCH  44  58
BRANCH  45  68
ATOM     68  C   UNL A   1      42.836  25.229  28.292  1.00  0.00    -0.014 A 
ATOM     69  C   UNL A   1      43.587  25.493  27.133  1.00  0.00     0.010 A 
ATOM     70  C   UNL A   1      42.322  23.935  28.492  1.00  0.00     0.010 A 
ATOM     71  C   UNL A   1      43.800  24.491  26.181  1.00  0.00     0.020 A 
ATOM     72  C   UNL A   1      42.560  22.921  27.559  1.00  0.00     0.020 A 
ATOM     73  C   UNL A   1      43.286  23.210  26.403  1.00  0.00     0.054 A 
BRANCH  73  74
ATOM     74  S   UNL A   1      43.616  21.912  25.179  1.00  0.00     0.124 S 
ATOM     75  O   UNL A   1      44.978  21.512  25.520  1.00  0.00    -0.237 OA
ATOM     76  O   UNL A   1      42.575  20.930  25.472  1.00  0.00    -0.237 OA
ATOM     77  O   UNL A   1      43.467  22.603  23.900  1.00  0.00    -0.744 OA
ENDBRANCH  73  74
ENDBRANCH  45  68
BRANCH  57  78
ATOM     78  C   UNL A   1      46.121  27.118  34.144  1.00  0.00    -0.014 A 
ATOM     79  C   UNL A   1      47.426  27.563  33.866  1.00  0.00     0.010 A 
ATOM     80  C   UNL A   1      45.930  26.122  35.118  1.00  0.00     0.010 A 
ATOM     81  C   UNL A   1      48.524  26.975  34.503  1.00  0.00     0.020 A 
ATOM     82  C   UNL A   1      47.021  25.557  35.782  1.00  0.00     0.020 A 
ATOM     83  C   UNL A   1      48.313  25.969  35.450  1.00  0.00     0.054 A 
BRANCH  83  84
ATOM     84  S   UNL A   1      49.752  25.214  36.257  1.00  0.00     0.124 S 
ATOM     85  O   UNL A   1      50.241  26.310  37.089  1.00  0.00    -0.237 OA
ATOM     86  O   UNL A   1      49.162  24.090  36.979  1.00  0.00    -0.237 OA
ATOM     87  O   UNL A   1      50.619  24.844  35.141  1.00  0.00    -0.744 OA
ENDBRANCH  83  84
ENDBRANCH  57  78
ENDBRANCH  31  32
ENDBRANCH  23  26
ENDBRANCH  21  22
ENDBRANCH  20  21
ENDBRANCH   1  20
TORSDOF 18
ENDMDL
MODEL 3
REMARK VINA RESULT:     -10.7      6.946     12.599
REMARK SMILES CC(C)C[N@@H+](C[C@@H](C)C(=O)NCCCNC(=O)c1ccc(-c2c3nc(c(-c4ccc(S(=O)(=O)[O-])cc4)c4ccc([nH]4)c(-c4ccc(S(=O)(=O)[O-])cc4)c4nc(c(-c5ccc(S(=O)(=O)[O-])cc5)c5ccc2[nH]5)C=C4)C=C3)cc1)C1CCCC1
REMARK SMILES IDX 12 1 11 2 9 3 10 4 7 6 8 7 6 8 5 9 4 11 2 12 1 13 3 14 78 15
REMARK SMILES IDX 79 16 82 17 80 18 81 19 13 20 14 21 15 22 16 23 17 25 18 26
REMARK SMILES IDX 19 27 77 28 20 29 76 30 21 31 22 32 23 33 70 34 24 35 75 36
REMARK SMILES IDX 69 37 71 38 25 39 74 40 68 41 67 42 26 44 56 45 37 46 55 47
REMARK SMILES IDX 38 48 41 49 54 50 72 51 39 52 40 53 53 55 73 56 42 57 27 58
REMARK SMILES IDX 28 59 36 60 29 61 35 62 30 63 31 64 32 65 33 66 34 67 57 68
REMARK SMILES IDX 58 69 66 70 59 71 65 72 60 73 61 74 62 75 63 76 64 77 43 78
REMARK SMILES IDX 44 79 52 80 45 81 51 82 46 83 47 84 48 85 49 86 50 87
REMARK H PARENT 11 5 5 10 15 24 71 43 41 54
REMARK Flexibility Score: inf
ROOT
ATOM      1  C   UNL A   1      38.141  22.553  25.928  1.00  0.00     0.117 C 
ENDROOT
BRANCH   1   2
ATOM      2  N   UNL A   1      37.818  22.810  24.536  1.00  0.00    -0.356 N 
ATOM      3  C   UNL A   1      36.636  22.755  23.866  1.00  0.00     0.228 C 
ATOM      4  O   UNL A   1      36.678  22.853  22.636  1.00  0.00    -0.275 OA
ATOM      5  H   UNL A   1      38.588  23.067  23.980  1.00  0.00     0.163 HD
BRANCH   3   6
ATOM      6  C   UNL A   1      35.295  22.727  24.594  1.00  0.00     0.130 C 
ATOM      7  C   UNL A   1      35.321  23.916  25.552  1.00  0.00     0.024 C 
BRANCH   6   8
ATOM      8  C   UNL A   1      34.890  21.297  25.080  1.00  0.00     0.275 C 
BRANCH   8   9
ATOM      9  N   UNL A   1      33.546  20.704  24.835  1.00  0.00    -0.332 N 
ATOM     10  H   UNL A   1      33.286  20.883  23.865  1.00  0.00     0.348 HD
BRANCH   9  11
ATOM     11  C   UNL A   1      32.450  21.431  25.491  1.00  0.00     0.265 C 
BRANCH  11  12
ATOM     12  C   UNL A   1      31.420  22.218  24.610  1.00  0.00     0.038 C 
ATOM     13  C   UNL A   1      31.079  23.648  25.028  1.00  0.00     0.013 C 
ATOM     14  C   UNL A   1      31.974  22.299  23.176  1.00  0.00     0.013 C 
ENDBRANCH  11  12
ENDBRANCH   9  11
BRANCH   9  15
ATOM     15  C   UNL A   1      33.541  19.229  24.780  1.00  0.00     0.184 C 
ATOM     16  C   UNL A   1      32.621  18.568  23.757  1.00  0.00     0.065 C 
ATOM     17  C   UNL A   1      34.863  18.521  24.481  1.00  0.00     0.065 C 
ATOM     18  C   UNL A   1      33.054  17.115  23.673  1.00  0.00     0.006 C 
ATOM     19  C   UNL A   1      34.537  17.117  23.986  1.00  0.00     0.006 C 
ENDBRANCH   9  15
ENDBRANCH   8   9
ENDBRANCH   6   8
ENDBRANCH   3   6
ENDBRANCH   1   2
BRANCH   1  20
ATOM     20  C   UNL A   1      38.734  23.801  26.573  1.00  0.00     0.042 C 
BRANCH  20  21
ATOM     21  C   UNL A   1      40.191  23.617  26.982  1.00  0.00     0.118 C 
BRANCH  21  22
ATOM     22  N   UNL A   1      41.107  24.249  26.043  1.00  0.00    -0.352 N 
ATOM     23  C   UNL A   1      41.544  25.546  25.997  1.00  0.00     0.251 C 
ATOM     24  H   UNL A   1      41.465  23.660  25.341  1.00  0.00     0.163 HD
ATOM     25  O   UNL A   1      42.161  25.941  25.006  1.00  0.00    -0.269 OA
BRANCH  23  26
ATOM     26  C   UNL A   1      41.256  26.467  27.113  1.00  0.00     0.039 A 
ATOM     27  C   UNL A   1      40.452  26.019  28.162  1.00  0.00     0.014 A 
ATOM     28  C   UNL A   1      41.768  27.768  27.125  1.00  0.00     0.014 A 
ATOM     29  C   UNL A   1      40.202  26.862  29.245  1.00  0.00     0.010 A 
ATOM     30  C   UNL A   1      41.592  28.573  28.246  1.00  0.00     0.010 A 
ATOM     31  C   UNL A   1      40.798  28.133  29.313  1.00  0.00    -0.014 A 
BRANCH  31  32
ATOM     32  C   UNL A   1      40.599  28.995  30.505  1.00  0.00     0.031 A 
ATOM     33  C   UNL A   1      41.467  28.835  31.722  1.00  0.00     0.074 A 
ATOM     34  C   UNL A   1      39.611  29.912  30.490  1.00  0.00     0.049 A 
ATOM     35  N   UNL A   1      41.465  29.532  32.830  1.00  0.00    -0.248 NA
ATOM     36  C   UNL A   1      42.448  27.738  31.709  1.00  0.00     0.031 C 
ATOM     37  C   UNL A   1      38.663  30.118  29.390  1.00  0.00     0.029 A 
ATOM     38  N   UNL A   1      39.245  30.851  31.420  1.00  0.00    -0.354 N 
ATOM     39  C   UNL A   1      42.435  28.956  33.644  1.00  0.00     0.074 A 
ATOM     40  C   UNL A   1      42.962  27.815  32.928  1.00  0.00     0.031 C 
ATOM     41  C   UNL A   1      37.862  31.152  29.688  1.00  0.00     0.029 A 
ATOM     42  C   UNL A   1      38.208  31.657  31.012  1.00  0.00     0.049 A 
ATOM     43  H   UNL A   1      39.683  30.939  32.298  1.00  0.00     0.167 HD
ATOM     44  C   UNL A   1      42.865  29.355  34.865  1.00  0.00     0.031 A 
ATOM     45  C   UNL A   1      37.609  32.692  31.629  1.00  0.00     0.031 A 
ATOM     46  C   UNL A   1      42.334  30.492  35.570  1.00  0.00     0.049 A 
ATOM     47  C   UNL A   1      38.110  33.121  32.979  1.00  0.00     0.074 A 
ATOM     48  C   UNL A   1      42.735  31.012  36.789  1.00  0.00     0.029 A 
ATOM     49  N   UNL A   1      41.285  31.284  35.124  1.00  0.00    -0.354 N 
ATOM     50  N   UNL A   1      39.082  32.611  33.699  1.00  0.00    -0.248 NA
ATOM     51  C   UNL A   1      37.449  34.279  33.591  1.00  0.00     0.031 C 
ATOM     52  C   UNL A   1      41.890  32.082  37.107  1.00  0.00     0.029 A 
ATOM     53  C   UNL A   1      41.009  32.272  36.054  1.00  0.00     0.049 A 
ATOM     54  H   UNL A   1      40.809  31.159  34.272  1.00  0.00     0.167 HD
ATOM     55  C   UNL A   1      39.166  33.405  34.838  1.00  0.00     0.074 A 
ATOM     56  C   UNL A   1      38.164  34.442  34.695  1.00  0.00     0.031 C 
ATOM     57  C   UNL A   1      39.997  33.288  35.904  1.00  0.00     0.031 A 
BRANCH  44  58
ATOM     58  C   UNL A   1      43.960  28.549  35.517  1.00  0.00    -0.014 A 
ATOM     59  C   UNL A   1      43.695  27.294  36.099  1.00  0.00     0.010 A 
ATOM     60  C   UNL A   1      45.282  29.031  35.514  1.00  0.00     0.010 A 
ATOM     61  C   UNL A   1      44.720  26.558  36.699  1.00  0.00     0.020 A 
ATOM     62  C   UNL A   1      46.316  28.283  36.084  1.00  0.00     0.020 A 
ATOM     63  C   UNL A   1      46.026  27.058  36.688  1.00  0.00     0.054 A 
BRANCH  63  64
ATOM     64  S   UNL A   1      47.341  26.068  37.448  1.00  0.00     0.124 S 
ATOM     65  O   UNL A   1      47.753  25.211  36.338  1.00  0.00    -0.237 OA
ATOM     66  O   UNL A   1      48.313  27.082  37.850  1.00  0.00    -0.237 OA
ATOM     67  O   UNL A   1      46.669  25.382  38.548  1.00  0.00    -0.744 OA
ENDBRANCH  63  64
ENDBRANCH  44  58
BRANCH  45  68
ATOM     68  C   UNL A   1      36.490  33.410  30.959  1.00  0.00    -0.014 A 
ATOM     69  C   UNL A   1      36.705  34.121  29.765  1.00  0.00     0.010 A 
ATOM     70  C   UNL A   1      35.195  33.374  31.507  1.00  0.00     0.010 A 
ATOM     71  C   UNL A   1      35.652  34.800  29.144  1.00  0.00     0.020 A 
ATOM     72  C   UNL A   1      34.133  34.025  30.873  1.00  0.00     0.020 A 
ATOM     73  C   UNL A   1      34.372  34.745  29.702  1.00  0.00     0.054 A 
BRANCH  73  74
ATOM     74  S   UNL A   1      33.011  35.594  28.853  1.00  0.00     0.124 S 
ATOM     75  O   UNL A   1      33.725  36.566  28.032  1.00  0.00    -0.237 OA
ATOM     76  O   UNL A   1      32.363  34.504  28.127  1.00  0.00    -0.237 OA
ATOM     77  O   UNL A   1      32.223  36.156  29.948  1.00  0.00    -0.744 OA
ENDBRANCH  73  74
ENDBRANCH  45  68
BRANCH  57  78
ATOM     78  C   UNL A   1      39.877  34.335  36.982  1.00  0.00    -0.014 A 
ATOM     79  C   UNL A   1      39.010  34.167  38.076  1.00  0.00     0.010 A 
ATOM     80  C   UNL A   1      40.653  35.506  36.896  1.00  0.00     0.010 A 
ATOM     81  C   UNL A   1      38.872  35.180  39.031  1.00  0.00     0.020 A 
ATOM     82  C   UNL A   1      40.545  36.504  37.867  1.00  0.00     0.020 A 
ATOM     83  C   UNL A   1      39.635  36.345  38.914  1.00  0.00     0.054 A 
BRANCH  83  84
ATOM     84  S   UNL A   1      39.433  37.649  40.159  1.00  0.00     0.124 S 
ATOM     85  O   UNL A   1      40.714  38.345  40.078  1.00  0.00    -0.237 OA
ATOM     86  O   UNL A   1      38.279  38.393  39.660  1.00  0.00    -0.237 OA
ATOM     87  O   UNL A   1      39.203  36.910  41.399  1.00  0.00    -0.744 OA
ENDBRANCH  83  84
ENDBRANCH  57  78
ENDBRANCH  31  32
ENDBRANCH  23  26
ENDBRANCH  21  22
ENDBRANCH  20  21
ENDBRANCH   1  20
TORSDOF 18
ENDMDL
