MODEL 1
REMARK VINA RESULT:     -13.5      0.000      0.000
REMARK SMILES CC(C)CCn1nc(C(=O)NCCCNC(=O)c2ccc(-c3c4nc(c(-c5ccc(S(=O)(=O)[O-])cc5)c5ccc([nH]5)c(-c5ccc(S(=O)(=O)[O-])cc5)c5nc(c(-c6ccc(S(=O)(=O)[O-])cc6)c6ccc3[nH]6)C=C5)C=C4)cc2)c2c1CCN(C(=O)[C@@H]1CCc3nn(C)c(=O)n3C1)C2
REMARK SMILES IDX 13 1 12 2 11 3 9 4 10 5 8 7 6 8 7 9 79 10 78 11 80 12 96 13
REMARK SMILES IDX 81 14 82 15 5 16 4 17 2 18 1 19 3 20 83 21 84 22 85 23 86 24
REMARK SMILES IDX 95 25 87 26 94 27 88 28 92 29 89 30 90 31 93 32 91 33 14 34
REMARK SMILES IDX 15 35 16 36 17 38 18 39 19 40 77 41 20 42 76 43 21 44 22 45
REMARK SMILES IDX 23 46 70 47 24 48 75 49 69 50 71 51 25 52 74 53 68 54 67 55
REMARK SMILES IDX 26 57 56 58 37 59 55 60 38 61 41 62 54 63 72 64 39 65 40 66
REMARK SMILES IDX 53 68 73 69 42 70 27 71 28 72 36 73 29 74 35 75 30 76 31 77
REMARK SMILES IDX 32 78 33 79 34 80 57 81 58 82 66 83 59 84 65 85 60 86 61 87
REMARK SMILES IDX 62 88 63 89 64 90 43 91 44 92 52 93 45 94 51 95 46 96 47 97
REMARK SMILES IDX 48 98 49 99 50 100
REMARK H PARENT 11 6 15 37 71 56 41 67
REMARK Flexibility Score: inf
ROOT
ATOM      1  C   UNL A   1      38.476  20.974  25.401  1.00  0.00     0.042 C 
ENDROOT
BRANCH   1   2
ATOM      2  C   UNL A   1      37.238  21.802  25.001  1.00  0.00     0.118 C 
BRANCH   2   3
ATOM      3  N   UNL A   1      36.309  22.019  26.113  1.00  0.00    -0.351 N 
ATOM      4  C   UNL A   1      34.999  21.652  26.392  1.00  0.00     0.272 C 
ATOM      5  O   UNL A   1      34.664  21.803  27.571  1.00  0.00    -0.267 OA
ATOM      6  H   UNL A   1      36.710  22.553  26.837  1.00  0.00     0.163 HD
BRANCH   4   7
ATOM      7  C   UNL A   1      34.050  21.093  25.391  1.00  0.00     0.155 A 
ATOM      8  N   UNL A   1      32.978  19.575  24.275  1.00  0.00    -0.268 N 
ATOM      9  N   UNL A   1      33.921  19.751  25.236  1.00  0.00    -0.167 NA
ATOM     10  C   UNL A   1      32.716  20.748  23.643  1.00  0.00     0.046 A 
ATOM     11  C   UNL A   1      33.125  21.722  24.521  1.00  0.00     0.026 A 
ATOM     12  C   UNL A   1      32.125  21.078  22.326  1.00  0.00     0.078 C 
ATOM     13  C   UNL A   1      32.763  23.131  24.347  1.00  0.00     0.159 C 
ATOM     14  C   UNL A   1      32.381  22.566  22.035  1.00  0.00     0.126 C 
ATOM     15  N   UNL A   1      31.981  23.415  23.152  1.00  0.00    -0.338 N 
BRANCH   8  16
ATOM     16  C   UNL A   1      32.361  18.259  24.177  1.00  0.00     0.145 C 
BRANCH  16  17
ATOM     17  C   UNL A   1      33.256  17.028  23.942  1.00  0.00     0.027 C 
BRANCH  17  18
ATOM     18  C   UNL A   1      33.596  16.215  25.203  1.00  0.00    -0.016 C 
ATOM     19  C   UNL A   1      32.686  15.019  25.445  1.00  0.00     0.007 C 
ATOM     20  C   UNL A   1      35.072  15.812  25.220  1.00  0.00     0.007 C 
ENDBRANCH  17  18
ENDBRANCH  16  17
ENDBRANCH   8  16
BRANCH  15  21
ATOM     21  C   UNL A   1      31.384  24.663  23.130  1.00  0.00     0.227 C 
ATOM     22  O   UNL A   1      30.398  24.876  23.852  1.00  0.00    -0.274 OA
BRANCH  21  23
ATOM     23  C   UNL A   1      31.801  25.811  22.203  1.00  0.00     0.099 C 
ATOM     24  C   UNL A   1      33.314  26.017  22.133  1.00  0.00     0.023 C 
ATOM     25  C   UNL A   1      31.032  27.118  22.314  1.00  0.00     0.142 C 
ATOM     26  C   UNL A   1      33.868  26.884  23.251  1.00  0.00     0.078 C 
ATOM     27  N   UNL A   1      31.713  28.104  23.123  1.00  0.00    -0.278 N 
ATOM     28  C   UNL A   1      32.958  28.011  23.635  1.00  0.00     0.133 A 
ATOM     29  C   UNL A   1      31.076  29.092  23.836  1.00  0.00     0.345 A 
ATOM     30  N   UNL A   1      33.215  28.849  24.598  1.00  0.00    -0.155 NA
ATOM     31  N   UNL A   1      32.035  29.546  24.749  1.00  0.00    -0.216 N 
ATOM     32  O   UNL A   1      29.895  29.388  23.790  1.00  0.00    -0.246 OA
ATOM     33  C   UNL A   1      31.738  30.313  25.927  1.00  0.00     0.179 C 
ENDBRANCH  21  23
ENDBRANCH  15  21
ENDBRANCH   4   7
ENDBRANCH   2   3
ENDBRANCH   1   2
BRANCH   1  34
ATOM     34  C   UNL A   1      39.428  21.577  26.389  1.00  0.00     0.118 C 
BRANCH  34  35
ATOM     35  N   UNL A   1      40.798  21.617  25.876  1.00  0.00    -0.352 N 
ATOM     36  C   UNL A   1      41.624  22.727  25.832  1.00  0.00     0.251 C 
ATOM     37  H   UNL A   1      41.168  20.773  25.528  1.00  0.00     0.163 HD
ATOM     38  O   UNL A   1      42.538  22.801  25.032  1.00  0.00    -0.269 OA
BRANCH  36  39
ATOM     39  C   UNL A   1      41.324  23.823  26.773  1.00  0.00     0.039 A 
ATOM     40  C   UNL A   1      41.906  23.875  28.038  1.00  0.00     0.014 A 
ATOM     41  C   UNL A   1      40.539  24.872  26.301  1.00  0.00     0.014 A 
ATOM     42  C   UNL A   1      41.773  25.049  28.775  1.00  0.00     0.010 A 
ATOM     43  C   UNL A   1      40.599  26.087  26.925  1.00  0.00     0.010 A 
ATOM     44  C   UNL A   1      41.157  26.172  28.191  1.00  0.00    -0.014 A 
BRANCH  44  45
ATOM     45  C   UNL A   1      41.213  27.481  28.837  1.00  0.00     0.031 A 
ATOM     46  C   UNL A   1      42.271  28.367  28.292  1.00  0.00     0.074 A 
ATOM     47  C   UNL A   1      40.287  27.931  29.713  1.00  0.00     0.049 A 
ATOM     48  N   UNL A   1      43.427  28.601  28.817  1.00  0.00    -0.248 NA
ATOM     49  C   UNL A   1      42.127  28.882  26.919  1.00  0.00     0.031 C 
ATOM     50  C   UNL A   1      39.026  27.291  30.110  1.00  0.00     0.029 A 
ATOM     51  N   UNL A   1      40.228  29.123  30.368  1.00  0.00    -0.354 N 
ATOM     52  C   UNL A   1      44.036  29.527  27.979  1.00  0.00     0.074 A 
ATOM     53  C   UNL A   1      43.314  29.468  26.734  1.00  0.00     0.031 C 
ATOM     54  C   UNL A   1      38.231  28.188  30.733  1.00  0.00     0.029 A 
ATOM     55  C   UNL A   1      38.995  29.401  30.955  1.00  0.00     0.049 A 
ATOM     56  H   UNL A   1      40.993  29.739  30.424  1.00  0.00     0.167 HD
ATOM     57  C   UNL A   1      44.865  30.482  28.491  1.00  0.00     0.031 A 
ATOM     58  C   UNL A   1      38.624  30.542  31.587  1.00  0.00     0.031 A 
ATOM     59  C   UNL A   1      45.194  30.192  29.867  1.00  0.00     0.049 A 
ATOM     60  C   UNL A   1      39.873  31.214  32.009  1.00  0.00     0.074 A 
ATOM     61  C   UNL A   1      45.831  29.168  30.536  1.00  0.00     0.029 A 
ATOM     62  N   UNL A   1      44.447  30.872  30.798  1.00  0.00    -0.354 N 
ATOM     63  N   UNL A   1      40.680  30.725  32.909  1.00  0.00    -0.248 NA
ATOM     64  C   UNL A   1      40.447  32.231  31.145  1.00  0.00     0.031 C 
ATOM     65  C   UNL A   1      45.142  29.047  31.779  1.00  0.00     0.029 A 
ATOM     66  C   UNL A   1      44.171  30.049  31.853  1.00  0.00     0.049 A 
ATOM     67  H   UNL A   1      44.155  31.809  30.719  1.00  0.00     0.167 HD
ATOM     68  C   UNL A   1      41.948  31.024  32.441  1.00  0.00     0.074 A 
ATOM     69  C   UNL A   1      41.740  32.070  31.442  1.00  0.00     0.031 C 
ATOM     70  C   UNL A   1      43.001  30.193  32.698  1.00  0.00     0.031 A 
BRANCH  57  71
ATOM     71  C   UNL A   1      44.960  31.897  27.953  1.00  0.00    -0.014 A 
ATOM     72  C   UNL A   1      46.232  32.381  27.573  1.00  0.00     0.010 A 
ATOM     73  C   UNL A   1      43.933  32.854  28.076  1.00  0.00     0.010 A 
ATOM     74  C   UNL A   1      46.479  33.752  27.420  1.00  0.00     0.020 A 
ATOM     75  C   UNL A   1      44.158  34.218  27.885  1.00  0.00     0.020 A 
ATOM     76  C   UNL A   1      45.439  34.663  27.590  1.00  0.00     0.054 A 
BRANCH  76  77
ATOM     77  S   UNL A   1      45.782  36.433  27.467  1.00  0.00     0.124 S 
ATOM     78  O   UNL A   1      46.339  36.723  28.784  1.00  0.00    -0.237 OA
ATOM     79  O   UNL A   1      46.724  36.485  26.352  1.00  0.00    -0.237 OA
ATOM     80  O   UNL A   1      44.471  37.017  27.196  1.00  0.00    -0.744 OA
ENDBRANCH  76  77
ENDBRANCH  57  71
BRANCH  58  81
ATOM     81  C   UNL A   1      37.300  31.206  31.660  1.00  0.00    -0.014 A 
ATOM     82  C   UNL A   1      36.717  31.511  32.907  1.00  0.00     0.010 A 
ATOM     83  C   UNL A   1      36.751  31.817  30.515  1.00  0.00     0.010 A 
ATOM     84  C   UNL A   1      35.685  32.459  33.013  1.00  0.00     0.020 A 
ATOM     85  C   UNL A   1      35.717  32.758  30.614  1.00  0.00     0.020 A 
ATOM     86  C   UNL A   1      35.209  33.098  31.866  1.00  0.00     0.054 A 
BRANCH  86  87
ATOM     87  S   UNL A   1      34.025  34.469  32.034  1.00  0.00     0.124 S 
ATOM     88  O   UNL A   1      33.508  34.603  30.676  1.00  0.00    -0.237 OA
ATOM     89  O   UNL A   1      33.079  33.955  33.021  1.00  0.00    -0.237 OA
ATOM     90  O   UNL A   1      34.852  35.582  32.496  1.00  0.00    -0.744 OA
ENDBRANCH  86  87
ENDBRANCH  58  81
BRANCH  70  91
ATOM     91  C   UNL A   1      42.881  29.221  33.849  1.00  0.00    -0.014 A 
ATOM     92  C   UNL A   1      43.166  29.526  35.194  1.00  0.00     0.010 A 
ATOM     93  C   UNL A   1      42.327  27.964  33.548  1.00  0.00     0.010 A 
ATOM     94  C   UNL A   1      42.920  28.583  36.205  1.00  0.00     0.020 A 
ATOM     95  C   UNL A   1      42.059  27.032  34.549  1.00  0.00     0.020 A 
ATOM     96  C   UNL A   1      42.366  27.340  35.874  1.00  0.00     0.054 A 
BRANCH  96  97
ATOM     97  S   UNL A   1      42.009  26.134  37.182  1.00  0.00     0.124 S 
ATOM     98  O   UNL A   1      42.962  26.505  38.225  1.00  0.00    -0.237 OA
ATOM     99  O   UNL A   1      40.604  26.395  37.490  1.00  0.00    -0.237 OA
ATOM    100  O   UNL A   1      42.263  24.843  36.544  1.00  0.00    -0.744 OA
ENDBRANCH  96  97
ENDBRANCH  70  91
ENDBRANCH  44  45
ENDBRANCH  36  39
ENDBRANCH  34  35
ENDBRANCH   1  34
TORSDOF 18
ENDMDL
MODEL 2
REMARK VINA RESULT:     -13.3      1.233      1.828
REMARK SMILES CC(C)CCn1nc(C(=O)NCCCNC(=O)c2ccc(-c3c4nc(c(-c5ccc(S(=O)(=O)[O-])cc5)c5ccc([nH]5)c(-c5ccc(S(=O)(=O)[O-])cc5)c5nc(c(-c6ccc(S(=O)(=O)[O-])cc6)c6ccc3[nH]6)C=C5)C=C4)cc2)c2c1CCN(C(=O)[C@@H]1CCc3nn(C)c(=O)n3C1)C2
REMARK SMILES IDX 13 1 12 2 11 3 9 4 10 5 8 7 6 8 7 9 79 10 78 11 80 12 96 13
REMARK SMILES IDX 81 14 82 15 5 16 4 17 2 18 1 19 3 20 83 21 84 22 85 23 86 24
REMARK SMILES IDX 95 25 87 26 94 27 88 28 92 29 89 30 90 31 93 32 91 33 14 34
REMARK SMILES IDX 15 35 16 36 17 38 18 39 19 40 77 41 20 42 76 43 21 44 22 45
REMARK SMILES IDX 23 46 70 47 24 48 75 49 69 50 71 51 25 52 74 53 68 54 67 55
REMARK SMILES IDX 26 57 56 58 37 59 55 60 38 61 41 62 54 63 72 64 39 65 40 66
REMARK SMILES IDX 53 68 73 69 42 70 27 71 28 72 36 73 29 74 35 75 30 76 31 77
REMARK SMILES IDX 32 78 33 79 34 80 57 81 58 82 66 83 59 84 65 85 60 86 61 87
REMARK SMILES IDX 62 88 63 89 64 90 43 91 44 92 52 93 45 94 51 95 46 96 47 97
REMARK SMILES IDX 48 98 49 99 50 100
REMARK H PARENT 11 6 15 37 71 56 41 67
REMARK Flexibility Score: inf
ROOT
ATOM      1  C   UNL A   1      38.355  21.362  25.521  1.00  0.00     0.042 C 
ENDROOT
BRANCH   1   2
ATOM      2  C   UNL A   1      37.213  22.335  25.166  1.00  0.00     0.118 C 
BRANCH   2   3
ATOM      3  N   UNL A   1      36.238  22.495  26.248  1.00  0.00    -0.351 N 
ATOM      4  C   UNL A   1      34.946  22.046  26.488  1.00  0.00     0.272 C 
ATOM      5  O   UNL A   1      34.565  22.177  27.655  1.00  0.00    -0.267 OA
ATOM      6  H   UNL A   1      36.581  23.054  26.983  1.00  0.00     0.163 HD
BRANCH   4   7
ATOM      7  C   UNL A   1      34.065  21.427  25.459  1.00  0.00     0.155 A 
ATOM      8  N   UNL A   1      33.117  19.843  24.324  1.00  0.00    -0.268 N 
ATOM      9  N   UNL A   1      34.012  20.079  25.316  1.00  0.00    -0.167 NA
ATOM     10  C   UNL A   1      32.819  20.994  23.667  1.00  0.00     0.046 A 
ATOM     11  C   UNL A   1      33.143  21.998  24.548  1.00  0.00     0.026 A 
ATOM     12  C   UNL A   1      32.261  21.278  22.325  1.00  0.00     0.078 C 
ATOM     13  C   UNL A   1      32.715  23.384  24.341  1.00  0.00     0.159 C 
ATOM     14  C   UNL A   1      32.451  22.774  22.025  1.00  0.00     0.126 C 
ATOM     15  N   UNL A   1      31.965  23.613  23.114  1.00  0.00    -0.338 N 
BRANCH   8  16
ATOM     16  C   UNL A   1      32.573  18.495  24.220  1.00  0.00     0.145 C 
BRANCH  16  17
ATOM     17  C   UNL A   1      33.464  17.370  23.662  1.00  0.00     0.027 C 
BRANCH  17  18
ATOM     18  C   UNL A   1      33.594  16.130  24.565  1.00  0.00    -0.016 C 
ATOM     19  C   UNL A   1      35.002  15.878  25.087  1.00  0.00     0.007 C 
ATOM     20  C   UNL A   1      32.569  16.161  25.699  1.00  0.00     0.007 C 
ENDBRANCH  17  18
ENDBRANCH  16  17
ENDBRANCH   8  16
BRANCH  15  21
ATOM     21  C   UNL A   1      31.305  24.828  23.054  1.00  0.00     0.227 C 
ATOM     22  O   UNL A   1      30.260  24.983  23.705  1.00  0.00    -0.274 OA
BRANCH  21  23
ATOM     23  C   UNL A   1      31.725  26.002  22.164  1.00  0.00     0.099 C 
ATOM     24  C   UNL A   1      33.240  26.190  22.076  1.00  0.00     0.023 C 
ATOM     25  C   UNL A   1      30.978  27.315  22.334  1.00  0.00     0.142 C 
ATOM     26  C   UNL A   1      33.824  27.006  23.216  1.00  0.00     0.078 C 
ATOM     27  N   UNL A   1      31.686  28.262  23.168  1.00  0.00    -0.278 N 
ATOM     28  C   UNL A   1      32.937  28.132  23.656  1.00  0.00     0.133 A 
ATOM     29  C   UNL A   1      31.075  29.231  23.926  1.00  0.00     0.345 A 
ATOM     30  N   UNL A   1      33.222  28.930  24.645  1.00  0.00    -0.155 NA
ATOM     31  N   UNL A   1      32.055  29.638  24.839  1.00  0.00    -0.216 N 
ATOM     32  O   UNL A   1      29.898  29.547  23.910  1.00  0.00    -0.246 OA
ATOM     33  C   UNL A   1      31.787  30.365  26.050  1.00  0.00     0.179 C 
ENDBRANCH  21  23
ENDBRANCH  15  21
ENDBRANCH   4   7
ENDBRANCH   2   3
ENDBRANCH   1   2
BRANCH   1  34
ATOM     34  C   UNL A   1      39.497  21.894  26.331  1.00  0.00     0.118 C 
BRANCH  34  35
ATOM     35  N   UNL A   1      40.636  20.975  26.343  1.00  0.00    -0.352 N 
ATOM     36  C   UNL A   1      41.974  21.328  26.293  1.00  0.00     0.251 C 
ATOM     37  H   UNL A   1      40.431  20.013  26.392  1.00  0.00     0.163 HD
ATOM     38  O   UNL A   1      42.815  20.552  25.878  1.00  0.00    -0.269 OA
BRANCH  36  39
ATOM     39  C   UNL A   1      42.325  22.692  26.733  1.00  0.00     0.039 A 
ATOM     40  C   UNL A   1      42.351  23.759  25.839  1.00  0.00     0.014 A 
ATOM     41  C   UNL A   1      42.501  22.896  28.099  1.00  0.00     0.014 A 
ATOM     42  C   UNL A   1      42.448  25.048  26.357  1.00  0.00     0.010 A 
ATOM     43  C   UNL A   1      42.373  24.158  28.610  1.00  0.00     0.010 A 
ATOM     44  C   UNL A   1      42.410  25.244  27.750  1.00  0.00    -0.014 A 
BRANCH  44  45
ATOM     45  C   UNL A   1      42.269  26.582  28.318  1.00  0.00     0.031 A 
ATOM     46  C   UNL A   1      43.423  27.472  28.031  1.00  0.00     0.074 A 
ATOM     47  C   UNL A   1      41.134  27.046  28.887  1.00  0.00     0.049 A 
ATOM     48  N   UNL A   1      44.390  27.763  28.835  1.00  0.00    -0.248 NA
ATOM     49  C   UNL A   1      43.647  27.919  26.645  1.00  0.00     0.031 C 
ATOM     50  C   UNL A   1      39.823  26.389  28.963  1.00  0.00     0.029 A 
ATOM     51  N   UNL A   1      40.882  28.265  29.438  1.00  0.00    -0.354 N 
ATOM     52  C   UNL A   1      45.189  28.666  28.145  1.00  0.00     0.074 A 
ATOM     53  C   UNL A   1      44.831  28.529  26.757  1.00  0.00     0.031 C 
ATOM     54  C   UNL A   1      38.875  27.292  29.301  1.00  0.00     0.029 A 
ATOM     55  C   UNL A   1      39.533  28.535  29.656  1.00  0.00     0.049 A 
ATOM     56  H   UNL A   1      41.595  28.905  29.666  1.00  0.00     0.167 HD
ATOM     57  C   UNL A   1      45.834  29.667  28.810  1.00  0.00     0.031 A 
ATOM     58  C   UNL A   1      38.988  29.693  30.104  1.00  0.00     0.031 A 
ATOM     59  C   UNL A   1      45.783  29.451  30.237  1.00  0.00     0.049 A 
ATOM     60  C   UNL A   1      40.066  30.419  30.811  1.00  0.00     0.074 A 
ATOM     61  C   UNL A   1      46.231  28.478  31.106  1.00  0.00     0.029 A 
ATOM     62  N   UNL A   1      44.801  30.152  30.896  1.00  0.00    -0.354 N 
ATOM     63  N   UNL A   1      40.607  29.995  31.920  1.00  0.00    -0.248 NA
ATOM     64  C   UNL A   1      40.837  31.410  30.081  1.00  0.00     0.031 C 
ATOM     65  C   UNL A   1      45.233  28.396  32.122  1.00  0.00     0.029 A 
ATOM     66  C   UNL A   1      44.263  29.371  31.880  1.00  0.00     0.049 A 
ATOM     67  H   UNL A   1      44.528  31.076  30.692  1.00  0.00     0.167 HD
ATOM     68  C   UNL A   1      41.950  30.309  31.795  1.00  0.00     0.074 A 
ATOM     69  C   UNL A   1      42.004  31.301  30.723  1.00  0.00     0.031 C 
ATOM     70  C   UNL A   1      42.906  29.521  32.370  1.00  0.00     0.031 A 
BRANCH  57  71
ATOM     71  C   UNL A   1      46.049  31.058  28.244  1.00  0.00    -0.014 A 
ATOM     72  C   UNL A   1      44.914  31.869  28.019  1.00  0.00     0.010 A 
ATOM     73  C   UNL A   1      47.256  31.488  27.660  1.00  0.00     0.010 A 
ATOM     74  C   UNL A   1      44.968  32.990  27.181  1.00  0.00     0.020 A 
ATOM     75  C   UNL A   1      47.331  32.628  26.856  1.00  0.00     0.020 A 
ATOM     76  C   UNL A   1      46.178  33.354  26.595  1.00  0.00     0.054 A 
BRANCH  76  77
ATOM     77  S   UNL A   1      46.224  34.755  25.453  1.00  0.00     0.124 S 
ATOM     78  O   UNL A   1      47.619  34.750  25.027  1.00  0.00    -0.237 OA
ATOM     79  O   UNL A   1      45.248  34.357  24.442  1.00  0.00    -0.237 OA
ATOM     80  O   UNL A   1      45.824  35.886  26.286  1.00  0.00    -0.744 OA
ENDBRANCH  76  77
ENDBRANCH  57  71
BRANCH  58  81
ATOM     81  C   UNL A   1      37.683  30.322  29.783  1.00  0.00    -0.014 A 
ATOM     82  C   UNL A   1      36.893  30.895  30.799  1.00  0.00     0.010 A 
ATOM     83  C   UNL A   1      37.358  30.631  28.448  1.00  0.00     0.010 A 
ATOM     84  C   UNL A   1      35.875  31.815  30.495  1.00  0.00     0.020 A 
ATOM     85  C   UNL A   1      36.339  31.543  28.137  1.00  0.00     0.020 A 
ATOM     86  C   UNL A   1      35.622  32.154  29.164  1.00  0.00     0.054 A 
BRANCH  86  87
ATOM     87  S   UNL A   1      34.451  33.496  28.791  1.00  0.00     0.124 S 
ATOM     88  O   UNL A   1      34.549  34.335  29.981  1.00  0.00    -0.237 OA
ATOM     89  O   UNL A   1      35.003  34.070  27.567  1.00  0.00    -0.237 OA
ATOM     90  O   UNL A   1      33.176  32.802  28.624  1.00  0.00    -0.744 OA
ENDBRANCH  86  87
ENDBRANCH  58  81
BRANCH  70  91
ATOM     91  C   UNL A   1      42.494  28.601  33.495  1.00  0.00    -0.014 A 
ATOM     92  C   UNL A   1      42.378  27.201  33.390  1.00  0.00     0.010 A 
ATOM     93  C   UNL A   1      42.339  29.194  34.760  1.00  0.00     0.010 A 
ATOM     94  C   UNL A   1      42.091  26.424  34.524  1.00  0.00     0.020 A 
ATOM     95  C   UNL A   1      42.077  28.427  35.894  1.00  0.00     0.020 A 
ATOM     96  C   UNL A   1      41.944  27.044  35.770  1.00  0.00     0.054 A 
BRANCH  96  97
ATOM     97  S   UNL A   1      41.614  26.039  37.245  1.00  0.00     0.124 S 
ATOM     98  O   UNL A   1      42.787  26.298  38.075  1.00  0.00    -0.237 OA
ATOM     99  O   UNL A   1      40.356  26.592  37.742  1.00  0.00    -0.237 OA
ATOM    100  O   UNL A   1      41.516  24.676  36.723  1.00  0.00    -0.744 OA
ENDBRANCH  96  97
ENDBRANCH  70  91
ENDBRANCH  44  45
ENDBRANCH  36  39
ENDBRANCH  34  35
ENDBRANCH   1  34
TORSDOF 18
ENDMDL
MODEL 3
REMARK VINA RESULT:     -13.3      1.481      2.131
REMARK SMILES CC(C)CCn1nc(C(=O)NCCCNC(=O)c2ccc(-c3c4nc(c(-c5ccc(S(=O)(=O)[O-])cc5)c5ccc([nH]5)c(-c5ccc(S(=O)(=O)[O-])cc5)c5nc(c(-c6ccc(S(=O)(=O)[O-])cc6)c6ccc3[nH]6)C=C5)C=C4)cc2)c2c1CCN(C(=O)[C@@H]1CCc3nn(C)c(=O)n3C1)C2
REMARK SMILES IDX 13 1 12 2 11 3 9 4 10 5 8 7 6 8 7 9 79 10 78 11 80 12 96 13
REMARK SMILES IDX 81 14 82 15 5 16 4 17 2 18 1 19 3 20 83 21 84 22 85 23 86 24
REMARK SMILES IDX 95 25 87 26 94 27 88 28 92 29 89 30 90 31 93 32 91 33 14 34
REMARK SMILES IDX 15 35 16 36 17 38 18 39 19 40 77 41 20 42 76 43 21 44 22 45
REMARK SMILES IDX 23 46 70 47 24 48 75 49 69 50 71 51 25 52 74 53 68 54 67 55
REMARK SMILES IDX 26 57 56 58 37 59 55 60 38 61 41 62 54 63 72 64 39 65 40 66
REMARK SMILES IDX 53 68 73 69 42 70 27 71 28 72 36 73 29 74 35 75 30 76 31 77
REMARK SMILES IDX 32 78 33 79 34 80 57 81 58 82 66 83 59 84 65 85 60 86 61 87
REMARK SMILES IDX 62 88 63 89 64 90 43 91 44 92 52 93 45 94 51 95 46 96 47 97
REMARK SMILES IDX 48 98 49 99 50 100
REMARK H PARENT 11 6 15 37 71 56 41 67
REMARK Flexibility Score: inf
ROOT
ATOM      1  C   UNL A   1      39.862  19.712  25.795  1.00  0.00     0.042 C 
ENDROOT
BRANCH   1   2
ATOM      2  C   UNL A   1      38.516  20.205  25.226  1.00  0.00     0.118 C 
BRANCH   2   3
ATOM      3  N   UNL A   1      38.385  21.664  25.244  1.00  0.00    -0.351 N 
ATOM      4  C   UNL A   1      37.326  22.561  25.281  1.00  0.00     0.272 C 
ATOM      5  O   UNL A   1      37.644  23.720  25.564  1.00  0.00    -0.267 OA
ATOM      6  H   UNL A   1      39.259  22.119  25.228  1.00  0.00     0.163 HD
BRANCH   4   7
ATOM      7  C   UNL A   1      35.904  22.195  25.032  1.00  0.00     0.155 A 
ATOM      8  N   UNL A   1      34.077  21.040  25.182  1.00  0.00    -0.268 N 
ATOM      9  N   UNL A   1      35.374  21.073  25.581  1.00  0.00    -0.167 NA
ATOM     10  C   UNL A   1      33.858  21.946  24.195  1.00  0.00     0.046 A 
ATOM     11  C   UNL A   1      34.875  22.861  24.322  1.00  0.00     0.026 A 
ATOM     12  C   UNL A   1      32.815  22.073  23.151  1.00  0.00     0.078 C 
ATOM     13  C   UNL A   1      34.853  24.152  23.630  1.00  0.00     0.159 C 
ATOM     14  C   UNL A   1      33.276  23.123  22.126  1.00  0.00     0.126 C 
ATOM     15  N   UNL A   1      33.697  24.362  22.770  1.00  0.00    -0.338 N 
BRANCH   8  16
ATOM     16  C   UNL A   1      33.171  20.172  25.923  1.00  0.00     0.145 C 
BRANCH  16  17
ATOM     17  C   UNL A   1      32.732  18.836  25.295  1.00  0.00     0.027 C 
BRANCH  17  18
ATOM     18  C   UNL A   1      33.487  18.434  24.016  1.00  0.00    -0.016 C 
ATOM     19  C   UNL A   1      34.366  17.200  24.167  1.00  0.00     0.007 C 
ATOM     20  C   UNL A   1      32.532  18.304  22.828  1.00  0.00     0.007 C 
ENDBRANCH  17  18
ENDBRANCH  16  17
ENDBRANCH   8  16
BRANCH  15  21
ATOM     21  C   UNL A   1      33.510  25.669  22.355  1.00  0.00     0.227 C 
ATOM     22  O   UNL A   1      33.406  25.911  21.143  1.00  0.00    -0.274 OA
BRANCH  21  23
ATOM     23  C   UNL A   1      33.499  26.885  23.289  1.00  0.00     0.099 C 
ATOM     24  C   UNL A   1      33.126  26.542  24.731  1.00  0.00     0.023 C 
ATOM     25  C   UNL A   1      32.819  28.149  22.788  1.00  0.00     0.142 C 
ATOM     26  C   UNL A   1      31.629  26.493  24.982  1.00  0.00     0.078 C 
ATOM     27  N   UNL A   1      31.472  28.300  23.291  1.00  0.00    -0.278 N 
ATOM     28  C   UNL A   1      30.864  27.532  24.218  1.00  0.00     0.133 A 
ATOM     29  C   UNL A   1      30.470  28.970  22.629  1.00  0.00     0.345 A 
ATOM     30  N   UNL A   1      29.567  27.641  24.251  1.00  0.00    -0.155 NA
ATOM     31  N   UNL A   1      29.290  28.546  23.249  1.00  0.00    -0.216 N 
ATOM     32  O   UNL A   1      30.579  29.651  21.624  1.00  0.00    -0.246 OA
ATOM     33  C   UNL A   1      27.976  28.693  22.684  1.00  0.00     0.179 C 
ENDBRANCH  21  23
ENDBRANCH  15  21
ENDBRANCH   4   7
ENDBRANCH   2   3
ENDBRANCH   1   2
BRANCH   1  34
ATOM     34  C   UNL A   1      40.717  20.704  26.521  1.00  0.00     0.118 C 
BRANCH  34  35
ATOM     35  N   UNL A   1      42.001  20.916  25.851  1.00  0.00    -0.352 N 
ATOM     36  C   UNL A   1      42.631  22.134  25.656  1.00  0.00     0.251 C 
ATOM     37  H   UNL A   1      42.460  20.117  25.505  1.00  0.00     0.163 HD
ATOM     38  O   UNL A   1      43.430  22.291  24.752  1.00  0.00    -0.269 OA
BRANCH  36  39
ATOM     39  C   UNL A   1      42.264  23.232  26.570  1.00  0.00     0.039 A 
ATOM     40  C   UNL A   1      42.900  23.399  27.798  1.00  0.00     0.014 A 
ATOM     41  C   UNL A   1      41.350  24.172  26.102  1.00  0.00     0.014 A 
ATOM     42  C   UNL A   1      42.681  24.584  28.496  1.00  0.00     0.010 A 
ATOM     43  C   UNL A   1      41.312  25.413  26.675  1.00  0.00     0.010 A 
ATOM     44  C   UNL A   1      41.921  25.610  27.905  1.00  0.00    -0.014 A 
BRANCH  44  45
ATOM     45  C   UNL A   1      41.870  26.944  28.497  1.00  0.00     0.031 A 
ATOM     46  C   UNL A   1      43.046  27.787  28.163  1.00  0.00     0.074 A 
ATOM     47  C   UNL A   1      40.788  27.448  29.132  1.00  0.00     0.049 A 
ATOM     48  N   UNL A   1      44.066  28.022  28.918  1.00  0.00    -0.248 NA
ATOM     49  C   UNL A   1      43.217  28.245  26.773  1.00  0.00     0.031 C 
ATOM     50  C   UNL A   1      39.454  26.849  29.268  1.00  0.00     0.029 A 
ATOM     51  N   UNL A   1      40.620  28.669  29.712  1.00  0.00    -0.354 N 
ATOM     52  C   UNL A   1      44.867  28.900  28.199  1.00  0.00     0.074 A 
ATOM     53  C   UNL A   1      44.432  28.800  26.830  1.00  0.00     0.031 C 
ATOM     54  C   UNL A   1      38.567  27.787  29.668  1.00  0.00     0.029 A 
ATOM     55  C   UNL A   1      39.297  28.994  30.005  1.00  0.00     0.049 A 
ATOM     56  H   UNL A   1      41.372  29.272  29.910  1.00  0.00     0.167 HD
ATOM     57  C   UNL A   1      45.590  29.861  28.843  1.00  0.00     0.031 A 
ATOM     58  C   UNL A   1      38.829  30.167  30.496  1.00  0.00     0.031 A 
ATOM     59  C   UNL A   1      45.604  29.625  30.267  1.00  0.00     0.049 A 
ATOM     60  C   UNL A   1      39.974  30.834  31.155  1.00  0.00     0.074 A 
ATOM     61  C   UNL A   1      46.052  28.619  31.098  1.00  0.00     0.029 A 
ATOM     62  N   UNL A   1      44.690  30.358  30.987  1.00  0.00    -0.354 N 
ATOM     63  N   UNL A   1      40.552  30.369  32.228  1.00  0.00    -0.248 NA
ATOM     64  C   UNL A   1      40.750  31.802  30.399  1.00  0.00     0.031 C 
ATOM     65  C   UNL A   1      45.107  28.565  32.164  1.00  0.00     0.029 A 
ATOM     66  C   UNL A   1      44.170  29.586  31.986  1.00  0.00     0.049 A 
ATOM     67  H   UNL A   1      44.448  31.296  30.809  1.00  0.00     0.167 HD
ATOM     68  C   UNL A   1      41.900  30.626  32.037  1.00  0.00     0.074 A 
ATOM     69  C   UNL A   1      41.942  31.631  30.977  1.00  0.00     0.031 C 
ATOM     70  C   UNL A   1      42.848  29.787  32.550  1.00  0.00     0.031 A 
BRANCH  57  71
ATOM     71  C   UNL A   1      45.838  31.250  28.285  1.00  0.00    -0.014 A 
ATOM     72  C   UNL A   1      44.747  31.942  27.712  1.00  0.00     0.010 A 
ATOM     73  C   UNL A   1      47.120  31.777  28.034  1.00  0.00     0.010 A 
ATOM     74  C   UNL A   1      44.939  33.039  26.863  1.00  0.00     0.020 A 
ATOM     75  C   UNL A   1      47.321  32.896  27.223  1.00  0.00     0.020 A 
ATOM     76  C   UNL A   1      46.230  33.501  26.615  1.00  0.00     0.054 A 
BRANCH  76  77
ATOM     77  S   UNL A   1      46.475  34.867  25.458  1.00  0.00     0.124 S 
ATOM     78  O   UNL A   1      47.849  34.645  25.017  1.00  0.00    -0.237 OA
ATOM     79  O   UNL A   1      45.439  34.614  24.461  1.00  0.00    -0.237 OA
ATOM     80  O   UNL A   1      46.264  36.054  26.282  1.00  0.00    -0.744 OA
ENDBRANCH  76  77
ENDBRANCH  57  71
BRANCH  58  81
ATOM     81  C   UNL A   1      37.539  30.858  30.253  1.00  0.00    -0.014 A 
ATOM     82  C   UNL A   1      36.824  31.441  31.319  1.00  0.00     0.010 A 
ATOM     83  C   UNL A   1      37.163  31.213  28.942  1.00  0.00     0.010 A 
ATOM     84  C   UNL A   1      35.833  32.409  31.085  1.00  0.00     0.020 A 
ATOM     85  C   UNL A   1      36.171  32.173  28.702  1.00  0.00     0.020 A 
ATOM     86  C   UNL A   1      35.531  32.790  29.775  1.00  0.00     0.054 A 
BRANCH  86  87
ATOM     87  S   UNL A   1      34.403  34.189  29.489  1.00  0.00     0.124 S 
ATOM     88  O   UNL A   1      33.205  33.524  28.985  1.00  0.00    -0.237 OA
ATOM     89  O   UNL A   1      34.285  34.780  30.819  1.00  0.00    -0.237 OA
ATOM     90  O   UNL A   1      35.115  35.010  28.512  1.00  0.00    -0.744 OA
ENDBRANCH  86  87
ENDBRANCH  58  81
BRANCH  70  91
ATOM     91  C   UNL A   1      42.454  28.868  33.682  1.00  0.00    -0.014 A 
ATOM     92  C   UNL A   1      41.785  27.639  33.528  1.00  0.00     0.010 A 
ATOM     93  C   UNL A   1      42.908  29.229  34.964  1.00  0.00     0.010 A 
ATOM     94  C   UNL A   1      41.559  26.807  34.636  1.00  0.00     0.020 A 
ATOM     95  C   UNL A   1      42.707  28.398  36.064  1.00  0.00     0.020 A 
ATOM     96  C   UNL A   1      42.024  27.194  35.899  1.00  0.00     0.054 A 
BRANCH  96  97
ATOM     97  S   UNL A   1      41.770  26.102  37.327  1.00  0.00     0.124 S 
ATOM     98  O   UNL A   1      40.446  26.499  37.798  1.00  0.00    -0.237 OA
ATOM     99  O   UNL A   1      41.856  24.769  36.736  1.00  0.00    -0.237 OA
ATOM    100  O   UNL A   1      42.873  26.443  38.226  1.00  0.00    -0.744 OA
ENDBRANCH  96  97
ENDBRANCH  70  91
ENDBRANCH  44  45
ENDBRANCH  36  39
ENDBRANCH  34  35
ENDBRANCH   1  34
TORSDOF 18
ENDMDL
