MODEL 1
REMARK VINA RESULT:     -11.1      0.000      0.000
REMARK SMILES O=C(NCCCNC(=O)[C@@H]1CCCN(C(=O)/C=C/c2c(F)cccc2Cl)C1)c1ccc(-c2c3nc(c(-c4ccc(S(=O)(=O)[O-])cc4)c4ccc([nH]4)c(-c4ccc(S(=O)(=O)[O-])cc4)c4nc(c(-c5ccc(S(=O)(=O)[O-])cc5)c5ccc2[nH]5)C=C4)C=C3)cc1
REMARK SMILES IDX 5 1 4 2 3 3 1 4 2 5 28 7 29 8 87 9 30 10 86 11 31 12 32 13
REMARK SMILES IDX 33 14 80 15 34 16 85 17 79 18 81 19 35 20 84 21 78 22 77 23
REMARK SMILES IDX 36 25 66 26 47 27 65 28 48 29 51 30 64 31 82 32 49 33 50 34
REMARK SMILES IDX 63 36 83 37 52 38 37 39 38 40 46 41 39 42 45 43 40 44 41 45
REMARK SMILES IDX 42 46 43 47 44 48 67 49 68 50 76 51 69 52 75 53 70 54 71 55
REMARK SMILES IDX 72 56 73 57 74 58 53 59 54 60 62 61 55 62 61 63 56 64 57 65
REMARK SMILES IDX 58 66 59 67 60 68 6 69 7 70 8 71 9 73 10 74 11 75 27 76
REMARK SMILES IDX 12 77 14 78 13 79 15 80 16 81 17 82 18 83 19 84 20 85 25 86
REMARK SMILES IDX 21 87 22 88 24 89 26 90 23 91
REMARK H PARENT 3 6 81 24 51 35 7 72
REMARK Flexibility Score: inf
ROOT
ATOM      1  C   UNL A   1      35.205  23.286  26.075  1.00  0.00     0.042 C 
ENDROOT
BRANCH   1   2
ATOM      2  C   UNL A   1      36.567  23.889  25.767  1.00  0.00     0.118 C 
BRANCH   2   3
ATOM      3  N   UNL A   1      37.644  22.924  25.917  1.00  0.00    -0.352 N 
ATOM      4  O   UNL A   1      39.755  22.201  26.176  1.00  0.00    -0.269 OA
ATOM      5  C   UNL A   1      38.936  23.098  26.355  1.00  0.00     0.251 C 
ATOM      6  H   UNL A   1      37.412  22.001  25.663  1.00  0.00     0.163 HD
BRANCH   5   7
ATOM      7  C   UNL A   1      39.353  24.357  27.019  1.00  0.00     0.039 A 
ATOM      8  C   UNL A   1      39.089  24.585  28.371  1.00  0.00     0.014 A 
ATOM      9  C   UNL A   1      40.084  25.303  26.293  1.00  0.00     0.014 A 
ATOM     10  C   UNL A   1      39.413  25.805  28.951  1.00  0.00     0.010 A 
ATOM     11  C   UNL A   1      40.513  26.484  26.911  1.00  0.00     0.010 A 
ATOM     12  C   UNL A   1      40.165  26.754  28.242  1.00  0.00    -0.014 A 
BRANCH  12  13
ATOM     13  C   UNL A   1      40.665  27.960  28.953  1.00  0.00     0.031 A 
ATOM     14  C   UNL A   1      42.076  28.045  29.466  1.00  0.00     0.074 A 
ATOM     15  C   UNL A   1      39.820  28.997  29.126  1.00  0.00     0.049 A 
ATOM     16  N   UNL A   1      42.661  29.034  30.094  1.00  0.00    -0.248 NA
ATOM     17  C   UNL A   1      42.940  26.874  29.256  1.00  0.00     0.031 C 
ATOM     18  C   UNL A   1      38.420  29.026  28.688  1.00  0.00     0.029 A 
ATOM     19  N   UNL A   1      40.009  30.232  29.694  1.00  0.00    -0.354 N 
ATOM     20  C   UNL A   1      43.950  28.598  30.378  1.00  0.00     0.074 A 
ATOM     21  C   UNL A   1      44.057  27.247  29.869  1.00  0.00     0.031 C 
ATOM     22  C   UNL A   1      37.896  30.230  28.957  1.00  0.00     0.029 A 
ATOM     23  C   UNL A   1      38.893  31.033  29.653  1.00  0.00     0.049 A 
ATOM     24  H   UNL A   1      40.863  30.516  30.094  1.00  0.00     0.167 HD
ATOM     25  C   UNL A   1      44.950  29.265  31.006  1.00  0.00     0.031 A 
ATOM     26  C   UNL A   1      38.676  32.269  30.141  1.00  0.00     0.031 A 
ATOM     27  C   UNL A   1      44.832  30.608  31.514  1.00  0.00     0.049 A 
ATOM     28  C   UNL A   1      39.792  32.973  30.852  1.00  0.00     0.074 A 
ATOM     29  C   UNL A   1      45.801  31.383  32.128  1.00  0.00     0.029 A 
ATOM     30  N   UNL A   1      43.675  31.374  31.478  1.00  0.00    -0.354 N 
ATOM     31  N   UNL A   1      41.018  32.558  31.069  1.00  0.00    -0.248 NA
ATOM     32  C   UNL A   1      39.500  34.310  31.383  1.00  0.00     0.031 C 
ATOM     33  C   UNL A   1      45.215  32.593  32.516  1.00  0.00     0.029 A 
ATOM     34  C   UNL A   1      43.899  32.600  32.084  1.00  0.00     0.049 A 
ATOM     35  H   UNL A   1      42.821  31.088  31.081  1.00  0.00     0.167 HD
ATOM     36  C   UNL A   1      41.648  33.591  31.751  1.00  0.00     0.074 A 
ATOM     37  C   UNL A   1      40.677  34.657  31.886  1.00  0.00     0.031 C 
ATOM     38  C   UNL A   1      42.919  33.649  32.221  1.00  0.00     0.031 A 
BRANCH  25  39
ATOM     39  C   UNL A   1      46.257  28.542  31.211  1.00  0.00    -0.014 A 
ATOM     40  C   UNL A   1      46.478  27.734  32.341  1.00  0.00     0.010 A 
ATOM     41  C   UNL A   1      47.260  28.624  30.226  1.00  0.00     0.010 A 
ATOM     42  C   UNL A   1      47.689  27.054  32.500  1.00  0.00     0.020 A 
ATOM     43  C   UNL A   1      48.461  27.924  30.367  1.00  0.00     0.020 A 
ATOM     44  C   UNL A   1      48.675  27.155  31.513  1.00  0.00     0.054 A 
BRANCH  44  45
ATOM     45  S   UNL A   1      50.227  26.242  31.735  1.00  0.00     0.124 S 
ATOM     46  O   UNL A   1      50.680  26.735  33.034  1.00  0.00    -0.237 OA
ATOM     47  O   UNL A   1      49.784  24.850  31.712  1.00  0.00    -0.237 OA
ATOM     48  O   UNL A   1      51.040  26.654  30.595  1.00  0.00    -0.744 OA
ENDBRANCH  44  45
ENDBRANCH  25  39
BRANCH  26  49
ATOM     49  C   UNL A   1      37.335  32.896  29.985  1.00  0.00    -0.014 A 
ATOM     50  C   UNL A   1      36.370  32.788  31.000  1.00  0.00     0.010 A 
ATOM     51  C   UNL A   1      37.035  33.641  28.830  1.00  0.00     0.010 A 
ATOM     52  C   UNL A   1      35.125  33.407  30.859  1.00  0.00     0.020 A 
ATOM     53  C   UNL A   1      35.804  34.289  28.699  1.00  0.00     0.020 A 
ATOM     54  C   UNL A   1      34.853  34.158  29.710  1.00  0.00     0.054 A 
BRANCH  54  55
ATOM     55  S   UNL A   1      33.253  35.004  29.577  1.00  0.00     0.124 S 
ATOM     56  O   UNL A   1      33.640  36.296  29.021  1.00  0.00    -0.237 OA
ATOM     57  O   UNL A   1      32.506  34.126  28.681  1.00  0.00    -0.237 OA
ATOM     58  O   UNL A   1      32.768  35.034  30.956  1.00  0.00    -0.744 OA
ENDBRANCH  54  55
ENDBRANCH  26  49
BRANCH  38  59
ATOM     59  C   UNL A   1      43.340  34.923  32.902  1.00  0.00    -0.014 A 
ATOM     60  C   UNL A   1      43.235  35.075  34.297  1.00  0.00     0.010 A 
ATOM     61  C   UNL A   1      43.888  35.969  32.137  1.00  0.00     0.010 A 
ATOM     62  C   UNL A   1      43.639  36.264  34.909  1.00  0.00     0.020 A 
ATOM     63  C   UNL A   1      44.320  37.148  32.749  1.00  0.00     0.020 A 
ATOM     64  C   UNL A   1      44.178  37.293  34.131  1.00  0.00     0.054 A 
BRANCH  64  65
ATOM     65  S   UNL A   1      44.731  38.812  34.953  1.00  0.00     0.124 S 
ATOM     66  O   UNL A   1      44.242  38.615  36.315  1.00  0.00    -0.237 OA
ATOM     67  O   UNL A   1      46.183  38.753  34.791  1.00  0.00    -0.237 OA
ATOM     68  O   UNL A   1      44.070  39.874  34.199  1.00  0.00    -0.744 OA
ENDBRANCH  64  65
ENDBRANCH  38  59
ENDBRANCH  12  13
ENDBRANCH   5   7
ENDBRANCH   2   3
ENDBRANCH   1   2
BRANCH   1  69
ATOM     69  C   UNL A   1      34.115  23.651  25.076  1.00  0.00     0.117 C 
BRANCH  69  70
ATOM     70  N   UNL A   1      34.271  24.974  24.507  1.00  0.00    -0.356 N 
ATOM     71  C   UNL A   1      33.494  25.801  23.779  1.00  0.00     0.224 C 
ATOM     72  H   UNL A   1      35.155  25.362  24.697  1.00  0.00     0.163 HD
ATOM     73  O   UNL A   1      33.828  26.995  23.845  1.00  0.00    -0.275 OA
BRANCH  71  74
ATOM     74  C   UNL A   1      32.292  25.433  22.907  1.00  0.00     0.098 C 
ATOM     75  C   UNL A   1      31.650  26.372  21.883  1.00  0.00     0.017 C 
ATOM     76  C   UNL A   1      31.203  24.877  23.844  1.00  0.00     0.133 C 
ATOM     77  C   UNL A   1      30.661  27.387  22.468  1.00  0.00     0.022 C 
ATOM     78  N   UNL A   1      30.443  25.974  24.446  1.00  0.00    -0.338 N 
ATOM     79  C   UNL A   1      29.698  26.768  23.476  1.00  0.00     0.120 C 
BRANCH  78  80
ATOM     80  C   UNL A   1      30.510  26.146  25.815  1.00  0.00     0.246 C 
ATOM     81  O   UNL A   1      29.794  25.521  26.600  1.00  0.00    -0.270 OA
BRANCH  80  82
ATOM     82  C   UNL A   1      31.425  27.146  26.422  1.00  0.00     0.072 C 
ATOM     83  C   UNL A   1      31.700  28.362  25.930  1.00  0.00     0.018 C 
BRANCH  83  84
ATOM     84  C   UNL A   1      32.725  29.214  26.552  1.00  0.00     0.029 A 
ATOM     85  C   UNL A   1      33.933  28.639  26.974  1.00  0.00     0.131 A 
ATOM     86  C   UNL A   1      32.544  30.590  26.762  1.00  0.00     0.051 A 
ATOM     87  F   UNL A   1      34.156  27.329  26.780  1.00  0.00    -0.206 F 
ATOM     88  C   UNL A   1      34.929  29.394  27.590  1.00  0.00     0.040 A 
ATOM     89  C   UNL A   1      33.544  31.356  27.376  1.00  0.00     0.021 A 
ATOM     90  Cl  UNL A   1      31.092  31.397  26.278  1.00  0.00    -0.084 Cl
ATOM     91  C   UNL A   1      34.735  30.758  27.791  1.00  0.00     0.005 A 
ENDBRANCH  83  84
ENDBRANCH  80  82
ENDBRANCH  78  80
ENDBRANCH  71  74
ENDBRANCH  69  70
ENDBRANCH   1  69
TORSDOF 16
ENDMDL
MODEL 2
REMARK VINA RESULT:     -11.0      2.909      8.179
REMARK SMILES O=C(NCCCNC(=O)[C@@H]1CCCN(C(=O)/C=C/c2c(F)cccc2Cl)C1)c1ccc(-c2c3nc(c(-c4ccc(S(=O)(=O)[O-])cc4)c4ccc([nH]4)c(-c4ccc(S(=O)(=O)[O-])cc4)c4nc(c(-c5ccc(S(=O)(=O)[O-])cc5)c5ccc2[nH]5)C=C4)C=C3)cc1
REMARK SMILES IDX 5 1 4 2 3 3 1 4 2 5 28 7 29 8 87 9 30 10 86 11 31 12 32 13
REMARK SMILES IDX 33 14 80 15 34 16 85 17 79 18 81 19 35 20 84 21 78 22 77 23
REMARK SMILES IDX 36 25 66 26 47 27 65 28 48 29 51 30 64 31 82 32 49 33 50 34
REMARK SMILES IDX 63 36 83 37 52 38 37 39 38 40 46 41 39 42 45 43 40 44 41 45
REMARK SMILES IDX 42 46 43 47 44 48 67 49 68 50 76 51 69 52 75 53 70 54 71 55
REMARK SMILES IDX 72 56 73 57 74 58 53 59 54 60 62 61 55 62 61 63 56 64 57 65
REMARK SMILES IDX 58 66 59 67 60 68 6 69 7 70 8 71 9 73 10 74 11 75 27 76
REMARK SMILES IDX 12 77 14 78 13 79 15 80 16 81 17 82 18 83 19 84 20 85 25 86
REMARK SMILES IDX 21 87 22 88 24 89 26 90 23 91
REMARK H PARENT 3 6 81 24 51 35 7 72
REMARK Flexibility Score: inf
ROOT
ATOM      1  C   UNL A   1      32.714  27.694  26.129  1.00  0.00     0.042 C 
ENDROOT
BRANCH   1   2
ATOM      2  C   UNL A   1      34.024  28.287  26.625  1.00  0.00     0.118 C 
BRANCH   2   3
ATOM      3  N   UNL A   1      33.858  29.637  27.139  1.00  0.00    -0.352 N 
ATOM      4  O   UNL A   1      34.247  31.411  28.460  1.00  0.00    -0.269 OA
ATOM      5  C   UNL A   1      34.684  30.387  27.942  1.00  0.00     0.251 C 
ATOM      6  H   UNL A   1      33.022  30.083  26.871  1.00  0.00     0.163 HD
BRANCH   5   7
ATOM      7  C   UNL A   1      36.081  29.965  28.205  1.00  0.00     0.039 A 
ATOM      8  C   UNL A   1      37.087  30.156  27.256  1.00  0.00     0.014 A 
ATOM      9  C   UNL A   1      36.410  29.427  29.455  1.00  0.00     0.014 A 
ATOM     10  C   UNL A   1      38.370  29.676  27.489  1.00  0.00     0.010 A 
ATOM     11  C   UNL A   1      37.729  29.051  29.733  1.00  0.00     0.010 A 
ATOM     12  C   UNL A   1      38.719  29.155  28.745  1.00  0.00    -0.014 A 
BRANCH  12  13
ATOM     13  C   UNL A   1      40.143  28.836  29.026  1.00  0.00     0.031 A 
ATOM     14  C   UNL A   1      40.749  27.515  28.637  1.00  0.00     0.074 A 
ATOM     15  C   UNL A   1      40.898  29.771  29.638  1.00  0.00     0.049 A 
ATOM     16  N   UNL A   1      41.978  27.097  28.805  1.00  0.00    -0.248 NA
ATOM     17  C   UNL A   1      39.866  26.537  27.985  1.00  0.00     0.031 C 
ATOM     18  C   UNL A   1      40.418  31.085  30.081  1.00  0.00     0.029 A 
ATOM     19  N   UNL A   1      42.227  29.777  29.980  1.00  0.00    -0.354 N 
ATOM     20  C   UNL A   1      42.012  25.801  28.305  1.00  0.00     0.074 A 
ATOM     21  C   UNL A   1      40.674  25.494  27.843  1.00  0.00     0.031 C 
ATOM     22  C   UNL A   1      41.444  31.784  30.587  1.00  0.00     0.029 A 
ATOM     23  C   UNL A   1      42.636  30.946  30.576  1.00  0.00     0.049 A 
ATOM     24  H   UNL A   1      42.830  29.016  29.816  1.00  0.00     0.167 HD
ATOM     25  C   UNL A   1      43.063  24.946  28.239  1.00  0.00     0.031 A 
ATOM     26  C   UNL A   1      43.830  31.306  31.086  1.00  0.00     0.031 A 
ATOM     27  C   UNL A   1      44.390  25.259  28.706  1.00  0.00     0.049 A 
ATOM     28  C   UNL A   1      44.968  30.333  31.021  1.00  0.00     0.074 A 
ATOM     29  C   UNL A   1      45.530  24.476  28.646  1.00  0.00     0.029 A 
ATOM     30  N   UNL A   1      44.755  26.444  29.330  1.00  0.00    -0.354 N 
ATOM     31  N   UNL A   1      44.989  29.128  30.501  1.00  0.00    -0.248 NA
ATOM     32  C   UNL A   1      46.243  30.764  31.606  1.00  0.00     0.031 C 
ATOM     33  C   UNL A   1      46.569  25.161  29.283  1.00  0.00     0.029 A 
ATOM     34  C   UNL A   1      46.095  26.400  29.683  1.00  0.00     0.049 A 
ATOM     35  H   UNL A   1      44.152  27.203  29.497  1.00  0.00     0.167 HD
ATOM     36  C   UNL A   1      46.284  28.662  30.686  1.00  0.00     0.074 A 
ATOM     37  C   UNL A   1      47.021  29.724  31.340  1.00  0.00     0.031 C 
ATOM     38  C   UNL A   1      46.814  27.461  30.343  1.00  0.00     0.031 A 
BRANCH  25  39
ATOM     39  C   UNL A   1      42.819  23.573  27.667  1.00  0.00    -0.014 A 
ATOM     40  C   UNL A   1      43.107  23.278  26.322  1.00  0.00     0.010 A 
ATOM     41  C   UNL A   1      42.347  22.544  28.504  1.00  0.00     0.010 A 
ATOM     42  C   UNL A   1      42.895  21.991  25.818  1.00  0.00     0.020 A 
ATOM     43  C   UNL A   1      42.160  21.249  28.011  1.00  0.00     0.020 A 
ATOM     44  C   UNL A   1      42.420  20.985  26.665  1.00  0.00     0.054 A 
BRANCH  44  45
ATOM     45  S   UNL A   1      42.176  19.320  25.988  1.00  0.00     0.124 S 
ATOM     46  O   UNL A   1      40.733  19.299  25.758  1.00  0.00    -0.237 OA
ATOM     47  O   UNL A   1      43.002  19.341  24.783  1.00  0.00    -0.237 OA
ATOM     48  O   UNL A   1      42.649  18.438  27.051  1.00  0.00    -0.744 OA
ENDBRANCH  44  45
ENDBRANCH  25  39
BRANCH  26  49
ATOM     49  C   UNL A   1      43.986  32.644  31.717  1.00  0.00    -0.014 A 
ATOM     50  C   UNL A   1      44.421  33.746  30.963  1.00  0.00     0.010 A 
ATOM     51  C   UNL A   1      43.659  32.827  33.074  1.00  0.00     0.010 A 
ATOM     52  C   UNL A   1      44.535  35.007  31.557  1.00  0.00     0.020 A 
ATOM     53  C   UNL A   1      43.739  34.091  33.663  1.00  0.00     0.020 A 
ATOM     54  C   UNL A   1      44.187  35.172  32.902  1.00  0.00     0.054 A 
BRANCH  54  55
ATOM     55  S   UNL A   1      44.283  36.829  33.634  1.00  0.00     0.124 S 
ATOM     56  O   UNL A   1      44.832  37.614  32.534  1.00  0.00    -0.237 OA
ATOM     57  O   UNL A   1      42.889  37.103  33.974  1.00  0.00    -0.237 OA
ATOM     58  O   UNL A   1      45.172  36.645  34.780  1.00  0.00    -0.744 OA
ENDBRANCH  54  55
ENDBRANCH  26  49
BRANCH  38  59
ATOM     59  C   UNL A   1      48.272  27.245  30.645  1.00  0.00    -0.014 A 
ATOM     60  C   UNL A   1      48.686  26.592  31.820  1.00  0.00     0.010 A 
ATOM     61  C   UNL A   1      49.241  27.665  29.715  1.00  0.00     0.010 A 
ATOM     62  C   UNL A   1      50.045  26.395  32.077  1.00  0.00     0.020 A 
ATOM     63  C   UNL A   1      50.599  27.443  29.954  1.00  0.00     0.020 A 
ATOM     64  C   UNL A   1      50.993  26.822  31.142  1.00  0.00     0.054 A 
BRANCH  64  65
ATOM     65  S   UNL A   1      52.749  26.520  31.478  1.00  0.00     0.124 S 
ATOM     66  O   UNL A   1      52.696  25.334  32.327  1.00  0.00    -0.237 OA
ATOM     67  O   UNL A   1      53.300  26.312  30.141  1.00  0.00    -0.237 OA
ATOM     68  O   UNL A   1      53.190  27.745  32.143  1.00  0.00    -0.744 OA
ENDBRANCH  64  65
ENDBRANCH  38  59
ENDBRANCH  12  13
ENDBRANCH   5   7
ENDBRANCH   2   3
ENDBRANCH   1   2
BRANCH   1  69
ATOM     69  C   UNL A   1      32.415  27.968  24.661  1.00  0.00     0.117 C 
BRANCH  69  70
ATOM     70  N   UNL A   1      32.688  26.839  23.794  1.00  0.00    -0.356 N 
ATOM     71  C   UNL A   1      31.977  25.788  23.338  1.00  0.00     0.224 C 
ATOM     72  H   UNL A   1      33.613  26.840  23.457  1.00  0.00     0.163 HD
ATOM     73  O   UNL A   1      32.434  25.283  22.300  1.00  0.00    -0.275 OA
BRANCH  71  74
ATOM     74  C   UNL A   1      30.718  25.172  23.949  1.00  0.00     0.098 C 
ATOM     75  C   UNL A   1      30.412  25.144  25.449  1.00  0.00     0.017 C 
ATOM     76  C   UNL A   1      30.580  23.750  23.372  1.00  0.00     0.133 C 
ATOM     77  C   UNL A   1      31.099  24.015  26.227  1.00  0.00     0.022 C 
ATOM     78  N   UNL A   1      31.416  22.813  24.125  1.00  0.00    -0.338 N 
ATOM     79  C   UNL A   1      31.014  22.665  25.520  1.00  0.00     0.120 C 
BRANCH  78  80
ATOM     80  C   UNL A   1      32.463  22.194  23.471  1.00  0.00     0.246 C 
ATOM     81  O   UNL A   1      32.291  21.380  22.562  1.00  0.00    -0.270 OA
BRANCH  80  82
ATOM     82  C   UNL A   1      33.873  22.440  23.869  1.00  0.00     0.072 C 
ATOM     83  C   UNL A   1      34.511  21.871  24.900  1.00  0.00     0.018 C 
BRANCH  83  84
ATOM     84  C   UNL A   1      35.869  22.294  25.274  1.00  0.00     0.029 A 
ATOM     85  C   UNL A   1      36.907  21.350  25.271  1.00  0.00     0.131 A 
ATOM     86  C   UNL A   1      36.178  23.609  25.655  1.00  0.00     0.051 A 
ATOM     87  F   UNL A   1      36.661  20.083  24.900  1.00  0.00    -0.206 F 
ATOM     88  C   UNL A   1      38.207  21.690  25.639  1.00  0.00     0.040 A 
ATOM     89  C   UNL A   1      37.485  23.959  26.021  1.00  0.00     0.021 A 
ATOM     90  Cl  UNL A   1      34.972  24.849  25.691  1.00  0.00    -0.084 Cl
ATOM     91  C   UNL A   1      38.498  22.999  26.015  1.00  0.00     0.005 A 
ENDBRANCH  83  84
ENDBRANCH  80  82
ENDBRANCH  78  80
ENDBRANCH  71  74
ENDBRANCH  69  70
ENDBRANCH   1  69
TORSDOF 16
ENDMDL
MODEL 3
REMARK VINA RESULT:     -11.0      1.179      1.594
REMARK SMILES O=C(NCCCNC(=O)[C@@H]1CCCN(C(=O)/C=C/c2c(F)cccc2Cl)C1)c1ccc(-c2c3nc(c(-c4ccc(S(=O)(=O)[O-])cc4)c4ccc([nH]4)c(-c4ccc(S(=O)(=O)[O-])cc4)c4nc(c(-c5ccc(S(=O)(=O)[O-])cc5)c5ccc2[nH]5)C=C4)C=C3)cc1
REMARK SMILES IDX 5 1 4 2 3 3 1 4 2 5 28 7 29 8 87 9 30 10 86 11 31 12 32 13
REMARK SMILES IDX 33 14 80 15 34 16 85 17 79 18 81 19 35 20 84 21 78 22 77 23
REMARK SMILES IDX 36 25 66 26 47 27 65 28 48 29 51 30 64 31 82 32 49 33 50 34
REMARK SMILES IDX 63 36 83 37 52 38 37 39 38 40 46 41 39 42 45 43 40 44 41 45
REMARK SMILES IDX 42 46 43 47 44 48 67 49 68 50 76 51 69 52 75 53 70 54 71 55
REMARK SMILES IDX 72 56 73 57 74 58 53 59 54 60 62 61 55 62 61 63 56 64 57 65
REMARK SMILES IDX 58 66 59 67 60 68 6 69 7 70 8 71 9 73 10 74 11 75 27 76
REMARK SMILES IDX 12 77 14 78 13 79 15 80 16 81 17 82 18 83 19 84 20 85 25 86
REMARK SMILES IDX 21 87 22 88 24 89 26 90 23 91
REMARK H PARENT 3 6 81 24 51 35 7 72
REMARK Flexibility Score: inf
ROOT
ATOM      1  C   UNL A   1      35.388  23.313  24.855  1.00  0.00     0.042 C 
ENDROOT
BRANCH   1   2
ATOM      2  C   UNL A   1      36.376  23.640  25.964  1.00  0.00     0.118 C 
BRANCH   2   3
ATOM      3  N   UNL A   1      37.512  22.732  25.976  1.00  0.00    -0.352 N 
ATOM      4  O   UNL A   1      39.673  22.121  25.997  1.00  0.00    -0.269 OA
ATOM      5  C   UNL A   1      38.831  22.968  26.285  1.00  0.00     0.251 C 
ATOM      6  H   UNL A   1      37.304  21.804  25.723  1.00  0.00     0.163 HD
BRANCH   5   7
ATOM      7  C   UNL A   1      39.248  24.233  26.936  1.00  0.00     0.039 A 
ATOM      8  C   UNL A   1      38.984  24.475  28.285  1.00  0.00     0.014 A 
ATOM      9  C   UNL A   1      39.981  25.171  26.201  1.00  0.00     0.014 A 
ATOM     10  C   UNL A   1      39.307  25.701  28.852  1.00  0.00     0.010 A 
ATOM     11  C   UNL A   1      40.410  26.358  26.806  1.00  0.00     0.010 A 
ATOM     12  C   UNL A   1      40.060  26.643  28.134  1.00  0.00    -0.014 A 
BRANCH  12  13
ATOM     13  C   UNL A   1      40.560  27.855  28.834  1.00  0.00     0.031 A 
ATOM     14  C   UNL A   1      41.964  27.936  29.368  1.00  0.00     0.074 A 
ATOM     15  C   UNL A   1      39.723  28.903  28.974  1.00  0.00     0.049 A 
ATOM     16  N   UNL A   1      42.548  28.929  29.989  1.00  0.00    -0.248 NA
ATOM     17  C   UNL A   1      42.820  26.753  29.193  1.00  0.00     0.031 C 
ATOM     18  C   UNL A   1      38.331  28.938  28.513  1.00  0.00     0.029 A 
ATOM     19  N   UNL A   1      39.915  30.145  29.525  1.00  0.00    -0.354 N 
ATOM     20  C   UNL A   1      43.827  28.486  30.302  1.00  0.00     0.074 A 
ATOM     21  C   UNL A   1      43.929  27.125  29.817  1.00  0.00     0.031 C 
ATOM     22  C   UNL A   1      37.814  30.151  28.752  1.00  0.00     0.029 A 
ATOM     23  C   UNL A   1      38.807  30.956  29.452  1.00  0.00     0.049 A 
ATOM     24  H   UNL A   1      40.765  30.428  29.934  1.00  0.00     0.167 HD
ATOM     25  C   UNL A   1      44.824  29.153  30.936  1.00  0.00     0.031 A 
ATOM     26  C   UNL A   1      38.595  32.202  29.916  1.00  0.00     0.031 A 
ATOM     27  C   UNL A   1      44.710  30.506  31.419  1.00  0.00     0.049 A 
ATOM     28  C   UNL A   1      39.706  32.908  30.633  1.00  0.00     0.074 A 
ATOM     29  C   UNL A   1      45.676  31.282  32.037  1.00  0.00     0.029 A 
ATOM     30  N   UNL A   1      43.562  31.282  31.351  1.00  0.00    -0.354 N 
ATOM     31  N   UNL A   1      40.923  32.485  30.877  1.00  0.00    -0.248 NA
ATOM     32  C   UNL A   1      39.418  34.256  31.136  1.00  0.00     0.031 C 
ATOM     33  C   UNL A   1      45.097  32.504  32.394  1.00  0.00     0.029 A 
ATOM     34  C   UNL A   1      43.787  32.516  31.940  1.00  0.00     0.049 A 
ATOM     35  H   UNL A   1      42.711  30.998  30.945  1.00  0.00     0.167 HD
ATOM     36  C   UNL A   1      41.553  33.523  31.552  1.00  0.00     0.074 A 
ATOM     37  C   UNL A   1      40.590  34.601  31.654  1.00  0.00     0.031 C 
ATOM     38  C   UNL A   1      42.817  33.577  32.042  1.00  0.00     0.031 A 
BRANCH  25  39
ATOM     39  C   UNL A   1      46.120  28.422  31.174  1.00  0.00    -0.014 A 
ATOM     40  C   UNL A   1      46.316  27.637  32.325  1.00  0.00     0.010 A 
ATOM     41  C   UNL A   1      47.137  28.472  30.203  1.00  0.00     0.010 A 
ATOM     42  C   UNL A   1      47.518  26.947  32.516  1.00  0.00     0.020 A 
ATOM     43  C   UNL A   1      48.329  27.762  30.376  1.00  0.00     0.020 A 
ATOM     44  C   UNL A   1      48.518  27.016  31.541  1.00  0.00     0.054 A 
BRANCH  44  45
ATOM     45  S   UNL A   1      50.057  26.093  31.805  1.00  0.00     0.124 S 
ATOM     46  O   UNL A   1      50.990  27.160  32.156  1.00  0.00    -0.237 OA
ATOM     47  O   UNL A   1      49.702  25.186  32.894  1.00  0.00    -0.237 OA
ATOM     48  O   UNL A   1      50.303  25.450  30.517  1.00  0.00    -0.744 OA
ENDBRANCH  44  45
ENDBRANCH  25  39
BRANCH  26  49
ATOM     49  C   UNL A   1      37.263  32.840  29.726  1.00  0.00    -0.014 A 
ATOM     50  C   UNL A   1      36.299  32.802  30.747  1.00  0.00     0.010 A 
ATOM     51  C   UNL A   1      36.972  33.524  28.532  1.00  0.00     0.010 A 
ATOM     52  C   UNL A   1      35.063  33.431  30.573  1.00  0.00     0.020 A 
ATOM     53  C   UNL A   1      35.750  34.182  28.366  1.00  0.00     0.020 A 
ATOM     54  C   UNL A   1      34.799  34.121  29.385  1.00  0.00     0.054 A 
BRANCH  54  55
ATOM     55  S   UNL A   1      33.212  34.983  29.207  1.00  0.00     0.124 S 
ATOM     56  O   UNL A   1      32.685  34.928  30.566  1.00  0.00    -0.237 OA
ATOM     57  O   UNL A   1      33.622  36.304  28.738  1.00  0.00    -0.237 OA
ATOM     58  O   UNL A   1      32.495  34.175  28.222  1.00  0.00    -0.744 OA
ENDBRANCH  54  55
ENDBRANCH  26  49
BRANCH  38  59
ATOM     59  C   UNL A   1      43.238  34.858  32.710  1.00  0.00    -0.014 A 
ATOM     60  C   UNL A   1      43.974  35.836  32.016  1.00  0.00     0.010 A 
ATOM     61  C   UNL A   1      42.854  35.104  34.041  1.00  0.00     0.010 A 
ATOM     62  C   UNL A   1      44.348  37.021  32.654  1.00  0.00     0.020 A 
ATOM     63  C   UNL A   1      43.201  36.300  34.672  1.00  0.00     0.020 A 
ATOM     64  C   UNL A   1      43.960  37.245  33.979  1.00  0.00     0.054 A 
BRANCH  64  65
ATOM     65  S   UNL A   1      44.424  38.808  34.773  1.00  0.00     0.124 S 
ATOM     66  O   UNL A   1      44.199  38.510  36.184  1.00  0.00    -0.237 OA
ATOM     67  O   UNL A   1      45.821  38.966  34.377  1.00  0.00    -0.237 OA
ATOM     68  O   UNL A   1      43.503  39.781  34.186  1.00  0.00    -0.744 OA
ENDBRANCH  64  65
ENDBRANCH  38  59
ENDBRANCH  12  13
ENDBRANCH   5   7
ENDBRANCH   2   3
ENDBRANCH   1   2
BRANCH   1  69
ATOM     69  C   UNL A   1      34.265  22.371  25.269  1.00  0.00     0.117 C 
BRANCH  69  70
ATOM     70  N   UNL A   1      33.027  23.052  25.590  1.00  0.00    -0.356 N 
ATOM     71  C   UNL A   1      31.878  23.308  24.933  1.00  0.00     0.224 C 
ATOM     72  H   UNL A   1      33.024  23.414  26.505  1.00  0.00     0.163 HD
ATOM     73  O   UNL A   1      30.914  23.546  25.679  1.00  0.00    -0.275 OA
BRANCH  71  74
ATOM     74  C   UNL A   1      31.649  23.341  23.422  1.00  0.00     0.098 C 
ATOM     75  C   UNL A   1      32.727  23.695  22.394  1.00  0.00     0.017 C 
ATOM     76  C   UNL A   1      30.398  24.204  23.169  1.00  0.00     0.133 C 
ATOM     77  C   UNL A   1      32.956  25.198  22.190  1.00  0.00     0.022 C 
ATOM     78  N   UNL A   1      30.755  25.624  23.156  1.00  0.00    -0.338 N 
ATOM     79  C   UNL A   1      31.657  25.989  22.069  1.00  0.00     0.120 C 
BRANCH  78  80
ATOM     80  C   UNL A   1      30.231  26.443  24.138  1.00  0.00     0.246 C 
ATOM     81  O   UNL A   1      29.021  26.638  24.265  1.00  0.00    -0.270 OA
BRANCH  80  82
ATOM     82  C   UNL A   1      31.114  27.183  25.074  1.00  0.00     0.072 C 
ATOM     83  C   UNL A   1      31.567  28.433  24.908  1.00  0.00     0.018 C 
BRANCH  83  84
ATOM     84  C   UNL A   1      32.543  29.014  25.843  1.00  0.00     0.029 A 
ATOM     85  C   UNL A   1      32.343  30.316  26.323  1.00  0.00     0.131 A 
ATOM     86  C   UNL A   1      33.688  28.324  26.271  1.00  0.00     0.051 A 
ATOM     87  F   UNL A   1      31.254  31.009  25.952  1.00  0.00    -0.206 F 
ATOM     88  C   UNL A   1      33.248  30.924  27.191  1.00  0.00     0.040 A 
ATOM     89  C   UNL A   1      34.599  28.928  27.149  1.00  0.00     0.021 A 
ATOM     90  Cl  UNL A   1      34.027  26.713  25.741  1.00  0.00    -0.084 Cl
ATOM     91  C   UNL A   1      34.379  30.228  27.607  1.00  0.00     0.005 A 
ENDBRANCH  83  84
ENDBRANCH  80  82
ENDBRANCH  78  80
ENDBRANCH  71  74
ENDBRANCH  69  70
ENDBRANCH   1  69
TORSDOF 16
ENDMDL
