MODEL 1
REMARK VINA RESULT:     -12.5      0.000      0.000
REMARK SMILES Cc1cccc([C@@H](CC(=O)NCCCNC(=O)c2ccc(-c3c4nc(c(-c5ccc(S(=O)(=O)[O-])cc5)c5ccc([nH]5)c(-c5ccc(S(=O)(=O)[O-])cc5)c5nc(c(-c6ccc(S(=O)(=O)[O-])cc6)c6ccc3[nH]6)C=C5)C=C4)cc2)NC(=O)OC(C)(C)C)c1
REMARK SMILES IDX 12 1 11 2 9 3 10 4 8 6 7 7 6 8 1 9 2 10 3 11 86 12 4 13 5 14
REMARK SMILES IDX 78 15 79 16 80 18 81 19 82 20 83 21 84 22 85 23 13 24 14 25
REMARK SMILES IDX 15 26 16 27 17 29 18 30 19 31 77 32 20 33 76 34 21 35 22 36
REMARK SMILES IDX 23 37 70 38 24 39 75 40 69 41 71 42 25 43 74 44 68 45 67 46
REMARK SMILES IDX 26 48 56 49 37 50 55 51 38 52 41 53 54 54 72 55 39 56 40 57
REMARK SMILES IDX 53 59 73 60 42 61 27 62 28 63 36 64 29 65 35 66 30 67 31 68
REMARK SMILES IDX 32 69 33 70 34 71 57 72 58 73 66 74 59 75 65 76 60 77 61 78
REMARK SMILES IDX 62 79 63 80 64 81 43 82 44 83 52 84 45 85 51 86 46 87 47 88
REMARK SMILES IDX 48 89 49 90 50 91
REMARK H PARENT 11 5 78 17 15 28 71 47 41 58
REMARK Flexibility Score: inf
ROOT
ATOM      1  C   UNL A   1      32.597  30.315  26.367  1.00  0.00     0.117 C 
ENDROOT
BRANCH   1   2
ATOM      2  N   UNL A   1      31.937  29.240  27.095  1.00  0.00    -0.356 N 
ATOM      3  C   UNL A   1      32.166  27.899  26.998  1.00  0.00     0.222 C 
ATOM      4  O   UNL A   1      31.301  27.129  27.422  1.00  0.00    -0.275 OA
ATOM      5  H   UNL A   1      31.240  29.515  27.734  1.00  0.00     0.163 HD
BRANCH   3   6
ATOM      6  C   UNL A   1      33.479  27.369  26.449  1.00  0.00     0.130 C 
BRANCH   6   7
ATOM      7  C   UNL A   1      33.388  26.301  25.340  1.00  0.00     0.125 C 
BRANCH   7   8
ATOM      8  C   UNL A   1      33.860  24.905  25.742  1.00  0.00    -0.025 A 
ATOM      9  C   UNL A   1      37.058  22.807  25.499  1.00  0.00     0.044 C 
ATOM     10  C   UNL A   1      35.644  23.219  25.780  1.00  0.00    -0.051 A 
ATOM     11  C   UNL A   1      34.738  22.280  26.283  1.00  0.00     0.003 A 
ATOM     12  C   UNL A   1      35.191  24.517  25.487  1.00  0.00     0.009 A 
ATOM     13  C   UNL A   1      33.436  22.662  26.593  1.00  0.00     0.001 A 
ATOM     14  C   UNL A   1      33.007  23.971  26.353  1.00  0.00     0.006 A 
ENDBRANCH   7   8
BRANCH   7  15
ATOM     15  N   UNL A   1      33.981  26.740  24.089  1.00  0.00    -0.314 N 
ATOM     16  C   UNL A   1      33.412  27.545  23.150  1.00  0.00     0.408 C 
ATOM     17  H   UNL A   1      34.892  26.422  23.901  1.00  0.00     0.167 HD
ATOM     18  O   UNL A   1      33.930  27.726  22.068  1.00  0.00    -0.225 OA
BRANCH  16  19
ATOM     19  O   UNL A   1      32.258  28.111  23.587  1.00  0.00    -0.444 OA
BRANCH  19  20
ATOM     20  C   UNL A   1      30.992  27.733  23.000  1.00  0.00     0.106 C 
ATOM     21  C   UNL A   1      31.156  26.606  21.973  1.00  0.00     0.056 C 
ATOM     22  C   UNL A   1      29.974  27.385  24.089  1.00  0.00     0.056 C 
ATOM     23  C   UNL A   1      30.516  28.993  22.261  1.00  0.00     0.056 C 
ENDBRANCH  19  20
ENDBRANCH  16  19
ENDBRANCH   7  15
ENDBRANCH   6   7
ENDBRANCH   3   6
ENDBRANCH   1   2
BRANCH   1  24
ATOM     24  C   UNL A   1      33.563  31.027  27.291  1.00  0.00     0.042 C 
BRANCH  24  25
ATOM     25  C   UNL A   1      34.771  30.224  27.740  1.00  0.00     0.118 C 
BRANCH  25  26
ATOM     26  N   UNL A   1      35.905  31.131  27.903  1.00  0.00    -0.352 N 
ATOM     27  C   UNL A   1      37.159  30.920  28.435  1.00  0.00     0.251 C 
ATOM     28  H   UNL A   1      35.747  32.047  27.577  1.00  0.00     0.163 HD
ATOM     29  O   UNL A   1      37.848  31.787  28.955  1.00  0.00    -0.269 OA
BRANCH  27  30
ATOM     30  C   UNL A   1      37.705  29.573  28.232  1.00  0.00     0.039 A 
ATOM     31  C   UNL A   1      37.660  28.753  29.372  1.00  0.00     0.014 A 
ATOM     32  C   UNL A   1      38.676  29.443  27.249  1.00  0.00     0.014 A 
ATOM     33  C   UNL A   1      38.770  27.997  29.689  1.00  0.00     0.010 A 
ATOM     34  C   UNL A   1      39.813  28.768  27.611  1.00  0.00     0.010 A 
ATOM     35  C   UNL A   1      39.874  28.128  28.863  1.00  0.00    -0.014 A 
BRANCH  35  36
ATOM     36  C   UNL A   1      41.181  27.609  29.183  1.00  0.00     0.031 A 
ATOM     37  C   UNL A   1      41.413  26.212  28.806  1.00  0.00     0.074 A 
ATOM     38  C   UNL A   1      42.140  28.464  29.599  1.00  0.00     0.049 A 
ATOM     39  N   UNL A   1      42.388  25.504  29.233  1.00  0.00    -0.248 NA
ATOM     40  C   UNL A   1      40.498  25.465  27.938  1.00  0.00     0.031 C 
ATOM     41  C   UNL A   1      43.587  28.283  29.602  1.00  0.00     0.029 A 
ATOM     42  N   UNL A   1      41.951  29.651  30.307  1.00  0.00    -0.354 N 
ATOM     43  C   UNL A   1      42.447  24.391  28.426  1.00  0.00     0.074 A 
ATOM     44  C   UNL A   1      41.183  24.336  27.743  1.00  0.00     0.031 C 
ATOM     45  C   UNL A   1      44.133  29.150  30.475  1.00  0.00     0.029 A 
ATOM     46  C   UNL A   1      43.041  29.799  31.185  1.00  0.00     0.049 A 
ATOM     47  H   UNL A   1      41.192  30.271  30.210  1.00  0.00     0.167 HD
ATOM     48  C   UNL A   1      43.645  23.762  28.309  1.00  0.00     0.031 A 
ATOM     49  C   UNL A   1      42.820  29.697  32.532  1.00  0.00     0.031 A 
ATOM     50  C   UNL A   1      44.610  24.336  29.251  1.00  0.00     0.049 A 
ATOM     51  C   UNL A   1      43.394  28.420  33.133  1.00  0.00     0.074 A 
ATOM     52  C   UNL A   1      45.650  25.240  29.128  1.00  0.00     0.029 A 
ATOM     53  N   UNL A   1      44.296  24.293  30.599  1.00  0.00    -0.354 N 
ATOM     54  N   UNL A   1      43.886  27.436  32.429  1.00  0.00    -0.248 NA
ATOM     55  C   UNL A   1      43.430  28.132  34.566  1.00  0.00     0.031 C 
ATOM     56  C   UNL A   1      45.920  25.772  30.427  1.00  0.00     0.029 A 
ATOM     57  C   UNL A   1      45.072  25.165  31.335  1.00  0.00     0.049 A 
ATOM     58  H   UNL A   1      43.603  23.712  30.986  1.00  0.00     0.167 HD
ATOM     59  C   UNL A   1      44.284  26.414  33.249  1.00  0.00     0.074 A 
ATOM     60  C   UNL A   1      43.947  26.888  34.582  1.00  0.00     0.031 C 
ATOM     61  C   UNL A   1      44.843  25.260  32.771  1.00  0.00     0.031 A 
BRANCH  48  62
ATOM     62  C   UNL A   1      44.020  22.820  27.195  1.00  0.00    -0.014 A 
ATOM     63  C   UNL A   1      43.098  21.814  26.843  1.00  0.00     0.010 A 
ATOM     64  C   UNL A   1      45.247  22.810  26.502  1.00  0.00     0.010 A 
ATOM     65  C   UNL A   1      43.396  20.831  25.892  1.00  0.00     0.020 A 
ATOM     66  C   UNL A   1      45.562  21.828  25.549  1.00  0.00     0.020 A 
ATOM     67  C   UNL A   1      44.632  20.840  25.255  1.00  0.00     0.054 A 
BRANCH  67  68
ATOM     68  S   UNL A   1      44.989  19.555  24.032  1.00  0.00     0.124 S 
ATOM     69  O   UNL A   1      44.180  18.436  24.510  1.00  0.00    -0.237 OA
ATOM     70  O   UNL A   1      44.538  20.175  22.789  1.00  0.00    -0.237 OA
ATOM     71  O   UNL A   1      46.434  19.363  24.140  1.00  0.00    -0.744 OA
ENDBRANCH  67  68
ENDBRANCH  48  62
BRANCH  49  72
ATOM     72  C   UNL A   1      41.551  30.386  32.942  1.00  0.00    -0.014 A 
ATOM     73  C   UNL A   1      40.423  29.566  33.190  1.00  0.00     0.010 A 
ATOM     74  C   UNL A   1      41.584  31.665  33.525  1.00  0.00     0.010 A 
ATOM     75  C   UNL A   1      39.454  29.937  34.130  1.00  0.00     0.020 A 
ATOM     76  C   UNL A   1      40.605  32.044  34.462  1.00  0.00     0.020 A 
ATOM     77  C   UNL A   1      39.579  31.154  34.798  1.00  0.00     0.054 A 
BRANCH  77  78
ATOM     78  S   UNL A   1      38.498  31.462  36.231  1.00  0.00     0.124 S 
ATOM     79  O   UNL A   1      38.149  30.111  36.654  1.00  0.00    -0.237 OA
ATOM     80  O   UNL A   1      39.379  32.195  37.145  1.00  0.00    -0.237 OA
ATOM     81  O   UNL A   1      37.407  32.249  35.668  1.00  0.00    -0.744 OA
ENDBRANCH  77  78
ENDBRANCH  49  72
BRANCH  61  82
ATOM     82  C   UNL A   1      45.223  24.078  33.629  1.00  0.00    -0.014 A 
ATOM     83  C   UNL A   1      46.545  23.788  33.988  1.00  0.00     0.010 A 
ATOM     84  C   UNL A   1      44.234  23.145  34.026  1.00  0.00     0.010 A 
ATOM     85  C   UNL A   1      46.847  22.675  34.786  1.00  0.00     0.020 A 
ATOM     86  C   UNL A   1      44.525  22.019  34.793  1.00  0.00     0.020 A 
ATOM     87  C   UNL A   1      45.833  21.808  35.197  1.00  0.00     0.054 A 
BRANCH  87  88
ATOM     88  S   UNL A   1      46.242  20.382  36.227  1.00  0.00     0.124 S 
ATOM     89  O   UNL A   1      45.651  20.742  37.513  1.00  0.00    -0.237 OA
ATOM     90  O   UNL A   1      45.578  19.296  35.511  1.00  0.00    -0.237 OA
ATOM     91  O   UNL A   1      47.702  20.341  36.205  1.00  0.00    -0.744 OA
ENDBRANCH  87  88
ENDBRANCH  61  82
ENDBRANCH  35  36
ENDBRANCH  27  30
ENDBRANCH  25  26
ENDBRANCH  24  25
ENDBRANCH   1  24
TORSDOF 18
ENDMDL
MODEL 2
REMARK VINA RESULT:     -12.1      4.889     11.319
REMARK SMILES Cc1cccc([C@@H](CC(=O)NCCCNC(=O)c2ccc(-c3c4nc(c(-c5ccc(S(=O)(=O)[O-])cc5)c5ccc([nH]5)c(-c5ccc(S(=O)(=O)[O-])cc5)c5nc(c(-c6ccc(S(=O)(=O)[O-])cc6)c6ccc3[nH]6)C=C5)C=C4)cc2)NC(=O)OC(C)(C)C)c1
REMARK SMILES IDX 12 1 11 2 9 3 10 4 8 6 7 7 6 8 1 9 2 10 3 11 86 12 4 13 5 14
REMARK SMILES IDX 78 15 79 16 80 18 81 19 82 20 83 21 84 22 85 23 13 24 14 25
REMARK SMILES IDX 15 26 16 27 17 29 18 30 19 31 77 32 20 33 76 34 21 35 22 36
REMARK SMILES IDX 23 37 70 38 24 39 75 40 69 41 71 42 25 43 74 44 68 45 67 46
REMARK SMILES IDX 26 48 56 49 37 50 55 51 38 52 41 53 54 54 72 55 39 56 40 57
REMARK SMILES IDX 53 59 73 60 42 61 27 62 28 63 36 64 29 65 35 66 30 67 31 68
REMARK SMILES IDX 32 69 33 70 34 71 57 72 58 73 66 74 59 75 65 76 60 77 61 78
REMARK SMILES IDX 62 79 63 80 64 81 43 82 44 83 52 84 45 85 51 86 46 87 47 88
REMARK SMILES IDX 48 89 49 90 50 91
REMARK H PARENT 11 5 78 17 15 28 71 47 41 58
REMARK Flexibility Score: inf
ROOT
ATOM      1  C   UNL A   1      37.499  21.392  25.326  1.00  0.00     0.117 C 
ENDROOT
BRANCH   1   2
ATOM      2  N   UNL A   1      37.285  21.886  23.973  1.00  0.00    -0.356 N 
ATOM      3  C   UNL A   1      36.491  22.921  23.575  1.00  0.00     0.222 C 
ATOM      4  O   UNL A   1      36.166  22.980  22.387  1.00  0.00    -0.275 OA
ATOM      5  H   UNL A   1      37.772  21.414  23.259  1.00  0.00     0.163 HD
BRANCH   3   6
ATOM      6  C   UNL A   1      36.077  24.007  24.551  1.00  0.00     0.130 C 
BRANCH   6   7
ATOM      7  C   UNL A   1      34.565  24.282  24.686  1.00  0.00     0.125 C 
BRANCH   7   8
ATOM      8  C   UNL A   1      33.860  23.503  25.794  1.00  0.00    -0.025 A 
ATOM      9  C   UNL A   1      30.267  22.785  26.919  1.00  0.00     0.044 C 
ATOM     10  C   UNL A   1      31.766  22.816  26.876  1.00  0.00    -0.051 A 
ATOM     11  C   UNL A   1      32.499  22.248  27.921  1.00  0.00     0.003 A 
ATOM     12  C   UNL A   1      32.451  23.465  25.834  1.00  0.00     0.009 A 
ATOM     13  C   UNL A   1      33.890  22.227  27.870  1.00  0.00     0.001 A 
ATOM     14  C   UNL A   1      34.565  22.824  26.801  1.00  0.00     0.006 A 
ENDBRANCH   7   8
BRANCH   7  15
ATOM     15  N   UNL A   1      33.863  24.187  23.418  1.00  0.00    -0.314 N 
ATOM     16  C   UNL A   1      33.386  25.216  22.665  1.00  0.00     0.408 C 
ATOM     17  H   UNL A   1      33.717  23.280  23.065  1.00  0.00     0.167 HD
ATOM     18  O   UNL A   1      32.676  25.024  21.700  1.00  0.00    -0.225 OA
BRANCH  16  19
ATOM     19  O   UNL A   1      33.821  26.423  23.109  1.00  0.00    -0.444 OA
BRANCH  19  20
ATOM     20  C   UNL A   1      32.888  27.370  23.679  1.00  0.00     0.106 C 
ATOM     21  C   UNL A   1      31.931  27.933  22.620  1.00  0.00     0.056 C 
ATOM     22  C   UNL A   1      32.144  26.749  24.864  1.00  0.00     0.056 C 
ATOM     23  C   UNL A   1      33.767  28.520  24.192  1.00  0.00     0.056 C 
ENDBRANCH  19  20
ENDBRANCH  16  19
ENDBRANCH   7  15
ENDBRANCH   6   7
ENDBRANCH   3   6
ENDBRANCH   1   2
BRANCH   1  24
ATOM     24  C   UNL A   1      38.765  22.005  25.889  1.00  0.00     0.042 C 
BRANCH  24  25
ATOM     25  C   UNL A   1      38.594  23.310  26.646  1.00  0.00     0.118 C 
BRANCH  25  26
ATOM     26  N   UNL A   1      39.707  23.461  27.582  1.00  0.00    -0.352 N 
ATOM     27  C   UNL A   1      40.382  24.585  28.007  1.00  0.00     0.251 C 
ATOM     28  H   UNL A   1      40.029  22.617  27.974  1.00  0.00     0.163 HD
ATOM     29  O   UNL A   1      41.543  24.595  28.390  1.00  0.00    -0.269 OA
BRANCH  27  30
ATOM     30  C   UNL A   1      39.569  25.804  28.099  1.00  0.00     0.039 A 
ATOM     31  C   UNL A   1      39.882  26.781  27.139  1.00  0.00     0.014 A 
ATOM     32  C   UNL A   1      39.063  26.115  29.353  1.00  0.00     0.014 A 
ATOM     33  C   UNL A   1      39.981  28.097  27.540  1.00  0.00     0.010 A 
ATOM     34  C   UNL A   1      39.254  27.405  29.774  1.00  0.00     0.010 A 
ATOM     35  C   UNL A   1      39.791  28.357  28.888  1.00  0.00    -0.014 A 
BRANCH  35  36
ATOM     36  C   UNL A   1      40.097  29.620  29.512  1.00  0.00     0.031 A 
ATOM     37  C   UNL A   1      39.066  30.653  29.381  1.00  0.00     0.074 A 
ATOM     38  C   UNL A   1      41.173  29.705  30.323  1.00  0.00     0.049 A 
ATOM     39  N   UNL A   1      39.254  31.894  29.627  1.00  0.00    -0.248 NA
ATOM     40  C   UNL A   1      37.716  30.365  28.887  1.00  0.00     0.031 C 
ATOM     41  C   UNL A   1      41.469  30.699  31.348  1.00  0.00     0.029 A 
ATOM     42  N   UNL A   1      42.350  28.962  30.230  1.00  0.00    -0.354 N 
ATOM     43  C   UNL A   1      38.008  32.472  29.703  1.00  0.00     0.074 A 
ATOM     44  C   UNL A   1      37.104  31.532  29.098  1.00  0.00     0.031 C 
ATOM     45  C   UNL A   1      42.790  30.682  31.604  1.00  0.00     0.029 A 
ATOM     46  C   UNL A   1      43.411  29.796  30.631  1.00  0.00     0.049 A 
ATOM     47  H   UNL A   1      42.425  28.025  29.935  1.00  0.00     0.167 HD
ATOM     48  C   UNL A   1      37.885  33.605  30.442  1.00  0.00     0.031 A 
ATOM     49  C   UNL A   1      44.328  30.191  29.694  1.00  0.00     0.031 A 
ATOM     50  C   UNL A   1      39.206  34.074  30.869  1.00  0.00     0.049 A 
ATOM     51  C   UNL A   1      44.213  31.666  29.334  1.00  0.00     0.074 A 
ATOM     52  C   UNL A   1      39.918  33.991  32.052  1.00  0.00     0.029 A 
ATOM     53  N   UNL A   1      40.133  34.371  29.884  1.00  0.00    -0.354 N 
ATOM     54  N   UNL A   1      43.239  32.442  29.729  1.00  0.00    -0.248 NA
ATOM     55  C   UNL A   1      45.161  32.379  28.478  1.00  0.00     0.031 C 
ATOM     56  C   UNL A   1      41.298  34.197  31.746  1.00  0.00     0.029 A 
ATOM     57  C   UNL A   1      41.415  34.441  30.389  1.00  0.00     0.049 A 
ATOM     58  H   UNL A   1      39.906  34.513  28.937  1.00  0.00     0.167 HD
ATOM     59  C   UNL A   1      43.391  33.700  29.211  1.00  0.00     0.074 A 
ATOM     60  C   UNL A   1      44.598  33.600  28.405  1.00  0.00     0.031 C 
ATOM     61  C   UNL A   1      42.512  34.717  29.471  1.00  0.00     0.031 A 
BRANCH  48  62
ATOM     62  C   UNL A   1      36.587  34.144  30.986  1.00  0.00    -0.014 A 
ATOM     63  C   UNL A   1      35.491  34.239  30.105  1.00  0.00     0.010 A 
ATOM     64  C   UNL A   1      36.378  34.624  32.294  1.00  0.00     0.010 A 
ATOM     65  C   UNL A   1      34.277  34.818  30.489  1.00  0.00     0.020 A 
ATOM     66  C   UNL A   1      35.167  35.212  32.692  1.00  0.00     0.020 A 
ATOM     67  C   UNL A   1      34.124  35.310  31.781  1.00  0.00     0.054 A 
BRANCH  67  68
ATOM     68  S   UNL A   1      32.543  36.056  32.246  1.00  0.00     0.124 S 
ATOM     69  O   UNL A   1      32.923  36.922  33.359  1.00  0.00    -0.237 OA
ATOM     70  O   UNL A   1      32.148  36.740  31.018  1.00  0.00    -0.237 OA
ATOM     71  O   UNL A   1      31.712  34.910  32.611  1.00  0.00    -0.744 OA
ENDBRANCH  67  68
ENDBRANCH  48  62
BRANCH  49  72
ATOM     72  C   UNL A   1      44.692  29.069  28.765  1.00  0.00    -0.014 A 
ATOM     73  C   UNL A   1      44.022  29.023  27.518  1.00  0.00     0.010 A 
ATOM     74  C   UNL A   1      45.933  28.416  28.878  1.00  0.00     0.010 A 
ATOM     75  C   UNL A   1      44.650  28.501  26.381  1.00  0.00     0.020 A 
ATOM     76  C   UNL A   1      46.560  27.882  27.737  1.00  0.00     0.020 A 
ATOM     77  C   UNL A   1      45.938  27.979  26.488  1.00  0.00     0.054 A 
BRANCH  77  78
ATOM     78  S   UNL A   1      46.846  27.609  24.954  1.00  0.00     0.124 S 
ATOM     79  O   UNL A   1      46.750  28.868  24.224  1.00  0.00    -0.237 OA
ATOM     80  O   UNL A   1      48.185  27.274  25.446  1.00  0.00    -0.237 OA
ATOM     81  O   UNL A   1      46.105  26.491  24.383  1.00  0.00    -0.744 OA
ENDBRANCH  77  78
ENDBRANCH  49  72
BRANCH  61  82
ATOM     82  C   UNL A   1      42.596  36.094  28.859  1.00  0.00    -0.014 A 
ATOM     83  C   UNL A   1      43.029  37.220  29.570  1.00  0.00     0.010 A 
ATOM     84  C   UNL A   1      42.132  36.311  27.539  1.00  0.00     0.010 A 
ATOM     85  C   UNL A   1      43.087  38.480  28.958  1.00  0.00     0.020 A 
ATOM     86  C   UNL A   1      42.157  37.563  26.929  1.00  0.00     0.020 A 
ATOM     87  C   UNL A   1      42.666  38.640  27.636  1.00  0.00     0.054 A 
BRANCH  87  88
ATOM     88  S   UNL A   1      42.751  40.270  26.864  1.00  0.00     0.124 S 
ATOM     89  O   UNL A   1      43.198  41.118  27.966  1.00  0.00    -0.237 OA
ATOM     90  O   UNL A   1      43.731  40.047  25.804  1.00  0.00    -0.237 OA
ATOM     91  O   UNL A   1      41.385  40.514  26.408  1.00  0.00    -0.744 OA
ENDBRANCH  87  88
ENDBRANCH  61  82
ENDBRANCH  35  36
ENDBRANCH  27  30
ENDBRANCH  25  26
ENDBRANCH  24  25
ENDBRANCH   1  24
TORSDOF 18
ENDMDL
MODEL 3
REMARK VINA RESULT:     -12.0      1.193      3.236
REMARK SMILES Cc1cccc([C@@H](CC(=O)NCCCNC(=O)c2ccc(-c3c4nc(c(-c5ccc(S(=O)(=O)[O-])cc5)c5ccc([nH]5)c(-c5ccc(S(=O)(=O)[O-])cc5)c5nc(c(-c6ccc(S(=O)(=O)[O-])cc6)c6ccc3[nH]6)C=C5)C=C4)cc2)NC(=O)OC(C)(C)C)c1
REMARK SMILES IDX 12 1 11 2 9 3 10 4 8 6 7 7 6 8 1 9 2 10 3 11 86 12 4 13 5 14
REMARK SMILES IDX 78 15 79 16 80 18 81 19 82 20 83 21 84 22 85 23 13 24 14 25
REMARK SMILES IDX 15 26 16 27 17 29 18 30 19 31 77 32 20 33 76 34 21 35 22 36
REMARK SMILES IDX 23 37 70 38 24 39 75 40 69 41 71 42 25 43 74 44 68 45 67 46
REMARK SMILES IDX 26 48 56 49 37 50 55 51 38 52 41 53 54 54 72 55 39 56 40 57
REMARK SMILES IDX 53 59 73 60 42 61 27 62 28 63 36 64 29 65 35 66 30 67 31 68
REMARK SMILES IDX 32 69 33 70 34 71 57 72 58 73 66 74 59 75 65 76 60 77 61 78
REMARK SMILES IDX 62 79 63 80 64 81 43 82 44 83 52 84 45 85 51 86 46 87 47 88
REMARK SMILES IDX 48 89 49 90 50 91
REMARK H PARENT 11 5 78 17 15 28 71 47 41 58
REMARK Flexibility Score: inf
ROOT
ATOM      1  C   UNL A   1      34.426  28.607  26.220  1.00  0.00     0.117 C 
ENDROOT
BRANCH   1   2
ATOM      2  N   UNL A   1      34.375  28.714  24.769  1.00  0.00    -0.356 N 
ATOM      3  C   UNL A   1      33.623  27.979  23.901  1.00  0.00     0.222 C 
ATOM      4  O   UNL A   1      33.952  27.966  22.713  1.00  0.00    -0.275 OA
ATOM      5  H   UNL A   1      34.956  29.399  24.366  1.00  0.00     0.163 HD
BRANCH   3   6
ATOM      6  C   UNL A   1      32.375  27.254  24.370  1.00  0.00     0.130 C 
BRANCH   6   7
ATOM      7  C   UNL A   1      31.348  26.864  23.288  1.00  0.00     0.125 C 
BRANCH   7   8
ATOM      8  C   UNL A   1      30.328  27.947  22.940  1.00  0.00    -0.025 A 
ATOM      9  C   UNL A   1      26.563  28.540  23.343  1.00  0.00     0.044 C 
ATOM     10  C   UNL A   1      27.999  28.723  22.951  1.00  0.00    -0.051 A 
ATOM     11  C   UNL A   1      28.365  29.815  22.159  1.00  0.00     0.003 A 
ATOM     12  C   UNL A   1      28.979  27.782  23.312  1.00  0.00     0.009 A 
ATOM     13  C   UNL A   1      29.701  30.023  21.829  1.00  0.00     0.001 A 
ATOM     14  C   UNL A   1      30.680  29.113  22.241  1.00  0.00     0.006 A 
ENDBRANCH   7   8
BRANCH   7  15
ATOM     15  N   UNL A   1      30.717  25.582  23.548  1.00  0.00    -0.314 N 
ATOM     16  C   UNL A   1      31.256  24.347  23.349  1.00  0.00     0.408 C 
ATOM     17  H   UNL A   1      29.802  25.609  23.908  1.00  0.00     0.167 HD
ATOM     18  O   UNL A   1      30.590  23.338  23.451  1.00  0.00    -0.225 OA
BRANCH  16  19
ATOM     19  O   UNL A   1      32.582  24.404  23.066  1.00  0.00    -0.444 OA
BRANCH  19  20
ATOM     20  C   UNL A   1      33.543  23.771  23.942  1.00  0.00     0.106 C 
ATOM     21  C   UNL A   1      34.928  24.419  23.828  1.00  0.00     0.056 C 
ATOM     22  C   UNL A   1      33.028  23.748  25.383  1.00  0.00     0.056 C 
ATOM     23  C   UNL A   1      33.644  22.327  23.428  1.00  0.00     0.056 C 
ENDBRANCH  19  20
ENDBRANCH  16  19
ENDBRANCH   7  15
ENDBRANCH   6   7
ENDBRANCH   3   6
ENDBRANCH   1   2
BRANCH   1  24
ATOM     24  C   UNL A   1      34.210  29.976  26.831  1.00  0.00     0.042 C 
BRANCH  24  25
ATOM     25  C   UNL A   1      34.804  30.191  28.213  1.00  0.00     0.118 C 
BRANCH  25  26
ATOM     26  N   UNL A   1      35.935  31.110  28.101  1.00  0.00    -0.352 N 
ATOM     27  C   UNL A   1      37.266  30.945  28.417  1.00  0.00     0.251 C 
ATOM     28  H   UNL A   1      35.707  31.997  27.739  1.00  0.00     0.163 HD
ATOM     29  O   UNL A   1      38.022  31.851  28.738  1.00  0.00    -0.269 OA
BRANCH  27  30
ATOM     30  C   UNL A   1      37.790  29.588  28.225  1.00  0.00     0.039 A 
ATOM     31  C   UNL A   1      37.708  28.770  29.364  1.00  0.00     0.014 A 
ATOM     32  C   UNL A   1      38.775  29.437  27.259  1.00  0.00     0.014 A 
ATOM     33  C   UNL A   1      38.797  27.993  29.702  1.00  0.00     0.010 A 
ATOM     34  C   UNL A   1      39.891  28.741  27.643  1.00  0.00     0.010 A 
ATOM     35  C   UNL A   1      39.918  28.101  28.895  1.00  0.00    -0.014 A 
BRANCH  35  36
ATOM     36  C   UNL A   1      41.209  27.557  29.239  1.00  0.00     0.031 A 
ATOM     37  C   UNL A   1      41.429  26.163  28.847  1.00  0.00     0.074 A 
ATOM     38  C   UNL A   1      42.171  28.391  29.691  1.00  0.00     0.049 A 
ATOM     39  N   UNL A   1      42.383  25.433  29.286  1.00  0.00    -0.248 NA
ATOM     40  C   UNL A   1      40.524  25.442  27.945  1.00  0.00     0.031 C 
ATOM     41  C   UNL A   1      43.614  28.187  29.727  1.00  0.00     0.029 A 
ATOM     42  N   UNL A   1      41.982  29.570  30.412  1.00  0.00    -0.354 N 
ATOM     43  C   UNL A   1      42.444  24.331  28.464  1.00  0.00     0.074 A 
ATOM     44  C   UNL A   1      41.196  24.306  27.750  1.00  0.00     0.031 C 
ATOM     45  C   UNL A   1      44.152  29.032  30.626  1.00  0.00     0.029 A 
ATOM     46  C   UNL A   1      43.053  29.688  31.318  1.00  0.00     0.049 A 
ATOM     47  H   UNL A   1      41.236  30.203  30.307  1.00  0.00     0.167 HD
ATOM     48  C   UNL A   1      43.635  23.686  28.366  1.00  0.00     0.031 A 
ATOM     49  C   UNL A   1      42.798  29.569  32.658  1.00  0.00     0.031 A 
ATOM     50  C   UNL A   1      44.585  24.230  29.340  1.00  0.00     0.049 A 
ATOM     51  C   UNL A   1      43.337  28.275  33.254  1.00  0.00     0.074 A 
ATOM     52  C   UNL A   1      45.642  25.120  29.256  1.00  0.00     0.029 A 
ATOM     53  N   UNL A   1      44.238  24.172  30.680  1.00  0.00    -0.354 N 
ATOM     54  N   UNL A   1      43.831  27.294  32.546  1.00  0.00    -0.248 NA
ATOM     55  C   UNL A   1      43.334  27.965  34.683  1.00  0.00     0.031 C 
ATOM     56  C   UNL A   1      45.888  25.629  30.569  1.00  0.00     0.029 A 
ATOM     57  C   UNL A   1      45.009  25.021  31.447  1.00  0.00     0.049 A 
ATOM     58  H   UNL A   1      43.527  23.596  31.041  1.00  0.00     0.167 HD
ATOM     59  C   UNL A   1      44.193  26.254  33.360  1.00  0.00     0.074 A 
ATOM     60  C   UNL A   1      43.831  26.714  34.691  1.00  0.00     0.031 C 
ATOM     61  C   UNL A   1      44.747  25.099  32.879  1.00  0.00     0.031 A 
BRANCH  48  62
ATOM     62  C   UNL A   1      44.023  22.754  27.248  1.00  0.00    -0.014 A 
ATOM     63  C   UNL A   1      43.125  21.723  26.906  1.00  0.00     0.010 A 
ATOM     64  C   UNL A   1      45.241  22.779  26.540  1.00  0.00     0.010 A 
ATOM     65  C   UNL A   1      43.439  20.750  25.951  1.00  0.00     0.020 A 
ATOM     66  C   UNL A   1      45.572  21.806  25.583  1.00  0.00     0.020 A 
ATOM     67  C   UNL A   1      44.666  20.792  25.300  1.00  0.00     0.054 A 
BRANCH  67  68
ATOM     68  S   UNL A   1      45.044  19.518  24.072  1.00  0.00     0.124 S 
ATOM     69  O   UNL A   1      44.291  18.370  24.572  1.00  0.00    -0.237 OA
ATOM     70  O   UNL A   1      44.540  20.115  22.838  1.00  0.00    -0.237 OA
ATOM     71  O   UNL A   1      46.498  19.383  24.146  1.00  0.00    -0.744 OA
ENDBRANCH  67  68
ENDBRANCH  48  62
BRANCH  49  72
ATOM     72  C   UNL A   1      41.530  30.272  33.048  1.00  0.00    -0.014 A 
ATOM     73  C   UNL A   1      40.406  29.460  33.341  1.00  0.00     0.010 A 
ATOM     74  C   UNL A   1      41.563  31.576  33.574  1.00  0.00     0.010 A 
ATOM     75  C   UNL A   1      39.444  29.869  34.271  1.00  0.00     0.020 A 
ATOM     76  C   UNL A   1      40.590  31.992  34.502  1.00  0.00     0.020 A 
ATOM     77  C   UNL A   1      39.569  31.114  34.885  1.00  0.00     0.054 A 
BRANCH  77  78
ATOM     78  S   UNL A   1      38.499  31.482  36.311  1.00  0.00     0.124 S 
ATOM     79  O   UNL A   1      38.122  30.149  36.768  1.00  0.00    -0.237 OA
ATOM     80  O   UNL A   1      39.397  32.218  37.204  1.00  0.00    -0.237 OA
ATOM     81  O   UNL A   1      37.424  32.277  35.731  1.00  0.00    -0.744 OA
ENDBRANCH  77  78
ENDBRANCH  49  72
BRANCH  61  82
ATOM     82  C   UNL A   1      45.087  23.898  33.728  1.00  0.00    -0.014 A 
ATOM     83  C   UNL A   1      44.250  22.782  33.843  1.00  0.00     0.010 A 
ATOM     84  C   UNL A   1      46.252  23.909  34.534  1.00  0.00     0.010 A 
ATOM     85  C   UNL A   1      44.610  21.690  34.646  1.00  0.00     0.020 A 
ATOM     86  C   UNL A   1      46.606  22.844  35.359  1.00  0.00     0.020 A 
ATOM     87  C   UNL A   1      45.794  21.723  35.386  1.00  0.00     0.054 A 
BRANCH  87  88
ATOM     88  S   UNL A   1      46.241  20.307  36.414  1.00  0.00     0.124 S 
ATOM     89  O   UNL A   1      47.671  20.166  36.151  1.00  0.00    -0.237 OA
ATOM     90  O   UNL A   1      45.891  20.784  37.749  1.00  0.00    -0.237 OA
ATOM     91  O   UNL A   1      45.407  19.223  35.900  1.00  0.00    -0.744 OA
ENDBRANCH  87  88
ENDBRANCH  61  82
ENDBRANCH  35  36
ENDBRANCH  27  30
ENDBRANCH  25  26
ENDBRANCH  24  25
ENDBRANCH   1  24
TORSDOF 18
ENDMDL
