MODEL 1
REMARK VINA RESULT:     -11.9      0.000      0.000
REMARK SMILES Cc1csc(=O)n1CC(=O)N[C@@H](C(=O)NCCCNC(=O)c1ccc(-c2c3nc(c(-c4ccc(S(=O)(=O)[O-])cc4)c4ccc([nH]4)c(-c4ccc(S(=O)(=O)[O-])cc4)c4nc(c(-c5ccc(S(=O)(=O)[O-])cc5)c5ccc2[nH]5)C=C4)C=C3)cc1)[C@@H](C)O
REMARK SMILES IDX 17 1 16 2 15 3 13 4 14 5 12 7 11 8 9 9 10 10 8 12 7 13 1 14
REMARK SMILES IDX 2 15 3 16 4 17 5 18 6 19 82 20 83 21 84 22 18 24 19 25 20 26
REMARK SMILES IDX 21 28 22 29 23 30 81 31 24 32 80 33 25 34 26 35 27 36 74 37
REMARK SMILES IDX 28 38 79 39 73 40 75 41 29 42 78 43 72 44 71 45 30 47 60 48
REMARK SMILES IDX 41 49 59 50 42 51 45 52 58 53 76 54 43 55 44 56 57 58 77 59
REMARK SMILES IDX 46 60 31 61 32 62 40 63 33 64 39 65 34 66 35 67 36 68 37 69
REMARK SMILES IDX 38 70 61 71 62 72 70 73 63 74 69 75 64 76 65 77 66 78 67 79
REMARK SMILES IDX 68 80 47 81 48 82 56 83 49 84 55 85 50 86 51 87 52 88 53 89
REMARK SMILES IDX 54 90
REMARK H PARENT 15 6 11 11 84 23 19 27 75 46 45 57
REMARK Flexibility Score: inf
ROOT
ATOM      1  C   UNL A   1      37.136  21.895  24.554  1.00  0.00     0.042 C 
ENDROOT
BRANCH   1   2
ATOM      2  C   UNL A   1      36.411  20.847  25.399  1.00  0.00     0.117 C 
BRANCH   2   3
ATOM      3  N   UNL A   1      35.404  21.390  26.285  1.00  0.00    -0.354 N 
ATOM      4  C   UNL A   1      34.040  21.259  26.198  1.00  0.00     0.245 C 
ATOM      5  O   UNL A   1      33.381  21.586  27.185  1.00  0.00    -0.273 OA
ATOM      6  H   UNL A   1      35.739  21.917  27.046  1.00  0.00     0.163 HD
BRANCH   4   7
ATOM      7  C   UNL A   1      33.408  20.589  24.943  1.00  0.00     0.200 C 
BRANCH   7   8
ATOM      8  N   UNL A   1      32.315  21.428  24.436  1.00  0.00    -0.340 N 
ATOM      9  C   UNL A   1      32.311  22.585  23.715  1.00  0.00     0.240 C 
ATOM     10  O   UNL A   1      31.203  23.069  23.463  1.00  0.00    -0.273 OA
ATOM     11  H   UNL A   1      31.417  21.091  24.659  1.00  0.00     0.164 HD
BRANCH   9  12
ATOM     12  C   UNL A   1      33.601  23.253  23.183  1.00  0.00     0.226 C 
BRANCH  12  13
ATOM     13  N   UNL A   1      33.632  24.710  23.203  1.00  0.00    -0.294 N 
ATOM     14  C   UNL A   1      34.572  24.952  25.546  1.00  0.00     0.065 C 
ATOM     15  C   UNL A   1      34.000  25.506  24.285  1.00  0.00     0.029 A 
ATOM     16  C   UNL A   1      33.856  26.819  24.050  1.00  0.00     0.091 A 
ATOM     17  S   UNL A   1      33.353  27.143  22.425  1.00  0.00    -0.082 S 
ATOM     18  C   UNL A   1      33.346  25.418  22.038  1.00  0.00     0.307 A 
ATOM     19  O   UNL A   1      33.083  24.982  20.928  1.00  0.00    -0.257 OA
ENDBRANCH  12  13
ENDBRANCH   9  12
ENDBRANCH   7   8
BRANCH   7  20
ATOM     20  C   UNL A   1      32.959  19.134  25.258  1.00  0.00     0.143 C 
ATOM     21  C   UNL A   1      33.795  18.069  24.554  1.00  0.00     0.041 C 
BRANCH  20  22
ATOM     22  O   UNL A   1      33.055  18.838  26.658  1.00  0.00    -0.391 OA
ATOM     23  H   UNL A   1      32.376  19.335  27.141  1.00  0.00     0.211 HD
ENDBRANCH  20  22
ENDBRANCH   7  20
ENDBRANCH   4   7
ENDBRANCH   2   3
ENDBRANCH   1   2
BRANCH   1  24
ATOM     24  C   UNL A   1      38.099  22.707  25.398  1.00  0.00     0.118 C 
BRANCH  24  25
ATOM     25  N   UNL A   1      38.833  21.907  26.398  1.00  0.00    -0.352 N 
ATOM     26  C   UNL A   1      39.899  22.318  27.192  1.00  0.00     0.251 C 
ATOM     27  H   UNL A   1      38.534  20.976  26.517  1.00  0.00     0.163 HD
ATOM     28  O   UNL A   1      40.638  21.528  27.763  1.00  0.00    -0.269 OA
BRANCH  26  29
ATOM     29  C   UNL A   1      40.070  23.769  27.353  1.00  0.00     0.039 A 
ATOM     30  C   UNL A   1      39.012  24.682  27.328  1.00  0.00     0.014 A 
ATOM     31  C   UNL A   1      41.339  24.133  27.772  1.00  0.00     0.014 A 
ATOM     32  C   UNL A   1      39.235  25.960  27.843  1.00  0.00     0.010 A 
ATOM     33  C   UNL A   1      41.443  25.248  28.543  1.00  0.00     0.010 A 
ATOM     34  C   UNL A   1      40.455  26.221  28.480  1.00  0.00    -0.014 A 
BRANCH  34  35
ATOM     35  C   UNL A   1      40.769  27.464  29.167  1.00  0.00     0.031 A 
ATOM     36  C   UNL A   1      41.836  28.291  28.535  1.00  0.00     0.074 A 
ATOM     37  C   UNL A   1      39.925  27.955  30.107  1.00  0.00     0.049 A 
ATOM     38  N   UNL A   1      43.014  28.555  28.992  1.00  0.00    -0.248 NA
ATOM     39  C   UNL A   1      41.618  28.780  27.161  1.00  0.00     0.031 C 
ATOM     40  C   UNL A   1      38.617  27.429  30.546  1.00  0.00     0.029 A 
ATOM     41  N   UNL A   1      39.989  29.127  30.781  1.00  0.00    -0.354 N 
ATOM     42  C   UNL A   1      43.608  29.419  28.074  1.00  0.00     0.074 A 
ATOM     43  C   UNL A   1      42.788  29.366  26.891  1.00  0.00     0.031 C 
ATOM     44  C   UNL A   1      37.920  28.397  31.183  1.00  0.00     0.029 A 
ATOM     45  C   UNL A   1      38.806  29.521  31.396  1.00  0.00     0.049 A 
ATOM     46  H   UNL A   1      40.814  29.661  30.832  1.00  0.00     0.167 HD
ATOM     47  C   UNL A   1      44.594  30.288  28.441  1.00  0.00     0.031 A 
ATOM     48  C   UNL A   1      38.575  30.700  32.028  1.00  0.00     0.031 A 
ATOM     49  C   UNL A   1      45.073  29.997  29.769  1.00  0.00     0.049 A 
ATOM     50  C   UNL A   1      39.911  31.269  32.335  1.00  0.00     0.074 A 
ATOM     51  C   UNL A   1      45.723  28.933  30.358  1.00  0.00     0.029 A 
ATOM     52  N   UNL A   1      44.500  30.712  30.797  1.00  0.00    -0.354 N 
ATOM     53  N   UNL A   1      40.777  30.688  33.122  1.00  0.00    -0.248 NA
ATOM     54  C   UNL A   1      40.471  32.211  31.379  1.00  0.00     0.031 C 
ATOM     55  C   UNL A   1      45.099  28.790  31.633  1.00  0.00     0.029 A 
ATOM     56  C   UNL A   1      44.171  29.824  31.790  1.00  0.00     0.049 A 
ATOM     57  H   UNL A   1      44.354  31.686  30.815  1.00  0.00     0.167 HD
ATOM     58  C   UNL A   1      42.006  30.860  32.497  1.00  0.00     0.074 A 
ATOM     59  C   UNL A   1      41.762  31.873  31.467  1.00  0.00     0.031 C 
ATOM     60  C   UNL A   1      43.029  29.971  32.675  1.00  0.00     0.031 A 
BRANCH  47  61
ATOM     61  C   UNL A   1      44.867  31.621  27.783  1.00  0.00    -0.014 A 
ATOM     62  C   UNL A   1      46.200  31.959  27.465  1.00  0.00     0.010 A 
ATOM     63  C   UNL A   1      43.912  32.655  27.699  1.00  0.00     0.010 A 
ATOM     64  C   UNL A   1      46.567  33.275  27.150  1.00  0.00     0.020 A 
ATOM     65  C   UNL A   1      44.261  33.963  27.346  1.00  0.00     0.020 A 
ATOM     66  C   UNL A   1      45.594  34.272  27.107  1.00  0.00     0.054 A 
BRANCH  66  67
ATOM     67  S   UNL A   1      46.093  35.985  26.800  1.00  0.00     0.124 S 
ATOM     68  O   UNL A   1      44.818  36.691  26.886  1.00  0.00    -0.237 OA
ATOM     69  O   UNL A   1      47.030  36.234  27.892  1.00  0.00    -0.237 OA
ATOM     70  O   UNL A   1      46.694  35.933  25.469  1.00  0.00    -0.744 OA
ENDBRANCH  66  67
ENDBRANCH  47  61
BRANCH  48  71
ATOM     71  C   UNL A   1      37.331  31.513  32.008  1.00  0.00    -0.014 A 
ATOM     72  C   UNL A   1      36.628  31.803  33.193  1.00  0.00     0.010 A 
ATOM     73  C   UNL A   1      36.997  32.257  30.855  1.00  0.00     0.010 A 
ATOM     74  C   UNL A   1      35.672  32.835  33.237  1.00  0.00     0.020 A 
ATOM     75  C   UNL A   1      36.047  33.288  30.892  1.00  0.00     0.020 A 
ATOM     76  C   UNL A   1      35.404  33.587  32.091  1.00  0.00     0.054 A 
BRANCH  76  77
ATOM     77  S   UNL A   1      34.301  35.033  32.202  1.00  0.00     0.124 S 
ATOM     78  O   UNL A   1      33.127  34.477  32.870  1.00  0.00    -0.237 OA
ATOM     79  O   UNL A   1      35.089  35.973  32.993  1.00  0.00    -0.237 OA
ATOM     80  O   UNL A   1      34.096  35.419  30.808  1.00  0.00    -0.744 OA
ENDBRANCH  76  77
ENDBRANCH  48  71
BRANCH  60  81
ATOM     81  C   UNL A   1      42.897  28.916  33.756  1.00  0.00    -0.014 A 
ATOM     82  C   UNL A   1      43.480  29.011  35.037  1.00  0.00     0.010 A 
ATOM     83  C   UNL A   1      41.982  27.877  33.518  1.00  0.00     0.010 A 
ATOM     84  C   UNL A   1      43.157  28.084  36.046  1.00  0.00     0.020 A 
ATOM     85  C   UNL A   1      41.644  26.963  34.519  1.00  0.00     0.020 A 
ATOM     86  C   UNL A   1      42.237  27.065  35.778  1.00  0.00     0.054 A 
BRANCH  86  87
ATOM     87  S   UNL A   1      41.769  25.900  37.091  1.00  0.00     0.124 S 
ATOM     88  O   UNL A   1      42.795  26.133  38.103  1.00  0.00    -0.237 OA
ATOM     89  O   UNL A   1      40.422  26.334  37.449  1.00  0.00    -0.237 OA
ATOM     90  O   UNL A   1      41.834  24.592  36.436  1.00  0.00    -0.744 OA
ENDBRANCH  86  87
ENDBRANCH  60  81
ENDBRANCH  34  35
ENDBRANCH  26  29
ENDBRANCH  24  25
ENDBRANCH   1  24
TORSDOF 18
ENDMDL
MODEL 2
REMARK VINA RESULT:     -11.6      1.564      2.073
REMARK SMILES Cc1csc(=O)n1CC(=O)N[C@@H](C(=O)NCCCNC(=O)c1ccc(-c2c3nc(c(-c4ccc(S(=O)(=O)[O-])cc4)c4ccc([nH]4)c(-c4ccc(S(=O)(=O)[O-])cc4)c4nc(c(-c5ccc(S(=O)(=O)[O-])cc5)c5ccc2[nH]5)C=C4)C=C3)cc1)[C@@H](C)O
REMARK SMILES IDX 17 1 16 2 15 3 13 4 14 5 12 7 11 8 9 9 10 10 8 12 7 13 1 14
REMARK SMILES IDX 2 15 3 16 4 17 5 18 6 19 82 20 83 21 84 22 18 24 19 25 20 26
REMARK SMILES IDX 21 28 22 29 23 30 81 31 24 32 80 33 25 34 26 35 27 36 74 37
REMARK SMILES IDX 28 38 79 39 73 40 75 41 29 42 78 43 72 44 71 45 30 47 60 48
REMARK SMILES IDX 41 49 59 50 42 51 45 52 58 53 76 54 43 55 44 56 57 58 77 59
REMARK SMILES IDX 46 60 31 61 32 62 40 63 33 64 39 65 34 66 35 67 36 68 37 69
REMARK SMILES IDX 38 70 61 71 62 72 70 73 63 74 69 75 64 76 65 77 66 78 67 79
REMARK SMILES IDX 68 80 47 81 48 82 56 83 49 84 55 85 50 86 51 87 52 88 53 89
REMARK SMILES IDX 54 90
REMARK H PARENT 15 6 11 11 84 23 19 27 75 46 45 57
REMARK Flexibility Score: inf
ROOT
ATOM      1  C   UNL A   1      37.556  23.319  25.229  1.00  0.00     0.042 C 
ENDROOT
BRANCH   1   2
ATOM      2  C   UNL A   1      36.562  22.160  25.289  1.00  0.00     0.117 C 
BRANCH   2   3
ATOM      3  N   UNL A   1      35.896  22.012  26.565  1.00  0.00    -0.354 N 
ATOM      4  C   UNL A   1      34.548  21.915  26.810  1.00  0.00     0.245 C 
ATOM      5  O   UNL A   1      34.207  21.548  27.934  1.00  0.00    -0.273 OA
ATOM      6  H   UNL A   1      36.481  21.975  27.355  1.00  0.00     0.163 HD
BRANCH   4   7
ATOM      7  C   UNL A   1      33.535  22.130  25.647  1.00  0.00     0.200 C 
BRANCH   7   8
ATOM      8  N   UNL A   1      32.612  23.218  25.994  1.00  0.00    -0.340 N 
ATOM      9  C   UNL A   1      32.733  24.574  25.927  1.00  0.00     0.240 C 
ATOM     10  O   UNL A   1      31.767  25.230  26.328  1.00  0.00    -0.273 OA
ATOM     11  H   UNL A   1      31.744  22.909  26.341  1.00  0.00     0.164 HD
BRANCH   9  12
ATOM     12  C   UNL A   1      33.976  25.284  25.340  1.00  0.00     0.226 C 
BRANCH  12  13
ATOM     13  N   UNL A   1      33.743  26.165  24.204  1.00  0.00    -0.294 N 
ATOM     14  C   UNL A   1      33.326  24.338  22.495  1.00  0.00     0.065 C 
ATOM     15  C   UNL A   1      33.517  25.764  22.890  1.00  0.00     0.029 A 
ATOM     16  C   UNL A   1      33.416  26.790  22.031  1.00  0.00     0.091 A 
ATOM     17  S   UNL A   1      33.491  28.324  22.832  1.00  0.00    -0.082 S 
ATOM     18  C   UNL A   1      33.657  27.540  24.408  1.00  0.00     0.307 A 
ATOM     19  O   UNL A   1      33.725  28.159  25.460  1.00  0.00    -0.257 OA
ENDBRANCH  12  13
ENDBRANCH   9  12
ENDBRANCH   7   8
BRANCH   7  20
ATOM     20  C   UNL A   1      32.803  20.803  25.296  1.00  0.00     0.143 C 
ATOM     21  C   UNL A   1      32.419  20.687  23.824  1.00  0.00     0.041 C 
BRANCH  20  22
ATOM     22  O   UNL A   1      33.617  19.656  25.576  1.00  0.00    -0.391 OA
ATOM     23  H   UNL A   1      33.231  18.874  25.151  1.00  0.00     0.211 HD
ENDBRANCH  20  22
ENDBRANCH   7  20
ENDBRANCH   4   7
ENDBRANCH   2   3
ENDBRANCH   1   2
BRANCH   1  24
ATOM     24  C   UNL A   1      38.328  23.447  26.528  1.00  0.00     0.118 C 
BRANCH  24  25
ATOM     25  N   UNL A   1      39.487  22.539  26.621  1.00  0.00    -0.352 N 
ATOM     26  C   UNL A   1      40.834  22.878  26.545  1.00  0.00     0.251 C 
ATOM     27  H   UNL A   1      39.284  21.584  26.753  1.00  0.00     0.163 HD
ATOM     28  O   UNL A   1      41.710  22.052  26.327  1.00  0.00    -0.269 OA
BRANCH  26  29
ATOM     29  C   UNL A   1      41.166  24.289  26.787  1.00  0.00     0.039 A 
ATOM     30  C   UNL A   1      40.753  25.336  25.959  1.00  0.00     0.014 A 
ATOM     31  C   UNL A   1      41.718  24.521  28.036  1.00  0.00     0.014 A 
ATOM     32  C   UNL A   1      40.808  26.636  26.465  1.00  0.00     0.010 A 
ATOM     33  C   UNL A   1      41.470  25.727  28.612  1.00  0.00     0.010 A 
ATOM     34  C   UNL A   1      41.142  26.814  27.814  1.00  0.00    -0.014 A 
BRANCH  34  35
ATOM     35  C   UNL A   1      41.118  28.097  28.500  1.00  0.00     0.031 A 
ATOM     36  C   UNL A   1      42.189  29.054  28.105  1.00  0.00     0.074 A 
ATOM     37  C   UNL A   1      40.014  28.479  29.188  1.00  0.00     0.049 A 
ATOM     38  N   UNL A   1      43.177  29.481  28.818  1.00  0.00    -0.248 NA
ATOM     39  C   UNL A   1      42.250  29.492  26.698  1.00  0.00     0.031 C 
ATOM     40  C   UNL A   1      38.718  27.785  29.325  1.00  0.00     0.029 A 
ATOM     41  N   UNL A   1      39.761  29.656  29.805  1.00  0.00    -0.354 N 
ATOM     42  C   UNL A   1      43.859  30.407  28.031  1.00  0.00     0.074 A 
ATOM     43  C   UNL A   1      43.364  30.228  26.689  1.00  0.00     0.031 C 
ATOM     44  C   UNL A   1      37.768  28.656  29.733  1.00  0.00     0.029 A 
ATOM     45  C   UNL A   1      38.423  29.893  30.102  1.00  0.00     0.049 A 
ATOM     46  H   UNL A   1      40.473  30.299  30.028  1.00  0.00     0.167 HD
ATOM     47  C   UNL A   1      44.606  31.406  28.583  1.00  0.00     0.031 A 
ATOM     48  C   UNL A   1      37.895  31.037  30.607  1.00  0.00     0.031 A 
ATOM     49  C   UNL A   1      44.782  31.199  29.999  1.00  0.00     0.049 A 
ATOM     50  C   UNL A   1      39.032  31.787  31.199  1.00  0.00     0.074 A 
ATOM     51  C   UNL A   1      45.402  30.240  30.772  1.00  0.00     0.029 A 
ATOM     52  N   UNL A   1      43.889  31.841  30.827  1.00  0.00    -0.354 N 
ATOM     53  N   UNL A   1      39.749  31.338  32.195  1.00  0.00    -0.248 NA
ATOM     54  C   UNL A   1      39.681  32.785  30.364  1.00  0.00     0.031 C 
ATOM     55  C   UNL A   1      44.510  30.029  31.867  1.00  0.00     0.029 A 
ATOM     56  C   UNL A   1      43.447  30.929  31.752  1.00  0.00     0.049 A 
ATOM     57  H   UNL A   1      43.618  32.786  30.767  1.00  0.00     0.167 HD
ATOM     58  C   UNL A   1      41.059  31.669  31.874  1.00  0.00     0.074 A 
ATOM     59  C   UNL A   1      40.944  32.626  30.772  1.00  0.00     0.031 C 
ATOM     60  C   UNL A   1      42.115  30.929  32.331  1.00  0.00     0.031 A 
BRANCH  47  61
ATOM     61  C   UNL A   1      44.855  32.756  27.951  1.00  0.00    -0.014 A 
ATOM     62  C   UNL A   1      46.154  33.056  27.485  1.00  0.00     0.010 A 
ATOM     63  C   UNL A   1      43.944  33.829  28.026  1.00  0.00     0.010 A 
ATOM     64  C   UNL A   1      46.538  34.370  27.181  1.00  0.00     0.020 A 
ATOM     65  C   UNL A   1      44.305  35.137  27.687  1.00  0.00     0.020 A 
ATOM     66  C   UNL A   1      45.611  35.405  27.299  1.00  0.00     0.054 A 
BRANCH  66  67
ATOM     67  S   UNL A   1      46.145  37.109  27.001  1.00  0.00     0.124 S 
ATOM     68  O   UNL A   1      47.022  36.952  25.844  1.00  0.00    -0.237 OA
ATOM     69  O   UNL A   1      44.878  37.790  26.748  1.00  0.00    -0.237 OA
ATOM     70  O   UNL A   1      46.811  37.482  28.247  1.00  0.00    -0.744 OA
ENDBRANCH  66  67
ENDBRANCH  47  61
BRANCH  48  71
ATOM     71  C   UNL A   1      36.599  31.674  30.255  1.00  0.00    -0.014 A 
ATOM     72  C   UNL A   1      35.856  32.396  31.208  1.00  0.00     0.010 A 
ATOM     73  C   UNL A   1      36.236  31.822  28.898  1.00  0.00     0.010 A 
ATOM     74  C   UNL A   1      34.831  33.277  30.815  1.00  0.00     0.020 A 
ATOM     75  C   UNL A   1      35.216  32.699  28.500  1.00  0.00     0.020 A 
ATOM     76  C   UNL A   1      34.532  33.440  29.460  1.00  0.00     0.054 A 
BRANCH  76  77
ATOM     77  S   UNL A   1      33.331  34.712  28.952  1.00  0.00     0.124 S 
ATOM     78  O   UNL A   1      32.635  34.998  30.203  1.00  0.00    -0.237 OA
ATOM     79  O   UNL A   1      34.192  35.779  28.450  1.00  0.00    -0.237 OA
ATOM     80  O   UNL A   1      32.527  34.038  27.934  1.00  0.00    -0.744 OA
ENDBRANCH  76  77
ENDBRANCH  48  71
BRANCH  60  81
ATOM     81  C   UNL A   1      41.862  29.879  33.395  1.00  0.00    -0.014 A 
ATOM     82  C   UNL A   1      41.444  28.558  33.128  1.00  0.00     0.010 A 
ATOM     83  C   UNL A   1      42.251  30.200  34.706  1.00  0.00     0.010 A 
ATOM     84  C   UNL A   1      41.412  27.593  34.151  1.00  0.00     0.020 A 
ATOM     85  C   UNL A   1      42.237  29.243  35.723  1.00  0.00     0.020 A 
ATOM     86  C   UNL A   1      41.813  27.943  35.445  1.00  0.00     0.054 A 
BRANCH  86  87
ATOM     87  S   UNL A   1      41.832  26.689  36.758  1.00  0.00     0.124 S 
ATOM     88  O   UNL A   1      41.919  25.441  36.005  1.00  0.00    -0.237 OA
ATOM     89  O   UNL A   1      43.021  27.041  37.530  1.00  0.00    -0.237 OA
ATOM     90  O   UNL A   1      40.565  26.899  37.460  1.00  0.00    -0.744 OA
ENDBRANCH  86  87
ENDBRANCH  60  81
ENDBRANCH  34  35
ENDBRANCH  26  29
ENDBRANCH  24  25
ENDBRANCH   1  24
TORSDOF 18
ENDMDL
MODEL 3
REMARK VINA RESULT:     -11.5      3.131      7.539
REMARK SMILES Cc1csc(=O)n1CC(=O)N[C@@H](C(=O)NCCCNC(=O)c1ccc(-c2c3nc(c(-c4ccc(S(=O)(=O)[O-])cc4)c4ccc([nH]4)c(-c4ccc(S(=O)(=O)[O-])cc4)c4nc(c(-c5ccc(S(=O)(=O)[O-])cc5)c5ccc2[nH]5)C=C4)C=C3)cc1)[C@@H](C)O
REMARK SMILES IDX 17 1 16 2 15 3 13 4 14 5 12 7 11 8 9 9 10 10 8 12 7 13 1 14
REMARK SMILES IDX 2 15 3 16 4 17 5 18 6 19 82 20 83 21 84 22 18 24 19 25 20 26
REMARK SMILES IDX 21 28 22 29 23 30 81 31 24 32 80 33 25 34 26 35 27 36 74 37
REMARK SMILES IDX 28 38 79 39 73 40 75 41 29 42 78 43 72 44 71 45 30 47 60 48
REMARK SMILES IDX 41 49 59 50 42 51 45 52 58 53 76 54 43 55 44 56 57 58 77 59
REMARK SMILES IDX 46 60 31 61 32 62 40 63 33 64 39 65 34 66 35 67 36 68 37 69
REMARK SMILES IDX 38 70 61 71 62 72 70 73 63 74 69 75 64 76 65 77 66 78 67 79
REMARK SMILES IDX 68 80 47 81 48 82 56 83 49 84 55 85 50 86 51 87 52 88 53 89
REMARK SMILES IDX 54 90
REMARK H PARENT 15 6 11 11 84 23 19 27 75 46 45 57
REMARK Flexibility Score: inf
ROOT
ATOM      1  C   UNL A   1      37.504  21.309  24.677  1.00  0.00     0.042 C 
ENDROOT
BRANCH   1   2
ATOM      2  C   UNL A   1      36.436  22.322  25.086  1.00  0.00     0.117 C 
BRANCH   2   3
ATOM      3  N   UNL A   1      35.761  22.008  26.328  1.00  0.00    -0.354 N 
ATOM      4  C   UNL A   1      34.412  21.887  26.551  1.00  0.00     0.245 C 
ATOM      5  O   UNL A   1      34.063  21.375  27.614  1.00  0.00    -0.273 OA
ATOM      6  H   UNL A   1      36.342  21.863  27.109  1.00  0.00     0.163 HD
BRANCH   4   7
ATOM      7  C   UNL A   1      33.406  22.260  25.423  1.00  0.00     0.200 C 
BRANCH   7   8
ATOM      8  N   UNL A   1      32.419  23.215  25.941  1.00  0.00    -0.340 N 
ATOM      9  C   UNL A   1      32.497  24.547  26.223  1.00  0.00     0.240 C 
ATOM     10  O   UNL A   1      31.477  25.070  26.682  1.00  0.00    -0.273 OA
ATOM     11  H   UNL A   1      31.535  22.820  26.117  1.00  0.00     0.164 HD
BRANCH   9  12
ATOM     12  C   UNL A   1      33.761  25.396  25.948  1.00  0.00     0.226 C 
BRANCH  12  13
ATOM     13  N   UNL A   1      33.664  26.374  24.872  1.00  0.00    -0.294 N 
ATOM     14  C   UNL A   1      34.007  28.432  26.314  1.00  0.00     0.065 C 
ATOM     15  C   UNL A   1      33.701  27.758  25.019  1.00  0.00     0.029 A 
ATOM     16  C   UNL A   1      33.506  28.419  23.868  1.00  0.00     0.091 A 
ATOM     17  S   UNL A   1      33.371  27.350  22.513  1.00  0.00    -0.082 S 
ATOM     18  C   UNL A   1      33.600  25.937  23.551  1.00  0.00     0.307 A 
ATOM     19  O   UNL A   1      33.640  24.792  23.126  1.00  0.00    -0.257 OA
ENDBRANCH  12  13
ENDBRANCH   9  12
ENDBRANCH   7   8
BRANCH   7  20
ATOM     20  C   UNL A   1      32.755  20.985  24.815  1.00  0.00     0.143 C 
ATOM     21  C   UNL A   1      33.760  19.888  24.473  1.00  0.00     0.041 C 
BRANCH  20  22
ATOM     22  O   UNL A   1      31.817  20.384  25.718  1.00  0.00    -0.391 OA
ATOM     23  H   UNL A   1      31.250  21.072  26.100  1.00  0.00     0.211 HD
ENDBRANCH  20  22
ENDBRANCH   7  20
ENDBRANCH   4   7
ENDBRANCH   2   3
ENDBRANCH   1   2
BRANCH   1  24
ATOM     24  C   UNL A   1      38.623  21.250  25.700  1.00  0.00     0.118 C 
BRANCH  24  25
ATOM     25  N   UNL A   1      39.294  19.938  25.772  1.00  0.00    -0.352 N 
ATOM     26  C   UNL A   1      40.648  19.691  25.974  1.00  0.00     0.251 C 
ATOM     27  H   UNL A   1      38.718  19.147  25.664  1.00  0.00     0.163 HD
ATOM     28  O   UNL A   1      41.166  18.613  25.721  1.00  0.00    -0.269 OA
BRANCH  26  29
ATOM     29  C   UNL A   1      41.430  20.789  26.560  1.00  0.00     0.039 A 
ATOM     30  C   UNL A   1      42.271  21.625  25.818  1.00  0.00     0.014 A 
ATOM     31  C   UNL A   1      41.080  21.082  27.867  1.00  0.00     0.014 A 
ATOM     32  C   UNL A   1      42.670  22.832  26.393  1.00  0.00     0.010 A 
ATOM     33  C   UNL A   1      41.213  22.372  28.274  1.00  0.00     0.010 A 
ATOM     34  C   UNL A   1      42.105  23.209  27.618  1.00  0.00    -0.014 A 
BRANCH  34  35
ATOM     35  C   UNL A   1      42.337  24.491  28.265  1.00  0.00     0.031 A 
ATOM     36  C   UNL A   1      41.276  25.516  28.053  1.00  0.00     0.074 A 
ATOM     37  C   UNL A   1      43.277  24.603  29.235  1.00  0.00     0.049 A 
ATOM     38  N   UNL A   1      41.359  26.623  27.394  1.00  0.00    -0.248 NA
ATOM     39  C   UNL A   1      39.909  25.213  28.519  1.00  0.00     0.031 C 
ATOM     40  C   UNL A   1      44.132  23.554  29.825  1.00  0.00     0.029 A 
ATOM     41  N   UNL A   1      43.575  25.670  30.013  1.00  0.00    -0.354 N 
ATOM     42  C   UNL A   1      40.130  27.263  27.544  1.00  0.00     0.074 A 
ATOM     43  C   UNL A   1      39.229  26.272  28.073  1.00  0.00     0.031 C 
ATOM     44  C   UNL A   1      44.626  23.974  31.012  1.00  0.00     0.029 A 
ATOM     45  C   UNL A   1      44.317  25.381  31.154  1.00  0.00     0.049 A 
ATOM     46  H   UNL A   1      43.287  26.584  29.788  1.00  0.00     0.167 HD
ATOM     47  C   UNL A   1      40.010  28.618  27.440  1.00  0.00     0.031 A 
ATOM     48  C   UNL A   1      44.641  26.244  32.149  1.00  0.00     0.031 A 
ATOM     49  C   UNL A   1      41.219  29.207  26.922  1.00  0.00     0.049 A 
ATOM     50  C   UNL A   1      44.465  27.606  31.585  1.00  0.00     0.074 A 
ATOM     51  C   UNL A   1      41.907  29.128  25.729  1.00  0.00     0.029 A 
ATOM     52  N   UNL A   1      42.118  29.678  27.852  1.00  0.00    -0.354 N 
ATOM     53  N   UNL A   1      45.158  28.061  30.575  1.00  0.00    -0.248 NA
ATOM     54  C   UNL A   1      43.187  28.263  31.810  1.00  0.00     0.031 C 
ATOM     55  C   UNL A   1      43.281  29.078  26.109  1.00  0.00     0.029 A 
ATOM     56  C   UNL A   1      43.363  29.222  27.497  1.00  0.00     0.049 A 
ATOM     57  H   UNL A   1      41.905  30.242  28.631  1.00  0.00     0.167 HD
ATOM     58  C   UNL A   1      44.243  28.755  29.793  1.00  0.00     0.074 A 
ATOM     59  C   UNL A   1      43.063  28.909  30.647  1.00  0.00     0.031 C 
ATOM     60  C   UNL A   1      44.414  28.890  28.443  1.00  0.00     0.031 A 
BRANCH  47  61
ATOM     61  C   UNL A   1      38.971  29.455  28.150  1.00  0.00    -0.014 A 
ATOM     62  C   UNL A   1      37.691  29.583  27.569  1.00  0.00     0.010 A 
ATOM     63  C   UNL A   1      39.272  30.323  29.219  1.00  0.00     0.010 A 
ATOM     64  C   UNL A   1      36.790  30.572  27.988  1.00  0.00     0.020 A 
ATOM     65  C   UNL A   1      38.365  31.287  29.673  1.00  0.00     0.020 A 
ATOM     66  C   UNL A   1      37.142  31.429  29.031  1.00  0.00     0.054 A 
BRANCH  66  67
ATOM     67  S   UNL A   1      36.015  32.766  29.496  1.00  0.00     0.124 S 
ATOM     68  O   UNL A   1      34.833  32.026  29.930  1.00  0.00    -0.237 OA
ATOM     69  O   UNL A   1      36.760  33.445  30.553  1.00  0.00    -0.237 OA
ATOM     70  O   UNL A   1      35.858  33.529  28.260  1.00  0.00    -0.744 OA
ENDBRANCH  66  67
ENDBRANCH  47  61
BRANCH  48  71
ATOM     71  C   UNL A   1      44.689  25.971  33.610  1.00  0.00    -0.014 A 
ATOM     72  C   UNL A   1      45.863  26.191  34.356  1.00  0.00     0.010 A 
ATOM     73  C   UNL A   1      43.489  25.775  34.328  1.00  0.00     0.010 A 
ATOM     74  C   UNL A   1      45.827  26.271  35.761  1.00  0.00     0.020 A 
ATOM     75  C   UNL A   1      43.446  25.855  35.727  1.00  0.00     0.020 A 
ATOM     76  C   UNL A   1      44.613  26.125  36.437  1.00  0.00     0.054 A 
BRANCH  76  77
ATOM     77  S   UNL A   1      44.547  26.408  38.235  1.00  0.00     0.124 S 
ATOM     78  O   UNL A   1      45.200  27.707  38.369  1.00  0.00    -0.237 OA
ATOM     79  O   UNL A   1      43.112  26.393  38.506  1.00  0.00    -0.237 OA
ATOM     80  O   UNL A   1      45.291  25.279  38.789  1.00  0.00    -0.744 OA
ENDBRANCH  76  77
ENDBRANCH  48  71
BRANCH  60  81
ATOM     81  C   UNL A   1      45.740  28.482  27.833  1.00  0.00    -0.014 A 
ATOM     82  C   UNL A   1      46.074  27.162  27.461  1.00  0.00     0.010 A 
ATOM     83  C   UNL A   1      46.606  29.519  27.449  1.00  0.00     0.010 A 
ATOM     84  C   UNL A   1      47.247  26.895  26.731  1.00  0.00     0.020 A 
ATOM     85  C   UNL A   1      47.764  29.263  26.710  1.00  0.00     0.020 A 
ATOM     86  C   UNL A   1      48.084  27.952  26.358  1.00  0.00     0.054 A 
BRANCH  86  87
ATOM     87  S   UNL A   1      49.570  27.623  25.365  1.00  0.00     0.124 S 
ATOM     88  O   UNL A   1      49.009  27.222  24.078  1.00  0.00    -0.237 OA
ATOM     89  O   UNL A   1      50.262  28.909  25.376  1.00  0.00    -0.237 OA
ATOM     90  O   UNL A   1      50.252  26.557  26.100  1.00  0.00    -0.744 OA
ENDBRANCH  86  87
ENDBRANCH  60  81
ENDBRANCH  34  35
ENDBRANCH  26  29
ENDBRANCH  24  25
ENDBRANCH   1  24
TORSDOF 18
ENDMDL
