MODEL 1
REMARK VINA RESULT:     -10.9      0.000      0.000
REMARK SMILES COc1ccccc1N1C(=O)CC[C@H]1CC(=O)NCCCNC(=O)c1ccc(-c2c3nc(c(-c4ccc(S(=O)(=O)[O-])cc4)c4ccc([nH]4)c(-c4ccc(S(=O)(=O)[O-])cc4)c4nc(c(-c5ccc(S(=O)(=O)[O-])cc5)c5ccc2[nH]5)C=C4)C=C3)cc1
REMARK SMILES IDX 20 1 19 2 18 3 16 4 17 5 15 7 14 8 9 9 10 10 11 11 12 12
REMARK SMILES IDX 13 13 8 14 3 15 4 16 5 17 7 18 6 19 2 20 1 21 21 22 22 23
REMARK SMILES IDX 23 24 24 26 25 27 26 28 84 29 27 30 83 31 28 32 29 33 30 34
REMARK SMILES IDX 77 35 31 36 82 37 76 38 78 39 32 40 81 41 75 42 74 43 33 45
REMARK SMILES IDX 63 46 44 47 62 48 45 49 48 50 61 51 79 52 46 53 47 54 60 56
REMARK SMILES IDX 80 57 49 58 34 59 35 60 43 61 36 62 42 63 37 64 38 65 39 66
REMARK SMILES IDX 40 67 41 68 64 69 65 70 73 71 66 72 72 73 67 74 68 75 69 76
REMARK SMILES IDX 70 77 71 78 50 79 51 80 59 81 52 82 58 83 53 84 54 85 55 86
REMARK SMILES IDX 56 87 57 88
REMARK H PARENT 18 6 22 25 78 44 48 55
REMARK Flexibility Score: inf
ROOT
ATOM      1  C   UNL A   1      31.914  27.801  27.625  1.00  0.00     0.042 C 
ENDROOT
BRANCH   1   2
ATOM      2  C   UNL A   1      31.206  27.219  26.410  1.00  0.00     0.117 C 
BRANCH   2   3
ATOM      3  N   UNL A   1      31.092  25.776  26.447  1.00  0.00    -0.356 N 
ATOM      4  C   UNL A   1      32.020  24.794  26.426  1.00  0.00     0.222 C 
ATOM      5  O   UNL A   1      31.624  23.667  26.754  1.00  0.00    -0.275 OA
ATOM      6  H   UNL A   1      30.165  25.450  26.497  1.00  0.00     0.163 HD
BRANCH   4   7
ATOM      7  C   UNL A   1      33.488  24.995  26.106  1.00  0.00     0.125 C 
BRANCH   7   8
ATOM      8  C   UNL A   1      34.090  24.974  24.687  1.00  0.00     0.100 C 
ATOM      9  N   UNL A   1      34.149  23.783  23.852  1.00  0.00    -0.305 N 
ATOM     10  C   UNL A   1      33.784  24.065  22.524  1.00  0.00     0.227 C 
ATOM     11  O   UNL A   1      33.653  23.278  21.598  1.00  0.00    -0.275 OA
ATOM     12  C   UNL A   1      33.524  25.540  22.389  1.00  0.00     0.103 C 
ATOM     13  C   UNL A   1      33.414  26.037  23.812  1.00  0.00     0.036 C 
BRANCH   9  14
ATOM     14  C   UNL A   1      34.965  22.650  24.165  1.00  0.00     0.086 A 
ATOM     15  C   UNL A   1      34.438  21.431  24.643  1.00  0.00     0.142 A 
ATOM     16  C   UNL A   1      35.281  20.371  25.004  1.00  0.00     0.048 A 
ATOM     17  C   UNL A   1      36.661  20.487  24.873  1.00  0.00     0.004 A 
ATOM     18  C   UNL A   1      36.354  22.739  24.057  1.00  0.00     0.030 A 
ATOM     19  C   UNL A   1      37.198  21.675  24.402  1.00  0.00     0.002 A 
BRANCH  15  20
ATOM     20  O   UNL A   1      33.100  21.205  24.849  1.00  0.00    -0.495 OA
ATOM     21  C   UNL A   1      32.820  19.846  25.153  1.00  0.00     0.278 C 
ENDBRANCH  15  20
ENDBRANCH   9  14
ENDBRANCH   7   8
ENDBRANCH   4   7
ENDBRANCH   2   3
ENDBRANCH   1   2
BRANCH   1  22
ATOM     22  C   UNL A   1      33.310  28.359  27.371  1.00  0.00     0.118 C 
BRANCH  22  23
ATOM     23  N   UNL A   1      33.340  29.808  27.461  1.00  0.00    -0.352 N 
ATOM     24  C   UNL A   1      34.308  30.658  27.934  1.00  0.00     0.251 C 
ATOM     25  H   UNL A   1      32.531  30.256  27.125  1.00  0.00     0.163 HD
ATOM     26  O   UNL A   1      33.996  31.828  28.151  1.00  0.00    -0.269 OA
BRANCH  24  27
ATOM     27  C   UNL A   1      35.702  30.213  28.197  1.00  0.00     0.039 A 
ATOM     28  C   UNL A   1      36.025  29.772  29.487  1.00  0.00     0.014 A 
ATOM     29  C   UNL A   1      36.715  30.314  27.241  1.00  0.00     0.014 A 
ATOM     30  C   UNL A   1      37.338  29.409  29.804  1.00  0.00     0.010 A 
ATOM     31  C   UNL A   1      38.011  29.876  27.534  1.00  0.00     0.010 A 
ATOM     32  C   UNL A   1      38.343  29.439  28.825  1.00  0.00    -0.014 A 
BRANCH  32  33
ATOM     33  C   UNL A   1      39.745  29.055  29.148  1.00  0.00     0.031 A 
ATOM     34  C   UNL A   1      40.664  30.033  29.837  1.00  0.00     0.074 A 
ATOM     35  C   UNL A   1      40.208  27.838  28.801  1.00  0.00     0.049 A 
ATOM     36  N   UNL A   1      41.923  29.890  30.175  1.00  0.00    -0.248 NA
ATOM     37  C   UNL A   1      40.102  31.349  30.176  1.00  0.00     0.031 C 
ATOM     38  C   UNL A   1      39.434  26.803  28.114  1.00  0.00     0.029 A 
ATOM     39  N   UNL A   1      41.444  27.264  28.980  1.00  0.00    -0.354 N 
ATOM     40  C   UNL A   1      42.304  31.099  30.748  1.00  0.00     0.074 A 
ATOM     41  C   UNL A   1      41.157  31.980  30.669  1.00  0.00     0.031 C 
ATOM     42  C   UNL A   1      40.200  25.710  27.960  1.00  0.00     0.029 A 
ATOM     43  C   UNL A   1      41.531  25.980  28.497  1.00  0.00     0.049 A 
ATOM     44  H   UNL A   1      42.196  27.729  29.413  1.00  0.00     0.167 HD
ATOM     45  C   UNL A   1      43.489  31.444  31.307  1.00  0.00     0.031 A 
ATOM     46  C   UNL A   1      42.565  25.115  28.483  1.00  0.00     0.031 A 
ATOM     47  C   UNL A   1      44.630  30.569  31.389  1.00  0.00     0.049 A 
ATOM     48  C   UNL A   1      43.882  25.529  29.081  1.00  0.00     0.074 A 
ATOM     49  C   UNL A   1      45.863  30.813  31.969  1.00  0.00     0.029 A 
ATOM     50  N   UNL A   1      44.679  29.282  30.874  1.00  0.00    -0.354 N 
ATOM     51  N   UNL A   1      44.206  26.660  29.659  1.00  0.00    -0.248 NA
ATOM     52  C   UNL A   1      44.971  24.543  29.030  1.00  0.00     0.031 C 
ATOM     53  C   UNL A   1      46.673  29.690  31.764  1.00  0.00     0.029 A 
ATOM     54  C   UNL A   1      45.927  28.727  31.105  1.00  0.00     0.049 A 
ATOM     55  H   UNL A   1      43.936  28.831  30.411  1.00  0.00     0.167 HD
ATOM     56  C   UNL A   1      45.527  26.510  30.070  1.00  0.00     0.074 A 
ATOM     57  C   UNL A   1      45.937  25.176  29.681  1.00  0.00     0.031 C 
ATOM     58  C   UNL A   1      46.324  27.397  30.715  1.00  0.00     0.031 A 
BRANCH  45  59
ATOM     59  C   UNL A   1      43.611  32.839  31.865  1.00  0.00    -0.014 A 
ATOM     60  C   UNL A   1      43.255  33.122  33.196  1.00  0.00     0.010 A 
ATOM     61  C   UNL A   1      44.103  33.879  31.054  1.00  0.00     0.010 A 
ATOM     62  C   UNL A   1      43.332  34.428  33.689  1.00  0.00     0.020 A 
ATOM     63  C   UNL A   1      44.210  35.181  31.553  1.00  0.00     0.020 A 
ATOM     64  C   UNL A   1      43.802  35.452  32.860  1.00  0.00     0.054 A 
BRANCH  64  65
ATOM     65  S   UNL A   1      43.886  37.138  33.522  1.00  0.00     0.124 S 
ATOM     66  O   UNL A   1      45.132  37.100  34.284  1.00  0.00    -0.237 OA
ATOM     67  O   UNL A   1      43.916  37.959  32.314  1.00  0.00    -0.237 OA
ATOM     68  O   UNL A   1      42.671  37.260  34.323  1.00  0.00    -0.744 OA
ENDBRANCH  64  65
ENDBRANCH  45  59
BRANCH  46  69
ATOM     69  C   UNL A   1      42.385  23.753  27.906  1.00  0.00    -0.014 A 
ATOM     70  C   UNL A   1      41.877  22.709  28.699  1.00  0.00     0.010 A 
ATOM     71  C   UNL A   1      42.703  23.497  26.560  1.00  0.00     0.010 A 
ATOM     72  C   UNL A   1      41.704  21.431  28.161  1.00  0.00     0.020 A 
ATOM     73  C   UNL A   1      42.506  22.226  26.012  1.00  0.00     0.020 A 
ATOM     74  C   UNL A   1      42.016  21.198  26.819  1.00  0.00     0.054 A 
BRANCH  74  75
ATOM     75  S   UNL A   1      41.725  19.545  26.127  1.00  0.00     0.124 S 
ATOM     76  O   UNL A   1      42.562  19.566  24.932  1.00  0.00    -0.237 OA
ATOM     77  O   UNL A   1      42.179  18.667  27.204  1.00  0.00    -0.237 OA
ATOM     78  O   UNL A   1      40.284  19.525  25.884  1.00  0.00    -0.744 OA
ENDBRANCH  74  75
ENDBRANCH  46  69
BRANCH  58  79
ATOM     79  C   UNL A   1      47.712  26.942  31.083  1.00  0.00    -0.014 A 
ATOM     80  C   UNL A   1      47.968  26.277  32.295  1.00  0.00     0.010 A 
ATOM     81  C   UNL A   1      48.769  27.141  30.175  1.00  0.00     0.010 A 
ATOM     82  C   UNL A   1      49.262  25.847  32.605  1.00  0.00     0.020 A 
ATOM     83  C   UNL A   1      50.058  26.690  30.470  1.00  0.00     0.020 A 
ATOM     84  C   UNL A   1      50.298  26.058  31.691  1.00  0.00     0.054 A 
BRANCH  84  85
ATOM     85  S   UNL A   1      51.960  25.454  32.098  1.00  0.00     0.124 S 
ATOM     86  O   UNL A   1      51.734  24.020  32.251  1.00  0.00    -0.237 OA
ATOM     87  O   UNL A   1      52.740  25.846  30.926  1.00  0.00    -0.237 OA
ATOM     88  O   UNL A   1      52.297  26.167  33.329  1.00  0.00    -0.744 OA
ENDBRANCH  84  85
ENDBRANCH  58  79
ENDBRANCH  32  33
ENDBRANCH  24  27
ENDBRANCH  22  23
ENDBRANCH   1  22
TORSDOF 16
ENDMDL
MODEL 2
REMARK VINA RESULT:     -10.8      3.411      7.338
REMARK SMILES COc1ccccc1N1C(=O)CC[C@H]1CC(=O)NCCCNC(=O)c1ccc(-c2c3nc(c(-c4ccc(S(=O)(=O)[O-])cc4)c4ccc([nH]4)c(-c4ccc(S(=O)(=O)[O-])cc4)c4nc(c(-c5ccc(S(=O)(=O)[O-])cc5)c5ccc2[nH]5)C=C4)C=C3)cc1
REMARK SMILES IDX 20 1 19 2 18 3 16 4 17 5 15 7 14 8 9 9 10 10 11 11 12 12
REMARK SMILES IDX 13 13 8 14 3 15 4 16 5 17 7 18 6 19 2 20 1 21 21 22 22 23
REMARK SMILES IDX 23 24 24 26 25 27 26 28 84 29 27 30 83 31 28 32 29 33 30 34
REMARK SMILES IDX 77 35 31 36 82 37 76 38 78 39 32 40 81 41 75 42 74 43 33 45
REMARK SMILES IDX 63 46 44 47 62 48 45 49 48 50 61 51 79 52 46 53 47 54 60 56
REMARK SMILES IDX 80 57 49 58 34 59 35 60 43 61 36 62 42 63 37 64 38 65 39 66
REMARK SMILES IDX 40 67 41 68 64 69 65 70 73 71 66 72 72 73 67 74 68 75 69 76
REMARK SMILES IDX 70 77 71 78 50 79 51 80 59 81 52 82 58 83 53 84 54 85 55 86
REMARK SMILES IDX 56 87 57 88
REMARK H PARENT 18 6 22 25 78 44 48 55
REMARK Flexibility Score: inf
ROOT
ATOM      1  C   UNL A   1      34.766  32.892  30.051  1.00  0.00     0.042 C 
ENDROOT
BRANCH   1   2
ATOM      2  C   UNL A   1      35.871  33.837  30.500  1.00  0.00     0.117 C 
BRANCH   2   3
ATOM      3  N   UNL A   1      35.478  34.706  31.589  1.00  0.00    -0.356 N 
ATOM      4  C   UNL A   1      35.495  34.541  32.930  1.00  0.00     0.222 C 
ATOM      5  O   UNL A   1      35.360  35.571  33.605  1.00  0.00    -0.275 OA
ATOM      6  H   UNL A   1      35.135  35.581  31.298  1.00  0.00     0.163 HD
BRANCH   4   7
ATOM      7  C   UNL A   1      35.735  33.222  33.639  1.00  0.00     0.125 C 
BRANCH   7   8
ATOM      8  C   UNL A   1      37.085  32.479  33.682  1.00  0.00     0.100 C 
ATOM      9  N   UNL A   1      37.751  32.086  34.915  1.00  0.00    -0.305 N 
ATOM     10  C   UNL A   1      38.264  30.780  34.830  1.00  0.00     0.227 C 
ATOM     11  O   UNL A   1      38.804  30.126  35.711  1.00  0.00    -0.275 OA
ATOM     12  C   UNL A   1      38.016  30.244  33.448  1.00  0.00     0.103 C 
ATOM     13  C   UNL A   1      37.007  31.195  32.847  1.00  0.00     0.036 C 
BRANCH   9  14
ATOM     14  C   UNL A   1      38.292  33.029  35.845  1.00  0.00     0.086 A 
ATOM     15  C   UNL A   1      37.924  33.065  37.207  1.00  0.00     0.142 A 
ATOM     16  C   UNL A   1      38.426  34.052  38.067  1.00  0.00     0.048 A 
ATOM     17  C   UNL A   1      39.325  35.006  37.600  1.00  0.00     0.004 A 
ATOM     18  C   UNL A   1      39.186  34.008  35.406  1.00  0.00     0.030 A 
ATOM     19  C   UNL A   1      39.702  34.986  36.266  1.00  0.00     0.002 A 
BRANCH  15  20
ATOM     20  O   UNL A   1      37.021  32.203  37.777  1.00  0.00    -0.495 OA
ATOM     21  C   UNL A   1      36.904  32.392  39.180  1.00  0.00     0.278 C 
ENDBRANCH  15  20
ENDBRANCH   9  14
ENDBRANCH   7   8
ENDBRANCH   4   7
ENDBRANCH   2   3
ENDBRANCH   1   2
BRANCH   1  22
ATOM     22  C   UNL A   1      34.556  32.790  28.545  1.00  0.00     0.118 C 
BRANCH  22  23
ATOM     23  N   UNL A   1      33.848  31.577  28.176  1.00  0.00    -0.352 N 
ATOM     24  C   UNL A   1      34.315  30.324  27.864  1.00  0.00     0.251 C 
ATOM     25  H   UNL A   1      32.869  31.668  28.146  1.00  0.00     0.163 HD
ATOM     26  O   UNL A   1      33.539  29.534  27.328  1.00  0.00    -0.269 OA
BRANCH  24  27
ATOM     27  C   UNL A   1      35.712  29.901  28.143  1.00  0.00     0.039 A 
ATOM     28  C   UNL A   1      36.011  29.396  29.414  1.00  0.00     0.014 A 
ATOM     29  C   UNL A   1      36.749  30.082  27.223  1.00  0.00     0.014 A 
ATOM     30  C   UNL A   1      37.325  29.050  29.749  1.00  0.00     0.010 A 
ATOM     31  C   UNL A   1      38.047  29.662  27.530  1.00  0.00     0.010 A 
ATOM     32  C   UNL A   1      38.356  29.162  28.803  1.00  0.00    -0.014 A 
BRANCH  32  33
ATOM     33  C   UNL A   1      39.758  28.797  29.145  1.00  0.00     0.031 A 
ATOM     34  C   UNL A   1      40.646  29.777  29.872  1.00  0.00     0.074 A 
ATOM     35  C   UNL A   1      40.251  27.596  28.782  1.00  0.00     0.049 A 
ATOM     36  N   UNL A   1      41.900  29.650  30.230  1.00  0.00    -0.248 NA
ATOM     37  C   UNL A   1      40.052  31.075  30.227  1.00  0.00     0.031 C 
ATOM     38  C   UNL A   1      39.509  26.561  28.059  1.00  0.00     0.029 A 
ATOM     39  N   UNL A   1      41.493  27.041  28.973  1.00  0.00    -0.354 N 
ATOM     40  C   UNL A   1      42.247  30.853  30.836  1.00  0.00     0.074 A 
ATOM     41  C   UNL A   1      41.086  31.714  30.753  1.00  0.00     0.031 C 
ATOM     42  C   UNL A   1      40.298  25.486  27.898  1.00  0.00     0.029 A 
ATOM     43  C   UNL A   1      41.613  25.769  28.466  1.00  0.00     0.049 A 
ATOM     44  H   UNL A   1      42.228  27.511  29.430  1.00  0.00     0.167 HD
ATOM     45  C   UNL A   1      43.416  31.208  31.424  1.00  0.00     0.031 A 
ATOM     46  C   UNL A   1      42.663  24.924  28.454  1.00  0.00     0.031 A 
ATOM     47  C   UNL A   1      44.570  30.352  31.511  1.00  0.00     0.049 A 
ATOM     48  C   UNL A   1      43.961  25.349  29.085  1.00  0.00     0.074 A 
ATOM     49  C   UNL A   1      45.788  30.607  32.119  1.00  0.00     0.029 A 
ATOM     50  N   UNL A   1      44.654  29.078  30.970  1.00  0.00    -0.354 N 
ATOM     51  N   UNL A   1      44.252  26.474  29.692  1.00  0.00    -0.248 NA
ATOM     52  C   UNL A   1      45.069  24.384  29.035  1.00  0.00     0.031 C 
ATOM     53  C   UNL A   1      46.622  29.503  31.907  1.00  0.00     0.029 A 
ATOM     54  C   UNL A   1      45.907  28.541  31.214  1.00  0.00     0.049 A 
ATOM     55  H   UNL A   1      43.928  28.623  30.483  1.00  0.00     0.167 HD
ATOM     56  C   UNL A   1      45.568  26.339  30.125  1.00  0.00     0.074 A 
ATOM     57  C   UNL A   1      46.010  25.021  29.717  1.00  0.00     0.031 C 
ATOM     58  C   UNL A   1      46.336  27.227  30.804  1.00  0.00     0.031 A 
BRANCH  45  59
ATOM     59  C   UNL A   1      43.501  32.593  32.013  1.00  0.00    -0.014 A 
ATOM     60  C   UNL A   1      43.147  32.835  33.353  1.00  0.00     0.010 A 
ATOM     61  C   UNL A   1      43.954  33.666  31.223  1.00  0.00     0.010 A 
ATOM     62  C   UNL A   1      43.191  34.132  33.875  1.00  0.00     0.020 A 
ATOM     63  C   UNL A   1      44.028  34.959  31.750  1.00  0.00     0.020 A 
ATOM     64  C   UNL A   1      43.622  35.187  33.067  1.00  0.00     0.054 A 
BRANCH  64  65
ATOM     65  S   UNL A   1      43.662  36.860  33.767  1.00  0.00     0.124 S 
ATOM     66  O   UNL A   1      42.362  36.940  34.428  1.00  0.00    -0.237 OA
ATOM     67  O   UNL A   1      44.817  36.809  34.660  1.00  0.00    -0.237 OA
ATOM     68  O   UNL A   1      43.821  37.722  32.599  1.00  0.00    -0.744 OA
ENDBRANCH  64  65
ENDBRANCH  45  59
BRANCH  46  69
ATOM     69  C   UNL A   1      42.520  23.572  27.845  1.00  0.00    -0.014 A 
ATOM     70  C   UNL A   1      42.983  23.330  26.539  1.00  0.00     0.010 A 
ATOM     71  C   UNL A   1      41.937  22.517  28.569  1.00  0.00     0.010 A 
ATOM     72  C   UNL A   1      42.854  22.063  25.964  1.00  0.00     0.020 A 
ATOM     73  C   UNL A   1      41.830  21.241  28.006  1.00  0.00     0.020 A 
ATOM     74  C   UNL A   1      42.281  21.025  26.703  1.00  0.00     0.054 A 
BRANCH  74  75
ATOM     75  S   UNL A   1      42.180  19.373  25.957  1.00  0.00     0.124 S 
ATOM     76  O   UNL A   1      43.015  19.524  24.771  1.00  0.00    -0.237 OA
ATOM     77  O   UNL A   1      42.722  18.517  27.010  1.00  0.00    -0.237 OA
ATOM     78  O   UNL A   1      40.751  19.200  25.701  1.00  0.00    -0.744 OA
ENDBRANCH  74  75
ENDBRANCH  46  69
BRANCH  58  79
ATOM     79  C   UNL A   1      47.725  26.790  31.189  1.00  0.00    -0.014 A 
ATOM     80  C   UNL A   1      47.970  26.103  32.391  1.00  0.00     0.010 A 
ATOM     81  C   UNL A   1      48.795  27.029  30.307  1.00  0.00     0.010 A 
ATOM     82  C   UNL A   1      49.266  25.690  32.717  1.00  0.00     0.020 A 
ATOM     83  C   UNL A   1      50.087  26.596  30.618  1.00  0.00     0.020 A 
ATOM     84  C   UNL A   1      50.315  25.941  31.829  1.00  0.00     0.054 A 
BRANCH  84  85
ATOM     85  S   UNL A   1      51.980  25.359  32.255  1.00  0.00     0.124 S 
ATOM     86  O   UNL A   1      52.206  26.001  33.546  1.00  0.00    -0.237 OA
ATOM     87  O   UNL A   1      51.813  23.908  32.295  1.00  0.00    -0.237 OA
ATOM     88  O   UNL A   1      52.812  25.854  31.159  1.00  0.00    -0.744 OA
ENDBRANCH  84  85
ENDBRANCH  58  79
ENDBRANCH  32  33
ENDBRANCH  24  27
ENDBRANCH  22  23
ENDBRANCH   1  22
TORSDOF 16
ENDMDL
MODEL 3
REMARK VINA RESULT:     -10.8      1.052      2.049
REMARK SMILES COc1ccccc1N1C(=O)CC[C@H]1CC(=O)NCCCNC(=O)c1ccc(-c2c3nc(c(-c4ccc(S(=O)(=O)[O-])cc4)c4ccc([nH]4)c(-c4ccc(S(=O)(=O)[O-])cc4)c4nc(c(-c5ccc(S(=O)(=O)[O-])cc5)c5ccc2[nH]5)C=C4)C=C3)cc1
REMARK SMILES IDX 20 1 19 2 18 3 16 4 17 5 15 7 14 8 9 9 10 10 11 11 12 12
REMARK SMILES IDX 13 13 8 14 3 15 4 16 5 17 7 18 6 19 2 20 1 21 21 22 22 23
REMARK SMILES IDX 23 24 24 26 25 27 26 28 84 29 27 30 83 31 28 32 29 33 30 34
REMARK SMILES IDX 77 35 31 36 82 37 76 38 78 39 32 40 81 41 75 42 74 43 33 45
REMARK SMILES IDX 63 46 44 47 62 48 45 49 48 50 61 51 79 52 46 53 47 54 60 56
REMARK SMILES IDX 80 57 49 58 34 59 35 60 43 61 36 62 42 63 37 64 38 65 39 66
REMARK SMILES IDX 40 67 41 68 64 69 65 70 73 71 66 72 72 73 67 74 68 75 69 76
REMARK SMILES IDX 70 77 71 78 50 79 51 80 59 81 52 82 58 83 53 84 54 85 55 86
REMARK SMILES IDX 56 87 57 88
REMARK H PARENT 18 6 22 25 78 44 48 55
REMARK Flexibility Score: inf
ROOT
ATOM      1  C   UNL A   1      33.645  28.023  25.594  1.00  0.00     0.042 C 
ENDROOT
BRANCH   1   2
ATOM      2  C   UNL A   1      33.707  26.571  25.145  1.00  0.00     0.117 C 
BRANCH   2   3
ATOM      3  N   UNL A   1      33.054  26.333  23.875  1.00  0.00    -0.356 N 
ATOM      4  C   UNL A   1      33.086  25.283  23.025  1.00  0.00     0.222 C 
ATOM      5  O   UNL A   1      32.201  25.261  22.158  1.00  0.00    -0.275 OA
ATOM      6  H   UNL A   1      32.480  27.074  23.576  1.00  0.00     0.163 HD
BRANCH   4   7
ATOM      7  C   UNL A   1      34.065  24.128  23.108  1.00  0.00     0.125 C 
BRANCH   7   8
ATOM      8  C   UNL A   1      33.925  22.923  24.058  1.00  0.00     0.100 C 
ATOM      9  N   UNL A   1      34.548  22.853  25.372  1.00  0.00    -0.305 N 
ATOM     10  C   UNL A   1      33.662  22.341  26.336  1.00  0.00     0.227 C 
ATOM     11  O   UNL A   1      33.846  22.230  27.540  1.00  0.00    -0.275 OA
ATOM     12  C   UNL A   1      32.373  21.958  25.665  1.00  0.00     0.103 C 
ATOM     13  C   UNL A   1      32.442  22.617  24.306  1.00  0.00     0.036 C 
BRANCH   9  14
ATOM     14  C   UNL A   1      35.964  22.780  25.561  1.00  0.00     0.086 A 
ATOM     15  C   UNL A   1      36.690  21.573  25.473  1.00  0.00     0.142 A 
ATOM     16  C   UNL A   1      38.067  21.536  25.736  1.00  0.00     0.048 A 
ATOM     17  C   UNL A   1      38.756  22.699  26.064  1.00  0.00     0.004 A 
ATOM     18  C   UNL A   1      36.683  23.926  25.905  1.00  0.00     0.030 A 
ATOM     19  C   UNL A   1      38.061  23.895  26.152  1.00  0.00     0.002 A 
BRANCH  15  20
ATOM     20  O   UNL A   1      36.120  20.357  25.192  1.00  0.00    -0.495 OA
ATOM     21  C   UNL A   1      37.079  19.388  24.791  1.00  0.00     0.278 C 
ENDBRANCH  15  20
ENDBRANCH   9  14
ENDBRANCH   7   8
ENDBRANCH   4   7
ENDBRANCH   2   3
ENDBRANCH   1   2
BRANCH   1  22
ATOM     22  C   UNL A   1      33.530  28.245  27.098  1.00  0.00     0.118 C 
BRANCH  22  23
ATOM     23  N   UNL A   1      33.492  29.656  27.437  1.00  0.00    -0.352 N 
ATOM     24  C   UNL A   1      34.412  30.453  28.072  1.00  0.00     0.251 C 
ATOM     25  H   UNL A   1      32.667  30.120  27.166  1.00  0.00     0.163 HD
ATOM     26  O   UNL A   1      34.042  31.553  28.480  1.00  0.00    -0.269 OA
BRANCH  24  27
ATOM     27  C   UNL A   1      35.821  30.030  28.285  1.00  0.00     0.039 A 
ATOM     28  C   UNL A   1      36.199  29.603  29.564  1.00  0.00     0.014 A 
ATOM     29  C   UNL A   1      36.796  30.139  27.290  1.00  0.00     0.014 A 
ATOM     30  C   UNL A   1      37.529  29.261  29.833  1.00  0.00     0.010 A 
ATOM     31  C   UNL A   1      38.108  29.723  27.537  1.00  0.00     0.010 A 
ATOM     32  C   UNL A   1      38.496  29.299  28.817  1.00  0.00    -0.014 A 
BRANCH  32  33
ATOM     33  C   UNL A   1      39.914  28.938  29.089  1.00  0.00     0.031 A 
ATOM     34  C   UNL A   1      40.845  29.935  29.735  1.00  0.00     0.074 A 
ATOM     35  C   UNL A   1      40.382  27.725  28.733  1.00  0.00     0.049 A 
ATOM     36  N   UNL A   1      42.117  29.812  30.025  1.00  0.00    -0.248 NA
ATOM     37  C   UNL A   1      40.276  31.245  30.086  1.00  0.00     0.031 C 
ATOM     38  C   UNL A   1      39.598  26.673  28.084  1.00  0.00     0.029 A 
ATOM     39  N   UNL A   1      41.632  27.171  28.869  1.00  0.00    -0.354 N 
ATOM     40  C   UNL A   1      42.502  31.031  30.575  1.00  0.00     0.074 A 
ATOM     41  C   UNL A   1      41.340  31.895  30.533  1.00  0.00     0.031 C 
ATOM     42  C   UNL A   1      40.373  25.591  27.909  1.00  0.00     0.029 A 
ATOM     43  C   UNL A   1      41.719  25.884  28.393  1.00  0.00     0.049 A 
ATOM     44  H   UNL A   1      42.392  27.650  29.270  1.00  0.00     0.167 HD
ATOM     45  C   UNL A   1      43.702  31.398  31.086  1.00  0.00     0.031 A 
ATOM     46  C   UNL A   1      42.764  25.034  28.346  1.00  0.00     0.031 A 
ATOM     47  C   UNL A   1      44.858  30.540  31.131  1.00  0.00     0.049 A 
ATOM     48  C   UNL A   1      44.097  25.471  28.889  1.00  0.00     0.074 A 
ATOM     49  C   UNL A   1      46.109  30.806  31.662  1.00  0.00     0.029 A 
ATOM     50  N   UNL A   1      44.907  29.250  30.623  1.00  0.00    -0.354 N 
ATOM     51  N   UNL A   1      44.426  26.612  29.446  1.00  0.00    -0.248 NA
ATOM     52  C   UNL A   1      45.198  24.501  28.804  1.00  0.00     0.031 C 
ATOM     53  C   UNL A   1      46.927  29.693  31.434  1.00  0.00     0.029 A 
ATOM     54  C   UNL A   1      46.170  28.714  30.811  1.00  0.00     0.049 A 
ATOM     55  H   UNL A   1      44.153  28.784  30.192  1.00  0.00     0.167 HD
ATOM     56  C   UNL A   1      45.764  26.484  29.808  1.00  0.00     0.074 A 
ATOM     57  C   UNL A   1      46.178  25.153  29.413  1.00  0.00     0.031 C 
ATOM     58  C   UNL A   1      46.571  27.387  30.416  1.00  0.00     0.031 A 
BRANCH  45  59
ATOM     59  C   UNL A   1      43.825  32.798  31.628  1.00  0.00    -0.014 A 
ATOM     60  C   UNL A   1      43.470  33.096  32.957  1.00  0.00     0.010 A 
ATOM     61  C   UNL A   1      44.315  33.830  30.806  1.00  0.00     0.010 A 
ATOM     62  C   UNL A   1      43.549  34.407  33.435  1.00  0.00     0.020 A 
ATOM     63  C   UNL A   1      44.423  35.138  31.290  1.00  0.00     0.020 A 
ATOM     64  C   UNL A   1      44.016  35.422  32.595  1.00  0.00     0.054 A 
BRANCH  64  65
ATOM     65  S   UNL A   1      44.102  37.116  33.239  1.00  0.00     0.124 S 
ATOM     66  O   UNL A   1      43.949  37.908  32.022  1.00  0.00    -0.237 OA
ATOM     67  O   UNL A   1      42.972  37.167  34.165  1.00  0.00    -0.237 OA
ATOM     68  O   UNL A   1      45.419  37.184  33.866  1.00  0.00    -0.744 OA
ENDBRANCH  64  65
ENDBRANCH  45  59
BRANCH  46  69
ATOM     69  C   UNL A   1      42.583  23.666  27.785  1.00  0.00    -0.014 A 
ATOM     70  C   UNL A   1      42.817  23.423  26.420  1.00  0.00     0.010 A 
ATOM     71  C   UNL A   1      42.193  22.597  28.612  1.00  0.00     0.010 A 
ATOM     72  C   UNL A   1      42.651  22.140  25.889  1.00  0.00     0.020 A 
ATOM     73  C   UNL A   1      42.052  21.308  28.090  1.00  0.00     0.020 A 
ATOM     74  C   UNL A   1      42.273  21.090  26.729  1.00  0.00     0.054 A 
BRANCH  74  75
ATOM     75  S   UNL A   1      42.123  19.422  26.029  1.00  0.00     0.124 S 
ATOM     76  O   UNL A   1      40.690  19.330  25.769  1.00  0.00    -0.237 OA
ATOM     77  O   UNL A   1      42.979  19.496  24.848  1.00  0.00    -0.237 OA
ATOM     78  O   UNL A   1      42.623  18.557  27.096  1.00  0.00    -0.744 OA
ENDBRANCH  74  75
ENDBRANCH  46  69
BRANCH  58  79
ATOM     79  C   UNL A   1      47.979  26.955  30.733  1.00  0.00    -0.014 A 
ATOM     80  C   UNL A   1      49.056  27.293  29.894  1.00  0.00     0.010 A 
ATOM     81  C   UNL A   1      48.234  26.241  31.918  1.00  0.00     0.010 A 
ATOM     82  C   UNL A   1      50.356  26.897  30.219  1.00  0.00     0.020 A 
ATOM     83  C   UNL A   1      49.536  25.866  32.260  1.00  0.00     0.020 A 
ATOM     84  C   UNL A   1      50.587  26.185  31.399  1.00  0.00     0.054 A 
BRANCH  84  85
ATOM     85  S   UNL A   1      52.289  25.719  31.821  1.00  0.00     0.124 S 
ATOM     86  O   UNL A   1      52.983  25.919  30.553  1.00  0.00    -0.237 OA
ATOM     87  O   UNL A   1      52.629  26.667  32.880  1.00  0.00    -0.237 OA
ATOM     88  O   UNL A   1      52.170  24.328  32.255  1.00  0.00    -0.744 OA
ENDBRANCH  84  85
ENDBRANCH  58  79
ENDBRANCH  32  33
ENDBRANCH  24  27
ENDBRANCH  22  23
ENDBRANCH   1  22
TORSDOF 16
ENDMDL
