MODEL 1
REMARK VINA RESULT:     -12.6      0.000      0.000
REMARK SMILES Cc1c(NS(=O)(=O)c2ccc3c(c2)COC3)cccc1C(=O)NCCCNC(=O)c1ccc(-c2c3nc(c(-c4ccc(S(=O)(=O)[O-])cc4)c4ccc([nH]4)c(-c4ccc(S(=O)(=O)[O-])cc4)c4nc(c(-c5ccc(S(=O)(=O)[O-])cc5)c5ccc2[nH]5)C=C4)C=C3)cc1
REMARK SMILES IDX 25 1 24 2 23 3 21 4 22 5 20 7 1 8 2 9 3 10 17 11 19 12 18 13
REMARK SMILES IDX 4 14 5 16 6 17 7 18 8 19 9 20 13 21 10 22 12 23 11 24 14 25
REMARK SMILES IDX 16 26 15 27 26 28 27 29 28 30 29 32 30 33 31 34 89 35 32 36
REMARK SMILES IDX 88 37 33 38 34 39 35 40 82 41 36 42 87 43 81 44 83 45 37 46
REMARK SMILES IDX 86 47 80 48 79 49 38 51 68 52 49 53 67 54 50 55 53 56 66 57
REMARK SMILES IDX 84 58 51 59 52 60 65 62 85 63 54 64 39 65 40 66 48 67 41 68
REMARK SMILES IDX 47 69 42 70 43 71 44 72 45 73 46 74 69 75 70 76 78 77 71 78
REMARK SMILES IDX 77 79 72 80 73 81 74 82 75 83 76 84 55 85 56 86 64 87 57 88
REMARK SMILES IDX 63 89 58 90 59 91 60 92 61 93 62 94
REMARK H PARENT 23 6 4 15 27 31 83 50 53 61
REMARK Flexibility Score: inf
ROOT
ATOM      1  C   UNL A   1      33.735  27.432  25.807  1.00  0.00     0.042 C 
ENDROOT
BRANCH   1   2
ATOM      2  C   UNL A   1      33.715  28.333  24.443  1.00  0.00     0.118 C 
BRANCH   2   3
ATOM      3  N   UNL A   1      33.951  27.652  23.144  1.00  0.00    -0.352 N 
ATOM      4  C   UNL A   1      33.214  26.848  22.302  1.00  0.00     0.251 C 
ATOM      5  O   UNL A   1      33.593  26.483  21.193  1.00  0.00    -0.269 OA
ATOM      6  H   UNL A   1      34.860  27.815  22.801  1.00  0.00     0.163 HD
BRANCH   4   7
ATOM      7  C   UNL A   1      31.854  26.476  22.711  1.00  0.00     0.044 A 
ATOM      8  C   UNL A   1      32.453  24.032  22.957  1.00  0.00     0.047 C 
ATOM      9  C   UNL A   1      31.584  25.219  23.272  1.00  0.00    -0.014 A 
ATOM     10  C   UNL A   1      30.499  25.150  24.147  1.00  0.00     0.053 A 
ATOM     11  C   UNL A   1      29.601  26.226  24.249  1.00  0.00     0.027 A 
ATOM     12  C   UNL A   1      30.899  27.501  22.696  1.00  0.00     0.014 A 
ATOM     13  C   UNL A   1      29.750  27.363  23.455  1.00  0.00     0.003 A 
BRANCH  10  14
ATOM     14  N   UNL A   1      30.324  24.039  25.036  1.00  0.00    -0.279 N 
ATOM     15  H   UNL A   1      29.742  23.295  24.760  1.00  0.00     0.180 HD
BRANCH  14  16
ATOM     16  S   UNL A   1      31.085  23.966  26.552  1.00  0.00     0.261 S 
ATOM     17  O   UNL A   1      31.412  25.333  26.954  1.00  0.00    -0.201 OA
ATOM     18  O   UNL A   1      30.217  23.165  27.367  1.00  0.00    -0.201 OA
BRANCH  16  19
ATOM     19  C   UNL A   1      32.617  23.092  26.349  1.00  0.00     0.088 A 
ATOM     20  C   UNL A   1      32.567  21.766  25.880  1.00  0.00     0.022 A 
ATOM     21  C   UNL A   1      33.836  23.752  26.525  1.00  0.00     0.028 A 
ATOM     22  C   UNL A   1      33.729  21.148  25.420  1.00  0.00     0.008 A 
ATOM     23  C   UNL A   1      34.953  23.164  25.962  1.00  0.00    -0.015 A 
ATOM     24  C   UNL A   1      34.891  21.898  25.395  1.00  0.00    -0.017 A 
ATOM     25  C   UNL A   1      36.307  23.733  25.739  1.00  0.00     0.196 C 
ATOM     26  C   UNL A   1      36.193  21.594  24.753  1.00  0.00     0.196 C 
ATOM     27  O   UNL A   1      36.868  22.873  24.716  1.00  0.00    -0.372 OA
ENDBRANCH  16  19
ENDBRANCH  14  16
ENDBRANCH  10  14
ENDBRANCH   4   7
ENDBRANCH   2   3
ENDBRANCH   1   2
BRANCH   1  28
ATOM     28  C   UNL A   1      33.478  28.263  27.143  1.00  0.00     0.118 C 
BRANCH  28  29
ATOM     29  N   UNL A   1      34.258  29.495  27.813  1.00  0.00    -0.352 N 
ATOM     30  C   UNL A   1      35.641  29.985  28.101  1.00  0.00     0.251 C 
ATOM     31  H   UNL A   1      33.605  30.151  28.147  1.00  0.00     0.163 HD
ATOM     32  O   UNL A   1      35.844  31.101  27.577  1.00  0.00    -0.269 OA
BRANCH  30  33
ATOM     33  C   UNL A   1      36.938  29.485  28.957  1.00  0.00     0.039 A 
ATOM     34  C   UNL A   1      36.816  28.958  30.293  1.00  0.00     0.014 A 
ATOM     35  C   UNL A   1      38.276  29.572  28.589  1.00  0.00     0.014 A 
ATOM     36  C   UNL A   1      37.863  29.176  31.300  1.00  0.00     0.010 A 
ATOM     37  C   UNL A   1      39.299  29.815  29.570  1.00  0.00     0.010 A 
ATOM     38  C   UNL A   1      39.017  29.898  30.941  1.00  0.00    -0.014 A 
BRANCH  38  39
ATOM     39  C   UNL A   1      39.703  30.989  31.805  1.00  0.00     0.031 A 
ATOM     40  C   UNL A   1      40.804  30.584  32.665  1.00  0.00     0.074 A 
ATOM     41  C   UNL A   1      39.567  32.361  31.836  1.00  0.00     0.049 A 
ATOM     42  N   UNL A   1      40.853  30.718  33.948  1.00  0.00    -0.248 NA
ATOM     43  C   UNL A   1      41.985  30.000  32.055  1.00  0.00     0.031 C 
ATOM     44  C   UNL A   1      40.240  33.451  32.578  1.00  0.00     0.029 A 
ATOM     45  N   UNL A   1      38.702  33.152  31.112  1.00  0.00    -0.354 N 
ATOM     46  C   UNL A   1      42.186  30.544  34.255  1.00  0.00     0.074 A 
ATOM     47  C   UNL A   1      42.747  29.821  33.132  1.00  0.00     0.031 C 
ATOM     48  C   UNL A   1      39.464  34.570  32.555  1.00  0.00     0.029 A 
ATOM     49  C   UNL A   1      38.247  34.248  31.832  1.00  0.00     0.049 A 
ATOM     50  H   UNL A   1      38.434  32.961  30.184  1.00  0.00     0.167 HD
ATOM     51  C   UNL A   1      42.813  31.316  35.194  1.00  0.00     0.031 A 
ATOM     52  C   UNL A   1      36.936  34.280  32.245  1.00  0.00     0.031 A 
ATOM     53  C   UNL A   1      41.966  32.435  35.651  1.00  0.00     0.049 A 
ATOM     54  C   UNL A   1      36.869  34.073  33.733  1.00  0.00     0.074 A 
ATOM     55  C   UNL A   1      42.058  33.812  35.489  1.00  0.00     0.029 A 
ATOM     56  N   UNL A   1      40.668  32.200  36.095  1.00  0.00    -0.354 N 
ATOM     57  N   UNL A   1      37.916  33.815  34.456  1.00  0.00    -0.248 NA
ATOM     58  C   UNL A   1      35.649  34.097  34.524  1.00  0.00     0.031 C 
ATOM     59  C   UNL A   1      40.790  34.389  35.797  1.00  0.00     0.029 A 
ATOM     60  C   UNL A   1      39.935  33.373  36.188  1.00  0.00     0.049 A 
ATOM     61  H   UNL A   1      40.313  31.309  36.315  1.00  0.00     0.167 HD
ATOM     62  C   UNL A   1      37.579  33.638  35.757  1.00  0.00     0.074 A 
ATOM     63  C   UNL A   1      36.135  33.840  35.753  1.00  0.00     0.031 C 
ATOM     64  C   UNL A   1      38.547  33.337  36.674  1.00  0.00     0.031 A 
BRANCH  51  65
ATOM     65  C   UNL A   1      44.317  31.237  35.434  1.00  0.00    -0.014 A 
ATOM     66  C   UNL A   1      44.862  30.305  36.338  1.00  0.00     0.010 A 
ATOM     67  C   UNL A   1      45.257  32.028  34.740  1.00  0.00     0.010 A 
ATOM     68  C   UNL A   1      46.248  30.222  36.577  1.00  0.00     0.020 A 
ATOM     69  C   UNL A   1      46.631  32.008  35.014  1.00  0.00     0.020 A 
ATOM     70  C   UNL A   1      47.123  31.087  35.923  1.00  0.00     0.054 A 
BRANCH  70  71
ATOM     71  S   UNL A   1      48.909  30.942  36.195  1.00  0.00     0.124 S 
ATOM     72  O   UNL A   1      49.005  30.847  37.648  1.00  0.00    -0.237 OA
ATOM     73  O   UNL A   1      49.237  29.724  35.459  1.00  0.00    -0.237 OA
ATOM     74  O   UNL A   1      49.450  32.173  35.621  1.00  0.00    -0.744 OA
ENDBRANCH  70  71
ENDBRANCH  51  65
BRANCH  52  75
ATOM     75  C   UNL A   1      35.876  33.706  31.271  1.00  0.00    -0.014 A 
ATOM     76  C   UNL A   1      34.748  33.131  31.890  1.00  0.00     0.010 A 
ATOM     77  C   UNL A   1      35.572  34.590  30.254  1.00  0.00     0.010 A 
ATOM     78  C   UNL A   1      33.598  33.910  32.110  1.00  0.00     0.020 A 
ATOM     79  C   UNL A   1      34.456  35.390  30.541  1.00  0.00     0.020 A 
ATOM     80  C   UNL A   1      33.550  35.175  31.546  1.00  0.00     0.054 A 
BRANCH  80  81
ATOM     81  S   UNL A   1      32.666  36.815  32.447  1.00  0.00     0.124 S 
ATOM     82  O   UNL A   1      33.515  36.934  33.613  1.00  0.00    -0.237 OA
ATOM     83  O   UNL A   1      32.834  37.931  31.539  1.00  0.00    -0.237 OA
ATOM     84  O   UNL A   1      31.285  36.470  32.742  1.00  0.00    -0.744 OA
ENDBRANCH  80  81
ENDBRANCH  52  75
BRANCH  64  85
ATOM     85  C   UNL A   1      38.331  33.002  38.129  1.00  0.00    -0.014 A 
ATOM     86  C   UNL A   1      37.434  32.044  38.611  1.00  0.00     0.010 A 
ATOM     87  C   UNL A   1      39.107  33.683  39.101  1.00  0.00     0.010 A 
ATOM     88  C   UNL A   1      37.322  31.769  39.977  1.00  0.00     0.020 A 
ATOM     89  C   UNL A   1      39.033  33.397  40.462  1.00  0.00     0.020 A 
ATOM     90  C   UNL A   1      38.130  32.439  40.892  1.00  0.00     0.054 A 
BRANCH  90  91
ATOM     91  S   UNL A   1      37.977  32.029  42.638  1.00  0.00     0.124 S 
ATOM     92  O   UNL A   1      38.118  30.575  42.621  1.00  0.00    -0.237 OA
ATOM     93  O   UNL A   1      39.096  32.760  43.228  1.00  0.00    -0.237 OA
ATOM     94  O   UNL A   1      36.651  32.523  43.001  1.00  0.00    -0.744 OA
ENDBRANCH  90  91
ENDBRANCH  64  85
ENDBRANCH  38  39
ENDBRANCH  30  33
ENDBRANCH  28  29
ENDBRANCH   1  28
TORSDOF 16
ENDMDL
MODEL 2
REMARK VINA RESULT:     -12.5      2.576      7.544
REMARK SMILES Cc1c(NS(=O)(=O)c2ccc3c(c2)COC3)cccc1C(=O)NCCCNC(=O)c1ccc(-c2c3nc(c(-c4ccc(S(=O)(=O)[O-])cc4)c4ccc([nH]4)c(-c4ccc(S(=O)(=O)[O-])cc4)c4nc(c(-c5ccc(S(=O)(=O)[O-])cc5)c5ccc2[nH]5)C=C4)C=C3)cc1
REMARK SMILES IDX 25 1 24 2 23 3 21 4 22 5 20 7 1 8 2 9 3 10 17 11 19 12 18 13
REMARK SMILES IDX 4 14 5 16 6 17 7 18 8 19 9 20 13 21 10 22 12 23 11 24 14 25
REMARK SMILES IDX 16 26 15 27 26 28 27 29 28 30 29 32 30 33 31 34 89 35 32 36
REMARK SMILES IDX 88 37 33 38 34 39 35 40 82 41 36 42 87 43 81 44 83 45 37 46
REMARK SMILES IDX 86 47 80 48 79 49 38 51 68 52 49 53 67 54 50 55 53 56 66 57
REMARK SMILES IDX 84 58 51 59 52 60 65 62 85 63 54 64 39 65 40 66 48 67 41 68
REMARK SMILES IDX 47 69 42 70 43 71 44 72 45 73 46 74 69 75 70 76 78 77 71 78
REMARK SMILES IDX 77 79 72 80 73 81 74 82 75 83 76 84 55 85 56 86 64 87 57 88
REMARK SMILES IDX 63 89 58 90 59 91 60 92 61 93 62 94
REMARK H PARENT 23 6 4 15 27 31 83 50 53 61
REMARK Flexibility Score: inf
ROOT
ATOM      1  C   UNL A   1      33.835  27.361  25.924  1.00  0.00     0.042 C 
ENDROOT
BRANCH   1   2
ATOM      2  C   UNL A   1      33.593  28.246  24.571  1.00  0.00     0.118 C 
BRANCH   2   3
ATOM      3  N   UNL A   1      33.889  27.619  23.257  1.00  0.00    -0.352 N 
ATOM      4  C   UNL A   1      33.200  26.830  22.362  1.00  0.00     0.251 C 
ATOM      5  O   UNL A   1      33.623  26.516  21.253  1.00  0.00    -0.269 OA
ATOM      6  H   UNL A   1      34.803  27.817  22.950  1.00  0.00     0.163 HD
BRANCH   4   7
ATOM      7  C   UNL A   1      31.837  26.409  22.712  1.00  0.00     0.044 A 
ATOM      8  C   UNL A   1      32.509  23.985  22.970  1.00  0.00     0.047 C 
ATOM      9  C   UNL A   1      31.588  25.139  23.255  1.00  0.00    -0.014 A 
ATOM     10  C   UNL A   1      30.470  25.029  24.083  1.00  0.00     0.053 A 
ATOM     11  C   UNL A   1      29.532  26.073  24.153  1.00  0.00     0.027 A 
ATOM     12  C   UNL A   1      30.849  27.401  22.662  1.00  0.00     0.014 A 
ATOM     13  C   UNL A   1      29.675  27.218  23.372  1.00  0.00     0.003 A 
BRANCH  10  14
ATOM     14  N   UNL A   1      30.297  23.906  24.959  1.00  0.00    -0.279 N 
ATOM     15  H   UNL A   1      29.734  23.154  24.663  1.00  0.00     0.180 HD
BRANCH  14  16
ATOM     16  S   UNL A   1      31.026  23.834  26.490  1.00  0.00     0.261 S 
ATOM     17  O   UNL A   1      31.324  25.203  26.908  1.00  0.00    -0.201 OA
ATOM     18  O   UNL A   1      30.152  23.014  27.281  1.00  0.00    -0.201 OA
BRANCH  16  19
ATOM     19  C   UNL A   1      32.574  22.983  26.315  1.00  0.00     0.088 A 
ATOM     20  C   UNL A   1      32.555  21.664  25.823  1.00  0.00     0.022 A 
ATOM     21  C   UNL A   1      33.779  23.655  26.535  1.00  0.00     0.028 A 
ATOM     22  C   UNL A   1      33.736  21.069  25.385  1.00  0.00     0.008 A 
ATOM     23  C   UNL A   1      34.918  23.092  25.993  1.00  0.00    -0.015 A 
ATOM     24  C   UNL A   1      34.889  21.834  25.405  1.00  0.00    -0.017 A 
ATOM     25  C   UNL A   1      36.270  23.681  25.816  1.00  0.00     0.196 C 
ATOM     26  C   UNL A   1      36.212  21.558  24.793  1.00  0.00     0.196 C 
ATOM     27  O   UNL A   1      36.870  22.846  24.795  1.00  0.00    -0.372 OA
ENDBRANCH  16  19
ENDBRANCH  14  16
ENDBRANCH  10  14
ENDBRANCH   4   7
ENDBRANCH   2   3
ENDBRANCH   1   2
BRANCH   1  28
ATOM     28  C   UNL A   1      33.196  27.993  27.242  1.00  0.00     0.118 C 
BRANCH  28  29
ATOM     29  N   UNL A   1      32.798  29.498  27.631  1.00  0.00    -0.352 N 
ATOM     30  C   UNL A   1      33.343  30.890  27.625  1.00  0.00     0.251 C 
ATOM     31  H   UNL A   1      31.884  29.508  27.998  1.00  0.00     0.163 HD
ATOM     32  O   UNL A   1      32.619  31.657  26.956  1.00  0.00    -0.269 OA
BRANCH  30  33
ATOM     33  C   UNL A   1      34.596  31.692  28.297  1.00  0.00     0.039 A 
ATOM     34  C   UNL A   1      35.954  31.495  27.857  1.00  0.00     0.014 A 
ATOM     35  C   UNL A   1      34.558  32.556  29.386  1.00  0.00     0.014 A 
ATOM     36  C   UNL A   1      37.082  31.578  28.794  1.00  0.00     0.010 A 
ATOM     37  C   UNL A   1      35.649  32.616  30.320  1.00  0.00     0.010 A 
ATOM     38  C   UNL A   1      36.827  31.876  30.146  1.00  0.00    -0.014 A 
BRANCH  38  39
ATOM     39  C   UNL A   1      37.486  31.175  31.364  1.00  0.00     0.031 A 
ATOM     40  C   UNL A   1      37.655  31.947  32.584  1.00  0.00     0.074 A 
ATOM     41  C   UNL A   1      37.849  29.863  31.587  1.00  0.00     0.049 A 
ATOM     42  N   UNL A   1      38.775  32.192  33.178  1.00  0.00    -0.248 NA
ATOM     43  C   UNL A   1      36.474  32.480  33.240  1.00  0.00     0.031 C 
ATOM     44  C   UNL A   1      38.408  29.126  32.743  1.00  0.00     0.029 A 
ATOM     45  N   UNL A   1      37.769  28.793  30.721  1.00  0.00    -0.354 N 
ATOM     46  C   UNL A   1      38.405  32.617  34.436  1.00  0.00     0.074 A 
ATOM     47  C   UNL A   1      37.030  33.055  34.304  1.00  0.00     0.031 C 
ATOM     48  C   UNL A   1      38.962  27.957  32.319  1.00  0.00     0.029 A 
ATOM     49  C   UNL A   1      38.819  27.900  30.875  1.00  0.00     0.049 A 
ATOM     50  H   UNL A   1      37.045  28.676  30.064  1.00  0.00     0.167 HD
ATOM     51  C   UNL A   1      39.092  32.233  35.555  1.00  0.00     0.031 A 
ATOM     52  C   UNL A   1      39.778  27.818  29.892  1.00  0.00     0.031 A 
ATOM     53  C   UNL A   1      40.095  31.191  35.261  1.00  0.00     0.049 A 
ATOM     54  C   UNL A   1      41.059  28.431  30.384  1.00  0.00     0.074 A 
ATOM     55  C   UNL A   1      40.189  29.849  35.609  1.00  0.00     0.029 A 
ATOM     56  N   UNL A   1      41.021  31.373  34.238  1.00  0.00    -0.354 N 
ATOM     57  N   UNL A   1      41.164  29.017  31.538  1.00  0.00    -0.248 NA
ATOM     58  C   UNL A   1      42.304  28.476  29.632  1.00  0.00     0.031 C 
ATOM     59  C   UNL A   1      41.145  29.225  34.753  1.00  0.00     0.029 A 
ATOM     60  C   UNL A   1      41.668  30.191  33.912  1.00  0.00     0.049 A 
ATOM     61  H   UNL A   1      41.195  32.237  33.798  1.00  0.00     0.167 HD
ATOM     62  C   UNL A   1      42.412  29.513  31.722  1.00  0.00     0.074 A 
ATOM     63  C   UNL A   1      43.101  29.134  30.495  1.00  0.00     0.031 C 
ATOM     64  C   UNL A   1      42.711  30.186  32.873  1.00  0.00     0.031 A 
BRANCH  51  65
ATOM     65  C   UNL A   1      38.605  32.571  36.959  1.00  0.00    -0.014 A 
ATOM     66  C   UNL A   1      38.925  33.800  37.566  1.00  0.00     0.010 A 
ATOM     67  C   UNL A   1      37.765  31.724  37.715  1.00  0.00     0.010 A 
ATOM     68  C   UNL A   1      38.490  34.126  38.865  1.00  0.00     0.020 A 
ATOM     69  C   UNL A   1      37.380  32.000  39.033  1.00  0.00     0.020 A 
ATOM     70  C   UNL A   1      37.731  33.215  39.597  1.00  0.00     0.054 A 
BRANCH  70  71
ATOM     71  S   UNL A   1      37.129  33.660  41.248  1.00  0.00     0.124 S 
ATOM     72  O   UNL A   1      35.696  33.403  41.146  1.00  0.00    -0.237 OA
ATOM     73  O   UNL A   1      37.876  32.745  42.107  1.00  0.00    -0.237 OA
ATOM     74  O   UNL A   1      37.493  35.069  41.384  1.00  0.00    -0.744 OA
ENDBRANCH  70  71
ENDBRANCH  51  65
BRANCH  52  75
ATOM     75  C   UNL A   1      39.295  27.948  28.425  1.00  0.00    -0.014 A 
ATOM     76  C   UNL A   1      40.094  28.773  27.607  1.00  0.00     0.010 A 
ATOM     77  C   UNL A   1      38.993  26.722  27.867  1.00  0.00     0.010 A 
ATOM     78  C   UNL A   1      41.124  28.205  26.837  1.00  0.00     0.020 A 
ATOM     79  C   UNL A   1      40.069  26.164  27.160  1.00  0.00     0.020 A 
ATOM     80  C   UNL A   1      41.206  26.823  26.774  1.00  0.00     0.054 A 
BRANCH  80  81
ATOM     81  S   UNL A   1      42.983  25.767  26.696  1.00  0.00     0.124 S 
ATOM     82  O   UNL A   1      42.506  24.537  26.102  1.00  0.00    -0.237 OA
ATOM     83  O   UNL A   1      43.863  26.494  25.805  1.00  0.00    -0.237 OA
ATOM     84  O   UNL A   1      43.476  25.624  28.057  1.00  0.00    -0.744 OA
ENDBRANCH  80  81
ENDBRANCH  52  75
BRANCH  64  85
ATOM     85  C   UNL A   1      44.007  30.891  33.190  1.00  0.00    -0.014 A 
ATOM     86  C   UNL A   1      44.505  32.005  32.507  1.00  0.00     0.010 A 
ATOM     87  C   UNL A   1      44.784  30.421  34.278  1.00  0.00     0.010 A 
ATOM     88  C   UNL A   1      45.699  32.622  32.888  1.00  0.00     0.020 A 
ATOM     89  C   UNL A   1      45.957  31.045  34.694  1.00  0.00     0.020 A 
ATOM     90  C   UNL A   1      46.411  32.145  33.986  1.00  0.00     0.054 A 
BRANCH  90  91
ATOM     91  S   UNL A   1      47.927  32.992  34.464  1.00  0.00     0.124 S 
ATOM     92  O   UNL A   1      47.417  34.268  34.960  1.00  0.00    -0.237 OA
ATOM     93  O   UNL A   1      48.474  32.097  35.481  1.00  0.00    -0.237 OA
ATOM     94  O   UNL A   1      48.694  33.067  33.224  1.00  0.00    -0.744 OA
ENDBRANCH  90  91
ENDBRANCH  64  85
ENDBRANCH  38  39
ENDBRANCH  30  33
ENDBRANCH  28  29
ENDBRANCH   1  28
TORSDOF 16
ENDMDL
MODEL 3
REMARK VINA RESULT:     -12.4      6.160      9.764
REMARK SMILES Cc1c(NS(=O)(=O)c2ccc3c(c2)COC3)cccc1C(=O)NCCCNC(=O)c1ccc(-c2c3nc(c(-c4ccc(S(=O)(=O)[O-])cc4)c4ccc([nH]4)c(-c4ccc(S(=O)(=O)[O-])cc4)c4nc(c(-c5ccc(S(=O)(=O)[O-])cc5)c5ccc2[nH]5)C=C4)C=C3)cc1
REMARK SMILES IDX 25 1 24 2 23 3 21 4 22 5 20 7 1 8 2 9 3 10 17 11 19 12 18 13
REMARK SMILES IDX 4 14 5 16 6 17 7 18 8 19 9 20 13 21 10 22 12 23 11 24 14 25
REMARK SMILES IDX 16 26 15 27 26 28 27 29 28 30 29 32 30 33 31 34 89 35 32 36
REMARK SMILES IDX 88 37 33 38 34 39 35 40 82 41 36 42 87 43 81 44 83 45 37 46
REMARK SMILES IDX 86 47 80 48 79 49 38 51 68 52 49 53 67 54 50 55 53 56 66 57
REMARK SMILES IDX 84 58 51 59 52 60 65 62 85 63 54 64 39 65 40 66 48 67 41 68
REMARK SMILES IDX 47 69 42 70 43 71 44 72 45 73 46 74 69 75 70 76 78 77 71 78
REMARK SMILES IDX 77 79 72 80 73 81 74 82 75 83 76 84 55 85 56 86 64 87 57 88
REMARK SMILES IDX 63 89 58 90 59 91 60 92 61 93 62 94
REMARK H PARENT 23 6 4 15 27 31 83 50 53 61
REMARK Flexibility Score: inf
ROOT
ATOM      1  C   UNL A   1      35.148  23.825  25.704  1.00  0.00     0.042 C 
ENDROOT
BRANCH   1   2
ATOM      2  C   UNL A   1      34.577  22.734  26.779  1.00  0.00     0.118 C 
BRANCH   2   3
ATOM      3  N   UNL A   1      33.230  22.958  27.364  1.00  0.00    -0.352 N 
ATOM      4  C   UNL A   1      31.932  22.891  26.908  1.00  0.00     0.251 C 
ATOM      5  O   UNL A   1      30.943  23.014  27.625  1.00  0.00    -0.269 OA
ATOM      6  H   UNL A   1      33.278  23.221  28.312  1.00  0.00     0.163 HD
BRANCH   4   7
ATOM      7  C   UNL A   1      31.708  22.562  25.495  1.00  0.00     0.044 A 
ATOM      8  C   UNL A   1      30.664  24.810  24.997  1.00  0.00     0.047 C 
ATOM      9  C   UNL A   1      31.370  23.555  24.563  1.00  0.00    -0.014 A 
ATOM     10  C   UNL A   1      31.752  23.321  23.242  1.00  0.00     0.053 A 
ATOM     11  C   UNL A   1      32.221  22.055  22.852  1.00  0.00     0.027 A 
ATOM     12  C   UNL A   1      32.042  21.259  25.101  1.00  0.00     0.014 A 
ATOM     13  C   UNL A   1      32.277  21.000  23.762  1.00  0.00     0.003 A 
BRANCH  10  14
ATOM     14  N   UNL A   1      31.779  24.378  22.273  1.00  0.00    -0.279 N 
ATOM     15  H   UNL A   1      30.980  24.537  21.720  1.00  0.00     0.180 HD
BRANCH  14  16
ATOM     16  S   UNL A   1      33.145  25.360  22.045  1.00  0.00     0.261 S 
ATOM     17  O   UNL A   1      34.311  24.623  22.529  1.00  0.00    -0.201 OA
ATOM     18  O   UNL A   1      33.078  25.779  20.674  1.00  0.00    -0.201 OA
BRANCH  16  19
ATOM     19  C   UNL A   1      32.960  26.796  23.072  1.00  0.00     0.088 A 
ATOM     20  C   UNL A   1      31.855  27.638  22.842  1.00  0.00     0.022 A 
ATOM     21  C   UNL A   1      33.813  27.003  24.158  1.00  0.00     0.028 A 
ATOM     22  C   UNL A   1      31.498  28.590  23.795  1.00  0.00     0.008 A 
ATOM     23  C   UNL A   1      33.379  27.873  25.140  1.00  0.00    -0.015 A 
ATOM     24  C   UNL A   1      32.227  28.630  24.970  1.00  0.00    -0.017 A 
ATOM     25  C   UNL A   1      33.909  28.091  26.510  1.00  0.00     0.196 C 
ATOM     26  C   UNL A   1      31.938  29.355  26.232  1.00  0.00     0.196 C 
ATOM     27  O   UNL A   1      32.802  28.719  27.203  1.00  0.00    -0.372 OA
ENDBRANCH  16  19
ENDBRANCH  14  16
ENDBRANCH  10  14
ENDBRANCH   4   7
ENDBRANCH   2   3
ENDBRANCH   1   2
BRANCH   1  28
ATOM     28  C   UNL A   1      36.739  23.911  25.642  1.00  0.00     0.118 C 
BRANCH  28  29
ATOM     29  N   UNL A   1      37.861  22.837  25.236  1.00  0.00    -0.352 N 
ATOM     30  C   UNL A   1      38.993  22.052  25.817  1.00  0.00     0.251 C 
ATOM     31  H   UNL A   1      37.774  22.621  24.279  1.00  0.00     0.163 HD
ATOM     32  O   UNL A   1      38.817  20.824  25.666  1.00  0.00    -0.269 OA
BRANCH  30  33
ATOM     33  C   UNL A   1      40.419  22.363  26.548  1.00  0.00     0.039 A 
ATOM     34  C   UNL A   1      40.498  23.073  27.799  1.00  0.00     0.014 A 
ATOM     35  C   UNL A   1      41.693  22.092  26.060  1.00  0.00     0.014 A 
ATOM     36  C   UNL A   1      41.627  23.961  28.105  1.00  0.00     0.010 A 
ATOM     37  C   UNL A   1      42.792  22.977  26.335  1.00  0.00     0.010 A 
ATOM     38  C   UNL A   1      42.660  24.103  27.160  1.00  0.00    -0.014 A 
BRANCH  38  39
ATOM     39  C   UNL A   1      43.336  25.440  26.755  1.00  0.00     0.031 A 
ATOM     40  C   UNL A   1      44.735  25.406  26.363  1.00  0.00     0.074 A 
ATOM     41  C   UNL A   1      42.826  26.706  26.553  1.00  0.00     0.049 A 
ATOM     42  N   UNL A   1      45.697  26.055  26.929  1.00  0.00    -0.248 NA
ATOM     43  C   UNL A   1      45.118  24.601  25.216  1.00  0.00     0.031 C 
ATOM     44  C   UNL A   1      43.400  27.993  26.099  1.00  0.00     0.029 A 
ATOM     45  N   UNL A   1      41.530  27.144  26.723  1.00  0.00    -0.354 N 
ATOM     46  C   UNL A   1      46.726  25.999  26.013  1.00  0.00     0.074 A 
ATOM     47  C   UNL A   1      46.421  24.868  25.161  1.00  0.00     0.031 C 
ATOM     48  C   UNL A   1      42.580  29.016  26.464  1.00  0.00     0.029 A 
ATOM     49  C   UNL A   1      41.463  28.447  27.196  1.00  0.00     0.049 A 
ATOM     50  H   UNL A   1      40.737  26.592  26.531  1.00  0.00     0.167 HD
ATOM     51  C   UNL A   1      47.533  27.078  25.772  1.00  0.00     0.031 A 
ATOM     52  C   UNL A   1      41.042  28.670  28.487  1.00  0.00     0.031 A 
ATOM     53  C   UNL A   1      47.039  28.301  26.435  1.00  0.00     0.049 A 
ATOM     54  C   UNL A   1      42.211  29.094  29.332  1.00  0.00     0.074 A 
ATOM     55  C   UNL A   1      46.507  29.487  25.946  1.00  0.00     0.029 A 
ATOM     56  N   UNL A   1      46.739  28.292  27.794  1.00  0.00    -0.354 N 
ATOM     57  N   UNL A   1      43.428  29.138  28.882  1.00  0.00    -0.248 NA
ATOM     58  C   UNL A   1      42.132  29.464  30.738  1.00  0.00     0.031 C 
ATOM     59  C   UNL A   1      45.848  30.162  27.017  1.00  0.00     0.029 A 
ATOM     60  C   UNL A   1      46.014  29.413  28.169  1.00  0.00     0.049 A 
ATOM     61  H   UNL A   1      47.008  27.577  28.415  1.00  0.00     0.167 HD
ATOM     62  C   UNL A   1      44.294  29.519  29.854  1.00  0.00     0.074 A 
ATOM     63  C   UNL A   1      43.426  29.726  31.006  1.00  0.00     0.031 C 
ATOM     64  C   UNL A   1      45.629  29.604  29.576  1.00  0.00     0.031 A 
BRANCH  51  65
ATOM     65  C   UNL A   1      48.573  27.077  24.658  1.00  0.00    -0.014 A 
ATOM     66  C   UNL A   1      48.223  27.407  23.335  1.00  0.00     0.010 A 
ATOM     67  C   UNL A   1      49.943  26.813  24.873  1.00  0.00     0.010 A 
ATOM     68  C   UNL A   1      49.169  27.406  22.290  1.00  0.00     0.020 A 
ATOM     69  C   UNL A   1      50.884  26.739  23.838  1.00  0.00     0.020 A 
ATOM     70  C   UNL A   1      50.494  27.056  22.548  1.00  0.00     0.054 A 
BRANCH  70  71
ATOM     71  S   UNL A   1      51.718  27.106  21.213  1.00  0.00     0.124 S 
ATOM     72  O   UNL A   1      50.977  26.562  20.078  1.00  0.00    -0.237 OA
ATOM     73  O   UNL A   1      52.036  28.528  21.136  1.00  0.00    -0.237 OA
ATOM     74  O   UNL A   1      52.803  26.257  21.702  1.00  0.00    -0.744 OA
ENDBRANCH  70  71
ENDBRANCH  51  65
BRANCH  52  75
ATOM     75  C   UNL A   1      39.905  27.765  29.023  1.00  0.00    -0.014 A 
ATOM     76  C   UNL A   1      39.532  28.007  30.360  1.00  0.00     0.010 A 
ATOM     77  C   UNL A   1      38.841  27.692  28.146  1.00  0.00     0.010 A 
ATOM     78  C   UNL A   1      38.473  28.889  30.643  1.00  0.00     0.020 A 
ATOM     79  C   UNL A   1      37.836  28.630  28.426  1.00  0.00     0.020 A 
ATOM     80  C   UNL A   1      37.713  29.355  29.582  1.00  0.00     0.054 A 
BRANCH  80  81
ATOM     81  S   UNL A   1      36.920  31.263  29.472  1.00  0.00     0.124 S 
ATOM     82  O   UNL A   1      38.122  32.005  29.158  1.00  0.00    -0.237 OA
ATOM     83  O   UNL A   1      35.980  31.262  28.370  1.00  0.00    -0.237 OA
ATOM     84  O   UNL A   1      36.340  31.580  30.768  1.00  0.00    -0.744 OA
ENDBRANCH  80  81
ENDBRANCH  52  75
BRANCH  64  85
ATOM     85  C   UNL A   1      46.733  29.902  30.560  1.00  0.00    -0.014 A 
ATOM     86  C   UNL A   1      46.891  29.284  31.805  1.00  0.00     0.010 A 
ATOM     87  C   UNL A   1      47.714  30.862  30.206  1.00  0.00     0.010 A 
ATOM     88  C   UNL A   1      47.965  29.593  32.644  1.00  0.00     0.020 A 
ATOM     89  C   UNL A   1      48.809  31.156  31.014  1.00  0.00     0.020 A 
ATOM     90  C   UNL A   1      48.923  30.519  32.237  1.00  0.00     0.054 A 
BRANCH  90  91
ATOM     91  S   UNL A   1      50.309  30.861  33.334  1.00  0.00     0.124 S 
ATOM     92  O   UNL A   1      50.660  32.230  32.960  1.00  0.00    -0.237 OA
ATOM     93  O   UNL A   1      49.705  30.708  34.655  1.00  0.00    -0.237 OA
ATOM     94  O   UNL A   1      51.297  29.845  32.981  1.00  0.00    -0.744 OA
ENDBRANCH  90  91
ENDBRANCH  64  85
ENDBRANCH  38  39
ENDBRANCH  30  33
ENDBRANCH  28  29
ENDBRANCH   1  28
TORSDOF 16
ENDMDL
