MODEL 1
REMARK VINA RESULT:     -12.5      0.000      0.000
REMARK SMILES Cc1ccc(-c2cccc(F)c2C(=O)NCCCNC(=O)c2ccc(-c3c4nc(c(-c5ccc(S(=O)(=O)[O-])cc5)c5ccc([nH]5)c(-c5ccc(S(=O)(=O)[O-])cc5)c5nc(c(-c6ccc(S(=O)(=O)[O-])cc6)c6ccc3[nH]6)C=C5)C=C4)cc2)c(C)c1
REMARK SMILES IDX 18 1 17 2 16 3 15 4 13 5 14 6 12 8 6 9 7 10 8 11 10 12 9 13
REMARK SMILES IDX 11 14 5 15 1 16 2 17 3 18 84 19 4 20 82 21 83 22 19 23 20 24
REMARK SMILES IDX 21 26 22 27 23 28 81 29 24 30 80 31 25 32 26 33 27 34 74 35
REMARK SMILES IDX 28 36 79 37 73 38 75 39 29 40 78 41 72 42 71 43 30 45 60 46
REMARK SMILES IDX 41 47 59 48 42 49 45 50 58 51 76 52 43 53 44 54 57 56 77 57
REMARK SMILES IDX 46 58 31 59 32 60 40 61 33 62 39 63 34 64 35 65 36 66 37 67
REMARK SMILES IDX 38 68 61 69 62 70 70 71 63 72 69 73 64 74 65 75 66 76 67 77
REMARK SMILES IDX 68 78 47 79 48 80 56 81 49 82 55 83 50 84 51 85 52 86 53 87
REMARK SMILES IDX 54 88
REMARK H PARENT 15 7 19 25 75 44 45 55
REMARK Flexibility Score: inf
ROOT
ATOM      1  C   UNL A   1      38.376  23.908  26.460  1.00  0.00     0.118 C 
ENDROOT
BRANCH   1   2
ATOM      2  C   UNL A   1      37.481  23.380  25.349  1.00  0.00     0.042 C 
BRANCH   2   3
ATOM      3  C   UNL A   1      36.732  22.088  25.642  1.00  0.00     0.118 C 
BRANCH   3   4
ATOM      4  N   UNL A   1      35.672  22.198  26.635  1.00  0.00    -0.352 N 
ATOM      5  C   UNL A   1      34.323  21.907  26.601  1.00  0.00     0.254 C 
ATOM      6  O   UNL A   1      33.754  21.841  27.691  1.00  0.00    -0.269 OA
ATOM      7  H   UNL A   1      35.979  22.547  27.503  1.00  0.00     0.163 HD
BRANCH   5   8
ATOM      8  C   UNL A   1      33.540  21.744  25.341  1.00  0.00     0.083 A 
ATOM      9  C   UNL A   1      32.994  22.869  24.669  1.00  0.00    -0.002 A 
ATOM     10  C   UNL A   1      32.343  22.672  23.426  1.00  0.00     0.010 A 
ATOM     11  C   UNL A   1      32.196  21.403  22.873  1.00  0.00     0.004 A 
ATOM     12  C   UNL A   1      33.260  20.474  24.825  1.00  0.00     0.136 A 
ATOM     13  C   UNL A   1      32.636  20.300  23.588  1.00  0.00     0.040 A 
ATOM     14  F   UNL A   1      33.508  19.363  25.536  1.00  0.00    -0.206 F 
BRANCH   9  15
ATOM     15  C   UNL A   1      32.947  24.238  25.223  1.00  0.00    -0.015 A 
ATOM     16  C   UNL A   1      33.097  28.295  26.747  1.00  0.00     0.044 C 
ATOM     17  C   UNL A   1      33.067  26.887  26.233  1.00  0.00    -0.051 A 
ATOM     18  C   UNL A   1      34.079  26.407  25.405  1.00  0.00     0.004 A 
ATOM     19  C   UNL A   1      32.000  26.038  26.557  1.00  0.00     0.007 A 
ATOM     20  C   UNL A   1      34.018  25.104  24.911  1.00  0.00     0.009 A 
ATOM     21  C   UNL A   1      31.930  24.715  26.073  1.00  0.00    -0.043 A 
ATOM     22  C   UNL A   1      30.731  23.893  26.456  1.00  0.00     0.045 C 
ENDBRANCH   9  15
ENDBRANCH   5   8
ENDBRANCH   3   4
ENDBRANCH   2   3
ENDBRANCH   1   2
BRANCH   1  23
ATOM     23  N   UNL A   1      39.799  23.837  26.150  1.00  0.00    -0.352 N 
ATOM     24  C   UNL A   1      40.854  24.640  26.521  1.00  0.00     0.251 C 
ATOM     25  H   UNL A   1      40.049  23.080  25.573  1.00  0.00     0.163 HD
ATOM     26  O   UNL A   1      41.950  24.463  25.996  1.00  0.00    -0.269 OA
BRANCH  24  27
ATOM     27  C   UNL A   1      40.686  25.726  27.516  1.00  0.00     0.039 A 
ATOM     28  C   UNL A   1      39.681  25.609  28.483  1.00  0.00     0.014 A 
ATOM     29  C   UNL A   1      41.480  26.872  27.490  1.00  0.00     0.014 A 
ATOM     30  C   UNL A   1      39.533  26.596  29.464  1.00  0.00     0.010 A 
ATOM     31  C   UNL A   1      41.401  27.803  28.524  1.00  0.00     0.010 A 
ATOM     32  C   UNL A   1      40.424  27.680  29.523  1.00  0.00    -0.014 A 
BRANCH  32  33
ATOM     33  C   UNL A   1      40.354  28.688  30.614  1.00  0.00     0.031 A 
ATOM     34  C   UNL A   1      41.219  28.542  31.842  1.00  0.00     0.074 A 
ATOM     35  C   UNL A   1      39.456  29.694  30.537  1.00  0.00     0.049 A 
ATOM     36  N   UNL A   1      41.240  29.275  32.925  1.00  0.00    -0.248 NA
ATOM     37  C   UNL A   1      42.160  27.409  31.872  1.00  0.00     0.031 C 
ATOM     38  C   UNL A   1      38.521  29.913  29.430  1.00  0.00     0.029 A 
ATOM     39  N   UNL A   1      39.170  30.713  31.412  1.00  0.00    -0.354 N 
ATOM     40  C   UNL A   1      42.168  28.677  33.771  1.00  0.00     0.074 A 
ATOM     41  C   UNL A   1      42.661  27.500  33.096  1.00  0.00     0.031 C 
ATOM     42  C   UNL A   1      37.784  31.006  29.681  1.00  0.00     0.029 A 
ATOM     43  C   UNL A   1      38.156  31.542  30.986  1.00  0.00     0.049 A 
ATOM     44  H   UNL A   1      39.646  30.840  32.265  1.00  0.00     0.167 HD
ATOM     45  C   UNL A   1      42.583  29.083  34.995  1.00  0.00     0.031 A 
ATOM     46  C   UNL A   1      37.579  32.604  31.583  1.00  0.00     0.031 A 
ATOM     47  C   UNL A   1      42.118  30.276  35.648  1.00  0.00     0.049 A 
ATOM     48  C   UNL A   1      38.076  33.040  32.935  1.00  0.00     0.074 A 
ATOM     49  C   UNL A   1      42.547  30.820  36.847  1.00  0.00     0.029 A 
ATOM     50  N   UNL A   1      41.119  31.108  35.166  1.00  0.00    -0.354 N 
ATOM     51  N   UNL A   1      39.026  32.514  33.673  1.00  0.00    -0.248 NA
ATOM     52  C   UNL A   1      37.436  34.222  33.531  1.00  0.00     0.031 C 
ATOM     53  C   UNL A   1      41.764  31.943  37.121  1.00  0.00     0.029 A 
ATOM     54  C   UNL A   1      40.896  32.141  36.060  1.00  0.00     0.049 A 
ATOM     55  H   UNL A   1      40.641  30.983  34.315  1.00  0.00     0.167 HD
ATOM     56  C   UNL A   1      39.115  33.320  34.804  1.00  0.00     0.074 A 
ATOM     57  C   UNL A   1      38.140  34.379  34.643  1.00  0.00     0.031 C 
ATOM     58  C   UNL A   1      39.929  33.193  35.880  1.00  0.00     0.031 A 
BRANCH  45  59
ATOM     59  C   UNL A   1      43.595  28.236  35.723  1.00  0.00    -0.014 A 
ATOM     60  C   UNL A   1      43.197  27.188  36.571  1.00  0.00     0.010 A 
ATOM     61  C   UNL A   1      44.967  28.428  35.471  1.00  0.00     0.010 A 
ATOM     62  C   UNL A   1      44.152  26.356  37.162  1.00  0.00     0.020 A 
ATOM     63  C   UNL A   1      45.923  27.582  36.038  1.00  0.00     0.020 A 
ATOM     64  C   UNL A   1      45.509  26.553  36.885  1.00  0.00     0.054 A 
BRANCH  64  65
ATOM     65  S   UNL A   1      46.717  25.406  37.603  1.00  0.00     0.124 S 
ATOM     66  O   UNL A   1      47.927  25.734  36.854  1.00  0.00    -0.237 OA
ATOM     67  O   UNL A   1      46.725  25.793  39.011  1.00  0.00    -0.237 OA
ATOM     68  O   UNL A   1      46.152  24.087  37.326  1.00  0.00    -0.744 OA
ENDBRANCH  64  65
ENDBRANCH  45  59
BRANCH  46  69
ATOM     69  C   UNL A   1      36.452  33.322  30.922  1.00  0.00    -0.014 A 
ATOM     70  C   UNL A   1      36.634  33.972  29.689  1.00  0.00     0.010 A 
ATOM     71  C   UNL A   1      35.191  33.385  31.544  1.00  0.00     0.010 A 
ATOM     72  C   UNL A   1      35.593  34.709  29.113  1.00  0.00     0.020 A 
ATOM     73  C   UNL A   1      34.138  34.091  30.955  1.00  0.00     0.020 A 
ATOM     74  C   UNL A   1      34.353  34.767  29.754  1.00  0.00     0.054 A 
BRANCH  74  75
ATOM     75  S   UNL A   1      33.014  35.724  28.990  1.00  0.00     0.124 S 
ATOM     76  O   UNL A   1      32.246  36.153  30.155  1.00  0.00    -0.237 OA
ATOM     77  O   UNL A   1      33.739  36.778  28.285  1.00  0.00    -0.237 OA
ATOM     78  O   UNL A   1      32.350  34.752  28.125  1.00  0.00    -0.744 OA
ENDBRANCH  74  75
ENDBRANCH  46  69
BRANCH  58  79
ATOM     79  C   UNL A   1      39.835  34.246  36.952  1.00  0.00    -0.014 A 
ATOM     80  C   UNL A   1      40.404  35.519  36.780  1.00  0.00     0.010 A 
ATOM     81  C   UNL A   1      39.114  33.971  38.129  1.00  0.00     0.010 A 
ATOM     82  C   UNL A   1      40.286  36.486  37.782  1.00  0.00     0.020 A 
ATOM     83  C   UNL A   1      38.964  34.946  39.118  1.00  0.00     0.020 A 
ATOM     84  C   UNL A   1      39.565  36.194  38.944  1.00  0.00     0.054 A 
BRANCH  84  85
ATOM     85  S   UNL A   1      39.392  37.480  40.210  1.00  0.00     0.124 S 
ATOM     86  O   UNL A   1      38.571  38.475  39.523  1.00  0.00    -0.237 OA
ATOM     87  O   UNL A   1      38.733  36.766  41.301  1.00  0.00    -0.237 OA
ATOM     88  O   UNL A   1      40.768  37.888  40.482  1.00  0.00    -0.744 OA
ENDBRANCH  84  85
ENDBRANCH  58  79
ENDBRANCH  32  33
ENDBRANCH  24  27
ENDBRANCH   1  23
TORSDOF 14
ENDMDL
MODEL 2
REMARK VINA RESULT:     -12.5      6.803     12.316
REMARK SMILES Cc1ccc(-c2cccc(F)c2C(=O)NCCCNC(=O)c2ccc(-c3c4nc(c(-c5ccc(S(=O)(=O)[O-])cc5)c5ccc([nH]5)c(-c5ccc(S(=O)(=O)[O-])cc5)c5nc(c(-c6ccc(S(=O)(=O)[O-])cc6)c6ccc3[nH]6)C=C5)C=C4)cc2)c(C)c1
REMARK SMILES IDX 18 1 17 2 16 3 15 4 13 5 14 6 12 8 6 9 7 10 8 11 10 12 9 13
REMARK SMILES IDX 11 14 5 15 1 16 2 17 3 18 84 19 4 20 82 21 83 22 19 23 20 24
REMARK SMILES IDX 21 26 22 27 23 28 81 29 24 30 80 31 25 32 26 33 27 34 74 35
REMARK SMILES IDX 28 36 79 37 73 38 75 39 29 40 78 41 72 42 71 43 30 45 60 46
REMARK SMILES IDX 41 47 59 48 42 49 45 50 58 51 76 52 43 53 44 54 57 56 77 57
REMARK SMILES IDX 46 58 31 59 32 60 40 61 33 62 39 63 34 64 35 65 36 66 37 67
REMARK SMILES IDX 38 68 61 69 62 70 70 71 63 72 69 73 64 74 65 75 66 76 67 77
REMARK SMILES IDX 68 78 47 79 48 80 56 81 49 82 55 83 50 84 51 85 52 86 53 87
REMARK SMILES IDX 54 88
REMARK H PARENT 15 7 19 25 75 44 45 55
REMARK Flexibility Score: inf
ROOT
ATOM      1  C   UNL A   1      35.040  29.384  27.503  1.00  0.00     0.118 C 
ENDROOT
BRANCH   1   2
ATOM      2  C   UNL A   1      33.609  28.983  27.181  1.00  0.00     0.042 C 
BRANCH   2   3
ATOM      3  C   UNL A   1      32.951  29.708  26.016  1.00  0.00     0.118 C 
BRANCH   3   4
ATOM      4  N   UNL A   1      33.485  29.380  24.701  1.00  0.00    -0.352 N 
ATOM      5  C   UNL A   1      32.907  28.875  23.554  1.00  0.00     0.254 C 
ATOM      6  O   UNL A   1      33.568  28.980  22.520  1.00  0.00    -0.269 OA
ATOM      7  H   UNL A   1      34.450  29.555  24.613  1.00  0.00     0.163 HD
BRANCH   5   8
ATOM      8  C   UNL A   1      31.590  28.175  23.527  1.00  0.00     0.083 A 
ATOM      9  C   UNL A   1      31.478  26.814  23.920  1.00  0.00    -0.002 A 
ATOM     10  C   UNL A   1      30.192  26.222  23.971  1.00  0.00     0.010 A 
ATOM     11  C   UNL A   1      29.048  26.929  23.610  1.00  0.00     0.004 A 
ATOM     12  C   UNL A   1      30.442  28.813  23.047  1.00  0.00     0.136 A 
ATOM     13  C   UNL A   1      29.179  28.220  23.125  1.00  0.00     0.040 A 
ATOM     14  F   UNL A   1      30.514  29.994  22.415  1.00  0.00    -0.206 F 
BRANCH   9  15
ATOM     15  C   UNL A   1      32.624  25.916  24.175  1.00  0.00    -0.015 A 
ATOM     16  C   UNL A   1      35.987  23.383  25.213  1.00  0.00     0.044 C 
ATOM     17  C   UNL A   1      34.837  24.280  24.863  1.00  0.00    -0.051 A 
ATOM     18  C   UNL A   1      34.142  24.969  25.854  1.00  0.00     0.004 A 
ATOM     19  C   UNL A   1      34.425  24.415  23.530  1.00  0.00     0.007 A 
ATOM     20  C   UNL A   1      33.054  25.774  25.512  1.00  0.00     0.009 A 
ATOM     21  C   UNL A   1      33.334  25.233  23.169  1.00  0.00    -0.043 A 
ATOM     22  C   UNL A   1      32.954  25.291  21.715  1.00  0.00     0.045 C 
ENDBRANCH   9  15
ENDBRANCH   5   8
ENDBRANCH   3   4
ENDBRANCH   2   3
ENDBRANCH   1   2
BRANCH   1  23
ATOM     23  N   UNL A   1      35.164  30.201  28.704  1.00  0.00    -0.352 N 
ATOM     24  C   UNL A   1      36.218  30.403  29.565  1.00  0.00     0.251 C 
ATOM     25  H   UNL A   1      34.347  30.697  28.940  1.00  0.00     0.163 HD
ATOM     26  O   UNL A   1      36.026  31.022  30.608  1.00  0.00    -0.269 OA
BRANCH  24  27
ATOM     27  C   UNL A   1      37.570  29.866  29.273  1.00  0.00     0.039 A 
ATOM     28  C   UNL A   1      37.995  29.794  27.942  1.00  0.00     0.014 A 
ATOM     29  C   UNL A   1      38.408  29.401  30.285  1.00  0.00     0.014 A 
ATOM     30  C   UNL A   1      39.283  29.338  27.641  1.00  0.00     0.010 A 
ATOM     31  C   UNL A   1      39.723  29.043  29.996  1.00  0.00     0.010 A 
ATOM     32  C   UNL A   1      40.178  29.003  28.670  1.00  0.00    -0.014 A 
BRANCH  32  33
ATOM     33  C   UNL A   1      41.585  28.613  28.384  1.00  0.00     0.031 A 
ATOM     34  C   UNL A   1      42.669  29.660  28.336  1.00  0.00     0.074 A 
ATOM     35  C   UNL A   1      41.874  27.326  28.091  1.00  0.00     0.049 A 
ATOM     36  N   UNL A   1      43.933  29.521  28.027  1.00  0.00    -0.248 NA
ATOM     37  C   UNL A   1      42.281  31.047  28.642  1.00  0.00     0.031 C 
ATOM     38  C   UNL A   1      40.905  26.228  28.046  1.00  0.00     0.029 A 
ATOM     39  N   UNL A   1      43.064  26.726  27.760  1.00  0.00    -0.354 N 
ATOM     40  C   UNL A   1      44.479  30.799  28.073  1.00  0.00     0.074 A 
ATOM     41  C   UNL A   1      43.404  31.708  28.400  1.00  0.00     0.031 C 
ATOM     42  C   UNL A   1      41.540  25.088  27.731  1.00  0.00     0.029 A 
ATOM     43  C   UNL A   1      42.952  25.377  27.503  1.00  0.00     0.049 A 
ATOM     44  H   UNL A   1      43.918  27.214  27.710  1.00  0.00     0.167 HD
ATOM     45  C   UNL A   1      45.764  31.180  27.876  1.00  0.00     0.031 A 
ATOM     46  C   UNL A   1      43.876  24.477  27.113  1.00  0.00     0.031 A 
ATOM     47  C   UNL A   1      46.838  30.268  27.588  1.00  0.00     0.049 A 
ATOM     48  C   UNL A   1      45.299  24.928  26.921  1.00  0.00     0.074 A 
ATOM     49  C   UNL A   1      48.188  30.547  27.464  1.00  0.00     0.029 A 
ATOM     50  N   UNL A   1      46.689  28.907  27.374  1.00  0.00    -0.354 N 
ATOM     51  N   UNL A   1      45.810  26.128  27.067  1.00  0.00    -0.248 NA
ATOM     52  C   UNL A   1      46.275  23.903  26.525  1.00  0.00     0.031 C 
ATOM     53  C   UNL A   1      48.847  29.367  27.111  1.00  0.00     0.029 A 
ATOM     54  C   UNL A   1      47.918  28.339  27.086  1.00  0.00     0.049 A 
ATOM     55  H   UNL A   1      45.836  28.417  27.421  1.00  0.00     0.167 HD
ATOM     56  C   UNL A   1      47.171  25.993  26.811  1.00  0.00     0.074 A 
ATOM     57  C   UNL A   1      47.407  24.594  26.522  1.00  0.00     0.031 C 
ATOM     58  C   UNL A   1      48.138  26.943  26.811  1.00  0.00     0.031 A 
BRANCH  45  59
ATOM     59  C   UNL A   1      46.096  32.648  27.963  1.00  0.00    -0.014 A 
ATOM     60  C   UNL A   1      46.604  33.213  29.146  1.00  0.00     0.010 A 
ATOM     61  C   UNL A   1      45.996  33.449  26.810  1.00  0.00     0.010 A 
ATOM     62  C   UNL A   1      46.994  34.555  29.177  1.00  0.00     0.020 A 
ATOM     63  C   UNL A   1      46.410  34.783  26.829  1.00  0.00     0.020 A 
ATOM     64  C   UNL A   1      46.902  35.329  28.016  1.00  0.00     0.054 A 
BRANCH  64  65
ATOM     65  S   UNL A   1      47.492  37.044  28.068  1.00  0.00     0.124 S 
ATOM     66  O   UNL A   1      48.305  37.120  26.858  1.00  0.00    -0.237 OA
ATOM     67  O   UNL A   1      46.248  37.809  28.038  1.00  0.00    -0.237 OA
ATOM     68  O   UNL A   1      48.235  37.118  29.324  1.00  0.00    -0.744 OA
ENDBRANCH  64  65
ENDBRANCH  45  59
BRANCH  46  69
ATOM     69  C   UNL A   1      43.489  23.060  26.857  1.00  0.00    -0.014 A 
ATOM     70  C   UNL A   1      42.878  22.285  27.860  1.00  0.00     0.010 A 
ATOM     71  C   UNL A   1      43.761  22.466  25.610  1.00  0.00     0.010 A 
ATOM     72  C   UNL A   1      42.590  20.935  27.637  1.00  0.00     0.020 A 
ATOM     73  C   UNL A   1      43.442  21.126  25.372  1.00  0.00     0.020 A 
ATOM     74  C   UNL A   1      42.879  20.363  26.396  1.00  0.00     0.054 A 
BRANCH  74  75
ATOM     75  S   UNL A   1      42.492  18.611  26.124  1.00  0.00     0.124 S 
ATOM     76  O   UNL A   1      43.423  18.258  25.056  1.00  0.00    -0.237 OA
ATOM     77  O   UNL A   1      42.772  18.019  27.430  1.00  0.00    -0.237 OA
ATOM     78  O   UNL A   1      41.081  18.627  25.746  1.00  0.00    -0.744 OA
ENDBRANCH  74  75
ENDBRANCH  46  69
BRANCH  58  79
ATOM     79  C   UNL A   1      49.549  26.499  26.533  1.00  0.00    -0.014 A 
ATOM     80  C   UNL A   1      50.378  26.008  27.557  1.00  0.00     0.010 A 
ATOM     81  C   UNL A   1      50.033  26.524  25.212  1.00  0.00     0.010 A 
ATOM     82  C   UNL A   1      51.678  25.584  27.269  1.00  0.00     0.020 A 
ATOM     83  C   UNL A   1      51.320  26.068  24.915  1.00  0.00     0.020 A 
ATOM     84  C   UNL A   1      52.140  25.615  25.950  1.00  0.00     0.054 A 
BRANCH  84  85
ATOM     85  S   UNL A   1      53.816  25.020  25.598  1.00  0.00     0.124 S 
ATOM     86  O   UNL A   1      54.166  25.784  24.404  1.00  0.00    -0.237 OA
ATOM     87  O   UNL A   1      54.544  25.381  26.812  1.00  0.00    -0.237 OA
ATOM     88  O   UNL A   1      53.639  23.585  25.389  1.00  0.00    -0.744 OA
ENDBRANCH  84  85
ENDBRANCH  58  79
ENDBRANCH  32  33
ENDBRANCH  24  27
ENDBRANCH   1  23
TORSDOF 14
ENDMDL
MODEL 3
REMARK VINA RESULT:     -12.5      4.913     10.419
REMARK SMILES Cc1ccc(-c2cccc(F)c2C(=O)NCCCNC(=O)c2ccc(-c3c4nc(c(-c5ccc(S(=O)(=O)[O-])cc5)c5ccc([nH]5)c(-c5ccc(S(=O)(=O)[O-])cc5)c5nc(c(-c6ccc(S(=O)(=O)[O-])cc6)c6ccc3[nH]6)C=C5)C=C4)cc2)c(C)c1
REMARK SMILES IDX 18 1 17 2 16 3 15 4 13 5 14 6 12 8 6 9 7 10 8 11 10 12 9 13
REMARK SMILES IDX 11 14 5 15 1 16 2 17 3 18 84 19 4 20 82 21 83 22 19 23 20 24
REMARK SMILES IDX 21 26 22 27 23 28 81 29 24 30 80 31 25 32 26 33 27 34 74 35
REMARK SMILES IDX 28 36 79 37 73 38 75 39 29 40 78 41 72 42 71 43 30 45 60 46
REMARK SMILES IDX 41 47 59 48 42 49 45 50 58 51 76 52 43 53 44 54 57 56 77 57
REMARK SMILES IDX 46 58 31 59 32 60 40 61 33 62 39 63 34 64 35 65 36 66 37 67
REMARK SMILES IDX 38 68 61 69 62 70 70 71 63 72 69 73 64 74 65 75 66 76 67 77
REMARK SMILES IDX 68 78 47 79 48 80 56 81 49 82 55 83 50 84 51 85 52 86 53 87
REMARK SMILES IDX 54 88
REMARK H PARENT 15 7 19 25 75 44 45 55
REMARK Flexibility Score: inf
ROOT
ATOM      1  C   UNL A   1      33.421  28.571  27.230  1.00  0.00     0.118 C 
ENDROOT
BRANCH   1   2
ATOM      2  C   UNL A   1      34.210  28.188  25.988  1.00  0.00     0.042 C 
BRANCH   2   3
ATOM      3  C   UNL A   1      33.819  28.894  24.697  1.00  0.00     0.118 C 
BRANCH   3   4
ATOM      4  N   UNL A   1      34.064  28.135  23.478  1.00  0.00    -0.352 N 
ATOM      5  C   UNL A   1      33.302  27.225  22.772  1.00  0.00     0.254 C 
ATOM      6  O   UNL A   1      33.678  26.976  21.626  1.00  0.00    -0.269 OA
ATOM      7  H   UNL A   1      34.947  28.306  23.078  1.00  0.00     0.163 HD
BRANCH   5   8
ATOM      8  C   UNL A   1      32.125  26.508  23.342  1.00  0.00     0.083 A 
ATOM      9  C   UNL A   1      32.289  25.303  24.077  1.00  0.00    -0.002 A 
ATOM     10  C   UNL A   1      31.153  24.712  24.681  1.00  0.00     0.010 A 
ATOM     11  C   UNL A   1      29.881  25.263  24.539  1.00  0.00     0.004 A 
ATOM     12  C   UNL A   1      30.822  26.959  23.110  1.00  0.00     0.136 A 
ATOM     13  C   UNL A   1      29.715  26.376  23.731  1.00  0.00     0.040 A 
ATOM     14  F   UNL A   1      30.569  27.925  22.214  1.00  0.00    -0.206 F 
BRANCH   9  15
ATOM     15  C   UNL A   1      33.552  24.540  24.169  1.00  0.00    -0.015 A 
ATOM     16  C   UNL A   1      37.326  22.470  24.687  1.00  0.00     0.044 C 
ATOM     17  C   UNL A   1      36.034  23.208  24.508  1.00  0.00    -0.051 A 
ATOM     18  C   UNL A   1      35.569  24.082  25.488  1.00  0.00     0.004 A 
ATOM     19  C   UNL A   1      35.257  23.008  23.359  1.00  0.00     0.007 A 
ATOM     20  C   UNL A   1      34.348  24.736  25.318  1.00  0.00     0.009 A 
ATOM     21  C   UNL A   1      34.026  23.670  23.169  1.00  0.00    -0.043 A 
ATOM     22  C   UNL A   1      33.256  23.367  21.914  1.00  0.00     0.045 C 
ENDBRANCH   9  15
ENDBRANCH   5   8
ENDBRANCH   3   4
ENDBRANCH   2   3
ENDBRANCH   1   2
BRANCH   1  23
ATOM     23  N   UNL A   1      33.469  29.994  27.541  1.00  0.00    -0.352 N 
ATOM     24  C   UNL A   1      34.452  30.770  28.112  1.00  0.00     0.251 C 
ATOM     25  H   UNL A   1      32.653  30.488  27.298  1.00  0.00     0.163 HD
ATOM     26  O   UNL A   1      34.193  31.931  28.418  1.00  0.00    -0.269 OA
BRANCH  24  27
ATOM     27  C   UNL A   1      35.804  30.226  28.388  1.00  0.00     0.039 A 
ATOM     28  C   UNL A   1      36.764  30.251  27.371  1.00  0.00     0.014 A 
ATOM     29  C   UNL A   1      36.128  29.660  29.621  1.00  0.00     0.014 A 
ATOM     30  C   UNL A   1      38.062  29.790  27.619  1.00  0.00     0.010 A 
ATOM     31  C   UNL A   1      37.444  29.296  29.900  1.00  0.00     0.010 A 
ATOM     32  C   UNL A   1      38.427  29.351  28.902  1.00  0.00    -0.014 A 
BRANCH  32  33
ATOM     33  C   UNL A   1      39.825  28.951  29.221  1.00  0.00     0.031 A 
ATOM     34  C   UNL A   1      40.781  29.948  29.827  1.00  0.00     0.074 A 
ATOM     35  C   UNL A   1      40.256  27.714  28.892  1.00  0.00     0.049 A 
ATOM     36  N   UNL A   1      42.053  29.806  30.101  1.00  0.00    -0.248 NA
ATOM     37  C   UNL A   1      40.252  31.287  30.138  1.00  0.00     0.031 C 
ATOM     38  C   UNL A   1      39.446  26.677  28.248  1.00  0.00     0.029 A 
ATOM     39  N   UNL A   1      41.487  27.122  29.041  1.00  0.00    -0.354 N 
ATOM     40  C   UNL A   1      42.478  31.038  30.584  1.00  0.00     0.074 A 
ATOM     41  C   UNL A   1      41.343  31.929  30.531  1.00  0.00     0.031 C 
ATOM     42  C   UNL A   1      40.191  25.573  28.079  1.00  0.00     0.029 A 
ATOM     43  C   UNL A   1      41.545  25.835  28.556  1.00  0.00     0.049 A 
ATOM     44  H   UNL A   1      42.256  27.577  29.456  1.00  0.00     0.167 HD
ATOM     45  C   UNL A   1      43.702  31.391  31.045  1.00  0.00     0.031 A 
ATOM     46  C   UNL A   1      42.574  24.967  28.487  1.00  0.00     0.031 A 
ATOM     47  C   UNL A   1      44.820  30.490  31.132  1.00  0.00     0.049 A 
ATOM     48  C   UNL A   1      43.917  25.383  29.026  1.00  0.00     0.074 A 
ATOM     49  C   UNL A   1      46.072  30.729  31.672  1.00  0.00     0.029 A 
ATOM     50  N   UNL A   1      44.826  29.185  30.666  1.00  0.00    -0.354 N 
ATOM     51  N   UNL A   1      44.269  26.525  29.570  1.00  0.00    -0.248 NA
ATOM     52  C   UNL A   1      44.999  24.391  28.956  1.00  0.00     0.031 C 
ATOM     53  C   UNL A   1      46.856  29.590  31.473  1.00  0.00     0.029 A 
ATOM     54  C   UNL A   1      46.071  28.618  30.875  1.00  0.00     0.049 A 
ATOM     55  H   UNL A   1      44.060  28.730  30.249  1.00  0.00     0.167 HD
ATOM     56  C   UNL A   1      45.603  26.374  29.934  1.00  0.00     0.074 A 
ATOM     57  C   UNL A   1      45.988  25.027  29.568  1.00  0.00     0.031 C 
ATOM     58  C   UNL A   1      46.436  27.272  30.515  1.00  0.00     0.031 A 
BRANCH  45  59
ATOM     59  C   UNL A   1      43.912  32.813  31.499  1.00  0.00    -0.014 A 
ATOM     60  C   UNL A   1      43.720  33.188  32.840  1.00  0.00     0.010 A 
ATOM     61  C   UNL A   1      44.411  33.763  30.587  1.00  0.00     0.010 A 
ATOM     62  C   UNL A   1      44.012  34.489  33.258  1.00  0.00     0.020 A 
ATOM     63  C   UNL A   1      44.729  35.057  31.007  1.00  0.00     0.020 A 
ATOM     64  C   UNL A   1      44.522  35.414  32.341  1.00  0.00     0.054 A 
BRANCH  64  65
ATOM     65  S   UNL A   1      44.966  37.070  32.933  1.00  0.00     0.124 S 
ATOM     66  O   UNL A   1      43.762  37.835  32.621  1.00  0.00    -0.237 OA
ATOM     67  O   UNL A   1      45.216  36.843  34.353  1.00  0.00    -0.237 OA
ATOM     68  O   UNL A   1      46.145  37.416  32.142  1.00  0.00    -0.744 OA
ENDBRANCH  64  65
ENDBRANCH  45  59
BRANCH  46  69
ATOM     69  C   UNL A   1      42.389  23.624  27.868  1.00  0.00    -0.014 A 
ATOM     70  C   UNL A   1      41.936  22.533  28.632  1.00  0.00     0.010 A 
ATOM     71  C   UNL A   1      42.698  23.421  26.510  1.00  0.00     0.010 A 
ATOM     72  C   UNL A   1      41.840  21.258  28.063  1.00  0.00     0.020 A 
ATOM     73  C   UNL A   1      42.570  22.156  25.929  1.00  0.00     0.020 A 
ATOM     74  C   UNL A   1      42.162  21.078  26.716  1.00  0.00     0.054 A 
BRANCH  74  75
ATOM     75  S   UNL A   1      42.027  19.419  25.995  1.00  0.00     0.124 S 
ATOM     76  O   UNL A   1      40.593  19.314  25.744  1.00  0.00    -0.237 OA
ATOM     77  O   UNL A   1      42.872  19.519  24.807  1.00  0.00    -0.237 OA
ATOM     78  O   UNL A   1      42.545  18.546  27.045  1.00  0.00    -0.744 OA
ENDBRANCH  74  75
ENDBRANCH  46  69
BRANCH  58  79
ATOM     79  C   UNL A   1      47.835  26.818  30.834  1.00  0.00    -0.014 A 
ATOM     80  C   UNL A   1      48.880  26.953  29.904  1.00  0.00     0.010 A 
ATOM     81  C   UNL A   1      48.118  26.298  32.111  1.00  0.00     0.010 A 
ATOM     82  C   UNL A   1      50.175  26.542  30.232  1.00  0.00     0.020 A 
ATOM     83  C   UNL A   1      49.417  25.918  32.455  1.00  0.00     0.020 A 
ATOM     84  C   UNL A   1      50.435  26.029  31.506  1.00  0.00     0.054 A 
BRANCH  84  85
ATOM     85  S   UNL A   1      52.131  25.542  31.921  1.00  0.00     0.124 S 
ATOM     86  O   UNL A   1      51.988  24.107  32.155  1.00  0.00    -0.237 OA
ATOM     87  O   UNL A   1      52.873  25.911  30.717  1.00  0.00    -0.237 OA
ATOM     88  O   UNL A   1      52.442  26.338  33.105  1.00  0.00    -0.744 OA
ENDBRANCH  84  85
ENDBRANCH  58  79
ENDBRANCH  32  33
ENDBRANCH  24  27
ENDBRANCH   1  23
TORSDOF 14
ENDMDL
