MODEL 1
REMARK VINA RESULT:     -12.6      0.000      0.000
REMARK SMILES NS(=O)(=O)c1ccc(-n2nc(C(=O)NCCCNC(=O)c3ccc(-c4c5nc(c(-c6ccc(S(=O)(=O)[O-])cc6)c6ccc([nH]6)c(-c6ccc(S(=O)(=O)[O-])cc6)c6nc(c(-c7ccc(S(=O)(=O)[O-])cc7)c7ccc4[nH]7)C=C6)C=C5)cc3)cc2-c2cc3ccccc3s2)cc1
REMARK SMILES IDX 16 1 15 2 14 3 12 4 13 5 11 7 9 8 10 9 82 10 81 11 8 12 5 13
REMARK SMILES IDX 6 14 93 15 7 16 92 17 2 18 3 19 4 20 1 21 83 24 84 25 91 26
REMARK SMILES IDX 85 27 90 28 86 29 89 30 87 31 88 32 17 33 18 34 19 35 20 37
REMARK SMILES IDX 21 38 22 39 80 40 23 41 79 42 24 43 25 44 26 45 73 46 27 47
REMARK SMILES IDX 78 48 72 49 74 50 28 51 77 52 71 53 70 54 29 56 59 57 40 58
REMARK SMILES IDX 58 59 41 60 44 61 57 62 75 63 42 64 43 65 56 67 76 68 45 69
REMARK SMILES IDX 30 70 31 71 39 72 32 73 38 74 33 75 34 76 35 77 36 78 37 79
REMARK SMILES IDX 60 80 61 81 69 82 62 83 68 84 63 85 64 86 65 87 66 88 67 89
REMARK SMILES IDX 46 90 47 91 55 92 48 93 54 94 49 95 50 96 51 97 52 98 53 99
REMARK H PARENT 14 6 1 22 1 23 18 36 74 55 44 66
REMARK Flexibility Score: inf
ROOT
ATOM      1  C   UNL A   1      39.427  21.477  26.185  1.00  0.00     0.042 C 
ENDROOT
BRANCH   1   2
ATOM      2  C   UNL A   1      38.164  21.944  25.452  1.00  0.00     0.118 C 
BRANCH   2   3
ATOM      3  N   UNL A   1      37.138  20.909  25.392  1.00  0.00    -0.351 N 
ATOM      4  C   UNL A   1      35.825  20.939  24.946  1.00  0.00     0.271 C 
ATOM      5  O   UNL A   1      35.244  19.860  24.852  1.00  0.00    -0.267 OA
ATOM      6  H   UNL A   1      37.429  20.031  25.729  1.00  0.00     0.163 HD
BRANCH   4   7
ATOM      7  C   UNL A   1      35.206  22.216  24.536  1.00  0.00     0.151 A 
ATOM      8  N   UNL A   1      34.022  24.000  24.755  1.00  0.00    -0.231 N 
ATOM      9  N   UNL A   1      34.911  23.201  25.409  1.00  0.00    -0.162 NA
ATOM     10  C   UNL A   1      33.787  23.531  23.482  1.00  0.00     0.085 A 
ATOM     11  C   UNL A   1      34.796  22.615  23.253  1.00  0.00     0.066 A 
BRANCH   8  12
ATOM     12  C   UNL A   1      33.572  25.198  25.352  1.00  0.00     0.065 A 
ATOM     13  C   UNL A   1      32.665  27.630  26.352  1.00  0.00     0.082 A 
ATOM     14  C   UNL A   1      32.048  26.439  26.754  1.00  0.00     0.024 A 
ATOM     15  C   UNL A   1      33.745  27.613  25.467  1.00  0.00     0.024 A 
ATOM     16  C   UNL A   1      32.486  25.220  26.232  1.00  0.00     0.030 A 
ATOM     17  C   UNL A   1      34.219  26.392  24.992  1.00  0.00     0.030 A 
BRANCH  13  18
ATOM     18  S   UNL A   1      32.046  29.174  26.941  1.00  0.00     0.238 S 
ATOM     19  O   UNL A   1      31.093  28.939  28.006  1.00  0.00    -0.207 OA
ATOM     20  O   UNL A   1      31.768  30.028  25.816  1.00  0.00    -0.207 OA
BRANCH  18  21
ATOM     21  N   UNL A   1      33.385  29.843  27.713  1.00  0.00    -0.225 NA
ATOM     22  H   UNL A   1      33.822  30.532  27.101  1.00  0.00     0.137 HD
ATOM     23  H   UNL A   1      34.056  29.105  27.929  1.00  0.00     0.137 HD
ENDBRANCH  18  21
ENDBRANCH  13  18
ENDBRANCH   8  12
BRANCH  10  24
ATOM     24  C   UNL A   1      32.695  23.731  22.573  1.00  0.00     0.054 A 
ATOM     25  C   UNL A   1      31.353  23.714  22.931  1.00  0.00     0.031 A 
ATOM     26  S   UNL A   1      32.872  25.001  21.401  1.00  0.00    -0.134 S 
ATOM     27  C   UNL A   1      30.939  25.101  23.077  1.00  0.00    -0.007 A 
ATOM     28  C   UNL A   1      31.788  25.955  22.360  1.00  0.00     0.035 A 
ATOM     29  C   UNL A   1      29.959  25.687  23.911  1.00  0.00     0.009 A 
ATOM     30  C   UNL A   1      31.730  27.353  22.481  1.00  0.00     0.019 A 
ATOM     31  C   UNL A   1      29.928  27.076  24.077  1.00  0.00     0.001 A 
ATOM     32  C   UNL A   1      30.814  27.895  23.385  1.00  0.00     0.001 A 
ENDBRANCH  10  24
ENDBRANCH   4   7
ENDBRANCH   2   3
ENDBRANCH   1   2
BRANCH   1  33
ATOM     33  C   UNL A   1      40.465  22.579  26.319  1.00  0.00     0.118 C 
BRANCH  33  34
ATOM     34  N   UNL A   1      41.709  22.289  25.593  1.00  0.00    -0.352 N 
ATOM     35  C   UNL A   1      42.704  23.175  25.213  1.00  0.00     0.251 C 
ATOM     36  H   UNL A   1      41.853  21.347  25.344  1.00  0.00     0.163 HD
ATOM     37  O   UNL A   1      43.498  22.881  24.327  1.00  0.00    -0.269 OA
BRANCH  35  38
ATOM     38  C   UNL A   1      42.783  24.478  25.900  1.00  0.00     0.039 A 
ATOM     39  C   UNL A   1      42.115  25.614  25.431  1.00  0.00     0.014 A 
ATOM     40  C   UNL A   1      43.503  24.518  27.087  1.00  0.00     0.014 A 
ATOM     41  C   UNL A   1      42.090  26.757  26.230  1.00  0.00     0.010 A 
ATOM     42  C   UNL A   1      43.316  25.562  27.950  1.00  0.00     0.010 A 
ATOM     43  C   UNL A   1      42.669  26.712  27.508  1.00  0.00    -0.014 A 
BRANCH  43  44
ATOM     44  C   UNL A   1      42.486  27.788  28.480  1.00  0.00     0.031 A 
ATOM     45  C   UNL A   1      43.574  28.810  28.453  1.00  0.00     0.074 A 
ATOM     46  C   UNL A   1      41.297  27.992  29.095  1.00  0.00     0.049 A 
ATOM     47  N   UNL A   1      44.433  29.093  29.375  1.00  0.00    -0.248 NA
ATOM     48  C   UNL A   1      43.852  29.480  27.166  1.00  0.00     0.031 C 
ATOM     49  C   UNL A   1      40.051  27.235  28.898  1.00  0.00     0.029 A 
ATOM     50  N   UNL A   1      40.888  29.011  29.898  1.00  0.00    -0.354 N 
ATOM     51  C   UNL A   1      45.177  30.163  28.880  1.00  0.00     0.074 A 
ATOM     52  C   UNL A   1      44.952  30.175  27.459  1.00  0.00     0.031 C 
ATOM     53  C   UNL A   1      38.999  27.969  29.322  1.00  0.00     0.029 A 
ATOM     54  C   UNL A   1      39.501  29.160  29.980  1.00  0.00     0.049 A 
ATOM     55  H   UNL A   1      41.516  29.595  30.382  1.00  0.00     0.167 HD
ATOM     56  C   UNL A   1      45.645  31.144  29.705  1.00  0.00     0.031 A 
ATOM     57  C   UNL A   1      38.813  30.208  30.504  1.00  0.00     0.031 A 
ATOM     58  C   UNL A   1      45.587  30.730  31.086  1.00  0.00     0.049 A 
ATOM     59  C   UNL A   1      39.763  30.962  31.356  1.00  0.00     0.074 A 
ATOM     60  C   UNL A   1      46.103  29.676  31.814  1.00  0.00     0.029 A 
ATOM     61  N   UNL A   1      44.554  31.242  31.836  1.00  0.00    -0.354 N 
ATOM     62  N   UNL A   1      40.304  30.475  32.438  1.00  0.00    -0.248 NA
ATOM     63  C   UNL A   1      40.472  32.076  30.750  1.00  0.00     0.031 C 
ATOM     64  C   UNL A   1      45.065  29.316  32.723  1.00  0.00     0.029 A 
ATOM     65  C   UNL A   1      44.014  30.224  32.573  1.00  0.00     0.049 A 
ATOM     66  H   UNL A   1      44.255  32.181  31.842  1.00  0.00     0.167 HD
ATOM     67  C   UNL A   1      41.623  30.903  32.395  1.00  0.00     0.074 A 
ATOM     68  C   UNL A   1      41.642  31.963  31.385  1.00  0.00     0.031 C 
ATOM     69  C   UNL A   1      42.622  30.166  32.966  1.00  0.00     0.031 A 
BRANCH  56  70
ATOM     70  C   UNL A   1      45.691  32.614  29.320  1.00  0.00    -0.014 A 
ATOM     71  C   UNL A   1      44.479  33.339  29.291  1.00  0.00     0.010 A 
ATOM     72  C   UNL A   1      46.804  33.232  28.715  1.00  0.00     0.010 A 
ATOM     73  C   UNL A   1      44.365  34.549  28.594  1.00  0.00     0.020 A 
ATOM     74  C   UNL A   1      46.715  34.460  28.055  1.00  0.00     0.020 A 
ATOM     75  C   UNL A   1      45.484  35.092  27.963  1.00  0.00     0.054 A 
BRANCH  75  76
ATOM     76  S   UNL A   1      45.308  36.596  26.976  1.00  0.00     0.124 S 
ATOM     77  O   UNL A   1      46.300  36.381  25.928  1.00  0.00    -0.237 OA
ATOM     78  O   UNL A   1      43.911  36.525  26.557  1.00  0.00    -0.237 OA
ATOM     79  O   UNL A   1      45.615  37.664  27.926  1.00  0.00    -0.744 OA
ENDBRANCH  75  76
ENDBRANCH  56  70
BRANCH  57  80
ATOM     80  C   UNL A   1      37.509  30.783  30.069  1.00  0.00    -0.014 A 
ATOM     81  C   UNL A   1      36.576  31.262  31.011  1.00  0.00     0.010 A 
ATOM     82  C   UNL A   1      37.301  31.129  28.719  1.00  0.00     0.010 A 
ATOM     83  C   UNL A   1      35.522  32.113  30.626  1.00  0.00     0.020 A 
ATOM     84  C   UNL A   1      36.250  31.970  28.326  1.00  0.00     0.020 A 
ATOM     85  C   UNL A   1      35.379  32.480  29.286  1.00  0.00     0.054 A 
BRANCH  85  86
ATOM     86  S   UNL A   1      34.139  33.730  28.822  1.00  0.00     0.124 S 
ATOM     87  O   UNL A   1      33.552  34.080  30.113  1.00  0.00    -0.237 OA
ATOM     88  O   UNL A   1      34.952  34.770  28.196  1.00  0.00    -0.237 OA
ATOM     89  O   UNL A   1      33.250  33.011  27.913  1.00  0.00    -0.744 OA
ENDBRANCH  85  86
ENDBRANCH  57  80
BRANCH  69  90
ATOM     90  C   UNL A   1      42.252  29.074  33.943  1.00  0.00    -0.014 A 
ATOM     91  C   UNL A   1      41.898  27.758  33.584  1.00  0.00     0.010 A 
ATOM     92  C   UNL A   1      42.413  29.375  35.307  1.00  0.00     0.010 A 
ATOM     93  C   UNL A   1      41.681  26.782  34.572  1.00  0.00     0.020 A 
ATOM     94  C   UNL A   1      42.219  28.406  36.291  1.00  0.00     0.020 A 
ATOM     95  C   UNL A   1      41.841  27.116  35.921  1.00  0.00     0.054 A 
BRANCH  95  96
ATOM     96  S   UNL A   1      41.581  25.855  37.199  1.00  0.00     0.124 S 
ATOM     97  O   UNL A   1      41.751  24.610  36.457  1.00  0.00    -0.237 OA
ATOM     98  O   UNL A   1      42.629  26.156  38.172  1.00  0.00    -0.237 OA
ATOM     99  O   UNL A   1      40.220  26.110  37.671  1.00  0.00    -0.744 OA
ENDBRANCH  95  96
ENDBRANCH  69  90
ENDBRANCH  43  44
ENDBRANCH  35  38
ENDBRANCH  33  34
ENDBRANCH   1  33
TORSDOF 17
ENDMDL
MODEL 2
REMARK VINA RESULT:     -12.4      2.967      8.405
REMARK SMILES NS(=O)(=O)c1ccc(-n2nc(C(=O)NCCCNC(=O)c3ccc(-c4c5nc(c(-c6ccc(S(=O)(=O)[O-])cc6)c6ccc([nH]6)c(-c6ccc(S(=O)(=O)[O-])cc6)c6nc(c(-c7ccc(S(=O)(=O)[O-])cc7)c7ccc4[nH]7)C=C6)C=C5)cc3)cc2-c2cc3ccccc3s2)cc1
REMARK SMILES IDX 16 1 15 2 14 3 12 4 13 5 11 7 9 8 10 9 82 10 81 11 8 12 5 13
REMARK SMILES IDX 6 14 93 15 7 16 92 17 2 18 3 19 4 20 1 21 83 24 84 25 91 26
REMARK SMILES IDX 85 27 90 28 86 29 89 30 87 31 88 32 17 33 18 34 19 35 20 37
REMARK SMILES IDX 21 38 22 39 80 40 23 41 79 42 24 43 25 44 26 45 73 46 27 47
REMARK SMILES IDX 78 48 72 49 74 50 28 51 77 52 71 53 70 54 29 56 59 57 40 58
REMARK SMILES IDX 58 59 41 60 44 61 57 62 75 63 42 64 43 65 56 67 76 68 45 69
REMARK SMILES IDX 30 70 31 71 39 72 32 73 38 74 33 75 34 76 35 77 36 78 37 79
REMARK SMILES IDX 60 80 61 81 69 82 62 83 68 84 63 85 64 86 65 87 66 88 67 89
REMARK SMILES IDX 46 90 47 91 55 92 48 93 54 94 49 95 50 96 51 97 52 98 53 99
REMARK H PARENT 14 6 1 22 1 23 18 36 74 55 44 66
REMARK Flexibility Score: inf
ROOT
ATOM      1  C   UNL A   1      31.485  31.661  26.605  1.00  0.00     0.042 C 
ENDROOT
BRANCH   1   2
ATOM      2  C   UNL A   1      31.914  30.340  25.956  1.00  0.00     0.118 C 
BRANCH   2   3
ATOM      3  N   UNL A   1      33.120  29.786  26.561  1.00  0.00    -0.351 N 
ATOM      4  C   UNL A   1      33.596  28.486  26.642  1.00  0.00     0.271 C 
ATOM      5  O   UNL A   1      34.742  28.337  27.063  1.00  0.00    -0.267 OA
ATOM      6  H   UNL A   1      33.702  30.456  26.989  1.00  0.00     0.163 HD
BRANCH   4   7
ATOM      7  C   UNL A   1      32.769  27.358  26.165  1.00  0.00     0.151 A 
ATOM      8  N   UNL A   1      32.365  25.433  25.294  1.00  0.00    -0.231 N 
ATOM      9  N   UNL A   1      33.211  26.085  26.138  1.00  0.00    -0.162 NA
ATOM     10  C   UNL A   1      31.393  26.285  24.821  1.00  0.00     0.085 A 
ATOM     11  C   UNL A   1      31.465  27.392  25.645  1.00  0.00     0.066 A 
BRANCH   8  12
ATOM     12  C   UNL A   1      32.482  24.037  25.108  1.00  0.00     0.065 A 
ATOM     13  C   UNL A   1      32.889  21.302  24.817  1.00  0.00     0.082 A 
ATOM     14  C   UNL A   1      31.753  21.768  25.490  1.00  0.00     0.024 A 
ATOM     15  C   UNL A   1      33.815  22.194  24.272  1.00  0.00     0.024 A 
ATOM     16  C   UNL A   1      31.562  23.142  25.659  1.00  0.00     0.030 A 
ATOM     17  C   UNL A   1      33.594  23.564  24.391  1.00  0.00     0.030 A 
BRANCH  13  18
ATOM     18  S   UNL A   1      33.174  19.565  24.689  1.00  0.00     0.238 S 
ATOM     19  O   UNL A   1      34.599  19.309  24.662  1.00  0.00    -0.207 OA
ATOM     20  O   UNL A   1      32.261  19.008  23.725  1.00  0.00    -0.207 OA
BRANCH  18  21
ATOM     21  N   UNL A   1      32.672  18.992  26.191  1.00  0.00    -0.225 NA
ATOM     22  H   UNL A   1      33.073  18.069  26.355  1.00  0.00     0.137 HD
ATOM     23  H   UNL A   1      31.654  18.929  26.207  1.00  0.00     0.137 HD
ENDBRANCH  18  21
ENDBRANCH  13  18
ENDBRANCH   8  12
BRANCH  10  24
ATOM     24  C   UNL A   1      30.557  26.235  23.655  1.00  0.00     0.054 A 
ATOM     25  C   UNL A   1      29.190  26.481  23.649  1.00  0.00     0.031 A 
ATOM     26  S   UNL A   1      31.189  26.954  22.206  1.00  0.00    -0.134 S 
ATOM     27  C   UNL A   1      29.012  27.856  23.206  1.00  0.00    -0.007 A 
ATOM     28  C   UNL A   1      30.126  28.295  22.478  1.00  0.00     0.035 A 
ATOM     29  C   UNL A   1      28.007  28.801  23.517  1.00  0.00     0.009 A 
ATOM     30  C   UNL A   1      30.298  29.637  22.099  1.00  0.00     0.019 A 
ATOM     31  C   UNL A   1      28.195  30.148  23.188  1.00  0.00     0.001 A 
ATOM     32  C   UNL A   1      29.334  30.561  22.503  1.00  0.00     0.001 A 
ENDBRANCH  10  24
ENDBRANCH   4   7
ENDBRANCH   2   3
ENDBRANCH   1   2
BRANCH   1  33
ATOM     33  C   UNL A   1      32.631  32.360  27.318  1.00  0.00     0.118 C 
BRANCH  33  34
ATOM     34  N   UNL A   1      32.373  33.786  27.561  1.00  0.00    -0.352 N 
ATOM     35  C   UNL A   1      32.994  34.624  28.472  1.00  0.00     0.251 C 
ATOM     36  H   UNL A   1      31.670  34.198  27.006  1.00  0.00     0.163 HD
ATOM     37  O   UNL A   1      32.463  35.673  28.819  1.00  0.00    -0.269 OA
BRANCH  35  38
ATOM     38  C   UNL A   1      34.306  34.223  29.015  1.00  0.00     0.039 A 
ATOM     39  C   UNL A   1      34.445  33.617  30.267  1.00  0.00     0.014 A 
ATOM     40  C   UNL A   1      35.408  34.411  28.191  1.00  0.00     0.014 A 
ATOM     41  C   UNL A   1      35.691  33.104  30.631  1.00  0.00     0.010 A 
ATOM     42  C   UNL A   1      36.569  33.742  28.461  1.00  0.00     0.010 A 
ATOM     43  C   UNL A   1      36.744  33.143  29.704  1.00  0.00    -0.014 A 
BRANCH  43  44
ATOM     44  C   UNL A   1      38.000  32.430  29.928  1.00  0.00     0.031 A 
ATOM     45  C   UNL A   1      37.962  31.001  29.495  1.00  0.00     0.074 A 
ATOM     46  C   UNL A   1      39.152  33.091  30.193  1.00  0.00     0.049 A 
ATOM     47  N   UNL A   1      38.060  29.939  30.223  1.00  0.00    -0.248 NA
ATOM     48  C   UNL A   1      37.591  30.721  28.093  1.00  0.00     0.031 C 
ATOM     49  C   UNL A   1      39.345  34.547  30.278  1.00  0.00     0.029 A 
ATOM     50  N   UNL A   1      40.429  32.629  30.278  1.00  0.00    -0.354 N 
ATOM     51  C   UNL A   1      38.037  28.868  29.331  1.00  0.00     0.074 A 
ATOM     52  C   UNL A   1      37.495  29.391  28.104  1.00  0.00     0.031 C 
ATOM     53  C   UNL A   1      40.652  34.845  30.119  1.00  0.00     0.029 A 
ATOM     54  C   UNL A   1      41.409  33.608  30.101  1.00  0.00     0.049 A 
ATOM     55  H   UNL A   1      40.645  31.684  30.451  1.00  0.00     0.167 HD
ATOM     56  C   UNL A   1      38.764  27.737  29.560  1.00  0.00     0.031 A 
ATOM     57  C   UNL A   1      42.741  33.417  29.903  1.00  0.00     0.031 A 
ATOM     58  C   UNL A   1      39.207  27.676  30.931  1.00  0.00     0.049 A 
ATOM     59  C   UNL A   1      43.044  32.031  30.333  1.00  0.00     0.074 A 
ATOM     60  C   UNL A   1      38.583  27.695  32.163  1.00  0.00     0.029 A 
ATOM     61  N   UNL A   1      40.522  28.005  31.166  1.00  0.00    -0.354 N 
ATOM     62  N   UNL A   1      42.931  31.618  31.565  1.00  0.00    -0.248 NA
ATOM     63  C   UNL A   1      43.016  30.991  29.319  1.00  0.00     0.031 C 
ATOM     64  C   UNL A   1      39.432  28.486  32.992  1.00  0.00     0.029 A 
ATOM     65  C   UNL A   1      40.570  28.826  32.259  1.00  0.00     0.049 A 
ATOM     66  H   UNL A   1      41.296  27.701  30.637  1.00  0.00     0.167 HD
ATOM     67  C   UNL A   1      42.372  30.352  31.461  1.00  0.00     0.074 A 
ATOM     68  C   UNL A   1      42.537  29.983  30.054  1.00  0.00     0.031 C 
ATOM     69  C   UNL A   1      41.575  29.851  32.451  1.00  0.00     0.031 A 
BRANCH  56  70
ATOM     70  C   UNL A   1      39.472  26.956  28.464  1.00  0.00    -0.014 A 
ATOM     71  C   UNL A   1      39.429  25.546  28.508  1.00  0.00     0.010 A 
ATOM     72  C   UNL A   1      40.405  27.526  27.574  1.00  0.00     0.010 A 
ATOM     73  C   UNL A   1      40.345  24.761  27.795  1.00  0.00     0.020 A 
ATOM     74  C   UNL A   1      41.294  26.754  26.823  1.00  0.00     0.020 A 
ATOM     75  C   UNL A   1      41.286  25.375  26.970  1.00  0.00     0.054 A 
BRANCH  75  76
ATOM     76  S   UNL A   1      42.534  24.367  26.137  1.00  0.00     0.124 S 
ATOM     77  O   UNL A   1      42.756  25.123  24.910  1.00  0.00    -0.237 OA
ATOM     78  O   UNL A   1      43.630  24.379  27.102  1.00  0.00    -0.237 OA
ATOM     79  O   UNL A   1      41.871  23.075  25.971  1.00  0.00    -0.744 OA
ENDBRANCH  75  76
ENDBRANCH  56  70
BRANCH  57  80
ATOM     80  C   UNL A   1      43.688  34.217  29.076  1.00  0.00    -0.014 A 
ATOM     81  C   UNL A   1      44.970  34.549  29.557  1.00  0.00     0.010 A 
ATOM     82  C   UNL A   1      43.444  34.405  27.700  1.00  0.00     0.010 A 
ATOM     83  C   UNL A   1      45.988  34.982  28.685  1.00  0.00     0.020 A 
ATOM     84  C   UNL A   1      44.450  34.843  26.826  1.00  0.00     0.020 A 
ATOM     85  C   UNL A   1      45.726  35.104  27.318  1.00  0.00     0.054 A 
BRANCH  85  86
ATOM     86  S   UNL A   1      47.090  35.475  26.171  1.00  0.00     0.124 S 
ATOM     87  O   UNL A   1      46.880  34.493  25.110  1.00  0.00    -0.237 OA
ATOM     88  O   UNL A   1      46.830  36.865  25.805  1.00  0.00    -0.237 OA
ATOM     89  O   UNL A   1      48.287  35.264  26.981  1.00  0.00    -0.744 OA
ENDBRANCH  85  86
ENDBRANCH  57  80
BRANCH  69  90
ATOM     90  C   UNL A   1      41.589  30.522  33.806  1.00  0.00    -0.014 A 
ATOM     91  C   UNL A   1      42.556  30.294  34.806  1.00  0.00     0.010 A 
ATOM     92  C   UNL A   1      40.644  31.542  34.008  1.00  0.00     0.010 A 
ATOM     93  C   UNL A   1      42.549  31.051  35.990  1.00  0.00     0.020 A 
ATOM     94  C   UNL A   1      40.645  32.311  35.172  1.00  0.00     0.020 A 
ATOM     95  C   UNL A   1      41.590  32.054  36.165  1.00  0.00     0.054 A 
BRANCH  95  96
ATOM     96  S   UNL A   1      41.588  33.047  37.683  1.00  0.00     0.124 S 
ATOM     97  O   UNL A   1      42.999  33.056  38.058  1.00  0.00    -0.237 OA
ATOM     98  O   UNL A   1      41.049  34.328  37.234  1.00  0.00    -0.237 OA
ATOM     99  O   UNL A   1      40.715  32.301  38.589  1.00  0.00    -0.744 OA
ENDBRANCH  95  96
ENDBRANCH  69  90
ENDBRANCH  43  44
ENDBRANCH  35  38
ENDBRANCH  33  34
ENDBRANCH   1  33
TORSDOF 17
ENDMDL
MODEL 3
REMARK VINA RESULT:     -12.3      2.422      9.107
REMARK SMILES NS(=O)(=O)c1ccc(-n2nc(C(=O)NCCCNC(=O)c3ccc(-c4c5nc(c(-c6ccc(S(=O)(=O)[O-])cc6)c6ccc([nH]6)c(-c6ccc(S(=O)(=O)[O-])cc6)c6nc(c(-c7ccc(S(=O)(=O)[O-])cc7)c7ccc4[nH]7)C=C6)C=C5)cc3)cc2-c2cc3ccccc3s2)cc1
REMARK SMILES IDX 16 1 15 2 14 3 12 4 13 5 11 7 9 8 10 9 82 10 81 11 8 12 5 13
REMARK SMILES IDX 6 14 93 15 7 16 92 17 2 18 3 19 4 20 1 21 83 24 84 25 91 26
REMARK SMILES IDX 85 27 90 28 86 29 89 30 87 31 88 32 17 33 18 34 19 35 20 37
REMARK SMILES IDX 21 38 22 39 80 40 23 41 79 42 24 43 25 44 26 45 73 46 27 47
REMARK SMILES IDX 78 48 72 49 74 50 28 51 77 52 71 53 70 54 29 56 59 57 40 58
REMARK SMILES IDX 58 59 41 60 44 61 57 62 75 63 42 64 43 65 56 67 76 68 45 69
REMARK SMILES IDX 30 70 31 71 39 72 32 73 38 74 33 75 34 76 35 77 36 78 37 79
REMARK SMILES IDX 60 80 61 81 69 82 62 83 68 84 63 85 64 86 65 87 66 88 67 89
REMARK SMILES IDX 46 90 47 91 55 92 48 93 54 94 49 95 50 96 51 97 52 98 53 99
REMARK H PARENT 14 6 1 22 1 23 18 36 74 55 44 66
REMARK Flexibility Score: inf
ROOT
ATOM      1  C   UNL A   1      32.954  34.323  28.532  1.00  0.00     0.042 C 
ENDROOT
BRANCH   1   2
ATOM      2  C   UNL A   1      33.060  32.982  27.795  1.00  0.00     0.118 C 
BRANCH   2   3
ATOM      3  N   UNL A   1      34.370  32.361  27.950  1.00  0.00    -0.351 N 
ATOM      4  C   UNL A   1      34.855  31.123  27.554  1.00  0.00     0.271 C 
ATOM      5  O   UNL A   1      36.066  30.937  27.666  1.00  0.00    -0.267 OA
ATOM      6  H   UNL A   1      35.030  32.921  28.420  1.00  0.00     0.163 HD
BRANCH   4   7
ATOM      7  C   UNL A   1      33.947  30.123  26.958  1.00  0.00     0.151 A 
ATOM      8  N   UNL A   1      33.352  28.206  26.181  1.00  0.00    -0.231 N 
ATOM      9  N   UNL A   1      34.071  28.798  27.175  1.00  0.00    -0.162 NA
ATOM     10  C   UNL A   1      32.767  29.153  25.371  1.00  0.00     0.085 A 
ATOM     11  C   UNL A   1      32.872  30.335  26.078  1.00  0.00     0.066 A 
BRANCH   8  12
ATOM     12  C   UNL A   1      33.187  26.803  26.163  1.00  0.00     0.065 A 
ATOM     13  C   UNL A   1      32.700  24.069  26.028  1.00  0.00     0.082 A 
ATOM     14  C   UNL A   1      33.938  24.576  25.614  1.00  0.00     0.024 A 
ATOM     15  C   UNL A   1      31.709  24.917  26.526  1.00  0.00     0.024 A 
ATOM     16  C   UNL A   1      34.173  25.952  25.657  1.00  0.00     0.030 A 
ATOM     17  C   UNL A   1      31.966  26.283  26.624  1.00  0.00     0.030 A 
BRANCH  13  18
ATOM     18  S   UNL A   1      32.374  22.341  25.881  1.00  0.00     0.238 S 
ATOM     19  O   UNL A   1      33.258  21.763  24.891  1.00  0.00    -0.207 OA
ATOM     20  O   UNL A   1      30.949  22.130  25.876  1.00  0.00    -0.207 OA
BRANCH  18  21
ATOM     21  N   UNL A   1      32.929  21.730  27.350  1.00  0.00    -0.225 NA
ATOM     22  H   UNL A   1      32.174  21.752  28.035  1.00  0.00     0.137 HD
ATOM     23  H   UNL A   1      33.706  22.301  27.682  1.00  0.00     0.137 HD
ENDBRANCH  18  21
ENDBRANCH  13  18
ENDBRANCH   8  12
BRANCH  10  24
ATOM     24  C   UNL A   1      32.284  29.093  24.020  1.00  0.00     0.054 A 
ATOM     25  C   UNL A   1      32.834  28.307  23.016  1.00  0.00     0.031 A 
ATOM     26  S   UNL A   1      30.562  29.024  23.805  1.00  0.00    -0.134 S 
ATOM     27  C   UNL A   1      32.014  27.110  22.922  1.00  0.00    -0.007 A 
ATOM     28  C   UNL A   1      30.734  27.337  23.446  1.00  0.00     0.035 A 
ATOM     29  C   UNL A   1      32.350  25.790  22.541  1.00  0.00     0.009 A 
ATOM     30  C   UNL A   1      29.808  26.302  23.652  1.00  0.00     0.019 A 
ATOM     31  C   UNL A   1      31.453  24.745  22.790  1.00  0.00     0.001 A 
ATOM     32  C   UNL A   1      30.206  24.997  23.354  1.00  0.00     0.001 A 
ENDBRANCH  10  24
ENDBRANCH   4   7
ENDBRANCH   2   3
ENDBRANCH   1   2
BRANCH   1  33
ATOM     33  C   UNL A   1      34.142  34.583  29.442  1.00  0.00     0.118 C 
BRANCH  33  34
ATOM     34  N   UNL A   1      33.877  34.245  30.847  1.00  0.00    -0.352 N 
ATOM     35  C   UNL A   1      34.436  33.227  31.602  1.00  0.00     0.251 C 
ATOM     36  H   UNL A   1      33.218  34.813  31.310  1.00  0.00     0.163 HD
ATOM     37  O   UNL A   1      33.888  32.836  32.627  1.00  0.00    -0.269 OA
BRANCH  35  38
ATOM     38  C   UNL A   1      35.703  32.628  31.144  1.00  0.00     0.039 A 
ATOM     39  C   UNL A   1      36.794  33.402  30.737  1.00  0.00     0.014 A 
ATOM     40  C   UNL A   1      35.797  31.243  31.199  1.00  0.00     0.014 A 
ATOM     41  C   UNL A   1      38.014  32.769  30.492  1.00  0.00     0.010 A 
ATOM     42  C   UNL A   1      37.029  30.652  31.150  1.00  0.00     0.010 A 
ATOM     43  C   UNL A   1      38.130  31.392  30.733  1.00  0.00    -0.014 A 
BRANCH  43  44
ATOM     44  C   UNL A   1      39.423  30.709  30.716  1.00  0.00     0.031 A 
ATOM     45  C   UNL A   1      40.005  30.496  32.074  1.00  0.00     0.074 A 
ATOM     46  C   UNL A   1      39.866  30.060  29.612  1.00  0.00     0.049 A 
ATOM     47  N   UNL A   1      41.085  30.998  32.572  1.00  0.00    -0.248 NA
ATOM     48  C   UNL A   1      39.184  29.768  33.064  1.00  0.00     0.031 C 
ATOM     49  C   UNL A   1      39.171  29.916  28.324  1.00  0.00     0.029 A 
ATOM     50  N   UNL A   1      40.947  29.252  29.445  1.00  0.00    -0.354 N 
ATOM     51  C   UNL A   1      41.215  30.430  33.839  1.00  0.00     0.074 A 
ATOM     52  C   UNL A   1      39.915  29.907  34.170  1.00  0.00     0.031 C 
ATOM     53  C   UNL A   1      39.690  28.874  27.639  1.00  0.00     0.029 A 
ATOM     54  C   UNL A   1      40.860  28.392  28.347  1.00  0.00     0.049 A 
ATOM     55  H   UNL A   1      41.726  29.270  30.047  1.00  0.00     0.167 HD
ATOM     56  C   UNL A   1      42.440  30.141  34.365  1.00  0.00     0.031 A 
ATOM     57  C   UNL A   1      41.660  27.330  28.065  1.00  0.00     0.031 A 
ATOM     58  C   UNL A   1      43.488  30.813  33.636  1.00  0.00     0.049 A 
ATOM     59  C   UNL A   1      42.892  27.493  28.874  1.00  0.00     0.074 A 
ATOM     60  C   UNL A   1      43.775  32.127  33.324  1.00  0.00     0.029 A 
ATOM     61  N   UNL A   1      44.208  30.046  32.749  1.00  0.00    -0.354 N 
ATOM     62  N   UNL A   1      43.738  28.471  28.710  1.00  0.00    -0.248 NA
ATOM     63  C   UNL A   1      42.935  26.839  30.172  1.00  0.00     0.031 C 
ATOM     64  C   UNL A   1      44.268  32.087  31.987  1.00  0.00     0.029 A 
ATOM     65  C   UNL A   1      44.348  30.752  31.587  1.00  0.00     0.049 A 
ATOM     66  H   UNL A   1      44.561  29.142  32.923  1.00  0.00     0.167 HD
ATOM     67  C   UNL A   1      44.092  28.849  29.997  1.00  0.00     0.074 A 
ATOM     68  C   UNL A   1      43.642  27.747  30.850  1.00  0.00     0.031 C 
ATOM     69  C   UNL A   1      44.450  30.137  30.280  1.00  0.00     0.031 A 
BRANCH  56  70
ATOM     70  C   UNL A   1      42.725  28.902  35.199  1.00  0.00    -0.014 A 
ATOM     71  C   UNL A   1      43.537  29.036  36.346  1.00  0.00     0.010 A 
ATOM     72  C   UNL A   1      42.480  27.585  34.756  1.00  0.00     0.010 A 
ATOM     73  C   UNL A   1      44.160  27.929  36.938  1.00  0.00     0.020 A 
ATOM     74  C   UNL A   1      43.059  26.469  35.364  1.00  0.00     0.020 A 
ATOM     75  C   UNL A   1      43.930  26.652  36.428  1.00  0.00     0.054 A 
BRANCH  75  76
ATOM     76  S   UNL A   1      44.819  25.241  37.125  1.00  0.00     0.124 S 
ATOM     77  O   UNL A   1      44.223  24.125  36.397  1.00  0.00    -0.237 OA
ATOM     78  O   UNL A   1      46.204  25.556  36.789  1.00  0.00    -0.237 OA
ATOM     79  O   UNL A   1      44.498  25.307  38.550  1.00  0.00    -0.744 OA
ENDBRANCH  75  76
ENDBRANCH  56  70
BRANCH  57  80
ATOM     80  C   UNL A   1      41.305  26.039  27.411  1.00  0.00    -0.014 A 
ATOM     81  C   UNL A   1      42.271  25.291  26.707  1.00  0.00     0.010 A 
ATOM     82  C   UNL A   1      40.091  25.395  27.724  1.00  0.00     0.010 A 
ATOM     83  C   UNL A   1      42.059  23.935  26.395  1.00  0.00     0.020 A 
ATOM     84  C   UNL A   1      39.869  24.046  27.411  1.00  0.00     0.020 A 
ATOM     85  C   UNL A   1      40.865  23.314  26.770  1.00  0.00     0.054 A 
BRANCH  85  86
ATOM     86  S   UNL A   1      40.674  21.518  26.540  1.00  0.00     0.124 S 
ATOM     87  O   UNL A   1      40.709  21.022  27.913  1.00  0.00    -0.237 OA
ATOM     88  O   UNL A   1      39.381  21.419  25.866  1.00  0.00    -0.237 OA
ATOM     89  O   UNL A   1      41.826  21.153  25.720  1.00  0.00    -0.744 OA
ENDBRANCH  85  86
ENDBRANCH  57  80
BRANCH  69  90
ATOM     90  C   UNL A   1      44.802  31.061  29.136  1.00  0.00    -0.014 A 
ATOM     91  C   UNL A   1      43.865  31.691  28.293  1.00  0.00     0.010 A 
ATOM     92  C   UNL A   1      46.157  31.412  29.010  1.00  0.00     0.010 A 
ATOM     93  C   UNL A   1      44.286  32.623  27.329  1.00  0.00     0.020 A 
ATOM     94  C   UNL A   1      46.579  32.352  28.070  1.00  0.00     0.020 A 
ATOM     95  C   UNL A   1      45.643  32.944  27.223  1.00  0.00     0.054 A 
BRANCH  95  96
ATOM     96  S   UNL A   1      46.189  34.162  25.994  1.00  0.00     0.124 S 
ATOM     97  O   UNL A   1      45.973  35.430  26.684  1.00  0.00    -0.237 OA
ATOM     98  O   UNL A   1      47.586  33.797  25.772  1.00  0.00    -0.237 OA
ATOM     99  O   UNL A   1      45.307  33.925  24.851  1.00  0.00    -0.744 OA
ENDBRANCH  95  96
ENDBRANCH  69  90
ENDBRANCH  43  44
ENDBRANCH  35  38
ENDBRANCH  33  34
ENDBRANCH   1  33
TORSDOF 17
ENDMDL
