MODEL 1
REMARK VINA RESULT:     -10.5      0.000      0.000
REMARK SMILES C[C@@H]1CC([NH2+][C@@](C)(C(=O)NCCCNC(=O)c2ccc(-c3c4nc(c(-c5ccc(S(=O)(=O)[O-])cc5)c5ccc([nH]5)c(-c5ccc(S(=O)(=O)[O-])cc5)c5nc(c(-c6ccc(S(=O)(=O)[O-])cc6)c6ccc3[nH]6)C=C5)C=C4)cc2)C(F)(F)F)C[C@@H](C)C1
REMARK SMILES IDX 12 1 11 2 10 3 8 4 9 5 6 7 7 8 5 9 4 12 1 13 2 14 3 15 84 16
REMARK SMILES IDX 82 17 81 18 83 19 77 20 78 21 79 22 80 23 13 24 14 25 15 26
REMARK SMILES IDX 16 28 17 29 18 30 76 31 19 32 75 33 20 34 21 35 22 36 69 37
REMARK SMILES IDX 23 38 74 39 68 40 70 41 24 42 73 43 67 44 66 45 25 47 55 48
REMARK SMILES IDX 36 49 54 50 37 51 40 52 53 53 71 54 38 55 39 56 52 58 72 59
REMARK SMILES IDX 41 60 26 61 27 62 35 63 28 64 34 65 29 66 30 67 31 68 32 69
REMARK SMILES IDX 33 70 56 71 57 72 65 73 58 74 64 75 59 76 60 77 61 78 62 79
REMARK SMILES IDX 63 80 42 81 43 82 51 83 44 84 50 85 45 86 46 87 47 88 48 89
REMARK SMILES IDX 49 90
REMARK H PARENT 10 6 5 10 5 11 14 27 70 46 40 57
REMARK Flexibility Score: inf
ROOT
ATOM      1  C   UNL A   1      35.087  22.978  26.515  1.00  0.00     0.042 C 
ENDROOT
BRANCH   1   2
ATOM      2  C   UNL A   1      33.887  23.069  25.582  1.00  0.00     0.118 C 
BRANCH   2   3
ATOM      3  N   UNL A   1      34.280  22.992  24.185  1.00  0.00    -0.350 N 
ATOM      4  C   UNL A   1      33.825  23.611  23.050  1.00  0.00     0.290 C 
ATOM      5  O   UNL A   1      34.403  23.279  22.011  1.00  0.00    -0.267 OA
ATOM      6  H   UNL A   1      35.024  22.369  24.021  1.00  0.00     0.163 HD
BRANCH   4   7
ATOM      7  C   UNL A   1      32.686  24.671  23.083  1.00  0.00     0.268 C 
ATOM      8  C   UNL A   1      32.521  25.225  21.650  1.00  0.00     0.101 C 
BRANCH   7   9
ATOM      9  N   UNL A   1      33.063  25.691  24.123  1.00  0.00    -0.324 N 
ATOM     10  H   UNL A   1      32.537  25.461  24.967  1.00  0.00     0.347 HD
ATOM     11  H   UNL A   1      34.079  25.614  24.173  1.00  0.00     0.347 HD
BRANCH   9  12
ATOM     12  C   UNL A   1      32.842  27.116  23.861  1.00  0.00     0.184 C 
ATOM     13  C   UNL A   1      30.538  26.305  26.266  1.00  0.00     0.008 C 
ATOM     14  C   UNL A   1      30.981  27.636  25.654  1.00  0.00    -0.008 C 
ATOM     15  C   UNL A   1      31.366  27.499  24.163  1.00  0.00     0.068 C 
ATOM     16  C   UNL A   1      32.052  28.360  26.494  1.00  0.00     0.007 C 
ATOM     17  C   UNL A   1      33.484  27.916  26.184  1.00  0.00    -0.008 C 
ATOM     18  C   UNL A   1      33.741  28.052  24.678  1.00  0.00     0.068 C 
ATOM     19  C   UNL A   1      34.513  28.721  26.973  1.00  0.00     0.008 C 
ENDBRANCH   9  12
ENDBRANCH   7   9
BRANCH   7  20
ATOM     20  C   UNL A   1      31.383  23.862  23.388  1.00  0.00     0.453 C 
ATOM     21  F   UNL A   1      30.262  24.430  22.893  1.00  0.00    -0.164 F 
ATOM     22  F   UNL A   1      31.458  22.617  22.837  1.00  0.00    -0.164 F 
ATOM     23  F   UNL A   1      31.207  23.653  24.716  1.00  0.00    -0.164 F 
ENDBRANCH   7  20
ENDBRANCH   4   7
ENDBRANCH   2   3
ENDBRANCH   1   2
BRANCH   1  24
ATOM     24  C   UNL A   1      36.348  23.631  25.969  1.00  0.00     0.118 C 
BRANCH  24  25
ATOM     25  N   UNL A   1      37.468  22.705  25.905  1.00  0.00    -0.352 N 
ATOM     26  C   UNL A   1      38.794  22.890  26.210  1.00  0.00     0.251 C 
ATOM     27  H   UNL A   1      37.239  21.801  25.591  1.00  0.00     0.163 HD
ATOM     28  O   UNL A   1      39.598  22.016  25.897  1.00  0.00    -0.269 OA
BRANCH  26  29
ATOM     29  C   UNL A   1      39.263  24.122  26.887  1.00  0.00     0.039 A 
ATOM     30  C   UNL A   1      40.040  25.028  26.159  1.00  0.00     0.014 A 
ATOM     31  C   UNL A   1      38.988  24.376  28.233  1.00  0.00     0.014 A 
ATOM     32  C   UNL A   1      40.493  26.203  26.764  1.00  0.00     0.010 A 
ATOM     33  C   UNL A   1      39.361  25.589  28.808  1.00  0.00     0.010 A 
ATOM     34  C   UNL A   1      40.133  26.510  28.086  1.00  0.00    -0.014 A 
BRANCH  34  35
ATOM     35  C   UNL A   1      40.573  27.779  28.727  1.00  0.00     0.031 A 
ATOM     36  C   UNL A   1      41.971  27.910  29.275  1.00  0.00     0.074 A 
ATOM     37  C   UNL A   1      39.706  28.805  28.839  1.00  0.00     0.049 A 
ATOM     38  N   UNL A   1      42.524  28.926  29.887  1.00  0.00    -0.248 NA
ATOM     39  C   UNL A   1      42.858  26.740  29.142  1.00  0.00     0.031 C 
ATOM     40  C   UNL A   1      38.309  28.790  28.395  1.00  0.00     0.029 A 
ATOM     41  N   UNL A   1      39.870  30.063  29.363  1.00  0.00    -0.354 N 
ATOM     42  C   UNL A   1      43.814  28.520  30.212  1.00  0.00     0.074 A 
ATOM     43  C   UNL A   1      43.942  27.143  29.789  1.00  0.00     0.031 C 
ATOM     44  C   UNL A   1      37.756  29.990  28.636  1.00  0.00     0.029 A 
ATOM     45  C   UNL A   1      38.743  30.848  29.284  1.00  0.00     0.049 A 
ATOM     46  H   UNL A   1      40.715  30.375  29.761  1.00  0.00     0.167 HD
ATOM     47  C   UNL A   1      44.814  29.232  30.783  1.00  0.00     0.031 A 
ATOM     48  C   UNL A   1      38.525  32.114  29.686  1.00  0.00     0.031 A 
ATOM     49  C   UNL A   1      44.693  30.606  31.193  1.00  0.00     0.049 A 
ATOM     50  C   UNL A   1      39.656  32.885  30.313  1.00  0.00     0.074 A 
ATOM     51  C   UNL A   1      45.657  31.425  31.758  1.00  0.00     0.029 A 
ATOM     52  N   UNL A   1      43.543  31.371  31.071  1.00  0.00    -0.354 N 
ATOM     53  N   UNL A   1      40.881  32.493  30.569  1.00  0.00    -0.248 NA
ATOM     54  C   UNL A   1      39.380  34.280  30.685  1.00  0.00     0.031 C 
ATOM     55  C   UNL A   1      45.078  32.673  32.010  1.00  0.00     0.029 A 
ATOM     56  C   UNL A   1      43.773  32.650  31.551  1.00  0.00     0.049 A 
ATOM     57  H   UNL A   1      42.690  31.052  30.697  1.00  0.00     0.167 HD
ATOM     58  C   UNL A   1      41.530  33.603  31.099  1.00  0.00     0.074 A 
ATOM     59  C   UNL A   1      40.568  34.686  31.105  1.00  0.00     0.031 C 
ATOM     60  C   UNL A   1      42.807  33.718  31.543  1.00  0.00     0.031 A 
BRANCH  47  61
ATOM     61  C   UNL A   1      46.141  28.546  30.978  1.00  0.00    -0.014 A 
ATOM     62  C   UNL A   1      46.391  27.782  32.133  1.00  0.00     0.010 A 
ATOM     63  C   UNL A   1      47.121  28.603  29.971  1.00  0.00     0.010 A 
ATOM     64  C   UNL A   1      47.606  27.110  32.290  1.00  0.00     0.020 A 
ATOM     65  C   UNL A   1      48.328  27.909  30.111  1.00  0.00     0.020 A 
ATOM     66  C   UNL A   1      48.566  27.175  31.275  1.00  0.00     0.054 A 
BRANCH  66  67
ATOM     67  S   UNL A   1      50.110  26.246  31.485  1.00  0.00     0.124 S 
ATOM     68  O   UNL A   1      50.046  25.301  30.373  1.00  0.00    -0.237 OA
ATOM     69  O   UNL A   1      51.127  27.287  31.367  1.00  0.00    -0.237 OA
ATOM     70  O   UNL A   1      49.980  25.655  32.814  1.00  0.00    -0.744 OA
ENDBRANCH  66  67
ENDBRANCH  47  61
BRANCH  48  71
ATOM     71  C   UNL A   1      37.188  32.745  29.503  1.00  0.00    -0.014 A 
ATOM     72  C   UNL A   1      36.870  33.429  28.317  1.00  0.00     0.010 A 
ATOM     73  C   UNL A   1      36.235  32.692  30.537  1.00  0.00     0.010 A 
ATOM     74  C   UNL A   1      35.644  34.087  28.183  1.00  0.00     0.020 A 
ATOM     75  C   UNL A   1      34.994  33.320  30.394  1.00  0.00     0.020 A 
ATOM     76  C   UNL A   1      34.716  34.034  29.228  1.00  0.00     0.054 A 
BRANCH  76  77
ATOM     77  S   UNL A   1      33.127  34.889  29.035  1.00  0.00     0.124 S 
ATOM     78  O   UNL A   1      33.544  36.190  28.524  1.00  0.00    -0.237 OA
ATOM     79  O   UNL A   1      32.418  34.032  28.087  1.00  0.00    -0.237 OA
ATOM     80  O   UNL A   1      32.578  34.893  30.389  1.00  0.00    -0.744 OA
ENDBRANCH  76  77
ENDBRANCH  48  71
BRANCH  60  81
ATOM     81  C   UNL A   1      43.249  35.076  32.018  1.00  0.00    -0.014 A 
ATOM     82  C   UNL A   1      43.132  35.458  33.366  1.00  0.00     0.010 A 
ATOM     83  C   UNL A   1      43.803  35.982  31.095  1.00  0.00     0.010 A 
ATOM     84  C   UNL A   1      43.504  36.743  33.771  1.00  0.00     0.020 A 
ATOM     85  C   UNL A   1      44.207  37.256  31.502  1.00  0.00     0.020 A 
ATOM     86  C   UNL A   1      44.031  37.636  32.834  1.00  0.00     0.054 A 
BRANCH  86  87
ATOM     87  S   UNL A   1      44.506  39.298  33.381  1.00  0.00     0.124 S 
ATOM     88  O   UNL A   1      45.897  39.100  33.780  1.00  0.00    -0.237 OA
ATOM     89  O   UNL A   1      44.306  40.103  32.177  1.00  0.00    -0.237 OA
ATOM     90  O   UNL A   1      43.580  39.583  34.474  1.00  0.00    -0.744 OA
ENDBRANCH  86  87
ENDBRANCH  60  81
ENDBRANCH  34  35
ENDBRANCH  26  29
ENDBRANCH  24  25
ENDBRANCH   1  24
TORSDOF 16
ENDMDL
MODEL 2
REMARK VINA RESULT:     -10.1      3.789      4.668
REMARK SMILES C[C@@H]1CC([NH2+][C@@](C)(C(=O)NCCCNC(=O)c2ccc(-c3c4nc(c(-c5ccc(S(=O)(=O)[O-])cc5)c5ccc([nH]5)c(-c5ccc(S(=O)(=O)[O-])cc5)c5nc(c(-c6ccc(S(=O)(=O)[O-])cc6)c6ccc3[nH]6)C=C5)C=C4)cc2)C(F)(F)F)C[C@@H](C)C1
REMARK SMILES IDX 12 1 11 2 10 3 8 4 9 5 6 7 7 8 5 9 4 12 1 13 2 14 3 15 84 16
REMARK SMILES IDX 82 17 81 18 83 19 77 20 78 21 79 22 80 23 13 24 14 25 15 26
REMARK SMILES IDX 16 28 17 29 18 30 76 31 19 32 75 33 20 34 21 35 22 36 69 37
REMARK SMILES IDX 23 38 74 39 68 40 70 41 24 42 73 43 67 44 66 45 25 47 55 48
REMARK SMILES IDX 36 49 54 50 37 51 40 52 53 53 71 54 38 55 39 56 52 58 72 59
REMARK SMILES IDX 41 60 26 61 27 62 35 63 28 64 34 65 29 66 30 67 31 68 32 69
REMARK SMILES IDX 33 70 56 71 57 72 65 73 58 74 64 75 59 76 60 77 61 78 62 79
REMARK SMILES IDX 63 80 42 81 43 82 51 83 44 84 50 85 45 86 46 87 47 88 48 89
REMARK SMILES IDX 49 90
REMARK H PARENT 10 6 5 10 5 11 14 27 70 46 40 57
REMARK Flexibility Score: inf
ROOT
ATOM      1  C   UNL A   1      39.271  22.217  26.549  1.00  0.00     0.042 C 
ENDROOT
BRANCH   1   2
ATOM      2  C   UNL A   1      38.137  22.672  25.640  1.00  0.00     0.118 C 
BRANCH   2   3
ATOM      3  N   UNL A   1      36.939  23.003  26.394  1.00  0.00    -0.350 N 
ATOM      4  C   UNL A   1      35.604  22.984  26.084  1.00  0.00     0.290 C 
ATOM      5  O   UNL A   1      34.855  23.356  26.991  1.00  0.00    -0.267 OA
ATOM      6  H   UNL A   1      37.124  23.300  27.314  1.00  0.00     0.163 HD
BRANCH   4   7
ATOM      7  C   UNL A   1      35.080  22.502  24.699  1.00  0.00     0.268 C 
ATOM      8  C   UNL A   1      36.240  22.639  23.688  1.00  0.00     0.101 C 
BRANCH   7   9
ATOM      9  N   UNL A   1      33.856  23.318  24.382  1.00  0.00    -0.324 N 
ATOM     10  H   UNL A   1      33.236  22.721  23.835  1.00  0.00     0.347 HD
ATOM     11  H   UNL A   1      33.526  23.616  25.301  1.00  0.00     0.347 HD
BRANCH   9  12
ATOM     12  C   UNL A   1      33.991  24.578  23.645  1.00  0.00     0.184 C 
ATOM     13  C   UNL A   1      30.647  23.838  23.503  1.00  0.00     0.008 C 
ATOM     14  C   UNL A   1      31.459  25.072  23.100  1.00  0.00    -0.008 C 
ATOM     15  C   UNL A   1      32.868  24.703  22.579  1.00  0.00     0.068 C 
ATOM     16  C   UNL A   1      31.481  26.162  24.190  1.00  0.00     0.007 C 
ATOM     17  C   UNL A   1      32.581  25.968  25.236  1.00  0.00    -0.008 C 
ATOM     18  C   UNL A   1      33.935  25.831  24.528  1.00  0.00     0.068 C 
ATOM     19  C   UNL A   1      32.621  27.117  26.240  1.00  0.00     0.008 C 
ENDBRANCH   9  12
ENDBRANCH   7   9
BRANCH   7  20
ATOM     20  C   UNL A   1      34.830  20.968  24.868  1.00  0.00     0.453 C 
ATOM     21  F   UNL A   1      35.943  20.217  24.730  1.00  0.00    -0.164 F 
ATOM     22  F   UNL A   1      34.339  20.702  26.112  1.00  0.00    -0.164 F 
ATOM     23  F   UNL A   1      33.890  20.503  24.008  1.00  0.00    -0.164 F 
ENDBRANCH   7  20
ENDBRANCH   4   7
ENDBRANCH   2   3
ENDBRANCH   1   2
BRANCH   1  24
ATOM     24  C   UNL A   1      40.095  23.357  27.131  1.00  0.00     0.118 C 
BRANCH  24  25
ATOM     25  N   UNL A   1      40.902  24.028  26.124  1.00  0.00    -0.352 N 
ATOM     26  C   UNL A   1      41.307  25.337  26.035  1.00  0.00     0.251 C 
ATOM     27  H   UNL A   1      41.206  23.450  25.387  1.00  0.00     0.163 HD
ATOM     28  O   UNL A   1      41.827  25.723  24.992  1.00  0.00    -0.269 OA
BRANCH  26  29
ATOM     29  C   UNL A   1      41.108  26.281  27.160  1.00  0.00     0.039 A 
ATOM     30  C   UNL A   1      40.065  26.037  28.059  1.00  0.00     0.014 A 
ATOM     31  C   UNL A   1      41.901  27.421  27.317  1.00  0.00     0.014 A 
ATOM     32  C   UNL A   1      39.853  26.904  29.134  1.00  0.00     0.010 A 
ATOM     33  C   UNL A   1      41.748  28.232  28.440  1.00  0.00     0.010 A 
ATOM     34  C   UNL A   1      40.712  27.994  29.353  1.00  0.00    -0.014 A 
BRANCH  34  35
ATOM     35  C   UNL A   1      40.522  28.898  30.520  1.00  0.00     0.031 A 
ATOM     36  C   UNL A   1      41.379  28.742  31.751  1.00  0.00     0.074 A 
ATOM     37  C   UNL A   1      39.561  29.842  30.482  1.00  0.00     0.049 A 
ATOM     38  N   UNL A   1      41.343  29.419  32.870  1.00  0.00    -0.248 NA
ATOM     39  C   UNL A   1      42.393  27.672  31.733  1.00  0.00     0.031 C 
ATOM     40  C   UNL A   1      38.631  30.064  29.371  1.00  0.00     0.029 A 
ATOM     41  N   UNL A   1      39.203  30.794  31.404  1.00  0.00    -0.354 N 
ATOM     42  C   UNL A   1      42.319  28.858  33.687  1.00  0.00     0.074 A 
ATOM     43  C   UNL A   1      42.888  27.745  32.961  1.00  0.00     0.031 C 
ATOM     44  C   UNL A   1      37.834  31.105  29.664  1.00  0.00     0.029 A 
ATOM     45  C   UNL A   1      38.168  31.601  30.994  1.00  0.00     0.049 A 
ATOM     46  H   UNL A   1      39.646  30.889  32.279  1.00  0.00     0.167 HD
ATOM     47  C   UNL A   1      42.730  29.250  34.916  1.00  0.00     0.031 A 
ATOM     48  C   UNL A   1      37.555  32.625  31.618  1.00  0.00     0.031 A 
ATOM     49  C   UNL A   1      42.174  30.365  35.635  1.00  0.00     0.049 A 
ATOM     50  C   UNL A   1      38.035  33.043  32.982  1.00  0.00     0.074 A 
ATOM     51  C   UNL A   1      42.539  30.859  36.877  1.00  0.00     0.029 A 
ATOM     52  N   UNL A   1      41.145  31.172  35.174  1.00  0.00    -0.354 N 
ATOM     53  N   UNL A   1      38.992  32.524  33.715  1.00  0.00    -0.248 NA
ATOM     54  C   UNL A   1      37.366  34.200  33.594  1.00  0.00     0.031 C 
ATOM     55  C   UNL A   1      41.707  31.941  37.181  1.00  0.00     0.029 A 
ATOM     56  C   UNL A   1      40.862  32.157  36.105  1.00  0.00     0.049 A 
ATOM     57  H   UNL A   1      40.685  31.061  34.311  1.00  0.00     0.167 HD
ATOM     58  C   UNL A   1      39.061  33.315  34.857  1.00  0.00     0.074 A 
ATOM     59  C   UNL A   1      38.067  34.357  34.706  1.00  0.00     0.031 C 
ATOM     60  C   UNL A   1      39.874  33.190  35.936  1.00  0.00     0.031 A 
BRANCH  47  61
ATOM     61  C   UNL A   1      43.855  28.479  35.557  1.00  0.00    -0.014 A 
ATOM     62  C   UNL A   1      43.588  27.355  36.360  1.00  0.00     0.010 A 
ATOM     63  C   UNL A   1      45.191  28.835  35.301  1.00  0.00     0.010 A 
ATOM     64  C   UNL A   1      44.635  26.616  36.917  1.00  0.00     0.020 A 
ATOM     65  C   UNL A   1      46.243  28.081  35.833  1.00  0.00     0.020 A 
ATOM     66  C   UNL A   1      45.957  26.982  36.647  1.00  0.00     0.054 A 
BRANCH  66  67
ATOM     67  S   UNL A   1      47.294  25.969  37.339  1.00  0.00     0.124 S 
ATOM     68  O   UNL A   1      47.693  25.168  36.184  1.00  0.00    -0.237 OA
ATOM     69  O   UNL A   1      48.262  26.972  37.772  1.00  0.00    -0.237 OA
ATOM     70  O   UNL A   1      46.644  25.228  38.416  1.00  0.00    -0.744 OA
ENDBRANCH  66  67
ENDBRANCH  47  61
BRANCH  48  71
ATOM     71  C   UNL A   1      36.424  33.340  30.961  1.00  0.00    -0.014 A 
ATOM     72  C   UNL A   1      36.573  33.899  29.679  1.00  0.00     0.010 A 
ATOM     73  C   UNL A   1      35.199  33.494  31.634  1.00  0.00     0.010 A 
ATOM     74  C   UNL A   1      35.536  34.638  29.102  1.00  0.00     0.020 A 
ATOM     75  C   UNL A   1      34.148  34.204  31.047  1.00  0.00     0.020 A 
ATOM     76  C   UNL A   1      34.331  34.791  29.794  1.00  0.00     0.054 A 
BRANCH  76  77
ATOM     77  S   UNL A   1      32.994  35.748  29.028  1.00  0.00     0.124 S 
ATOM     78  O   UNL A   1      32.393  34.764  28.133  1.00  0.00    -0.237 OA
ATOM     79  O   UNL A   1      32.181  36.136  30.179  1.00  0.00    -0.237 OA
ATOM     80  O   UNL A   1      33.696  36.848  28.372  1.00  0.00    -0.744 OA
ENDBRANCH  76  77
ENDBRANCH  48  71
BRANCH  60  81
ATOM     81  C   UNL A   1      39.757  34.241  37.009  1.00  0.00    -0.014 A 
ATOM     82  C   UNL A   1      40.356  35.505  36.867  1.00  0.00     0.010 A 
ATOM     83  C   UNL A   1      39.024  33.957  38.175  1.00  0.00     0.010 A 
ATOM     84  C   UNL A   1      40.275  36.444  37.900  1.00  0.00     0.020 A 
ATOM     85  C   UNL A   1      38.913  34.904  39.196  1.00  0.00     0.020 A 
ATOM     86  C   UNL A   1      39.561  36.134  39.060  1.00  0.00     0.054 A 
BRANCH  86  87
ATOM     87  S   UNL A   1      39.470  37.367  40.387  1.00  0.00     0.124 S 
ATOM     88  O   UNL A   1      40.878  37.694  40.594  1.00  0.00    -0.237 OA
ATOM     89  O   UNL A   1      38.659  38.426  39.788  1.00  0.00    -0.237 OA
ATOM     90  O   UNL A   1      38.830  36.647  41.486  1.00  0.00    -0.744 OA
ENDBRANCH  86  87
ENDBRANCH  60  81
ENDBRANCH  34  35
ENDBRANCH  26  29
ENDBRANCH  24  25
ENDBRANCH   1  24
TORSDOF 16
ENDMDL
MODEL 3
REMARK VINA RESULT:     -10.1      3.742      5.001
REMARK SMILES C[C@@H]1CC([NH2+][C@@](C)(C(=O)NCCCNC(=O)c2ccc(-c3c4nc(c(-c5ccc(S(=O)(=O)[O-])cc5)c5ccc([nH]5)c(-c5ccc(S(=O)(=O)[O-])cc5)c5nc(c(-c6ccc(S(=O)(=O)[O-])cc6)c6ccc3[nH]6)C=C5)C=C4)cc2)C(F)(F)F)C[C@@H](C)C1
REMARK SMILES IDX 12 1 11 2 10 3 8 4 9 5 6 7 7 8 5 9 4 12 1 13 2 14 3 15 84 16
REMARK SMILES IDX 82 17 81 18 83 19 77 20 78 21 79 22 80 23 13 24 14 25 15 26
REMARK SMILES IDX 16 28 17 29 18 30 76 31 19 32 75 33 20 34 21 35 22 36 69 37
REMARK SMILES IDX 23 38 74 39 68 40 70 41 24 42 73 43 67 44 66 45 25 47 55 48
REMARK SMILES IDX 36 49 54 50 37 51 40 52 53 53 71 54 38 55 39 56 52 58 72 59
REMARK SMILES IDX 41 60 26 61 27 62 35 63 28 64 34 65 29 66 30 67 31 68 32 69
REMARK SMILES IDX 33 70 56 71 57 72 65 73 58 74 64 75 59 76 60 77 61 78 62 79
REMARK SMILES IDX 63 80 42 81 43 82 51 83 44 84 50 85 45 86 46 87 47 88 48 89
REMARK SMILES IDX 49 90
REMARK H PARENT 10 6 5 10 5 11 14 27 70 46 40 57
REMARK Flexibility Score: inf
ROOT
ATOM      1  C   UNL A   1      38.009  19.684  25.001  1.00  0.00     0.042 C 
ENDROOT
BRANCH   1   2
ATOM      2  C   UNL A   1      36.885  20.651  24.654  1.00  0.00     0.118 C 
BRANCH   2   3
ATOM      3  N   UNL A   1      35.977  20.848  25.771  1.00  0.00    -0.350 N 
ATOM      4  C   UNL A   1      34.797  21.533  25.907  1.00  0.00     0.290 C 
ATOM      5  O   UNL A   1      34.300  21.491  27.036  1.00  0.00    -0.267 OA
ATOM      6  H   UNL A   1      36.267  20.399  26.597  1.00  0.00     0.163 HD
BRANCH   4   7
ATOM      7  C   UNL A   1      34.127  22.278  24.715  1.00  0.00     0.268 C 
ATOM      8  C   UNL A   1      35.209  22.499  23.636  1.00  0.00     0.101 C 
BRANCH   7   9
ATOM      9  N   UNL A   1      33.512  23.534  25.271  1.00  0.00    -0.324 N 
ATOM     10  H   UNL A   1      32.720  23.247  25.846  1.00  0.00     0.347 HD
ATOM     11  H   UNL A   1      34.292  23.990  25.746  1.00  0.00     0.347 HD
BRANCH   9  12
ATOM     12  C   UNL A   1      33.020  24.570  24.358  1.00  0.00     0.184 C 
ATOM     13  C   UNL A   1      30.410  23.985  26.501  1.00  0.00     0.008 C 
ATOM     14  C   UNL A   1      30.654  25.042  25.421  1.00  0.00    -0.008 C 
ATOM     15  C   UNL A   1      31.473  24.489  24.232  1.00  0.00     0.068 C 
ATOM     16  C   UNL A   1      31.218  26.362  25.986  1.00  0.00     0.007 C 
ATOM     17  C   UNL A   1      32.743  26.372  26.125  1.00  0.00    -0.008 C 
ATOM     18  C   UNL A   1      33.377  26.001  24.780  1.00  0.00     0.068 C 
ATOM     19  C   UNL A   1      33.262  27.727  26.602  1.00  0.00     0.008 C 
ENDBRANCH   9  12
ENDBRANCH   7   9
BRANCH   7  20
ATOM     20  C   UNL A   1      33.112  21.254  24.111  1.00  0.00     0.453 C 
ATOM     21  F   UNL A   1      33.595  19.996  24.027  1.00  0.00    -0.164 F 
ATOM     22  F   UNL A   1      31.991  21.184  24.884  1.00  0.00    -0.164 F 
ATOM     23  F   UNL A   1      32.675  21.628  22.883  1.00  0.00    -0.164 F 
ENDBRANCH   7  20
ENDBRANCH   4   7
ENDBRANCH   2   3
ENDBRANCH   1   2
BRANCH   1  24
ATOM     24  C   UNL A   1      39.137  20.307  25.810  1.00  0.00     0.118 C 
BRANCH  24  25
ATOM     25  N   UNL A   1      40.273  19.411  25.959  1.00  0.00    -0.352 N 
ATOM     26  C   UNL A   1      41.607  19.687  26.132  1.00  0.00     0.251 C 
ATOM     27  H   UNL A   1      40.050  18.453  25.929  1.00  0.00     0.163 HD
ATOM     28  O   UNL A   1      42.415  18.767  26.043  1.00  0.00    -0.269 OA
BRANCH  26  29
ATOM     29  C   UNL A   1      42.078  21.066  26.403  1.00  0.00     0.039 A 
ATOM     30  C   UNL A   1      42.287  21.451  27.730  1.00  0.00     0.014 A 
ATOM     31  C   UNL A   1      42.273  21.994  25.376  1.00  0.00     0.014 A 
ATOM     32  C   UNL A   1      42.737  22.742  28.020  1.00  0.00     0.010 A 
ATOM     33  C   UNL A   1      42.809  23.249  25.659  1.00  0.00     0.010 A 
ATOM     34  C   UNL A   1      43.032  23.645  26.986  1.00  0.00    -0.014 A 
BRANCH  34  35
ATOM     35  C   UNL A   1      43.554  25.006  27.281  1.00  0.00     0.031 A 
ATOM     36  C   UNL A   1      45.010  25.329  27.060  1.00  0.00     0.074 A 
ATOM     37  C   UNL A   1      42.722  25.946  27.775  1.00  0.00     0.049 A 
ATOM     38  N   UNL A   1      45.648  26.449  27.282  1.00  0.00    -0.248 NA
ATOM     39  C   UNL A   1      45.867  24.247  26.543  1.00  0.00     0.031 C 
ATOM     40  C   UNL A   1      41.302  25.748  28.081  1.00  0.00     0.029 A 
ATOM     41  N   UNL A   1      42.950  27.258  28.106  1.00  0.00    -0.354 N 
ATOM     42  C   UNL A   1      46.974  26.208  26.939  1.00  0.00     0.074 A 
ATOM     43  C   UNL A   1      47.064  24.817  26.554  1.00  0.00     0.031 C 
ATOM     44  C   UNL A   1      40.781  26.904  28.525  1.00  0.00     0.029 A 
ATOM     45  C   UNL A   1      41.833  27.914  28.570  1.00  0.00     0.049 A 
ATOM     46  H   UNL A   1      43.831  27.690  28.022  1.00  0.00     0.167 HD
ATOM     47  C   UNL A   1      48.019  27.069  26.916  1.00  0.00     0.031 A 
ATOM     48  C   UNL A   1      41.671  29.185  28.985  1.00  0.00     0.031 A 
ATOM     49  C   UNL A   1      47.930  28.457  27.286  1.00  0.00     0.049 A 
ATOM     50  C   UNL A   1      42.848  30.123  28.943  1.00  0.00     0.074 A 
ATOM     51  C   UNL A   1      48.926  29.419  27.271  1.00  0.00     0.029 A 
ATOM     52  N   UNL A   1      46.775  29.087  27.724  1.00  0.00    -0.354 N 
ATOM     53  N   UNL A   1      44.083  29.881  28.571  1.00  0.00    -0.248 NA
ATOM     54  C   UNL A   1      42.603  31.511  29.356  1.00  0.00     0.031 C 
ATOM     55  C   UNL A   1      48.382  30.620  27.735  1.00  0.00     0.029 A 
ATOM     56  C   UNL A   1      47.035  30.422  27.985  1.00  0.00     0.049 A 
ATOM     57  H   UNL A   1      45.900  28.649  27.833  1.00  0.00     0.167 HD
ATOM     58  C   UNL A   1      44.751  31.097  28.672  1.00  0.00     0.074 A 
ATOM     59  C   UNL A   1      43.779  32.073  29.118  1.00  0.00     0.031 C 
ATOM     60  C   UNL A   1      46.054  31.381  28.421  1.00  0.00     0.031 A 
BRANCH  47  61
ATOM     61  C   UNL A   1      49.351  26.541  26.449  1.00  0.00    -0.014 A 
ATOM     62  C   UNL A   1      49.789  26.764  25.131  1.00  0.00     0.010 A 
ATOM     63  C   UNL A   1      50.204  25.880  27.350  1.00  0.00     0.010 A 
ATOM     64  C   UNL A   1      51.044  26.311  24.714  1.00  0.00     0.020 A 
ATOM     65  C   UNL A   1      51.473  25.451  26.946  1.00  0.00     0.020 A 
ATOM     66  C   UNL A   1      51.880  25.661  25.626  1.00  0.00     0.054 A 
BRANCH  66  67
ATOM     67  S   UNL A   1      53.525  25.136  25.070  1.00  0.00     0.124 S 
ATOM     68  O   UNL A   1      53.481  23.696  25.315  1.00  0.00    -0.237 OA
ATOM     69  O   UNL A   1      53.528  25.533  23.664  1.00  0.00    -0.237 OA
ATOM     70  O   UNL A   1      54.437  25.887  25.929  1.00  0.00    -0.744 OA
ENDBRANCH  66  67
ENDBRANCH  47  61
BRANCH  48  71
ATOM     71  C   UNL A   1      40.343  29.657  29.468  1.00  0.00    -0.014 A 
ATOM     72  C   UNL A   1      39.351  30.071  28.561  1.00  0.00     0.010 A 
ATOM     73  C   UNL A   1      40.078  29.728  30.848  1.00  0.00     0.010 A 
ATOM     74  C   UNL A   1      38.138  30.589  29.023  1.00  0.00     0.020 A 
ATOM     75  C   UNL A   1      38.853  30.214  31.313  1.00  0.00     0.020 A 
ATOM     76  C   UNL A   1      37.900  30.663  30.398  1.00  0.00     0.054 A 
BRANCH  76  77
ATOM     77  S   UNL A   1      36.317  31.333  30.981  1.00  0.00     0.124 S 
ATOM     78  O   UNL A   1      35.904  30.328  31.955  1.00  0.00    -0.237 OA
ATOM     79  O   UNL A   1      36.704  32.629  31.533  1.00  0.00    -0.237 OA
ATOM     80  O   UNL A   1      35.509  31.399  29.765  1.00  0.00    -0.744 OA
ENDBRANCH  76  77
ENDBRANCH  48  71
BRANCH  60  81
ATOM     81  C   UNL A   1      46.484  32.817  28.568  1.00  0.00    -0.014 A 
ATOM     82  C   UNL A   1      46.471  33.703  27.477  1.00  0.00     0.010 A 
ATOM     83  C   UNL A   1      46.898  33.287  29.828  1.00  0.00     0.010 A 
ATOM     84  C   UNL A   1      46.924  35.017  27.630  1.00  0.00     0.020 A 
ATOM     85  C   UNL A   1      47.320  34.608  29.992  1.00  0.00     0.020 A 
ATOM     86  C   UNL A   1      47.353  35.458  28.884  1.00  0.00     0.054 A 
BRANCH  86  87
ATOM     87  S   UNL A   1      47.936  37.166  29.060  1.00  0.00     0.124 S 
ATOM     88  O   UNL A   1      46.690  37.888  29.304  1.00  0.00    -0.237 OA
ATOM     89  O   UNL A   1      48.847  37.080  30.200  1.00  0.00    -0.237 OA
ATOM     90  O   UNL A   1      48.577  37.447  27.778  1.00  0.00    -0.744 OA
ENDBRANCH  86  87
ENDBRANCH  60  81
ENDBRANCH  34  35
ENDBRANCH  26  29
ENDBRANCH  24  25
ENDBRANCH   1  24
TORSDOF 16
ENDMDL
