MODEL 1
REMARK VINA RESULT:      -9.9      0.000      0.000
REMARK SMILES CCCN(CCC)c1cc(C(=O)NCCCNC(=O)c2ccc(-c3c4nc(c(-c5ccc(S(=O)(=O)[O-])cc5)c5ccc([nH]5)c(-c5ccc(S(=O)(=O)[O-])cc5)c5nc(c(-c6ccc(S(=O)(=O)[O-])cc6)c6ccc3[nH]6)C=C5)C=C4)cc2)cc(C(F)(F)F)c1
REMARK SMILES IDX 15 1 14 2 13 3 11 4 12 5 10 7 8 8 9 9 86 10 81 11 80 12 4 13
REMARK SMILES IDX 3 14 2 15 1 16 5 17 6 18 7 19 82 20 83 21 84 22 85 23 16 24
REMARK SMILES IDX 17 25 18 26 19 28 20 29 21 30 79 31 22 32 78 33 23 34 24 35
REMARK SMILES IDX 25 36 72 37 26 38 77 39 71 40 73 41 27 42 76 43 70 44 69 45
REMARK SMILES IDX 28 47 58 48 39 49 57 50 40 51 43 52 56 53 74 54 41 55 42 56
REMARK SMILES IDX 55 58 75 59 44 60 29 61 30 62 38 63 31 64 37 65 32 66 33 67
REMARK SMILES IDX 34 68 35 69 36 70 59 71 60 72 68 73 61 74 67 75 62 76 63 77
REMARK SMILES IDX 64 78 65 79 66 80 45 81 46 82 54 83 47 84 53 85 48 86 49 87
REMARK SMILES IDX 50 88 51 89 52 90
REMARK H PARENT 13 6 17 27 73 46 43 57
REMARK Flexibility Score: inf
ROOT
ATOM      1  C   UNL A   1      34.404  28.316  24.455  1.00  0.00     0.042 C 
ENDROOT
BRANCH   1   2
ATOM      2  C   UNL A   1      33.217  28.329  23.512  1.00  0.00     0.118 C 
BRANCH   2   3
ATOM      3  N   UNL A   1      33.386  27.621  22.246  1.00  0.00    -0.352 N 
ATOM      4  C   UNL A   1      33.198  26.290  21.921  1.00  0.00     0.251 C 
ATOM      5  O   UNL A   1      33.307  25.939  20.748  1.00  0.00    -0.269 OA
ATOM      6  H   UNL A   1      33.686  28.187  21.499  1.00  0.00     0.163 HD
BRANCH   4   7
ATOM      7  C   UNL A   1      33.012  25.265  22.985  1.00  0.00     0.042 A 
ATOM      8  C   UNL A   1      34.224  23.904  24.602  1.00  0.00     0.038 A 
ATOM      9  C   UNL A   1      34.126  24.493  23.342  1.00  0.00     0.039 A 
ATOM     10  C   UNL A   1      33.166  24.150  25.478  1.00  0.00     0.039 A 
ATOM     11  C   UNL A   1      31.971  24.756  25.075  1.00  0.00     0.058 A 
ATOM     12  C   UNL A   1      31.867  25.212  23.765  1.00  0.00     0.027 A 
BRANCH   8  13
ATOM     13  N   UNL A   1      35.320  23.169  25.011  1.00  0.00    -0.372 N 
BRANCH  13  14
ATOM     14  C   UNL A   1      35.106  21.915  25.750  1.00  0.00     0.116 C 
BRANCH  14  15
ATOM     15  C   UNL A   1      35.283  20.640  24.909  1.00  0.00     0.018 C 
ATOM     16  C   UNL A   1      36.677  20.016  24.950  1.00  0.00     0.006 C 
ENDBRANCH  14  15
ENDBRANCH  13  14
BRANCH  13  17
ATOM     17  C   UNL A   1      36.695  23.642  24.782  1.00  0.00     0.116 C 
BRANCH  17  18
ATOM     18  C   UNL A   1      37.507  23.834  26.069  1.00  0.00     0.018 C 
ATOM     19  C   UNL A   1      38.689  22.872  26.183  1.00  0.00     0.006 C 
ENDBRANCH  17  18
ENDBRANCH  13  17
ENDBRANCH   8  13
BRANCH  11  20
ATOM     20  C   UNL A   1      30.901  25.094  26.077  1.00  0.00     0.416 C 
ATOM     21  F   UNL A   1      30.287  23.972  26.548  1.00  0.00    -0.166 F 
ATOM     22  F   UNL A   1      31.389  25.737  27.173  1.00  0.00    -0.166 F 
ATOM     23  F   UNL A   1      29.914  25.886  25.578  1.00  0.00    -0.166 F 
ENDBRANCH  11  20
ENDBRANCH   4   7
ENDBRANCH   2   3
ENDBRANCH   1   2
BRANCH   1  24
ATOM     24  C   UNL A   1      34.071  28.131  25.920  1.00  0.00     0.118 C 
BRANCH  24  25
ATOM     25  N   UNL A   1      33.618  29.355  26.566  1.00  0.00    -0.352 N 
ATOM     26  C   UNL A   1      34.215  30.159  27.511  1.00  0.00     0.251 C 
ATOM     27  H   UNL A   1      32.728  29.661  26.278  1.00  0.00     0.163 HD
ATOM     28  O   UNL A   1      33.558  31.057  28.028  1.00  0.00    -0.269 OA
BRANCH  26  29
ATOM     29  C   UNL A   1      35.619  29.935  27.931  1.00  0.00     0.039 A 
ATOM     30  C   UNL A   1      35.879  29.545  29.249  1.00  0.00     0.014 A 
ATOM     31  C   UNL A   1      36.682  30.125  27.049  1.00  0.00     0.014 A 
ATOM     32  C   UNL A   1      37.191  29.267  29.648  1.00  0.00     0.010 A 
ATOM     33  C   UNL A   1      37.967  29.734  27.410  1.00  0.00     0.010 A 
ATOM     34  C   UNL A   1      38.241  29.311  28.717  1.00  0.00    -0.014 A 
BRANCH  34  35
ATOM     35  C   UNL A   1      39.632  28.936  29.086  1.00  0.00     0.031 A 
ATOM     36  C   UNL A   1      40.536  29.943  29.752  1.00  0.00     0.074 A 
ATOM     37  C   UNL A   1      40.108  27.718  28.755  1.00  0.00     0.049 A 
ATOM     38  N   UNL A   1      41.800  29.831  30.075  1.00  0.00    -0.248 NA
ATOM     39  C   UNL A   1      39.954  31.258  30.069  1.00  0.00     0.031 C 
ATOM     40  C   UNL A   1      39.351  26.669  28.067  1.00  0.00     0.029 A 
ATOM     41  N   UNL A   1      41.347  27.158  28.946  1.00  0.00    -0.354 N 
ATOM     42  C   UNL A   1      42.164  31.062  30.608  1.00  0.00     0.074 A 
ATOM     43  C   UNL A   1      41.009  31.925  30.511  1.00  0.00     0.031 C 
ATOM     44  C   UNL A   1      40.129  25.584  27.926  1.00  0.00     0.029 A 
ATOM     45  C   UNL A   1      41.454  25.873  28.465  1.00  0.00     0.049 A 
ATOM     46  H   UNL A   1      42.090  27.631  29.386  1.00  0.00     0.167 HD
ATOM     47  C   UNL A   1      43.347  31.436  31.153  1.00  0.00     0.031 A 
ATOM     48  C   UNL A   1      42.500  25.025  28.449  1.00  0.00     0.031 A 
ATOM     49  C   UNL A   1      44.490  30.569  31.263  1.00  0.00     0.049 A 
ATOM     50  C   UNL A   1      43.808  25.466  29.049  1.00  0.00     0.074 A 
ATOM     51  C   UNL A   1      45.714  30.833  31.851  1.00  0.00     0.029 A 
ATOM     52  N   UNL A   1      44.551  29.274  30.773  1.00  0.00    -0.354 N 
ATOM     53  N   UNL A   1      44.111  26.613  29.609  1.00  0.00    -0.248 NA
ATOM     54  C   UNL A   1      44.910  24.495  29.025  1.00  0.00     0.031 C 
ATOM     55  C   UNL A   1      46.537  29.718  31.663  1.00  0.00     0.029 A 
ATOM     56  C   UNL A   1      45.802  28.734  31.021  1.00  0.00     0.049 A 
ATOM     57  H   UNL A   1      43.815  28.807  30.317  1.00  0.00     0.167 HD
ATOM     58  C   UNL A   1      45.431  26.489  30.033  1.00  0.00     0.074 A 
ATOM     59  C   UNL A   1      45.860  25.152  29.677  1.00  0.00     0.031 C 
ATOM     60  C   UNL A   1      46.215  27.401  30.661  1.00  0.00     0.031 A 
BRANCH  47  61
ATOM     61  C   UNL A   1      43.464  32.849  31.668  1.00  0.00    -0.014 A 
ATOM     62  C   UNL A   1      43.893  33.896  30.832  1.00  0.00     0.010 A 
ATOM     63  C   UNL A   1      43.101  33.142  32.995  1.00  0.00     0.010 A 
ATOM     64  C   UNL A   1      44.000  35.200  31.325  1.00  0.00     0.020 A 
ATOM     65  C   UNL A   1      43.174  34.450  33.483  1.00  0.00     0.020 A 
ATOM     66  C   UNL A   1      43.640  35.468  32.649  1.00  0.00     0.054 A 
BRANCH  66  67
ATOM     67  S   UNL A   1      43.764  37.174  33.253  1.00  0.00     0.124 S 
ATOM     68  O   UNL A   1      42.585  37.276  34.110  1.00  0.00    -0.237 OA
ATOM     69  O   UNL A   1      45.048  37.171  33.950  1.00  0.00    -0.237 OA
ATOM     70  O   UNL A   1      43.721  37.978  32.036  1.00  0.00    -0.744 OA
ENDBRANCH  66  67
ENDBRANCH  47  61
BRANCH  48  71
ATOM     71  C   UNL A   1      42.350  23.666  27.857  1.00  0.00    -0.014 A 
ATOM     72  C   UNL A   1      42.538  23.460  26.479  1.00  0.00     0.010 A 
ATOM     73  C   UNL A   1      42.028  22.563  28.672  1.00  0.00     0.010 A 
ATOM     74  C   UNL A   1      42.386  22.186  25.923  1.00  0.00     0.020 A 
ATOM     75  C   UNL A   1      41.908  21.283  28.126  1.00  0.00     0.020 A 
ATOM     76  C   UNL A   1      42.075  21.104  26.752  1.00  0.00     0.054 A 
BRANCH  76  77
ATOM     77  S   UNL A   1      41.930  19.453  26.015  1.00  0.00     0.124 S 
ATOM     78  O   UNL A   1      42.419  18.596  27.090  1.00  0.00    -0.237 OA
ATOM     79  O   UNL A   1      40.500  19.360  25.730  1.00  0.00    -0.237 OA
ATOM     80  O   UNL A   1      42.790  19.528  24.835  1.00  0.00    -0.744 OA
ENDBRANCH  76  77
ENDBRANCH  48  71
BRANCH  60  81
ATOM     81  C   UNL A   1      47.608  26.973  31.042  1.00  0.00    -0.014 A 
ATOM     82  C   UNL A   1      47.862  26.290  32.245  1.00  0.00     0.010 A 
ATOM     83  C   UNL A   1      48.671  27.207  30.150  1.00  0.00     0.010 A 
ATOM     84  C   UNL A   1      49.159  25.880  32.564  1.00  0.00     0.020 A 
ATOM     85  C   UNL A   1      49.962  26.769  30.450  1.00  0.00     0.020 A 
ATOM     86  C   UNL A   1      50.201  26.122  31.663  1.00  0.00     0.054 A 
BRANCH  86  87
ATOM     87  S   UNL A   1      51.868  25.538  32.080  1.00  0.00     0.124 S 
ATOM     88  O   UNL A   1      52.148  26.275  33.309  1.00  0.00    -0.237 OA
ATOM     89  O   UNL A   1      51.671  24.099  32.241  1.00  0.00    -0.237 OA
ATOM     90  O   UNL A   1      52.671  25.926  30.923  1.00  0.00    -0.744 OA
ENDBRANCH  86  87
ENDBRANCH  60  81
ENDBRANCH  34  35
ENDBRANCH  26  29
ENDBRANCH  24  25
ENDBRANCH   1  24
TORSDOF 19
ENDMDL
MODEL 2
REMARK VINA RESULT:      -9.6      2.183      2.921
REMARK SMILES CCCN(CCC)c1cc(C(=O)NCCCNC(=O)c2ccc(-c3c4nc(c(-c5ccc(S(=O)(=O)[O-])cc5)c5ccc([nH]5)c(-c5ccc(S(=O)(=O)[O-])cc5)c5nc(c(-c6ccc(S(=O)(=O)[O-])cc6)c6ccc3[nH]6)C=C5)C=C4)cc2)cc(C(F)(F)F)c1
REMARK SMILES IDX 15 1 14 2 13 3 11 4 12 5 10 7 8 8 9 9 86 10 81 11 80 12 4 13
REMARK SMILES IDX 3 14 2 15 1 16 5 17 6 18 7 19 82 20 83 21 84 22 85 23 16 24
REMARK SMILES IDX 17 25 18 26 19 28 20 29 21 30 79 31 22 32 78 33 23 34 24 35
REMARK SMILES IDX 25 36 72 37 26 38 77 39 71 40 73 41 27 42 76 43 70 44 69 45
REMARK SMILES IDX 28 47 58 48 39 49 57 50 40 51 43 52 56 53 74 54 41 55 42 56
REMARK SMILES IDX 55 58 75 59 44 60 29 61 30 62 38 63 31 64 37 65 32 66 33 67
REMARK SMILES IDX 34 68 35 69 36 70 59 71 60 72 68 73 61 74 67 75 62 76 63 77
REMARK SMILES IDX 64 78 65 79 66 80 45 81 46 82 54 83 47 84 53 85 48 86 49 87
REMARK SMILES IDX 50 88 51 89 52 90
REMARK H PARENT 13 6 17 27 73 46 43 57
REMARK Flexibility Score: inf
ROOT
ATOM      1  C   UNL A   1      34.349  28.410  24.354  1.00  0.00     0.042 C 
ENDROOT
BRANCH   1   2
ATOM      2  C   UNL A   1      33.278  28.574  23.294  1.00  0.00     0.118 C 
BRANCH   2   3
ATOM      3  N   UNL A   1      33.428  27.762  22.089  1.00  0.00    -0.352 N 
ATOM      4  C   UNL A   1      33.079  26.448  21.834  1.00  0.00     0.251 C 
ATOM      5  O   UNL A   1      33.212  26.004  20.695  1.00  0.00    -0.269 OA
ATOM      6  H   UNL A   1      33.848  28.230  21.331  1.00  0.00     0.163 HD
BRANCH   4   7
ATOM      7  C   UNL A   1      32.688  25.535  22.942  1.00  0.00     0.042 A 
ATOM      8  C   UNL A   1      33.583  24.265  24.818  1.00  0.00     0.038 A 
ATOM      9  C   UNL A   1      33.692  24.741  23.512  1.00  0.00     0.039 A 
ATOM     10  C   UNL A   1      32.436  24.643  25.516  1.00  0.00     0.039 A 
ATOM     11  C   UNL A   1      31.347  25.272  24.903  1.00  0.00     0.058 A 
ATOM     12  C   UNL A   1      31.448  25.612  23.558  1.00  0.00     0.027 A 
BRANCH   8  13
ATOM     13  N   UNL A   1      34.566  23.514  25.434  1.00  0.00    -0.372 N 
BRANCH  13  14
ATOM     14  C   UNL A   1      34.279  22.117  25.797  1.00  0.00     0.116 C 
BRANCH  14  15
ATOM     15  C   UNL A   1      34.051  21.180  24.599  1.00  0.00     0.018 C 
ATOM     16  C   UNL A   1      32.608  20.720  24.391  1.00  0.00     0.006 C 
ENDBRANCH  14  15
ENDBRANCH  13  14
BRANCH  13  17
ATOM     17  C   UNL A   1      35.869  24.094  25.795  1.00  0.00     0.116 C 
BRANCH  17  18
ATOM     18  C   UNL A   1      37.058  23.448  25.072  1.00  0.00     0.018 C 
ATOM     19  C   UNL A   1      38.210  23.092  26.011  1.00  0.00     0.006 C 
ENDBRANCH  17  18
ENDBRANCH  13  17
ENDBRANCH   8  13
BRANCH  11  20
ATOM     20  C   UNL A   1      30.177  25.754  25.716  1.00  0.00     0.416 C 
ATOM     21  F   UNL A   1      29.163  26.194  24.918  1.00  0.00    -0.166 F 
ATOM     22  F   UNL A   1      29.639  24.777  26.497  1.00  0.00    -0.166 F 
ATOM     23  F   UNL A   1      30.479  26.785  26.550  1.00  0.00    -0.166 F 
ENDBRANCH  11  20
ENDBRANCH   4   7
ENDBRANCH   2   3
ENDBRANCH   1   2
BRANCH   1  24
ATOM     24  C   UNL A   1      33.861  28.459  25.786  1.00  0.00     0.118 C 
BRANCH  24  25
ATOM     25  N   UNL A   1      33.629  29.813  26.269  1.00  0.00    -0.352 N 
ATOM     26  C   UNL A   1      34.277  30.560  27.226  1.00  0.00     0.251 C 
ATOM     27  H   UNL A   1      32.876  30.275  25.835  1.00  0.00     0.163 HD
ATOM     28  O   UNL A   1      33.788  31.630  27.576  1.00  0.00    -0.269 OA
BRANCH  26  29
ATOM     29  C   UNL A   1      35.529  30.079  27.857  1.00  0.00     0.039 A 
ATOM     30  C   UNL A   1      36.728  30.176  27.145  1.00  0.00     0.014 A 
ATOM     31  C   UNL A   1      35.531  29.514  29.132  1.00  0.00     0.014 A 
ATOM     32  C   UNL A   1      37.930  29.786  27.746  1.00  0.00     0.010 A 
ATOM     33  C   UNL A   1      36.735  29.241  29.772  1.00  0.00     0.010 A 
ATOM     34  C   UNL A   1      37.950  29.362  29.084  1.00  0.00    -0.014 A 
BRANCH  34  35
ATOM     35  C   UNL A   1      39.220  29.025  29.781  1.00  0.00     0.031 A 
ATOM     36  C   UNL A   1      39.669  29.836  30.971  1.00  0.00     0.074 A 
ATOM     37  C   UNL A   1      40.008  28.041  29.300  1.00  0.00     0.049 A 
ATOM     38  N   UNL A   1      40.780  29.748  31.658  1.00  0.00    -0.248 NA
ATOM     39  C   UNL A   1      38.766  30.905  31.430  1.00  0.00     0.031 C 
ATOM     40  C   UNL A   1      39.711  27.213  28.128  1.00  0.00     0.029 A 
ATOM     41  N   UNL A   1      41.224  27.575  29.733  1.00  0.00    -0.354 N 
ATOM     42  C   UNL A   1      40.717  30.760  32.609  1.00  0.00     0.074 A 
ATOM     43  C   UNL A   1      39.490  31.487  32.374  1.00  0.00     0.031 C 
ATOM     44  C   UNL A   1      40.699  26.319  27.958  1.00  0.00     0.029 A 
ATOM     45  C   UNL A   1      41.723  26.541  28.973  1.00  0.00     0.049 A 
ATOM     46  H   UNL A   1      41.696  27.944  30.514  1.00  0.00     0.167 HD
ATOM     47  C   UNL A   1      41.590  31.046  33.605  1.00  0.00     0.031 A 
ATOM     48  C   UNL A   1      42.878  25.855  29.073  1.00  0.00     0.031 A 
ATOM     49  C   UNL A   1      42.803  30.309  33.846  1.00  0.00     0.049 A 
ATOM     50  C   UNL A   1      43.838  26.198  30.181  1.00  0.00     0.074 A 
ATOM     51  C   UNL A   1      43.724  30.481  34.864  1.00  0.00     0.029 A 
ATOM     52  N   UNL A   1      43.264  29.265  33.060  1.00  0.00    -0.354 N 
ATOM     53  N   UNL A   1      43.728  27.115  31.112  1.00  0.00    -0.248 NA
ATOM     54  C   UNL A   1      45.072  25.405  30.257  1.00  0.00     0.031 C 
ATOM     55  C   UNL A   1      44.773  29.580  34.657  1.00  0.00     0.029 A 
ATOM     56  C   UNL A   1      44.471  28.799  33.553  1.00  0.00     0.049 A 
ATOM     57  H   UNL A   1      42.802  28.907  32.268  1.00  0.00     0.167 HD
ATOM     58  C   UNL A   1      44.864  26.989  31.904  1.00  0.00     0.074 A 
ATOM     59  C   UNL A   1      45.639  25.897  31.351  1.00  0.00     0.031 C 
ATOM     60  C   UNL A   1      45.231  27.711  32.992  1.00  0.00     0.031 A 
BRANCH  47  61
ATOM     61  C   UNL A   1      41.265  32.209  34.508  1.00  0.00    -0.014 A 
ATOM     62  C   UNL A   1      40.489  32.035  35.669  1.00  0.00     0.010 A 
ATOM     63  C   UNL A   1      41.775  33.486  34.215  1.00  0.00     0.010 A 
ATOM     64  C   UNL A   1      40.193  33.125  36.494  1.00  0.00     0.020 A 
ATOM     65  C   UNL A   1      41.510  34.572  35.054  1.00  0.00     0.020 A 
ATOM     66  C   UNL A   1      40.706  34.387  36.180  1.00  0.00     0.054 A 
BRANCH  66  67
ATOM     67  S   UNL A   1      40.325  35.776  37.283  1.00  0.00     0.124 S 
ATOM     68  O   UNL A   1      41.652  36.144  37.770  1.00  0.00    -0.237 OA
ATOM     69  O   UNL A   1      39.699  36.737  36.379  1.00  0.00    -0.237 OA
ATOM     70  O   UNL A   1      39.435  35.193  38.282  1.00  0.00    -0.744 OA
ENDBRANCH  66  67
ENDBRANCH  47  61
BRANCH  48  71
ATOM     71  C   UNL A   1      43.184  24.764  28.106  1.00  0.00    -0.014 A 
ATOM     72  C   UNL A   1      42.858  23.430  28.405  1.00  0.00     0.010 A 
ATOM     73  C   UNL A   1      43.796  25.056  26.871  1.00  0.00     0.010 A 
ATOM     74  C   UNL A   1      43.156  22.405  27.501  1.00  0.00     0.020 A 
ATOM     75  C   UNL A   1      44.065  24.039  25.951  1.00  0.00     0.020 A 
ATOM     76  C   UNL A   1      43.755  22.718  26.277  1.00  0.00     0.054 A 
BRANCH  76  77
ATOM     77  S   UNL A   1      44.088  21.378  25.100  1.00  0.00     0.124 S 
ATOM     78  O   UNL A   1      44.081  22.085  23.824  1.00  0.00    -0.237 OA
ATOM     79  O   UNL A   1      45.389  20.886  25.544  1.00  0.00    -0.237 OA
ATOM     80  O   UNL A   1      42.975  20.454  25.309  1.00  0.00    -0.744 OA
ENDBRANCH  76  77
ENDBRANCH  48  71
BRANCH  60  81
ATOM     81  C   UNL A   1      46.510  27.320  33.686  1.00  0.00    -0.014 A 
ATOM     82  C   UNL A   1      47.736  27.924  33.358  1.00  0.00     0.010 A 
ATOM     83  C   UNL A   1      46.470  26.372  34.725  1.00  0.00     0.010 A 
ATOM     84  C   UNL A   1      48.904  27.563  34.034  1.00  0.00     0.020 A 
ATOM     85  C   UNL A   1      47.629  26.034  35.426  1.00  0.00     0.020 A 
ATOM     86  C   UNL A   1      48.843  26.621  35.065  1.00  0.00     0.054 A 
BRANCH  86  87
ATOM     87  S   UNL A   1      50.366  26.204  35.958  1.00  0.00     0.124 S 
ATOM     88  O   UNL A   1      50.127  24.812  36.332  1.00  0.00    -0.237 OA
ATOM     89  O   UNL A   1      51.397  26.415  34.945  1.00  0.00    -0.237 OA
ATOM     90  O   UNL A   1      50.388  27.153  37.069  1.00  0.00    -0.744 OA
ENDBRANCH  86  87
ENDBRANCH  60  81
ENDBRANCH  34  35
ENDBRANCH  26  29
ENDBRANCH  24  25
ENDBRANCH   1  24
TORSDOF 19
ENDMDL
MODEL 3
REMARK VINA RESULT:      -9.3      1.406      2.213
REMARK SMILES CCCN(CCC)c1cc(C(=O)NCCCNC(=O)c2ccc(-c3c4nc(c(-c5ccc(S(=O)(=O)[O-])cc5)c5ccc([nH]5)c(-c5ccc(S(=O)(=O)[O-])cc5)c5nc(c(-c6ccc(S(=O)(=O)[O-])cc6)c6ccc3[nH]6)C=C5)C=C4)cc2)cc(C(F)(F)F)c1
REMARK SMILES IDX 15 1 14 2 13 3 11 4 12 5 10 7 8 8 9 9 86 10 81 11 80 12 4 13
REMARK SMILES IDX 3 14 2 15 1 16 5 17 6 18 7 19 82 20 83 21 84 22 85 23 16 24
REMARK SMILES IDX 17 25 18 26 19 28 20 29 21 30 79 31 22 32 78 33 23 34 24 35
REMARK SMILES IDX 25 36 72 37 26 38 77 39 71 40 73 41 27 42 76 43 70 44 69 45
REMARK SMILES IDX 28 47 58 48 39 49 57 50 40 51 43 52 56 53 74 54 41 55 42 56
REMARK SMILES IDX 55 58 75 59 44 60 29 61 30 62 38 63 31 64 37 65 32 66 33 67
REMARK SMILES IDX 34 68 35 69 36 70 59 71 60 72 68 73 61 74 67 75 62 76 63 77
REMARK SMILES IDX 64 78 65 79 66 80 45 81 46 82 54 83 47 84 53 85 48 86 49 87
REMARK SMILES IDX 50 88 51 89 52 90
REMARK H PARENT 13 6 17 27 73 46 43 57
REMARK Flexibility Score: inf
ROOT
ATOM      1  C   UNL A   1      32.824  27.610  26.275  1.00  0.00     0.042 C 
ENDROOT
BRANCH   1   2
ATOM      2  C   UNL A   1      32.733  26.509  25.237  1.00  0.00     0.118 C 
BRANCH   2   3
ATOM      3  N   UNL A   1      33.193  26.845  23.893  1.00  0.00    -0.352 N 
ATOM      4  C   UNL A   1      33.601  26.037  22.847  1.00  0.00     0.251 C 
ATOM      5  O   UNL A   1      33.852  26.548  21.757  1.00  0.00    -0.269 OA
ATOM      6  H   UNL A   1      33.218  27.810  23.699  1.00  0.00     0.163 HD
BRANCH   4   7
ATOM      7  C   UNL A   1      33.877  24.590  23.066  1.00  0.00     0.042 A 
ATOM      8  C   UNL A   1      34.465  22.964  24.782  1.00  0.00     0.038 A 
ATOM      9  C   UNL A   1      34.589  24.234  24.219  1.00  0.00     0.039 A 
ATOM     10  C   UNL A   1      33.582  22.093  24.142  1.00  0.00     0.039 A 
ATOM     11  C   UNL A   1      33.015  22.368  22.893  1.00  0.00     0.058 A 
ATOM     12  C   UNL A   1      33.273  23.601  22.304  1.00  0.00     0.027 A 
BRANCH   8  13
ATOM     13  N   UNL A   1      35.114  22.583  25.939  1.00  0.00    -0.372 N 
BRANCH  13  14
ATOM     14  C   UNL A   1      36.279  21.688  25.846  1.00  0.00     0.116 C 
BRANCH  14  15
ATOM     15  C   UNL A   1      37.539  22.339  25.251  1.00  0.00     0.018 C 
ATOM     16  C   UNL A   1      38.093  23.529  26.032  1.00  0.00     0.006 C 
ENDBRANCH  14  15
ENDBRANCH  13  14
BRANCH  13  17
ATOM     17  C   UNL A   1      34.633  22.996  27.267  1.00  0.00     0.116 C 
BRANCH  17  18
ATOM     18  C   UNL A   1      33.348  22.285  27.711  1.00  0.00     0.018 C 
ATOM     19  C   UNL A   1      32.081  23.076  27.388  1.00  0.00     0.006 C 
ENDBRANCH  17  18
ENDBRANCH  13  17
ENDBRANCH   8  13
BRANCH  11  20
ATOM     20  C   UNL A   1      31.989  21.446  22.292  1.00  0.00     0.416 C 
ATOM     21  F   UNL A   1      32.198  21.272  20.956  1.00  0.00    -0.166 F 
ATOM     22  F   UNL A   1      32.016  20.200  22.838  1.00  0.00    -0.166 F 
ATOM     23  F   UNL A   1      30.711  21.892  22.421  1.00  0.00    -0.166 F 
ENDBRANCH  11  20
ENDBRANCH   4   7
ENDBRANCH   2   3
ENDBRANCH   1   2
BRANCH   1  24
ATOM     24  C   UNL A   1      33.989  28.563  26.113  1.00  0.00     0.118 C 
BRANCH  24  25
ATOM     25  N   UNL A   1      33.812  29.815  26.834  1.00  0.00    -0.352 N 
ATOM     26  C   UNL A   1      34.603  30.447  27.767  1.00  0.00     0.251 C 
ATOM     27  H   UNL A   1      32.981  30.295  26.616  1.00  0.00     0.163 HD
ATOM     28  O   UNL A   1      34.157  31.424  28.360  1.00  0.00    -0.269 OA
BRANCH  26  29
ATOM     29  C   UNL A   1      35.961  29.946  28.086  1.00  0.00     0.039 A 
ATOM     30  C   UNL A   1      36.968  30.054  27.122  1.00  0.00     0.014 A 
ATOM     31  C   UNL A   1      36.248  29.352  29.315  1.00  0.00     0.014 A 
ATOM     32  C   UNL A   1      38.271  29.645  27.425  1.00  0.00     0.010 A 
ATOM     33  C   UNL A   1      37.564  29.060  29.658  1.00  0.00     0.010 A 
ATOM     34  C   UNL A   1      38.591  29.191  28.714  1.00  0.00    -0.014 A 
BRANCH  34  35
ATOM     35  C   UNL A   1      39.983  28.833  29.096  1.00  0.00     0.031 A 
ATOM     36  C   UNL A   1      40.859  29.841  29.796  1.00  0.00     0.074 A 
ATOM     37  C   UNL A   1      40.486  27.630  28.747  1.00  0.00     0.049 A 
ATOM     38  N   UNL A   1      42.120  29.744  30.135  1.00  0.00    -0.248 NA
ATOM     39  C   UNL A   1      40.249  31.139  30.131  1.00  0.00     0.031 C 
ATOM     40  C   UNL A   1      39.757  26.583  28.026  1.00  0.00     0.029 A 
ATOM     41  N   UNL A   1      41.732  27.088  28.945  1.00  0.00    -0.354 N 
ATOM     42  C   UNL A   1      42.455  30.971  30.699  1.00  0.00     0.074 A 
ATOM     43  C   UNL A   1      41.286  31.815  30.602  1.00  0.00     0.031 C 
ATOM     44  C   UNL A   1      40.556  25.514  27.875  1.00  0.00     0.029 A 
ATOM     45  C   UNL A   1      41.868  25.815  28.439  1.00  0.00     0.049 A 
ATOM     46  H   UNL A   1      42.459  27.565  29.405  1.00  0.00     0.167 HD
ATOM     47  C   UNL A   1      43.623  31.354  31.269  1.00  0.00     0.031 A 
ATOM     48  C   UNL A   1      42.929  24.986  28.421  1.00  0.00     0.031 A 
ATOM     49  C   UNL A   1      44.780  30.505  31.378  1.00  0.00     0.049 A 
ATOM     50  C   UNL A   1      44.220  25.438  29.050  1.00  0.00     0.074 A 
ATOM     51  C   UNL A   1      45.990  30.778  31.990  1.00  0.00     0.029 A 
ATOM     52  N   UNL A   1      44.871  29.221  30.862  1.00  0.00    -0.354 N 
ATOM     53  N   UNL A   1      44.495  26.578  29.638  1.00  0.00    -0.248 NA
ATOM     54  C   UNL A   1      45.339  24.487  29.022  1.00  0.00     0.031 C 
ATOM     55  C   UNL A   1      46.835  29.681  31.791  1.00  0.00     0.029 A 
ATOM     56  C   UNL A   1      46.128  28.698  31.118  1.00  0.00     0.049 A 
ATOM     57  H   UNL A   1      44.150  28.751  30.385  1.00  0.00     0.167 HD
ATOM     58  C   UNL A   1      45.810  26.468  30.078  1.00  0.00     0.074 A 
ATOM     59  C   UNL A   1      46.268  25.147  29.701  1.00  0.00     0.031 C 
ATOM     60  C   UNL A   1      46.568  27.380  30.736  1.00  0.00     0.031 A 
BRANCH  47  61
ATOM     61  C   UNL A   1      43.707  32.757  31.815  1.00  0.00    -0.014 A 
ATOM     62  C   UNL A   1      43.953  33.854  30.968  1.00  0.00     0.010 A 
ATOM     63  C   UNL A   1      43.497  32.989  33.186  1.00  0.00     0.010 A 
ATOM     64  C   UNL A   1      44.032  35.149  31.489  1.00  0.00     0.020 A 
ATOM     65  C   UNL A   1      43.542  34.285  33.707  1.00  0.00     0.020 A 
ATOM     66  C   UNL A   1      43.826  35.355  32.857  1.00  0.00     0.054 A 
BRANCH  66  67
ATOM     67  S   UNL A   1      43.910  37.049  33.500  1.00  0.00     0.124 S 
ATOM     68  O   UNL A   1      44.196  37.817  32.290  1.00  0.00    -0.237 OA
ATOM     69  O   UNL A   1      42.577  37.242  34.065  1.00  0.00    -0.237 OA
ATOM     70  O   UNL A   1      44.995  36.998  34.475  1.00  0.00    -0.744 OA
ENDBRANCH  66  67
ENDBRANCH  47  61
BRANCH  48  71
ATOM     71  C   UNL A   1      42.812  23.637  27.799  1.00  0.00    -0.014 A 
ATOM     72  C   UNL A   1      42.409  22.529  28.564  1.00  0.00     0.010 A 
ATOM     73  C   UNL A   1      43.093  23.455  26.431  1.00  0.00     0.010 A 
ATOM     74  C   UNL A   1      42.310  21.261  27.982  1.00  0.00     0.020 A 
ATOM     75  C   UNL A   1      42.963  22.197  25.838  1.00  0.00     0.020 A 
ATOM     76  C   UNL A   1      42.584  21.104  26.620  1.00  0.00     0.054 A 
BRANCH  76  77
ATOM     77  S   UNL A   1      42.402  19.460  25.876  1.00  0.00     0.124 S 
ATOM     78  O   UNL A   1      41.005  19.468  25.456  1.00  0.00    -0.237 OA
ATOM     79  O   UNL A   1      43.388  19.492  24.799  1.00  0.00    -0.237 OA
ATOM     80  O   UNL A   1      42.721  18.550  26.975  1.00  0.00    -0.744 OA
ENDBRANCH  76  77
ENDBRANCH  48  71
BRANCH  60  81
ATOM     81  C   UNL A   1      47.964  26.968  31.130  1.00  0.00    -0.014 A 
ATOM     82  C   UNL A   1      49.072  27.266  30.318  1.00  0.00     0.010 A 
ATOM     83  C   UNL A   1      48.171  26.325  32.364  1.00  0.00     0.010 A 
ATOM     84  C   UNL A   1      50.359  26.897  30.718  1.00  0.00     0.020 A 
ATOM     85  C   UNL A   1      49.459  25.984  32.782  1.00  0.00     0.020 A 
ATOM     86  C   UNL A   1      50.544  26.259  31.948  1.00  0.00     0.054 A 
BRANCH  86  87
ATOM     87  S   UNL A   1      52.230  25.832  32.465  1.00  0.00     0.124 S 
ATOM     88  O   UNL A   1      52.494  26.831  33.496  1.00  0.00    -0.237 OA
ATOM     89  O   UNL A   1      52.079  24.459  32.943  1.00  0.00    -0.237 OA
ATOM     90  O   UNL A   1      53.015  25.976  31.241  1.00  0.00    -0.744 OA
ENDBRANCH  86  87
ENDBRANCH  60  81
ENDBRANCH  34  35
ENDBRANCH  26  29
ENDBRANCH  24  25
ENDBRANCH   1  24
TORSDOF 19
ENDMDL
