MODEL 1
REMARK VINA RESULT:     -12.0      0.000      0.000
REMARK SMILES CCCn1cc(S(=O)(=O)N[C@H]2C=C[C@@H](C(=O)NCCCNC(=O)c3ccc(-c4c5nc(c(-c6ccc(S(=O)(=O)[O-])cc6)c6ccc([nH]6)c(-c6ccc(S(=O)(=O)[O-])cc6)c6nc(c(-c7ccc(S(=O)(=O)[O-])cc7)c7ccc4[nH]7)C=C6)C=C5)cc3)C2)nc1C
REMARK SMILES IDX 18 1 17 2 15 3 16 4 14 6 11 7 12 8 84 9 13 10 10 11 7 13
REMARK SMILES IDX 8 14 9 15 6 16 4 17 5 18 86 19 85 20 87 21 3 22 2 23 1 24
REMARK SMILES IDX 19 25 20 26 21 27 22 28 23 30 24 31 25 32 83 33 26 34 82 35
REMARK SMILES IDX 27 36 28 37 29 38 76 39 30 40 81 41 75 42 77 43 31 44 80 45
REMARK SMILES IDX 74 46 73 47 32 49 62 50 43 51 61 52 44 53 47 54 60 55 78 56
REMARK SMILES IDX 45 57 46 58 59 60 79 61 48 62 33 63 34 64 42 65 35 66 41 67
REMARK SMILES IDX 36 68 37 69 38 70 39 71 40 72 63 73 64 74 72 75 65 76 71 77
REMARK SMILES IDX 66 78 67 79 68 80 69 81 70 82 49 83 50 84 58 85 51 86 57 87
REMARK SMILES IDX 52 88 53 89 54 90 55 91 56 92
REMARK H PARENT 17 5 10 12 21 29 77 48 47 59
REMARK Flexibility Score: inf
ROOT
ATOM      1  C   UNL A   1      31.799  30.542  26.388  1.00  0.00     0.117 C 
ENDROOT
BRANCH   1   2
ATOM      2  N   UNL A   1      31.569  30.118  25.021  1.00  0.00    -0.356 N 
ATOM      3  C   UNL A   1      31.742  28.899  24.445  1.00  0.00     0.226 C 
ATOM      4  O   UNL A   1      31.393  28.772  23.268  1.00  0.00    -0.274 OA
ATOM      5  H   UNL A   1      31.235  30.821  24.417  1.00  0.00     0.163 HD
BRANCH   3   6
ATOM      6  C   UNL A   1      32.300  27.691  25.206  1.00  0.00     0.103 C 
ATOM      7  C   UNL A   1      31.986  25.340  25.723  1.00  0.00     0.093 C 
ATOM      8  C   UNL A   1      33.037  25.527  24.686  1.00  0.00    -0.011 C 
ATOM      9  C   UNL A   1      31.286  26.697  25.799  1.00  0.00     0.042 C 
ATOM     10  C   UNL A   1      33.211  26.820  24.387  1.00  0.00    -0.016 C 
BRANCH   7  11
ATOM     11  N   UNL A   1      31.195  24.125  25.514  1.00  0.00    -0.203 NA
ATOM     12  H   UNL A   1      30.227  24.413  25.656  1.00  0.00     0.142 HD
BRANCH  11  13
ATOM     13  S   UNL A   1      31.341  22.665  26.348  1.00  0.00     0.260 S 
ATOM     14  O   UNL A   1      30.100  21.972  26.197  1.00  0.00    -0.205 OA
ATOM     15  O   UNL A   1      31.817  23.041  27.676  1.00  0.00    -0.205 OA
BRANCH  13  16
ATOM     16  C   UNL A   1      32.637  21.668  25.717  1.00  0.00     0.188 A 
ATOM     17  N   UNL A   1      33.711  19.915  24.927  1.00  0.00    -0.334 N 
ATOM     18  C   UNL A   1      32.454  20.456  25.100  1.00  0.00     0.129 A 
ATOM     19  C   UNL A   1      34.617  20.918  25.194  1.00  0.00     0.107 A 
ATOM     20  N   UNL A   1      33.992  21.959  25.729  1.00  0.00    -0.221 NA
ATOM     21  C   UNL A   1      36.084  20.899  24.937  1.00  0.00     0.088 C 
BRANCH  17  22
ATOM     22  C   UNL A   1      33.828  18.510  24.585  1.00  0.00     0.123 C 
BRANCH  22  23
ATOM     23  C   UNL A   1      32.668  17.526  24.684  1.00  0.00     0.018 C 
ATOM     24  C   UNL A   1      33.089  16.065  24.645  1.00  0.00     0.006 C 
ENDBRANCH  22  23
ENDBRANCH  17  22
ENDBRANCH  13  16
ENDBRANCH  11  13
ENDBRANCH   7  11
ENDBRANCH   3   6
ENDBRANCH   1   2
BRANCH   1  25
ATOM     25  C   UNL A   1      31.681  32.052  26.558  1.00  0.00     0.042 C 
BRANCH  25  26
ATOM     26  C   UNL A   1      32.777  32.634  27.401  1.00  0.00     0.118 C 
BRANCH  26  27
ATOM     27  N   UNL A   1      32.542  34.047  27.757  1.00  0.00    -0.352 N 
ATOM     28  C   UNL A   1      33.133  34.782  28.782  1.00  0.00     0.251 C 
ATOM     29  H   UNL A   1      31.889  34.530  27.201  1.00  0.00     0.163 HD
ATOM     30  O   UNL A   1      32.666  35.851  29.154  1.00  0.00    -0.269 OA
BRANCH  28  31
ATOM     31  C   UNL A   1      34.346  34.221  29.412  1.00  0.00     0.039 A 
ATOM     32  C   UNL A   1      34.351  33.308  30.470  1.00  0.00     0.014 A 
ATOM     33  C   UNL A   1      35.520  34.515  28.755  1.00  0.00     0.014 A 
ATOM     34  C   UNL A   1      35.564  32.694  30.798  1.00  0.00     0.010 A 
ATOM     35  C   UNL A   1      36.453  33.537  28.737  1.00  0.00     0.010 A 
ATOM     36  C   UNL A   1      36.632  32.842  29.906  1.00  0.00    -0.014 A 
BRANCH  36  37
ATOM     37  C   UNL A   1      37.947  32.237  30.021  1.00  0.00     0.031 A 
ATOM     38  C   UNL A   1      37.992  30.851  29.516  1.00  0.00     0.074 A 
ATOM     39  C   UNL A   1      39.062  32.985  30.219  1.00  0.00     0.049 A 
ATOM     40  N   UNL A   1      37.947  29.770  30.216  1.00  0.00    -0.248 NA
ATOM     41  C   UNL A   1      37.834  30.632  28.066  1.00  0.00     0.031 C 
ATOM     42  C   UNL A   1      39.188  34.449  30.335  1.00  0.00     0.029 A 
ATOM     43  N   UNL A   1      40.362  32.593  30.236  1.00  0.00    -0.354 N 
ATOM     44  C   UNL A   1      38.071  28.741  29.293  1.00  0.00     0.074 A 
ATOM     45  C   UNL A   1      37.688  29.306  28.025  1.00  0.00     0.031 C 
ATOM     46  C   UNL A   1      40.482  34.816  30.181  1.00  0.00     0.029 A 
ATOM     47  C   UNL A   1      41.300  33.618  30.123  1.00  0.00     0.049 A 
ATOM     48  H   UNL A   1      40.625  31.648  30.322  1.00  0.00     0.167 HD
ATOM     49  C   UNL A   1      38.812  27.632  29.575  1.00  0.00     0.031 A 
ATOM     50  C   UNL A   1      42.645  33.478  29.970  1.00  0.00     0.031 A 
ATOM     51  C   UNL A   1      39.205  27.613  30.967  1.00  0.00     0.049 A 
ATOM     52  C   UNL A   1      42.979  32.097  30.407  1.00  0.00     0.074 A 
ATOM     53  C   UNL A   1      38.528  27.663  32.171  1.00  0.00     0.029 A 
ATOM     54  N   UNL A   1      40.499  28.000  31.243  1.00  0.00    -0.354 N 
ATOM     55  N   UNL A   1      42.839  31.687  31.637  1.00  0.00    -0.248 NA
ATOM     56  C   UNL A   1      42.973  31.047  29.399  1.00  0.00     0.031 C 
ATOM     57  C   UNL A   1      39.308  28.530  32.993  1.00  0.00     0.029 A 
ATOM     58  C   UNL A   1      40.467  28.879  32.297  1.00  0.00     0.049 A 
ATOM     59  H   UNL A   1      41.306  27.698  30.768  1.00  0.00     0.167 HD
ATOM     60  C   UNL A   1      42.271  30.424  31.528  1.00  0.00     0.074 A 
ATOM     61  C   UNL A   1      42.469  30.045  30.127  1.00  0.00     0.031 C 
ATOM     62  C   UNL A   1      41.432  29.942  32.496  1.00  0.00     0.031 A 
BRANCH  49  63
ATOM     63  C   UNL A   1      39.558  26.824  28.536  1.00  0.00    -0.014 A 
ATOM     64  C   UNL A   1      39.274  25.448  28.434  1.00  0.00     0.010 A 
ATOM     65  C   UNL A   1      40.692  27.291  27.841  1.00  0.00     0.010 A 
ATOM     66  C   UNL A   1      40.124  24.577  27.742  1.00  0.00     0.020 A 
ATOM     67  C   UNL A   1      41.522  26.440  27.110  1.00  0.00     0.020 A 
ATOM     68  C   UNL A   1      41.251  25.081  27.094  1.00  0.00     0.054 A 
BRANCH  68  69
ATOM     69  S   UNL A   1      42.389  23.938  26.278  1.00  0.00     0.124 S 
ATOM     70  O   UNL A   1      42.687  24.647  25.038  1.00  0.00    -0.237 OA
ATOM     71  O   UNL A   1      43.483  23.854  27.242  1.00  0.00    -0.237 OA
ATOM     72  O   UNL A   1      41.599  22.718  26.130  1.00  0.00    -0.744 OA
ENDBRANCH  68  69
ENDBRANCH  49  63
BRANCH  50  73
ATOM     73  C   UNL A   1      43.602  34.319  29.198  1.00  0.00    -0.014 A 
ATOM     74  C   UNL A   1      44.906  34.564  29.674  1.00  0.00     0.010 A 
ATOM     75  C   UNL A   1      43.337  34.625  27.848  1.00  0.00     0.010 A 
ATOM     76  C   UNL A   1      45.923  35.025  28.814  1.00  0.00     0.020 A 
ATOM     77  C   UNL A   1      44.343  35.088  26.986  1.00  0.00     0.020 A 
ATOM     78  C   UNL A   1      45.640  35.260  27.467  1.00  0.00     0.054 A 
BRANCH  78  79
ATOM     79  S   UNL A   1      46.995  35.658  26.318  1.00  0.00     0.124 S 
ATOM     80  O   UNL A   1      48.155  35.697  27.204  1.00  0.00    -0.237 OA
ATOM     81  O   UNL A   1      46.956  34.541  25.379  1.00  0.00    -0.237 OA
ATOM     82  O   UNL A   1      46.603  36.949  25.755  1.00  0.00    -0.744 OA
ENDBRANCH  78  79
ENDBRANCH  50  73
BRANCH  62  83
ATOM     83  C   UNL A   1      41.364  30.684  33.816  1.00  0.00    -0.014 A 
ATOM     84  C   UNL A   1      40.524  31.786  34.074  1.00  0.00     0.010 A 
ATOM     85  C   UNL A   1      42.118  30.162  34.881  1.00  0.00     0.010 A 
ATOM     86  C   UNL A   1      40.490  32.385  35.346  1.00  0.00     0.020 A 
ATOM     87  C   UNL A   1      42.073  30.737  36.153  1.00  0.00     0.020 A 
ATOM     88  C   UNL A   1      41.278  31.861  36.375  1.00  0.00     0.054 A 
BRANCH  88  89
ATOM     89  S   UNL A   1      41.265  32.652  38.008  1.00  0.00     0.124 S 
ATOM     90  O   UNL A   1      42.115  31.764  38.797  1.00  0.00    -0.237 OA
ATOM     91  O   UNL A   1      41.819  33.975  37.735  1.00  0.00    -0.237 OA
ATOM     92  O   UNL A   1      39.852  32.648  38.387  1.00  0.00    -0.744 OA
ENDBRANCH  88  89
ENDBRANCH  62  83
ENDBRANCH  36  37
ENDBRANCH  28  31
ENDBRANCH  26  27
ENDBRANCH  25  26
ENDBRANCH   1  25
TORSDOF 18
ENDMDL
MODEL 2
REMARK VINA RESULT:     -11.8      2.875      8.626
REMARK SMILES CCCn1cc(S(=O)(=O)N[C@H]2C=C[C@@H](C(=O)NCCCNC(=O)c3ccc(-c4c5nc(c(-c6ccc(S(=O)(=O)[O-])cc6)c6ccc([nH]6)c(-c6ccc(S(=O)(=O)[O-])cc6)c6nc(c(-c7ccc(S(=O)(=O)[O-])cc7)c7ccc4[nH]7)C=C6)C=C5)cc3)C2)nc1C
REMARK SMILES IDX 18 1 17 2 15 3 16 4 14 6 11 7 12 8 84 9 13 10 10 11 7 13
REMARK SMILES IDX 8 14 9 15 6 16 4 17 5 18 86 19 85 20 87 21 3 22 2 23 1 24
REMARK SMILES IDX 19 25 20 26 21 27 22 28 23 30 24 31 25 32 83 33 26 34 82 35
REMARK SMILES IDX 27 36 28 37 29 38 76 39 30 40 81 41 75 42 77 43 31 44 80 45
REMARK SMILES IDX 74 46 73 47 32 49 62 50 43 51 61 52 44 53 47 54 60 55 78 56
REMARK SMILES IDX 45 57 46 58 59 60 79 61 48 62 33 63 34 64 42 65 35 66 41 67
REMARK SMILES IDX 36 68 37 69 38 70 39 71 40 72 63 73 64 74 72 75 65 76 71 77
REMARK SMILES IDX 66 78 67 79 68 80 69 81 70 82 49 83 50 84 58 85 51 86 57 87
REMARK SMILES IDX 52 88 53 89 54 90 55 91 56 92
REMARK H PARENT 17 5 10 12 21 29 77 48 47 59
REMARK Flexibility Score: inf
ROOT
ATOM      1  C   UNL A   1      38.351  23.601  26.400  1.00  0.00     0.117 C 
ENDROOT
BRANCH   1   2
ATOM      2  N   UNL A   1      37.470  23.686  25.252  1.00  0.00    -0.356 N 
ATOM      3  C   UNL A   1      36.233  23.154  25.062  1.00  0.00     0.226 C 
ATOM      4  O   UNL A   1      35.647  23.442  24.014  1.00  0.00    -0.274 OA
ATOM      5  H   UNL A   1      37.820  24.209  24.495  1.00  0.00     0.163 HD
BRANCH   3   6
ATOM      6  C   UNL A   1      35.539  22.269  26.102  1.00  0.00     0.103 C 
ATOM      7  C   UNL A   1      33.500  21.900  27.367  1.00  0.00     0.093 C 
ATOM      8  C   UNL A   1      33.598  20.959  26.218  1.00  0.00    -0.011 C 
ATOM      9  C   UNL A   1      34.571  22.953  27.084  1.00  0.00     0.042 C 
ATOM     10  C   UNL A   1      34.715  21.160  25.509  1.00  0.00    -0.016 C 
BRANCH   7  11
ATOM     11  N   UNL A   1      32.122  22.320  27.638  1.00  0.00    -0.203 NA
ATOM     12  H   UNL A   1      31.630  21.463  27.890  1.00  0.00     0.142 HD
BRANCH  11  13
ATOM     13  S   UNL A   1      31.082  23.124  26.581  1.00  0.00     0.260 S 
ATOM     14  O   UNL A   1      29.966  23.572  27.354  1.00  0.00    -0.205 OA
ATOM     15  O   UNL A   1      30.884  22.194  25.473  1.00  0.00    -0.205 OA
BRANCH  13  16
ATOM     16  C   UNL A   1      31.847  24.507  25.822  1.00  0.00     0.188 A 
ATOM     17  N   UNL A   1      32.479  26.583  25.446  1.00  0.00    -0.334 N 
ATOM     18  C   UNL A   1      32.021  25.727  26.426  1.00  0.00     0.129 A 
ATOM     19  C   UNL A   1      32.821  25.803  24.363  1.00  0.00     0.107 A 
ATOM     20  N   UNL A   1      32.390  24.561  24.548  1.00  0.00    -0.221 NA
ATOM     21  C   UNL A   1      33.565  26.228  23.145  1.00  0.00     0.088 C 
BRANCH  17  22
ATOM     22  C   UNL A   1      32.462  28.011  25.700  1.00  0.00     0.123 C 
BRANCH  22  23
ATOM     23  C   UNL A   1      33.722  28.868  25.743  1.00  0.00     0.018 C 
ATOM     24  C   UNL A   1      34.385  28.928  27.110  1.00  0.00     0.006 C 
ENDBRANCH  22  23
ENDBRANCH  17  22
ENDBRANCH  13  16
ENDBRANCH  11  13
ENDBRANCH   7  11
ENDBRANCH   3   6
ENDBRANCH   1   2
BRANCH   1  25
ATOM     25  C   UNL A   1      39.201  22.336  26.390  1.00  0.00     0.042 C 
BRANCH  25  26
ATOM     26  C   UNL A   1      40.493  22.493  27.136  1.00  0.00     0.118 C 
BRANCH  26  27
ATOM     27  N   UNL A   1      41.680  22.235  26.296  1.00  0.00    -0.352 N 
ATOM     28  C   UNL A   1      42.467  23.163  25.618  1.00  0.00     0.251 C 
ATOM     29  H   UNL A   1      41.948  21.292  26.203  1.00  0.00     0.163 HD
ATOM     30  O   UNL A   1      43.248  22.819  24.740  1.00  0.00    -0.269 OA
BRANCH  28  31
ATOM     31  C   UNL A   1      42.322  24.585  25.994  1.00  0.00     0.039 A 
ATOM     32  C   UNL A   1      41.373  25.462  25.461  1.00  0.00     0.014 A 
ATOM     33  C   UNL A   1      43.082  24.971  27.075  1.00  0.00     0.014 A 
ATOM     34  C   UNL A   1      41.209  26.704  26.083  1.00  0.00     0.010 A 
ATOM     35  C   UNL A   1      42.512  25.866  27.913  1.00  0.00     0.010 A 
ATOM     36  C   UNL A   1      41.818  26.894  27.328  1.00  0.00    -0.014 A 
BRANCH  36  37
ATOM     37  C   UNL A   1      41.719  28.074  28.169  1.00  0.00     0.031 A 
ATOM     38  C   UNL A   1      42.773  29.070  27.894  1.00  0.00     0.074 A 
ATOM     39  C   UNL A   1      40.584  28.373  28.850  1.00  0.00     0.049 A 
ATOM     40  N   UNL A   1      43.859  29.254  28.565  1.00  0.00    -0.248 NA
ATOM     41  C   UNL A   1      42.738  29.782  26.604  1.00  0.00     0.031 C 
ATOM     42  C   UNL A   1      39.301  27.647  28.878  1.00  0.00     0.029 A 
ATOM     43  N   UNL A   1      40.292  29.480  29.581  1.00  0.00    -0.354 N 
ATOM     44  C   UNL A   1      44.485  30.326  27.942  1.00  0.00     0.074 A 
ATOM     45  C   UNL A   1      43.929  30.385  26.616  1.00  0.00     0.031 C 
ATOM     46  C   UNL A   1      38.331  28.441  29.391  1.00  0.00     0.029 A 
ATOM     47  C   UNL A   1      38.943  29.663  29.881  1.00  0.00     0.049 A 
ATOM     48  H   UNL A   1      40.986  30.111  29.880  1.00  0.00     0.167 HD
ATOM     49  C   UNL A   1      45.128  31.281  28.673  1.00  0.00     0.031 A 
ATOM     50  C   UNL A   1      38.380  30.754  30.467  1.00  0.00     0.031 A 
ATOM     51  C   UNL A   1      45.238  30.885  30.059  1.00  0.00     0.049 A 
ATOM     52  C   UNL A   1      39.483  31.489  31.140  1.00  0.00     0.074 A 
ATOM     53  C   UNL A   1      45.771  29.794  30.721  1.00  0.00     0.029 A 
ATOM     54  N   UNL A   1      44.341  31.457  30.933  1.00  0.00    -0.354 N 
ATOM     55  N   UNL A   1      40.152  31.000  32.148  1.00  0.00    -0.248 NA
ATOM     56  C   UNL A   1      40.172  32.521  30.382  1.00  0.00     0.031 C 
ATOM     57  C   UNL A   1      44.824  29.490  31.744  1.00  0.00     0.029 A 
ATOM     58  C   UNL A   1      43.824  30.464  31.728  1.00  0.00     0.049 A 
ATOM     59  H   UNL A   1      44.109  32.413  30.981  1.00  0.00     0.167 HD
ATOM     60  C   UNL A   1      41.479  31.308  31.876  1.00  0.00     0.074 A 
ATOM     61  C   UNL A   1      41.418  32.329  30.828  1.00  0.00     0.031 C 
ATOM     62  C   UNL A   1      42.493  30.494  32.302  1.00  0.00     0.031 A 
BRANCH  49  63
ATOM     63  C   UNL A   1      45.240  32.731  28.258  1.00  0.00    -0.014 A 
ATOM     64  C   UNL A   1      46.528  33.299  28.169  1.00  0.00     0.010 A 
ATOM     65  C   UNL A   1      44.149  33.621  28.200  1.00  0.00     0.010 A 
ATOM     66  C   UNL A   1      46.709  34.686  28.110  1.00  0.00     0.020 A 
ATOM     67  C   UNL A   1      44.317  35.002  28.096  1.00  0.00     0.020 A 
ATOM     68  C   UNL A   1      45.599  35.529  28.086  1.00  0.00     0.054 A 
BRANCH  68  69
ATOM     69  S   UNL A   1      45.846  37.319  28.097  1.00  0.00     0.124 S 
ATOM     70  O   UNL A   1      44.876  37.749  29.099  1.00  0.00    -0.237 OA
ATOM     71  O   UNL A   1      47.251  37.433  28.483  1.00  0.00    -0.237 OA
ATOM     72  O   UNL A   1      45.547  37.714  26.723  1.00  0.00    -0.744 OA
ENDBRANCH  68  69
ENDBRANCH  49  63
BRANCH  50  73
ATOM     73  C   UNL A   1      37.043  31.369  30.236  1.00  0.00    -0.014 A 
ATOM     74  C   UNL A   1      36.330  31.983  31.285  1.00  0.00     0.010 A 
ATOM     75  C   UNL A   1      36.607  31.624  28.920  1.00  0.00     0.010 A 
ATOM     76  C   UNL A   1      35.272  32.876  31.025  1.00  0.00     0.020 A 
ATOM     77  C   UNL A   1      35.551  32.509  28.653  1.00  0.00     0.020 A 
ATOM     78  C   UNL A   1      34.906  33.154  29.706  1.00  0.00     0.054 A 
BRANCH  78  79
ATOM     79  S   UNL A   1      33.679  34.456  29.368  1.00  0.00     0.124 S 
ATOM     80  O   UNL A   1      32.687  33.750  28.561  1.00  0.00    -0.237 OA
ATOM     81  O   UNL A   1      33.245  34.842  30.707  1.00  0.00    -0.237 OA
ATOM     82  O   UNL A   1      34.446  35.475  28.653  1.00  0.00    -0.744 OA
ENDBRANCH  78  79
ENDBRANCH  50  73
BRANCH  62  83
ATOM     83  C   UNL A   1      42.166  29.416  33.316  1.00  0.00    -0.014 A 
ATOM     84  C   UNL A   1      41.554  28.184  33.007  1.00  0.00     0.010 A 
ATOM     85  C   UNL A   1      42.603  29.627  34.635  1.00  0.00     0.010 A 
ATOM     86  C   UNL A   1      41.331  27.219  34.006  1.00  0.00     0.020 A 
ATOM     87  C   UNL A   1      42.404  28.665  35.628  1.00  0.00     0.020 A 
ATOM     88  C   UNL A   1      41.748  27.474  35.315  1.00  0.00     0.054 A 
BRANCH  88  89
ATOM     89  S   UNL A   1      41.430  26.249  36.615  1.00  0.00     0.124 S 
ATOM     90  O   UNL A   1      40.556  26.977  37.531  1.00  0.00    -0.237 OA
ATOM     91  O   UNL A   1      40.802  25.152  35.884  1.00  0.00    -0.237 OA
ATOM     92  O   UNL A   1      42.761  25.947  37.143  1.00  0.00    -0.744 OA
ENDBRANCH  88  89
ENDBRANCH  62  83
ENDBRANCH  36  37
ENDBRANCH  28  31
ENDBRANCH  26  27
ENDBRANCH  25  26
ENDBRANCH   1  25
TORSDOF 18
ENDMDL
MODEL 3
REMARK VINA RESULT:     -11.7      1.602      2.565
REMARK SMILES CCCn1cc(S(=O)(=O)N[C@H]2C=C[C@@H](C(=O)NCCCNC(=O)c3ccc(-c4c5nc(c(-c6ccc(S(=O)(=O)[O-])cc6)c6ccc([nH]6)c(-c6ccc(S(=O)(=O)[O-])cc6)c6nc(c(-c7ccc(S(=O)(=O)[O-])cc7)c7ccc4[nH]7)C=C6)C=C5)cc3)C2)nc1C
REMARK SMILES IDX 18 1 17 2 15 3 16 4 14 6 11 7 12 8 84 9 13 10 10 11 7 13
REMARK SMILES IDX 8 14 9 15 6 16 4 17 5 18 86 19 85 20 87 21 3 22 2 23 1 24
REMARK SMILES IDX 19 25 20 26 21 27 22 28 23 30 24 31 25 32 83 33 26 34 82 35
REMARK SMILES IDX 27 36 28 37 29 38 76 39 30 40 81 41 75 42 77 43 31 44 80 45
REMARK SMILES IDX 74 46 73 47 32 49 62 50 43 51 61 52 44 53 47 54 60 55 78 56
REMARK SMILES IDX 45 57 46 58 59 60 79 61 48 62 33 63 34 64 42 65 35 66 41 67
REMARK SMILES IDX 36 68 37 69 38 70 39 71 40 72 63 73 64 74 72 75 65 76 71 77
REMARK SMILES IDX 66 78 67 79 68 80 69 81 70 82 49 83 50 84 58 85 51 86 57 87
REMARK SMILES IDX 52 88 53 89 54 90 55 91 56 92
REMARK H PARENT 17 5 10 12 21 29 77 48 47 59
REMARK Flexibility Score: inf
ROOT
ATOM      1  C   UNL A   1      31.859  30.542  25.805  1.00  0.00     0.117 C 
ENDROOT
BRANCH   1   2
ATOM      2  N   UNL A   1      32.189  29.244  26.363  1.00  0.00    -0.356 N 
ATOM      3  C   UNL A   1      31.808  28.002  25.963  1.00  0.00     0.226 C 
ATOM      4  O   UNL A   1      32.296  27.039  26.561  1.00  0.00    -0.274 OA
ATOM      5  H   UNL A   1      32.779  29.266  27.150  1.00  0.00     0.163 HD
BRANCH   3   6
ATOM      6  C   UNL A   1      30.853  27.762  24.788  1.00  0.00     0.103 C 
ATOM      7  C   UNL A   1      30.668  27.006  22.489  1.00  0.00     0.093 C 
ATOM      8  C   UNL A   1      30.214  25.954  23.438  1.00  0.00    -0.011 C 
ATOM      9  C   UNL A   1      31.392  28.023  23.370  1.00  0.00     0.042 C 
ATOM     10  C   UNL A   1      30.321  26.358  24.710  1.00  0.00    -0.016 C 
BRANCH   7  11
ATOM     11  N   UNL A   1      31.345  26.452  21.313  1.00  0.00    -0.203 NA
ATOM     12  H   UNL A   1      30.750  25.684  21.004  1.00  0.00     0.142 HD
BRANCH  11  13
ATOM     13  S   UNL A   1      32.916  25.841  21.243  1.00  0.00     0.260 S 
ATOM     14  O   UNL A   1      33.796  26.909  21.600  1.00  0.00    -0.205 OA
ATOM     15  O   UNL A   1      33.015  25.216  19.927  1.00  0.00    -0.205 OA
BRANCH  13  16
ATOM     16  C   UNL A   1      33.157  24.504  22.350  1.00  0.00     0.188 A 
ATOM     17  N   UNL A   1      34.008  23.275  23.969  1.00  0.00    -0.334 N 
ATOM     18  C   UNL A   1      33.918  24.566  23.490  1.00  0.00     0.129 A 
ATOM     19  C   UNL A   1      33.089  22.526  23.267  1.00  0.00     0.107 A 
ATOM     20  N   UNL A   1      32.614  23.232  22.249  1.00  0.00    -0.221 NA
ATOM     21  C   UNL A   1      32.650  21.133  23.560  1.00  0.00     0.088 C 
BRANCH  17  22
ATOM     22  C   UNL A   1      34.998  22.972  24.984  1.00  0.00     0.123 C 
BRANCH  22  23
ATOM     23  C   UNL A   1      36.497  22.947  24.709  1.00  0.00     0.018 C 
ATOM     24  C   UNL A   1      37.313  23.834  25.636  1.00  0.00     0.006 C 
ENDBRANCH  22  23
ENDBRANCH  17  22
ENDBRANCH  13  16
ENDBRANCH  11  13
ENDBRANCH   7  11
ENDBRANCH   3   6
ENDBRANCH   1   2
BRANCH   1  25
ATOM     25  C   UNL A   1      31.592  31.587  26.882  1.00  0.00     0.042 C 
BRANCH  25  26
ATOM     26  C   UNL A   1      32.825  32.343  27.283  1.00  0.00     0.118 C 
BRANCH  26  27
ATOM     27  N   UNL A   1      32.561  33.768  27.565  1.00  0.00    -0.352 N 
ATOM     28  C   UNL A   1      33.127  34.563  28.559  1.00  0.00     0.251 C 
ATOM     29  H   UNL A   1      31.905  34.211  26.979  1.00  0.00     0.163 HD
ATOM     30  O   UNL A   1      32.637  35.641  28.872  1.00  0.00    -0.269 OA
BRANCH  28  31
ATOM     31  C   UNL A   1      34.343  34.057  29.228  1.00  0.00     0.039 A 
ATOM     32  C   UNL A   1      34.352  33.209  30.339  1.00  0.00     0.014 A 
ATOM     33  C   UNL A   1      35.518  34.326  28.562  1.00  0.00     0.014 A 
ATOM     34  C   UNL A   1      35.570  32.631  30.711  1.00  0.00     0.010 A 
ATOM     35  C   UNL A   1      36.462  33.360  28.608  1.00  0.00     0.010 A 
ATOM     36  C   UNL A   1      36.642  32.739  29.818  1.00  0.00    -0.014 A 
BRANCH  36  37
ATOM     37  C   UNL A   1      37.964  32.159  29.976  1.00  0.00     0.031 A 
ATOM     38  C   UNL A   1      38.049  30.771  29.483  1.00  0.00     0.074 A 
ATOM     39  C   UNL A   1      39.059  32.928  30.202  1.00  0.00     0.049 A 
ATOM     40  N   UNL A   1      38.002  29.693  30.189  1.00  0.00    -0.248 NA
ATOM     41  C   UNL A   1      37.939  30.540  28.031  1.00  0.00     0.031 C 
ATOM     42  C   UNL A   1      39.154  34.395  30.312  1.00  0.00     0.029 A 
ATOM     43  N   UNL A   1      40.365  32.560  30.261  1.00  0.00    -0.354 N 
ATOM     44  C   UNL A   1      38.172  28.661  29.277  1.00  0.00     0.074 A 
ATOM     45  C   UNL A   1      37.818  29.211  27.995  1.00  0.00     0.031 C 
ATOM     46  C   UNL A   1      40.446  34.785  30.194  1.00  0.00     0.029 A 
ATOM     47  C   UNL A   1      41.287  33.602  30.169  1.00  0.00     0.049 A 
ATOM     48  H   UNL A   1      40.642  31.621  30.362  1.00  0.00     0.167 HD
ATOM     49  C   UNL A   1      38.925  27.567  29.590  1.00  0.00     0.031 A 
ATOM     50  C   UNL A   1      42.638  33.485  30.058  1.00  0.00     0.031 A 
ATOM     51  C   UNL A   1      39.276  27.565  30.992  1.00  0.00     0.049 A 
ATOM     52  C   UNL A   1      42.984  32.114  30.514  1.00  0.00     0.074 A 
ATOM     53  C   UNL A   1      38.562  27.610  32.175  1.00  0.00     0.029 A 
ATOM     54  N   UNL A   1      40.553  27.977  31.305  1.00  0.00    -0.354 N 
ATOM     55  N   UNL A   1      42.814  31.709  31.743  1.00  0.00    -0.248 NA
ATOM     56  C   UNL A   1      43.027  31.057  29.515  1.00  0.00     0.031 C 
ATOM     57  C   UNL A   1      39.301  28.497  33.014  1.00  0.00     0.029 A 
ATOM     58  C   UNL A   1      40.474  28.862  32.351  1.00  0.00     0.049 A 
ATOM     59  H   UNL A   1      41.380  27.687  30.856  1.00  0.00     0.167 HD
ATOM     60  C   UNL A   1      42.272  30.435  31.625  1.00  0.00     0.074 A 
ATOM     61  C   UNL A   1      42.520  30.051  30.234  1.00  0.00     0.031 C 
ATOM     62  C   UNL A   1      41.414  29.945  32.571  1.00  0.00     0.031 A 
BRANCH  49  63
ATOM     63  C   UNL A   1      39.717  26.767  28.579  1.00  0.00    -0.014 A 
ATOM     64  C   UNL A   1      39.342  25.427  28.352  1.00  0.00     0.010 A 
ATOM     65  C   UNL A   1      40.951  27.181  28.039  1.00  0.00     0.010 A 
ATOM     66  C   UNL A   1      40.194  24.534  27.693  1.00  0.00     0.020 A 
ATOM     67  C   UNL A   1      41.789  26.311  27.341  1.00  0.00     0.020 A 
ATOM     68  C   UNL A   1      41.420  24.982  27.202  1.00  0.00     0.054 A 
BRANCH  68  69
ATOM     69  S   UNL A   1      42.550  23.802  26.430  1.00  0.00     0.124 S 
ATOM     70  O   UNL A   1      41.758  22.576  26.444  1.00  0.00    -0.237 OA
ATOM     71  O   UNL A   1      42.770  24.402  25.116  1.00  0.00    -0.237 OA
ATOM     72  O   UNL A   1      43.711  23.810  27.317  1.00  0.00    -0.744 OA
ENDBRANCH  68  69
ENDBRANCH  49  63
BRANCH  50  73
ATOM     73  C   UNL A   1      43.603  34.338  29.309  1.00  0.00    -0.014 A 
ATOM     74  C   UNL A   1      44.837  34.715  29.877  1.00  0.00     0.010 A 
ATOM     75  C   UNL A   1      43.444  34.525  27.921  1.00  0.00     0.010 A 
ATOM     76  C   UNL A   1      45.895  35.189  29.075  1.00  0.00     0.020 A 
ATOM     77  C   UNL A   1      44.491  35.000  27.117  1.00  0.00     0.020 A 
ATOM     78  C   UNL A   1      45.723  35.303  27.694  1.00  0.00     0.054 A 
BRANCH  78  79
ATOM     79  S   UNL A   1      47.149  35.719  26.641  1.00  0.00     0.124 S 
ATOM     80  O   UNL A   1      46.694  36.929  25.961  1.00  0.00    -0.237 OA
ATOM     81  O   UNL A   1      48.221  35.908  27.614  1.00  0.00    -0.237 OA
ATOM     82  O   UNL A   1      47.298  34.546  25.782  1.00  0.00    -0.744 OA
ENDBRANCH  78  79
ENDBRANCH  50  73
BRANCH  62  83
ATOM     83  C   UNL A   1      41.292  30.693  33.883  1.00  0.00    -0.014 A 
ATOM     84  C   UNL A   1      42.075  30.440  35.028  1.00  0.00     0.010 A 
ATOM     85  C   UNL A   1      40.404  31.783  33.916  1.00  0.00     0.010 A 
ATOM     86  C   UNL A   1      41.927  31.217  36.190  1.00  0.00     0.020 A 
ATOM     87  C   UNL A   1      40.267  32.573  35.059  1.00  0.00     0.020 A 
ATOM     88  C   UNL A   1      41.011  32.273  36.200  1.00  0.00     0.054 A 
BRANCH  88  89
ATOM     89  S   UNL A   1      40.790  33.257  37.708  1.00  0.00     0.124 S 
ATOM     90  O   UNL A   1      41.560  34.463  37.417  1.00  0.00    -0.237 OA
ATOM     91  O   UNL A   1      39.342  33.435  37.773  1.00  0.00    -0.237 OA
ATOM     92  O   UNL A   1      41.348  32.410  38.762  1.00  0.00    -0.744 OA
ENDBRANCH  88  89
ENDBRANCH  62  83
ENDBRANCH  36  37
ENDBRANCH  28  31
ENDBRANCH  26  27
ENDBRANCH  25  26
ENDBRANCH   1  25
TORSDOF 18
ENDMDL
