MODEL 1
REMARK VINA RESULT:     -11.0      0.000      0.000
REMARK SMILES CO[C@@H]1C[C@H](C(=O)NCCCNC(=O)c2ccc(-c3c4nc(c(-c5ccc(S(=O)(=O)[O-])cc5)c5ccc([nH]5)c(-c5ccc(S(=O)(=O)[O-])cc5)c5nc(c(-c6ccc(S(=O)(=O)[O-])cc6)c6ccc3[nH]6)C=C5)C=C4)cc2)N(C(=O)c2ccn(C)c(=O)c2)C1
REMARK SMILES IDX 10 1 9 2 8 3 6 4 7 5 5 7 3 8 4 9 86 10 75 11 2 12 1 13 76 14
REMARK SMILES IDX 77 15 78 16 79 17 85 18 80 19 83 20 81 21 84 22 82 23 11 24
REMARK SMILES IDX 12 25 13 26 14 28 15 29 16 30 74 31 17 32 73 33 18 34 19 35
REMARK SMILES IDX 20 36 67 37 21 38 72 39 66 40 68 41 22 42 71 43 65 44 64 45
REMARK SMILES IDX 23 47 53 48 34 49 52 50 35 51 38 52 51 53 69 54 36 55 37 56
REMARK SMILES IDX 50 58 70 59 39 60 24 61 25 62 33 63 26 64 32 65 27 66 28 67
REMARK SMILES IDX 29 68 30 69 31 70 54 71 55 72 63 73 56 74 62 75 57 76 58 77
REMARK SMILES IDX 59 78 60 79 61 80 40 81 41 82 49 83 42 84 48 85 43 86 44 87
REMARK SMILES IDX 45 88 46 89 47 90
REMARK H PARENT 8 6 12 27 68 46 38 57
REMARK Flexibility Score: inf
ROOT
ATOM      1  C   UNL A   1      33.995  27.740  26.079  1.00  0.00     0.042 C 
ENDROOT
BRANCH   1   2
ATOM      2  C   UNL A   1      33.357  26.492  25.464  1.00  0.00     0.117 C 
BRANCH   2   3
ATOM      3  N   UNL A   1      32.080  26.185  26.087  1.00  0.00    -0.354 N 
ATOM      4  C   UNL A   1      31.119  25.259  25.854  1.00  0.00     0.242 C 
ATOM      5  O   UNL A   1      30.065  25.431  26.488  1.00  0.00    -0.273 OA
ATOM      6  H   UNL A   1      31.868  26.778  26.843  1.00  0.00     0.163 HD
BRANCH   4   7
ATOM      7  C   UNL A   1      31.166  24.099  24.826  1.00  0.00     0.177 C 
ATOM      8  C   UNL A   1      31.686  24.806  22.587  1.00  0.00     0.139 C 
ATOM      9  C   UNL A   1      30.512  24.435  23.489  1.00  0.00     0.069 C 
ATOM     10  C   UNL A   1      32.827  23.904  23.094  1.00  0.00     0.152 C 
ATOM     11  N   UNL A   1      32.426  23.473  24.432  1.00  0.00    -0.324 N 
BRANCH   8  12
ATOM     12  O   UNL A   1      32.050  26.177  22.706  1.00  0.00    -0.380 OA
ATOM     13  C   UNL A   1      30.962  27.079  22.512  1.00  0.00     0.195 C 
ENDBRANCH   8  12
BRANCH  11  14
ATOM     14  C   UNL A   1      33.003  22.347  24.991  1.00  0.00     0.254 C 
ATOM     15  O   UNL A   1      32.358  21.410  25.449  1.00  0.00    -0.269 OA
BRANCH  14  16
ATOM     16  C   UNL A   1      34.484  22.377  25.156  1.00  0.00     0.046 A 
ATOM     17  C   UNL A   1      35.190  23.559  25.577  1.00  0.00     0.032 A 
ATOM     18  C   UNL A   1      35.145  21.241  24.880  1.00  0.00     0.085 A 
ATOM     19  C   UNL A   1      36.508  23.490  25.809  1.00  0.00     0.089 A 
ATOM     20  C   UNL A   1      36.598  21.147  25.153  1.00  0.00     0.251 A 
ATOM     21  N   UNL A   1      37.205  22.304  25.638  1.00  0.00    -0.319 N 
ATOM     22  O   UNL A   1      37.167  20.075  24.965  1.00  0.00    -0.269 OA
ATOM     23  C   UNL A   1      38.621  22.269  25.967  1.00  0.00     0.153 C 
ENDBRANCH  14  16
ENDBRANCH  11  14
ENDBRANCH   4   7
ENDBRANCH   2   3
ENDBRANCH   1   2
BRANCH   1  24
ATOM     24  C   UNL A   1      33.332  28.230  27.362  1.00  0.00     0.118 C 
BRANCH  24  25
ATOM     25  N   UNL A   1      33.307  29.681  27.461  1.00  0.00    -0.352 N 
ATOM     26  C   UNL A   1      34.250  30.563  27.936  1.00  0.00     0.251 C 
ATOM     27  H   UNL A   1      32.479  30.100  27.135  1.00  0.00     0.163 HD
ATOM     28  O   UNL A   1      33.926  31.737  28.102  1.00  0.00    -0.269 OA
BRANCH  26  29
ATOM     29  C   UNL A   1      35.633  30.132  28.267  1.00  0.00     0.039 A 
ATOM     30  C   UNL A   1      36.599  30.145  27.254  1.00  0.00     0.014 A 
ATOM     31  C   UNL A   1      35.981  29.656  29.533  1.00  0.00     0.014 A 
ATOM     32  C   UNL A   1      37.913  29.740  27.525  1.00  0.00     0.010 A 
ATOM     33  C   UNL A   1      37.308  29.336  29.825  1.00  0.00     0.010 A 
ATOM     34  C   UNL A   1      38.289  29.362  28.823  1.00  0.00    -0.014 A 
BRANCH  34  35
ATOM     35  C   UNL A   1      39.692  28.975  29.147  1.00  0.00     0.031 A 
ATOM     36  C   UNL A   1      40.626  29.969  29.793  1.00  0.00     0.074 A 
ATOM     37  C   UNL A   1      40.151  27.754  28.806  1.00  0.00     0.049 A 
ATOM     38  N   UNL A   1      41.899  29.845  30.073  1.00  0.00    -0.248 NA
ATOM     39  C   UNL A   1      40.062  31.282  30.144  1.00  0.00     0.031 C 
ATOM     40  C   UNL A   1      39.368  26.707  28.145  1.00  0.00     0.029 A 
ATOM     41  N   UNL A   1      41.393  27.187  28.964  1.00  0.00    -0.354 N 
ATOM     42  C   UNL A   1      42.292  31.070  30.604  1.00  0.00     0.074 A 
ATOM     43  C   UNL A   1      41.134  31.936  30.565  1.00  0.00     0.031 C 
ATOM     44  C   UNL A   1      40.139  25.620  27.977  1.00  0.00     0.029 A 
ATOM     45  C   UNL A   1      41.480  25.902  28.479  1.00  0.00     0.049 A 
ATOM     46  H   UNL A   1      42.149  27.655  29.384  1.00  0.00     0.167 HD
ATOM     47  C   UNL A   1      43.500  31.437  31.096  1.00  0.00     0.031 A 
ATOM     48  C   UNL A   1      42.522  25.048  28.432  1.00  0.00     0.031 A 
ATOM     49  C   UNL A   1      44.646  30.569  31.160  1.00  0.00     0.049 A 
ATOM     50  C   UNL A   1      43.851  25.474  28.992  1.00  0.00     0.074 A 
ATOM     51  C   UNL A   1      45.894  30.831  31.697  1.00  0.00     0.029 A 
ATOM     52  N   UNL A   1      44.684  29.271  30.675  1.00  0.00    -0.354 N 
ATOM     53  N   UNL A   1      44.185  26.619  29.537  1.00  0.00    -0.248 NA
ATOM     54  C   UNL A   1      44.940  24.488  28.940  1.00  0.00     0.031 C 
ATOM     55  C   UNL A   1      46.702  29.705  31.498  1.00  0.00     0.029 A 
ATOM     56  C   UNL A   1      45.939  28.725  30.884  1.00  0.00     0.049 A 
ATOM     57  H   UNL A   1      43.930  28.806  30.246  1.00  0.00     0.167 HD
ATOM     58  C   UNL A   1      45.516  26.483  29.916  1.00  0.00     0.074 A 
ATOM     59  C   UNL A   1      45.921  25.140  29.549  1.00  0.00     0.031 C 
ATOM     60  C   UNL A   1      46.330  27.388  30.514  1.00  0.00     0.031 A 
BRANCH  47  61
ATOM     61  C   UNL A   1      43.645  32.850  31.603  1.00  0.00    -0.014 A 
ATOM     62  C   UNL A   1      43.342  33.179  32.938  1.00  0.00     0.010 A 
ATOM     63  C   UNL A   1      44.120  33.857  30.743  1.00  0.00     0.010 A 
ATOM     64  C   UNL A   1      43.465  34.495  33.388  1.00  0.00     0.020 A 
ATOM     65  C   UNL A   1      44.271  35.170  31.198  1.00  0.00     0.020 A 
ATOM     66  C   UNL A   1      43.923  35.485  32.513  1.00  0.00     0.054 A 
BRANCH  66  67
ATOM     67  S   UNL A   1      44.083  37.185  33.127  1.00  0.00     0.124 S 
ATOM     68  O   UNL A   1      45.432  37.176  33.687  1.00  0.00    -0.237 OA
ATOM     69  O   UNL A   1      43.914  37.981  31.914  1.00  0.00    -0.237 OA
ATOM     70  O   UNL A   1      43.004  37.305  34.103  1.00  0.00    -0.744 OA
ENDBRANCH  66  67
ENDBRANCH  47  61
BRANCH  48  71
ATOM     71  C   UNL A   1      42.341  23.692  27.844  1.00  0.00    -0.014 A 
ATOM     72  C   UNL A   1      42.821  23.404  26.555  1.00  0.00     0.010 A 
ATOM     73  C   UNL A   1      41.708  22.674  28.581  1.00  0.00     0.010 A 
ATOM     74  C   UNL A   1      42.660  22.129  26.006  1.00  0.00     0.020 A 
ATOM     75  C   UNL A   1      41.567  21.390  28.046  1.00  0.00     0.020 A 
ATOM     76  C   UNL A   1      42.037  21.128  26.757  1.00  0.00     0.054 A 
BRANCH  76  77
ATOM     77  S   UNL A   1      41.894  19.462  26.051  1.00  0.00     0.124 S 
ATOM     78  O   UNL A   1      42.715  19.570  24.850  1.00  0.00    -0.237 OA
ATOM     79  O   UNL A   1      42.434  18.621  27.116  1.00  0.00    -0.237 OA
ATOM     80  O   UNL A   1      40.459  19.314  25.818  1.00  0.00    -0.744 OA
ENDBRANCH  76  77
ENDBRANCH  48  71
BRANCH  60  81
ATOM     81  C   UNL A   1      47.732  26.950  30.842  1.00  0.00    -0.014 A 
ATOM     82  C   UNL A   1      48.792  27.170  29.946  1.00  0.00     0.010 A 
ATOM     83  C   UNL A   1      47.999  26.361  32.091  1.00  0.00     0.010 A 
ATOM     84  C   UNL A   1      50.092  26.782  30.282  1.00  0.00     0.020 A 
ATOM     85  C   UNL A   1      49.301  25.993  32.440  1.00  0.00     0.020 A 
ATOM     86  C   UNL A   1      50.338  26.194  31.526  1.00  0.00     0.054 A 
BRANCH  86  87
ATOM     87  S   UNL A   1      52.041  25.740  31.958  1.00  0.00     0.124 S 
ATOM     88  O   UNL A   1      52.767  26.105  30.744  1.00  0.00    -0.237 OA
ATOM     89  O   UNL A   1      52.310  26.573  33.126  1.00  0.00    -0.237 OA
ATOM     90  O   UNL A   1      51.959  24.307  32.228  1.00  0.00    -0.744 OA
ENDBRANCH  86  87
ENDBRANCH  60  81
ENDBRANCH  34  35
ENDBRANCH  26  29
ENDBRANCH  24  25
ENDBRANCH   1  24
TORSDOF 16
ENDMDL
MODEL 2
REMARK VINA RESULT:     -10.8      1.191      3.343
REMARK SMILES CO[C@@H]1C[C@H](C(=O)NCCCNC(=O)c2ccc(-c3c4nc(c(-c5ccc(S(=O)(=O)[O-])cc5)c5ccc([nH]5)c(-c5ccc(S(=O)(=O)[O-])cc5)c5nc(c(-c6ccc(S(=O)(=O)[O-])cc6)c6ccc3[nH]6)C=C5)C=C4)cc2)N(C(=O)c2ccn(C)c(=O)c2)C1
REMARK SMILES IDX 10 1 9 2 8 3 6 4 7 5 5 7 3 8 4 9 86 10 75 11 2 12 1 13 76 14
REMARK SMILES IDX 77 15 78 16 79 17 85 18 80 19 83 20 81 21 84 22 82 23 11 24
REMARK SMILES IDX 12 25 13 26 14 28 15 29 16 30 74 31 17 32 73 33 18 34 19 35
REMARK SMILES IDX 20 36 67 37 21 38 72 39 66 40 68 41 22 42 71 43 65 44 64 45
REMARK SMILES IDX 23 47 53 48 34 49 52 50 35 51 38 52 51 53 69 54 36 55 37 56
REMARK SMILES IDX 50 58 70 59 39 60 24 61 25 62 33 63 26 64 32 65 27 66 28 67
REMARK SMILES IDX 29 68 30 69 31 70 54 71 55 72 63 73 56 74 62 75 57 76 58 77
REMARK SMILES IDX 59 78 60 79 61 80 40 81 41 82 49 83 42 84 48 85 43 86 44 87
REMARK SMILES IDX 45 88 46 89 47 90
REMARK H PARENT 8 6 12 27 68 46 38 57
REMARK Flexibility Score: inf
ROOT
ATOM      1  C   UNL A   1      32.557  27.271  26.088  1.00  0.00     0.042 C 
ENDROOT
BRANCH   1   2
ATOM      2  C   UNL A   1      32.690  25.747  26.028  1.00  0.00     0.117 C 
BRANCH   2   3
ATOM      3  N   UNL A   1      34.078  25.340  25.884  1.00  0.00    -0.354 N 
ATOM      4  C   UNL A   1      34.749  24.590  24.976  1.00  0.00     0.242 C 
ATOM      5  O   UNL A   1      35.914  24.303  25.296  1.00  0.00    -0.273 OA
ATOM      6  H   UNL A   1      34.657  25.685  26.601  1.00  0.00     0.163 HD
BRANCH   4   7
ATOM      7  C   UNL A   1      34.187  23.986  23.663  1.00  0.00     0.177 C 
ATOM      8  C   UNL A   1      32.542  22.266  24.009  1.00  0.00     0.139 C 
ATOM      9  C   UNL A   1      34.024  22.470  23.704  1.00  0.00     0.069 C 
ATOM     10  C   UNL A   1      31.865  23.460  23.310  1.00  0.00     0.152 C 
ATOM     11  N   UNL A   1      32.925  24.442  23.087  1.00  0.00    -0.324 N 
BRANCH   8  12
ATOM     12  O   UNL A   1      32.268  22.292  25.407  1.00  0.00    -0.380 OA
ATOM     13  C   UNL A   1      30.892  22.500  25.719  1.00  0.00     0.195 C 
ENDBRANCH   8  12
BRANCH  11  14
ATOM     14  C   UNL A   1      32.757  25.425  22.129  1.00  0.00     0.254 C 
ATOM     15  O   UNL A   1      33.300  25.400  21.028  1.00  0.00    -0.269 OA
BRANCH  14  16
ATOM     16  C   UNL A   1      31.985  26.629  22.547  1.00  0.00     0.046 A 
ATOM     17  C   UNL A   1      32.570  27.944  22.592  1.00  0.00     0.032 A 
ATOM     18  C   UNL A   1      30.704  26.432  22.897  1.00  0.00     0.085 A 
ATOM     19  C   UNL A   1      31.794  28.999  22.874  1.00  0.00     0.089 A 
ATOM     20  C   UNL A   1      29.830  27.594  23.189  1.00  0.00     0.251 A 
ATOM     21  N   UNL A   1      30.441  28.846  23.135  1.00  0.00    -0.319 N 
ATOM     22  O   UNL A   1      28.643  27.395  23.432  1.00  0.00    -0.269 OA
ATOM     23  C   UNL A   1      29.633  30.031  23.370  1.00  0.00     0.153 C 
ENDBRANCH  14  16
ENDBRANCH  11  14
ENDBRANCH   4   7
ENDBRANCH   2   3
ENDBRANCH   1   2
BRANCH   1  24
ATOM     24  C   UNL A   1      33.839  28.011  26.453  1.00  0.00     0.118 C 
BRANCH  24  25
ATOM     25  N   UNL A   1      33.594  29.375  26.891  1.00  0.00    -0.352 N 
ATOM     26  C   UNL A   1      34.363  30.224  27.653  1.00  0.00     0.251 C 
ATOM     27  H   UNL A   1      32.736  29.753  26.593  1.00  0.00     0.163 HD
ATOM     28  O   UNL A   1      33.860  31.269  28.060  1.00  0.00    -0.269 OA
BRANCH  26  29
ATOM     29  C   UNL A   1      35.769  29.903  28.009  1.00  0.00     0.039 A 
ATOM     30  C   UNL A   1      36.048  29.462  29.308  1.00  0.00     0.014 A 
ATOM     31  C   UNL A   1      36.825  30.089  27.113  1.00  0.00     0.014 A 
ATOM     32  C   UNL A   1      37.363  29.155  29.684  1.00  0.00     0.010 A 
ATOM     33  C   UNL A   1      38.120  29.701  27.460  1.00  0.00     0.010 A 
ATOM     34  C   UNL A   1      38.410  29.241  28.753  1.00  0.00    -0.014 A 
BRANCH  34  35
ATOM     35  C   UNL A   1      39.808  28.873  29.115  1.00  0.00     0.031 A 
ATOM     36  C   UNL A   1      40.706  29.875  29.796  1.00  0.00     0.074 A 
ATOM     37  C   UNL A   1      40.295  27.662  28.779  1.00  0.00     0.049 A 
ATOM     38  N   UNL A   1      41.973  29.768  30.113  1.00  0.00    -0.248 NA
ATOM     39  C   UNL A   1      40.112  31.177  30.141  1.00  0.00     0.031 C 
ATOM     40  C   UNL A   1      39.549  26.609  28.086  1.00  0.00     0.029 A 
ATOM     41  N   UNL A   1      41.540  27.112  28.969  1.00  0.00    -0.354 N 
ATOM     42  C   UNL A   1      42.331  30.995  30.665  1.00  0.00     0.074 A 
ATOM     43  C   UNL A   1      41.161  31.843  30.598  1.00  0.00     0.031 C 
ATOM     44  C   UNL A   1      40.340  25.535  27.934  1.00  0.00     0.029 A 
ATOM     45  C   UNL A   1      41.662  25.833  28.477  1.00  0.00     0.049 A 
ATOM     46  H   UNL A   1      42.276  27.588  29.416  1.00  0.00     0.167 HD
ATOM     47  C   UNL A   1      43.518  31.376  31.196  1.00  0.00     0.031 A 
ATOM     48  C   UNL A   1      42.717  24.995  28.455  1.00  0.00     0.031 A 
ATOM     49  C   UNL A   1      44.674  30.525  31.288  1.00  0.00     0.049 A 
ATOM     50  C   UNL A   1      44.023  25.436  29.058  1.00  0.00     0.074 A 
ATOM     51  C   UNL A   1      45.902  30.801  31.864  1.00  0.00     0.029 A 
ATOM     52  N   UNL A   1      44.746  29.231  30.794  1.00  0.00    -0.354 N 
ATOM     53  N   UNL A   1      44.323  26.582  29.621  1.00  0.00    -0.248 NA
ATOM     54  C   UNL A   1      45.128  24.467  29.031  1.00  0.00     0.031 C 
ATOM     55  C   UNL A   1      46.732  29.689  31.681  1.00  0.00     0.029 A 
ATOM     56  C   UNL A   1      46.003  28.702  31.036  1.00  0.00     0.049 A 
ATOM     57  H   UNL A   1      44.013  28.758  30.339  1.00  0.00     0.167 HD
ATOM     58  C   UNL A   1      45.644  26.462  30.039  1.00  0.00     0.074 A 
ATOM     59  C   UNL A   1      46.079  25.129  29.675  1.00  0.00     0.031 C 
ATOM     60  C   UNL A   1      46.425  27.374  30.669  1.00  0.00     0.031 A 
BRANCH  47  61
ATOM     61  C   UNL A   1      43.626  32.786  31.718  1.00  0.00    -0.014 A 
ATOM     62  C   UNL A   1      44.086  33.833  30.899  1.00  0.00     0.010 A 
ATOM     63  C   UNL A   1      43.233  33.076  33.038  1.00  0.00     0.010 A 
ATOM     64  C   UNL A   1      44.197  35.131  31.402  1.00  0.00     0.020 A 
ATOM     65  C   UNL A   1      43.315  34.379  33.538  1.00  0.00     0.020 A 
ATOM     66  C   UNL A   1      43.816  35.395  32.721  1.00  0.00     0.054 A 
BRANCH  66  67
ATOM     67  S   UNL A   1      43.961  37.092  33.348  1.00  0.00     0.124 S 
ATOM     68  O   UNL A   1      42.792  37.191  34.220  1.00  0.00    -0.237 OA
ATOM     69  O   UNL A   1      45.252  37.073  34.030  1.00  0.00    -0.237 OA
ATOM     70  O   UNL A   1      43.908  37.913  32.142  1.00  0.00    -0.744 OA
ENDBRANCH  66  67
ENDBRANCH  47  61
BRANCH  48  71
ATOM     71  C   UNL A   1      42.575  23.641  27.852  1.00  0.00    -0.014 A 
ATOM     72  C   UNL A   1      43.052  23.385  26.555  1.00  0.00     0.010 A 
ATOM     73  C   UNL A   1      41.981  22.594  28.581  1.00  0.00     0.010 A 
ATOM     74  C   UNL A   1      42.927  22.112  25.991  1.00  0.00     0.020 A 
ATOM     75  C   UNL A   1      41.877  21.313  28.031  1.00  0.00     0.020 A 
ATOM     76  C   UNL A   1      42.343  21.082  26.735  1.00  0.00     0.054 A 
BRANCH  76  77
ATOM     77  S   UNL A   1      42.247  19.422  26.009  1.00  0.00     0.124 S 
ATOM     78  O   UNL A   1      43.100  19.555  24.832  1.00  0.00    -0.237 OA
ATOM     79  O   UNL A   1      42.772  18.578  27.080  1.00  0.00    -0.237 OA
ATOM     80  O   UNL A   1      40.822  19.252  25.736  1.00  0.00    -0.744 OA
ENDBRANCH  76  77
ENDBRANCH  48  71
BRANCH  60  81
ATOM     81  C   UNL A   1      47.823  26.956  31.034  1.00  0.00    -0.014 A 
ATOM     82  C   UNL A   1      48.098  26.325  32.260  1.00  0.00     0.010 A 
ATOM     83  C   UNL A   1      48.867  27.147  30.111  1.00  0.00     0.010 A 
ATOM     84  C   UNL A   1      49.399  25.918  32.568  1.00  0.00     0.020 A 
ATOM     85  C   UNL A   1      50.165  26.719  30.405  1.00  0.00     0.020 A 
ATOM     86  C   UNL A   1      50.425  26.120  31.639  1.00  0.00     0.054 A 
BRANCH  86  87
ATOM     87  S   UNL A   1      52.096  25.542  32.043  1.00  0.00     0.124 S 
ATOM     88  O   UNL A   1      52.399  26.310  33.248  1.00  0.00    -0.237 OA
ATOM     89  O   UNL A   1      51.902  24.109  32.244  1.00  0.00    -0.237 OA
ATOM     90  O   UNL A   1      52.880  25.899  30.863  1.00  0.00    -0.744 OA
ENDBRANCH  86  87
ENDBRANCH  60  81
ENDBRANCH  34  35
ENDBRANCH  26  29
ENDBRANCH  24  25
ENDBRANCH   1  24
TORSDOF 16
ENDMDL
MODEL 3
REMARK VINA RESULT:     -10.7      1.723      2.759
REMARK SMILES CO[C@@H]1C[C@H](C(=O)NCCCNC(=O)c2ccc(-c3c4nc(c(-c5ccc(S(=O)(=O)[O-])cc5)c5ccc([nH]5)c(-c5ccc(S(=O)(=O)[O-])cc5)c5nc(c(-c6ccc(S(=O)(=O)[O-])cc6)c6ccc3[nH]6)C=C5)C=C4)cc2)N(C(=O)c2ccn(C)c(=O)c2)C1
REMARK SMILES IDX 10 1 9 2 8 3 6 4 7 5 5 7 3 8 4 9 86 10 75 11 2 12 1 13 76 14
REMARK SMILES IDX 77 15 78 16 79 17 85 18 80 19 83 20 81 21 84 22 82 23 11 24
REMARK SMILES IDX 12 25 13 26 14 28 15 29 16 30 74 31 17 32 73 33 18 34 19 35
REMARK SMILES IDX 20 36 67 37 21 38 72 39 66 40 68 41 22 42 71 43 65 44 64 45
REMARK SMILES IDX 23 47 53 48 34 49 52 50 35 51 38 52 51 53 69 54 36 55 37 56
REMARK SMILES IDX 50 58 70 59 39 60 24 61 25 62 33 63 26 64 32 65 27 66 28 67
REMARK SMILES IDX 29 68 30 69 31 70 54 71 55 72 63 73 56 74 62 75 57 76 58 77
REMARK SMILES IDX 59 78 60 79 61 80 40 81 41 82 49 83 42 84 48 85 43 86 44 87
REMARK SMILES IDX 45 88 46 89 47 90
REMARK H PARENT 8 6 12 27 68 46 38 57
REMARK Flexibility Score: inf
ROOT
ATOM      1  C   UNL A   1      33.378  27.721  25.053  1.00  0.00     0.042 C 
ENDROOT
BRANCH   1   2
ATOM      2  C   UNL A   1      33.724  26.322  24.538  1.00  0.00     0.117 C 
BRANCH   2   3
ATOM      3  N   UNL A   1      33.811  25.361  25.625  1.00  0.00    -0.354 N 
ATOM      4  C   UNL A   1      34.029  24.025  25.685  1.00  0.00     0.242 C 
ATOM      5  O   UNL A   1      33.842  23.516  26.802  1.00  0.00    -0.273 OA
ATOM      6  H   UNL A   1      33.684  25.770  26.512  1.00  0.00     0.163 HD
BRANCH   4   7
ATOM      7  C   UNL A   1      34.379  23.081  24.506  1.00  0.00     0.177 C 
ATOM      8  C   UNL A   1      36.561  22.084  24.674  1.00  0.00     0.139 C 
ATOM      9  C   UNL A   1      35.811  23.232  24.002  1.00  0.00     0.069 C 
ATOM     10  C   UNL A   1      35.504  20.968  24.763  1.00  0.00     0.152 C 
ATOM     11  N   UNL A   1      34.211  21.634  24.605  1.00  0.00    -0.324 N 
BRANCH   8  12
ATOM     12  O   UNL A   1      37.027  22.429  25.975  1.00  0.00    -0.380 OA
ATOM     13  C   UNL A   1      37.887  23.567  25.995  1.00  0.00     0.195 C 
ENDBRANCH   8  12
BRANCH  11  14
ATOM     14  C   UNL A   1      33.105  20.898  24.222  1.00  0.00     0.254 C 
ATOM     15  O   UNL A   1      32.084  21.399  23.760  1.00  0.00    -0.269 OA
BRANCH  14  16
ATOM     16  C   UNL A   1      33.139  19.442  24.536  1.00  0.00     0.046 A 
ATOM     17  C   UNL A   1      32.738  18.918  25.815  1.00  0.00     0.032 A 
ATOM     18  C   UNL A   1      33.578  18.626  23.564  1.00  0.00     0.085 A 
ATOM     19  C   UNL A   1      32.691  17.592  25.997  1.00  0.00     0.089 A 
ATOM     20  C   UNL A   1      33.510  17.156  23.746  1.00  0.00     0.251 A 
ATOM     21  N   UNL A   1      33.035  16.715  24.980  1.00  0.00    -0.319 N 
ATOM     22  O   UNL A   1      33.845  16.429  22.815  1.00  0.00    -0.269 OA
ATOM     23  C   UNL A   1      32.902  15.285  25.210  1.00  0.00     0.153 C 
ENDBRANCH  14  16
ENDBRANCH  11  14
ENDBRANCH   4   7
ENDBRANCH   2   3
ENDBRANCH   1   2
BRANCH   1  24
ATOM     24  C   UNL A   1      33.833  28.009  26.479  1.00  0.00     0.118 C 
BRANCH  24  25
ATOM     25  N   UNL A   1      33.600  29.388  26.875  1.00  0.00    -0.352 N 
ATOM     26  C   UNL A   1      34.361  30.242  27.639  1.00  0.00     0.251 C 
ATOM     27  H   UNL A   1      32.758  29.773  26.542  1.00  0.00     0.163 HD
ATOM     28  O   UNL A   1      33.864  31.306  28.005  1.00  0.00    -0.269 OA
BRANCH  26  29
ATOM     29  C   UNL A   1      35.750  29.907  28.045  1.00  0.00     0.039 A 
ATOM     30  C   UNL A   1      35.975  29.445  29.347  1.00  0.00     0.014 A 
ATOM     31  C   UNL A   1      36.841  30.098  27.194  1.00  0.00     0.014 A 
ATOM     32  C   UNL A   1      37.271  29.123  29.770  1.00  0.00     0.010 A 
ATOM     33  C   UNL A   1      38.119  29.696  27.585  1.00  0.00     0.010 A 
ATOM     34  C   UNL A   1      38.355  29.215  28.882  1.00  0.00    -0.014 A 
BRANCH  34  35
ATOM     35  C   UNL A   1      39.735  28.832  29.293  1.00  0.00     0.031 A 
ATOM     36  C   UNL A   1      40.598  29.804  30.059  1.00  0.00     0.074 A 
ATOM     37  C   UNL A   1      40.240  27.636  28.929  1.00  0.00     0.049 A 
ATOM     38  N   UNL A   1      41.849  29.684  30.430  1.00  0.00    -0.248 NA
ATOM     39  C   UNL A   1      39.986  31.090  30.430  1.00  0.00     0.031 C 
ATOM     40  C   UNL A   1      39.530  26.614  28.157  1.00  0.00     0.029 A 
ATOM     41  N   UNL A   1      41.476  27.080  29.154  1.00  0.00    -0.354 N 
ATOM     42  C   UNL A   1      42.178  30.886  31.050  1.00  0.00     0.074 A 
ATOM     43  C   UNL A   1      41.011  31.736  30.965  1.00  0.00     0.031 C 
ATOM     44  C   UNL A   1      40.330  25.548  27.996  1.00  0.00     0.029 A 
ATOM     45  C   UNL A   1      41.624  25.822  28.613  1.00  0.00     0.049 A 
ATOM     46  H   UNL A   1      42.189  27.536  29.655  1.00  0.00     0.167 HD
ATOM     47  C   UNL A   1      43.338  31.244  31.652  1.00  0.00     0.031 A 
ATOM     48  C   UNL A   1      42.681  24.986  28.605  1.00  0.00     0.031 A 
ATOM     49  C   UNL A   1      44.490  30.390  31.762  1.00  0.00     0.049 A 
ATOM     50  C   UNL A   1      43.955  25.401  29.287  1.00  0.00     0.074 A 
ATOM     51  C   UNL A   1      45.689  30.641  32.406  1.00  0.00     0.029 A 
ATOM     52  N   UNL A   1      44.588  29.119  31.217  1.00  0.00    -0.354 N 
ATOM     53  N   UNL A   1      44.226  26.522  29.912  1.00  0.00    -0.248 NA
ATOM     54  C   UNL A   1      45.063  24.435  29.270  1.00  0.00     0.031 C 
ATOM     55  C   UNL A   1      46.529  29.538  32.214  1.00  0.00     0.029 A 
ATOM     56  C   UNL A   1      45.834  28.580  31.495  1.00  0.00     0.049 A 
ATOM     57  H   UNL A   1      43.878  28.666  30.708  1.00  0.00     0.167 HD
ATOM     58  C   UNL A   1      45.526  26.385  30.386  1.00  0.00     0.074 A 
ATOM     59  C   UNL A   1      45.982  25.069  29.986  1.00  0.00     0.031 C 
ATOM     60  C   UNL A   1      46.275  27.269  31.091  1.00  0.00     0.031 A 
BRANCH  47  61
ATOM     61  C   UNL A   1      43.418  32.630  32.239  1.00  0.00    -0.014 A 
ATOM     62  C   UNL A   1      43.093  32.871  33.587  1.00  0.00     0.010 A 
ATOM     63  C   UNL A   1      43.854  33.704  31.441  1.00  0.00     0.010 A 
ATOM     64  C   UNL A   1      43.155  34.164  34.112  1.00  0.00     0.020 A 
ATOM     65  C   UNL A   1      43.946  34.995  31.970  1.00  0.00     0.020 A 
ATOM     66  C   UNL A   1      43.576  35.220  33.298  1.00  0.00     0.054 A 
BRANCH  66  67
ATOM     67  S   UNL A   1      43.658  36.888  34.007  1.00  0.00     0.124 S 
ATOM     68  O   UNL A   1      44.137  37.673  32.871  1.00  0.00    -0.237 OA
ATOM     69  O   UNL A   1      42.274  37.137  34.401  1.00  0.00    -0.237 OA
ATOM     70  O   UNL A   1      44.603  36.750  35.111  1.00  0.00    -0.744 OA
ENDBRANCH  66  67
ENDBRANCH  47  61
BRANCH  48  71
ATOM     71  C   UNL A   1      42.570  23.660  27.938  1.00  0.00    -0.014 A 
ATOM     72  C   UNL A   1      42.849  23.526  26.567  1.00  0.00     0.010 A 
ATOM     73  C   UNL A   1      42.206  22.519  28.677  1.00  0.00     0.010 A 
ATOM     74  C   UNL A   1      42.754  22.278  25.943  1.00  0.00     0.020 A 
ATOM     75  C   UNL A   1      42.135  21.266  28.062  1.00  0.00     0.020 A 
ATOM     76  C   UNL A   1      42.401  21.155  26.695  1.00  0.00     0.054 A 
BRANCH  76  77
ATOM     77  S   UNL A   1      42.344  19.535  25.879  1.00  0.00     0.124 S 
ATOM     78  O   UNL A   1      42.689  18.632  26.973  1.00  0.00    -0.237 OA
ATOM     79  O   UNL A   1      40.963  19.465  25.410  1.00  0.00    -0.237 OA
ATOM     80  O   UNL A   1      43.347  19.651  24.823  1.00  0.00    -0.744 OA
ENDBRANCH  76  77
ENDBRANCH  48  71
BRANCH  60  81
ATOM     81  C   UNL A   1      47.656  26.835  31.503  1.00  0.00    -0.014 A 
ATOM     82  C   UNL A   1      47.882  26.202  32.738  1.00  0.00     0.010 A 
ATOM     83  C   UNL A   1      48.732  27.015  30.616  1.00  0.00     0.010 A 
ATOM     84  C   UNL A   1      49.168  25.781  33.089  1.00  0.00     0.020 A 
ATOM     85  C   UNL A   1      50.014  26.574  30.954  1.00  0.00     0.020 A 
ATOM     86  C   UNL A   1      50.226  25.971  32.195  1.00  0.00     0.054 A 
BRANCH  86  87
ATOM     87  S   UNL A   1      51.877  25.376  32.655  1.00  0.00     0.124 S 
ATOM     88  O   UNL A   1      52.744  26.326  31.964  1.00  0.00    -0.237 OA
ATOM     89  O   UNL A   1      51.863  25.482  34.111  1.00  0.00    -0.237 OA
ATOM     90  O   UNL A   1      51.909  24.010  32.136  1.00  0.00    -0.744 OA
ENDBRANCH  86  87
ENDBRANCH  60  81
ENDBRANCH  34  35
ENDBRANCH  26  29
ENDBRANCH  24  25
ENDBRANCH   1  24
TORSDOF 16
ENDMDL
