MODEL 1
REMARK VINA RESULT:      -9.9      0.000      0.000
REMARK SMILES Cc1nc(C[N@@H+]2CCC[C@H]2C(=O)NCCCNC(=O)c2ccc(-c3c4nc(c(-c5ccc(S(=O)(=O)[O-])cc5)c5ccc([nH]5)c(-c5ccc(S(=O)(=O)[O-])cc5)c5nc(c(-c6ccc(S(=O)(=O)[O-])cc6)c6ccc3[nH]6)C=C5)C=C4)cc2)cs1
REMARK SMILES IDX 15 1 14 2 13 3 11 4 12 5 10 7 6 8 7 9 8 11 9 12 5 13 4 14
REMARK SMILES IDX 1 15 2 16 3 17 81 18 80 19 16 20 17 21 18 22 19 24 20 25
REMARK SMILES IDX 21 26 79 27 22 28 78 29 23 30 24 31 25 32 72 33 26 34 77 35
REMARK SMILES IDX 71 36 73 37 27 38 76 39 70 40 69 41 28 43 58 44 39 45 57 46
REMARK SMILES IDX 40 47 43 48 56 49 74 50 41 51 42 52 55 54 75 55 44 56 29 57
REMARK SMILES IDX 30 58 38 59 31 60 37 61 32 62 33 63 34 64 35 65 36 66 59 67
REMARK SMILES IDX 60 68 68 69 61 70 67 71 62 72 63 73 64 74 65 75 66 76 45 77
REMARK SMILES IDX 46 78 54 79 47 80 53 81 48 82 49 83 50 84 51 85 52 86
REMARK H PARENT 13 6 6 10 17 23 73 42 43 53
REMARK Flexibility Score: inf
ROOT
ATOM      1  C   UNL A   1      35.784  23.638  26.005  1.00  0.00     0.042 C 
ENDROOT
BRANCH   1   2
ATOM      2  C   UNL A   1      34.504  23.053  25.421  1.00  0.00     0.118 C 
BRANCH   2   3
ATOM      3  N   UNL A   1      34.412  23.257  23.985  1.00  0.00    -0.351 N 
ATOM      4  C   UNL A   1      33.708  24.110  23.198  1.00  0.00     0.278 C 
ATOM      5  O   UNL A   1      33.866  23.948  21.979  1.00  0.00    -0.268 OA
ATOM      6  H   UNL A   1      34.985  22.642  23.471  1.00  0.00     0.163 HD
BRANCH   4   7
ATOM      7  C   UNL A   1      32.739  25.210  23.698  1.00  0.00     0.274 C 
ATOM      8  N   UNL A   1      33.382  26.269  24.483  1.00  0.00    -0.320 N 
ATOM      9  C   UNL A   1      33.641  27.400  23.606  1.00  0.00     0.263 C 
ATOM     10  H   UNL A   1      34.288  25.942  24.821  1.00  0.00     0.349 HD
ATOM     11  C   UNL A   1      32.538  27.376  22.571  1.00  0.00     0.068 C 
ATOM     12  C   UNL A   1      32.118  25.917  22.482  1.00  0.00     0.081 C 
BRANCH   8  13
ATOM     13  C   UNL A   1      32.749  26.555  25.774  1.00  0.00     0.321 C 
BRANCH  13  14
ATOM     14  C   UNL A   1      32.681  28.009  26.142  1.00  0.00     0.106 A 
ATOM     15  C   UNL A   1      34.518  30.829  27.564  1.00  0.00     0.079 C 
ATOM     16  C   UNL A   1      33.543  29.884  26.957  1.00  0.00     0.090 A 
ATOM     17  N   UNL A   1      33.761  28.598  26.788  1.00  0.00    -0.241 NA
ATOM     18  S   UNL A   1      32.012  30.450  26.422  1.00  0.00    -0.127 S 
ATOM     19  C   UNL A   1      31.646  28.880  25.853  1.00  0.00     0.096 A 
ENDBRANCH  13  14
ENDBRANCH   8  13
ENDBRANCH   4   7
ENDBRANCH   2   3
ENDBRANCH   1   2
BRANCH   1  20
ATOM     20  C   UNL A   1      36.960  23.628  25.032  1.00  0.00     0.118 C 
BRANCH  20  21
ATOM     21  N   UNL A   1      38.009  22.695  25.429  1.00  0.00    -0.352 N 
ATOM     22  C   UNL A   1      39.187  22.905  26.102  1.00  0.00     0.251 C 
ATOM     23  H   UNL A   1      37.845  21.759  25.171  1.00  0.00     0.163 HD
ATOM     24  O   UNL A   1      40.025  22.009  26.144  1.00  0.00    -0.269 OA
BRANCH  22  25
ATOM     25  C   UNL A   1      39.459  24.204  26.755  1.00  0.00     0.039 A 
ATOM     26  C   UNL A   1      38.985  24.418  28.052  1.00  0.00     0.014 A 
ATOM     27  C   UNL A   1      40.160  25.214  26.091  1.00  0.00     0.014 A 
ATOM     28  C   UNL A   1      39.291  25.610  28.713  1.00  0.00     0.010 A 
ATOM     29  C   UNL A   1      40.533  26.366  26.779  1.00  0.00     0.010 A 
ATOM     30  C   UNL A   1      40.112  26.572  28.101  1.00  0.00    -0.014 A 
BRANCH  30  31
ATOM     31  C   UNL A   1      40.582  27.768  28.844  1.00  0.00     0.031 A 
ATOM     32  C   UNL A   1      41.928  27.778  29.512  1.00  0.00     0.074 A 
ATOM     33  C   UNL A   1      39.752  28.824  28.980  1.00  0.00     0.049 A 
ATOM     34  N   UNL A   1      42.472  28.709  30.254  1.00  0.00    -0.248 NA
ATOM     35  C   UNL A   1      42.765  26.579  29.346  1.00  0.00     0.031 C 
ATOM     36  C   UNL A   1      38.403  28.918  28.415  1.00  0.00     0.029 A 
ATOM     37  N   UNL A   1      39.915  30.014  29.641  1.00  0.00    -0.354 N 
ATOM     38  C   UNL A   1      43.705  28.207  30.652  1.00  0.00     0.074 A 
ATOM     39  C   UNL A   1      43.810  26.870  30.108  1.00  0.00     0.031 C 
ATOM     40  C   UNL A   1      37.874  30.110  28.731  1.00  0.00     0.029 A 
ATOM     41  C   UNL A   1      38.822  30.845  29.561  1.00  0.00     0.049 A 
ATOM     42  H   UNL A   1      40.737  30.252  30.128  1.00  0.00     0.167 HD
ATOM     43  C   UNL A   1      44.668  28.809  31.390  1.00  0.00     0.031 A 
ATOM     44  C   UNL A   1      38.597  32.057  30.106  1.00  0.00     0.031 A 
ATOM     45  C   UNL A   1      44.558  30.140  31.929  1.00  0.00     0.049 A 
ATOM     46  C   UNL A   1      39.669  32.690  30.948  1.00  0.00     0.074 A 
ATOM     47  C   UNL A   1      45.503  30.862  32.637  1.00  0.00     0.029 A 
ATOM     48  N   UNL A   1      43.432  30.944  31.832  1.00  0.00    -0.354 N 
ATOM     49  N   UNL A   1      40.861  32.231  31.245  1.00  0.00    -0.248 NA
ATOM     50  C   UNL A   1      39.366  34.006  31.527  1.00  0.00     0.031 C 
ATOM     51  C   UNL A   1      44.926  32.077  33.023  1.00  0.00     0.029 A 
ATOM     52  C   UNL A   1      43.644  32.138  32.502  1.00  0.00     0.049 A 
ATOM     53  H   UNL A   1      42.603  30.702  31.359  1.00  0.00     0.167 HD
ATOM     54  C   UNL A   1      41.456  33.209  32.034  1.00  0.00     0.074 A 
ATOM     55  C   UNL A   1      40.503  34.294  32.145  1.00  0.00     0.031 C 
ATOM     56  C   UNL A   1      42.681  33.205  32.617  1.00  0.00     0.031 A 
BRANCH  43  57
ATOM     57  C   UNL A   1      45.928  28.030  31.667  1.00  0.00    -0.014 A 
ATOM     58  C   UNL A   1      47.029  28.091  30.795  1.00  0.00     0.010 A 
ATOM     59  C   UNL A   1      46.031  27.264  32.844  1.00  0.00     0.010 A 
ATOM     60  C   UNL A   1      48.194  27.371  31.071  1.00  0.00     0.020 A 
ATOM     61  C   UNL A   1      47.206  26.564  33.138  1.00  0.00     0.020 A 
ATOM     62  C   UNL A   1      48.275  26.610  32.241  1.00  0.00     0.054 A 
BRANCH  62  63
ATOM     63  S   UNL A   1      49.809  25.707  32.585  1.00  0.00     0.124 S 
ATOM     64  O   UNL A   1      50.641  26.745  33.190  1.00  0.00    -0.237 OA
ATOM     65  O   UNL A   1      49.363  24.654  33.494  1.00  0.00    -0.237 OA
ATOM     66  O   UNL A   1      50.246  25.247  31.269  1.00  0.00    -0.744 OA
ENDBRANCH  62  63
ENDBRANCH  43  57
BRANCH  44  67
ATOM     67  C   UNL A   1      37.298  32.746  29.872  1.00  0.00    -0.014 A 
ATOM     68  C   UNL A   1      36.246  32.619  30.794  1.00  0.00     0.010 A 
ATOM     69  C   UNL A   1      37.113  33.548  28.730  1.00  0.00     0.010 A 
ATOM     70  C   UNL A   1      35.027  33.269  30.573  1.00  0.00     0.020 A 
ATOM     71  C   UNL A   1      35.907  34.222  28.520  1.00  0.00     0.020 A 
ATOM     72  C   UNL A   1      34.867  34.070  29.439  1.00  0.00     0.054 A 
BRANCH  72  73
ATOM     73  S   UNL A   1      33.298  34.949  29.203  1.00  0.00     0.124 S 
ATOM     74  O   UNL A   1      32.619  34.101  28.228  1.00  0.00    -0.237 OA
ATOM     75  O   UNL A   1      32.730  34.946  30.548  1.00  0.00    -0.237 OA
ATOM     76  O   UNL A   1      33.711  36.262  28.712  1.00  0.00    -0.744 OA
ENDBRANCH  72  73
ENDBRANCH  44  67
BRANCH  56  77
ATOM     77  C   UNL A   1      43.064  34.415  33.427  1.00  0.00    -0.014 A 
ATOM     78  C   UNL A   1      42.828  34.463  34.812  1.00  0.00     0.010 A 
ATOM     79  C   UNL A   1      43.717  35.494  32.806  1.00  0.00     0.010 A 
ATOM     80  C   UNL A   1      43.214  35.580  35.557  1.00  0.00     0.020 A 
ATOM     81  C   UNL A   1      44.133  36.601  33.551  1.00  0.00     0.020 A 
ATOM     82  C   UNL A   1      43.868  36.641  34.922  1.00  0.00     0.054 A 
BRANCH  82  83
ATOM     83  S   UNL A   1      44.405  38.056  35.921  1.00  0.00     0.124 S 
ATOM     84  O   UNL A   1      44.017  39.186  35.083  1.00  0.00    -0.237 OA
ATOM     85  O   UNL A   1      43.632  37.890  37.150  1.00  0.00    -0.237 OA
ATOM     86  O   UNL A   1      45.845  37.852  36.066  1.00  0.00    -0.744 OA
ENDBRANCH  82  83
ENDBRANCH  56  77
ENDBRANCH  30  31
ENDBRANCH  22  25
ENDBRANCH  20  21
ENDBRANCH   1  20
TORSDOF 15
ENDMDL
MODEL 2
REMARK VINA RESULT:      -9.9      2.883      9.390
REMARK SMILES Cc1nc(C[N@@H+]2CCC[C@H]2C(=O)NCCCNC(=O)c2ccc(-c3c4nc(c(-c5ccc(S(=O)(=O)[O-])cc5)c5ccc([nH]5)c(-c5ccc(S(=O)(=O)[O-])cc5)c5nc(c(-c6ccc(S(=O)(=O)[O-])cc6)c6ccc3[nH]6)C=C5)C=C4)cc2)cs1
REMARK SMILES IDX 15 1 14 2 13 3 11 4 12 5 10 7 6 8 7 9 8 11 9 12 5 13 4 14
REMARK SMILES IDX 1 15 2 16 3 17 81 18 80 19 16 20 17 21 18 22 19 24 20 25
REMARK SMILES IDX 21 26 79 27 22 28 78 29 23 30 24 31 25 32 72 33 26 34 77 35
REMARK SMILES IDX 71 36 73 37 27 38 76 39 70 40 69 41 28 43 58 44 39 45 57 46
REMARK SMILES IDX 40 47 43 48 56 49 74 50 41 51 42 52 55 54 75 55 44 56 29 57
REMARK SMILES IDX 30 58 38 59 31 60 37 61 32 62 33 63 34 64 35 65 36 66 59 67
REMARK SMILES IDX 60 68 68 69 61 70 67 71 62 72 63 73 64 74 65 75 66 76 45 77
REMARK SMILES IDX 46 78 54 79 47 80 53 81 48 82 49 83 50 84 51 85 52 86
REMARK H PARENT 13 6 6 10 17 23 73 42 43 53
REMARK Flexibility Score: inf
ROOT
ATOM      1  C   UNL A   1      33.932  28.442  25.781  1.00  0.00     0.042 C 
ENDROOT
BRANCH   1   2
ATOM      2  C   UNL A   1      33.240  27.282  25.076  1.00  0.00     0.118 C 
BRANCH   2   3
ATOM      3  N   UNL A   1      31.998  26.905  25.730  1.00  0.00    -0.351 N 
ATOM      4  C   UNL A   1      31.321  25.736  25.863  1.00  0.00     0.278 C 
ATOM      5  O   UNL A   1      30.244  25.822  26.472  1.00  0.00    -0.268 OA
ATOM      6  H   UNL A   1      31.551  27.662  26.173  1.00  0.00     0.163 HD
BRANCH   4   7
ATOM      7  C   UNL A   1      31.768  24.364  25.303  1.00  0.00     0.274 C 
ATOM      8  N   UNL A   1      33.164  24.018  25.597  1.00  0.00    -0.320 N 
ATOM      9  C   UNL A   1      33.187  23.147  26.761  1.00  0.00     0.263 C 
ATOM     10  H   UNL A   1      33.679  24.863  25.847  1.00  0.00     0.349 HD
ATOM     11  C   UNL A   1      31.893  22.363  26.711  1.00  0.00     0.068 C 
ATOM     12  C   UNL A   1      30.923  23.259  25.958  1.00  0.00     0.081 C 
BRANCH   8  13
ATOM     13  C   UNL A   1      33.957  23.604  24.436  1.00  0.00     0.321 C 
BRANCH  13  14
ATOM     14  C   UNL A   1      35.224  22.868  24.760  1.00  0.00     0.106 A 
ATOM     15  C   UNL A   1      38.567  23.147  26.208  1.00  0.00     0.079 C 
ATOM     16  C   UNL A   1      37.284  22.741  25.574  1.00  0.00     0.090 A 
ATOM     17  N   UNL A   1      36.302  23.568  25.289  1.00  0.00    -0.241 NA
ATOM     18  S   UNL A   1      37.009  21.096  25.164  1.00  0.00    -0.127 S 
ATOM     19  C   UNL A   1      35.434  21.505  24.639  1.00  0.00     0.096 A 
ENDBRANCH  13  14
ENDBRANCH   8  13
ENDBRANCH   4   7
ENDBRANCH   2   3
ENDBRANCH   1   2
BRANCH   1  20
ATOM     20  C   UNL A   1      33.492  28.628  27.230  1.00  0.00     0.118 C 
BRANCH  20  21
ATOM     21  N   UNL A   1      33.496  30.027  27.643  1.00  0.00    -0.352 N 
ATOM     22  C   UNL A   1      34.447  30.762  28.308  1.00  0.00     0.251 C 
ATOM     23  H   UNL A   1      32.681  30.527  27.408  1.00  0.00     0.163 HD
ATOM     24  O   UNL A   1      34.154  31.873  28.743  1.00  0.00    -0.269 OA
BRANCH  22  25
ATOM     25  C   UNL A   1      35.806  30.220  28.517  1.00  0.00     0.039 A 
ATOM     26  C   UNL A   1      36.712  30.242  27.454  1.00  0.00     0.014 A 
ATOM     27  C   UNL A   1      36.185  29.675  29.748  1.00  0.00     0.014 A 
ATOM     28  C   UNL A   1      38.022  29.799  27.651  1.00  0.00     0.010 A 
ATOM     29  C   UNL A   1      37.511  29.310  29.965  1.00  0.00     0.010 A 
ATOM     30  C   UNL A   1      38.447  29.378  28.923  1.00  0.00    -0.014 A 
BRANCH  30  31
ATOM     31  C   UNL A   1      39.872  29.059  29.192  1.00  0.00     0.031 A 
ATOM     32  C   UNL A   1      40.801  30.102  29.747  1.00  0.00     0.074 A 
ATOM     33  C   UNL A   1      40.344  27.840  28.859  1.00  0.00     0.049 A 
ATOM     34  N   UNL A   1      42.085  30.017  29.983  1.00  0.00    -0.248 NA
ATOM     35  C   UNL A   1      40.220  31.418  30.057  1.00  0.00     0.031 C 
ATOM     36  C   UNL A   1      39.552  26.756  28.273  1.00  0.00     0.029 A 
ATOM     37  N   UNL A   1      41.606  27.309  28.958  1.00  0.00    -0.354 N 
ATOM     38  C   UNL A   1      42.468  31.267  30.457  1.00  0.00     0.074 A 
ATOM     39  C   UNL A   1      41.290  32.106  30.430  1.00  0.00     0.031 C 
ATOM     40  C   UNL A   1      40.338  25.683  28.090  1.00  0.00     0.029 A 
ATOM     41  C   UNL A   1      41.698  26.017  28.497  1.00  0.00     0.049 A 
ATOM     42  H   UNL A   1      42.372  27.806  29.324  1.00  0.00     0.167 HD
ATOM     43  C   UNL A   1      43.687  31.673  30.888  1.00  0.00     0.031 A 
ATOM     44  C   UNL A   1      42.761  25.193  28.396  1.00  0.00     0.031 A 
ATOM     45  C   UNL A   1      44.856  30.833  30.911  1.00  0.00     0.049 A 
ATOM     46  C   UNL A   1      44.108  25.679  28.851  1.00  0.00     0.074 A 
ATOM     47  C   UNL A   1      46.120  31.134  31.388  1.00  0.00     0.029 A 
ATOM     48  N   UNL A   1      44.910  29.535  30.428  1.00  0.00    -0.354 N 
ATOM     49  N   UNL A   1      44.432  26.839  29.371  1.00  0.00    -0.248 NA
ATOM     50  C   UNL A   1      45.233  24.745  28.708  1.00  0.00     0.031 C 
ATOM     51  C   UNL A   1      46.954  30.039  31.134  1.00  0.00     0.029 A 
ATOM     52  C   UNL A   1      46.195  29.034  30.558  1.00  0.00     0.049 A 
ATOM     53  H   UNL A   1      44.148  29.041  30.048  1.00  0.00     0.167 HD
ATOM     54  C   UNL A   1      45.796  26.769  29.630  1.00  0.00     0.074 A 
ATOM     55  C   UNL A   1      46.229  25.444  29.234  1.00  0.00     0.031 C 
ATOM     56  C   UNL A   1      46.616  27.718  30.146  1.00  0.00     0.031 A 
BRANCH  43  57
ATOM     57  C   UNL A   1      43.821  33.097  31.363  1.00  0.00    -0.014 A 
ATOM     58  C   UNL A   1      44.112  34.140  30.466  1.00  0.00     0.010 A 
ATOM     59  C   UNL A   1      43.604  33.404  32.719  1.00  0.00     0.010 A 
ATOM     60  C   UNL A   1      44.223  35.457  30.921  1.00  0.00     0.020 A 
ATOM     61  C   UNL A   1      43.685  34.725  33.173  1.00  0.00     0.020 A 
ATOM     62  C   UNL A   1      44.010  35.741  32.272  1.00  0.00     0.054 A 
BRANCH  62  63
ATOM     63  S   UNL A   1      44.136  37.463  32.828  1.00  0.00     0.124 S 
ATOM     64  O   UNL A   1      45.453  37.481  33.458  1.00  0.00    -0.237 OA
ATOM     65  O   UNL A   1      44.028  38.211  31.578  1.00  0.00    -0.237 OA
ATOM     66  O   UNL A   1      43.006  37.617  33.742  1.00  0.00    -0.744 OA
ENDBRANCH  62  63
ENDBRANCH  43  57
BRANCH  44  67
ATOM     67  C   UNL A   1      42.588  23.824  27.835  1.00  0.00    -0.014 A 
ATOM     68  C   UNL A   1      42.253  22.747  28.673  1.00  0.00     0.010 A 
ATOM     69  C   UNL A   1      42.742  23.595  26.455  1.00  0.00     0.010 A 
ATOM     70  C   UNL A   1      42.088  21.463  28.144  1.00  0.00     0.020 A 
ATOM     71  C   UNL A   1      42.550  22.319  25.919  1.00  0.00     0.020 A 
ATOM     72  C   UNL A   1      42.234  21.259  26.769  1.00  0.00     0.054 A 
BRANCH  72  73
ATOM     73  S   UNL A   1      41.960  19.595  26.098  1.00  0.00     0.124 S 
ATOM     74  O   UNL A   1      40.536  19.628  25.780  1.00  0.00    -0.237 OA
ATOM     75  O   UNL A   1      42.865  19.564  24.953  1.00  0.00    -0.237 OA
ATOM     76  O   UNL A   1      42.334  18.714  27.203  1.00  0.00    -0.744 OA
ENDBRANCH  72  73
ENDBRANCH  44  67
BRANCH  56  77
ATOM     77  C   UNL A   1      48.069  27.358  30.316  1.00  0.00    -0.014 A 
ATOM     78  C   UNL A   1      49.030  27.764  29.374  1.00  0.00     0.010 A 
ATOM     79  C   UNL A   1      48.484  26.653  31.460  1.00  0.00     0.010 A 
ATOM     80  C   UNL A   1      50.378  27.447  29.559  1.00  0.00     0.020 A 
ATOM     81  C   UNL A   1      49.836  26.360  31.664  1.00  0.00     0.020 A 
ATOM     82  C   UNL A   1      50.773  26.750  30.705  1.00  0.00     0.054 A 
BRANCH  82  83
ATOM     83  S   UNL A   1      52.536  26.398  30.946  1.00  0.00     0.124 S 
ATOM     84  O   UNL A   1      52.496  25.222  31.809  1.00  0.00    -0.237 OA
ATOM     85  O   UNL A   1      53.003  26.162  29.582  1.00  0.00    -0.237 OA
ATOM     86  O   UNL A   1      53.050  27.614  31.573  1.00  0.00    -0.744 OA
ENDBRANCH  82  83
ENDBRANCH  56  77
ENDBRANCH  30  31
ENDBRANCH  22  25
ENDBRANCH  20  21
ENDBRANCH   1  20
TORSDOF 15
ENDMDL
MODEL 3
REMARK VINA RESULT:      -9.8      4.760     10.484
REMARK SMILES Cc1nc(C[N@@H+]2CCC[C@H]2C(=O)NCCCNC(=O)c2ccc(-c3c4nc(c(-c5ccc(S(=O)(=O)[O-])cc5)c5ccc([nH]5)c(-c5ccc(S(=O)(=O)[O-])cc5)c5nc(c(-c6ccc(S(=O)(=O)[O-])cc6)c6ccc3[nH]6)C=C5)C=C4)cc2)cs1
REMARK SMILES IDX 15 1 14 2 13 3 11 4 12 5 10 7 6 8 7 9 8 11 9 12 5 13 4 14
REMARK SMILES IDX 1 15 2 16 3 17 81 18 80 19 16 20 17 21 18 22 19 24 20 25
REMARK SMILES IDX 21 26 79 27 22 28 78 29 23 30 24 31 25 32 72 33 26 34 77 35
REMARK SMILES IDX 71 36 73 37 27 38 76 39 70 40 69 41 28 43 58 44 39 45 57 46
REMARK SMILES IDX 40 47 43 48 56 49 74 50 41 51 42 52 55 54 75 55 44 56 29 57
REMARK SMILES IDX 30 58 38 59 31 60 37 61 32 62 33 63 34 64 35 65 36 66 59 67
REMARK SMILES IDX 60 68 68 69 61 70 67 71 62 72 63 73 64 74 65 75 66 76 45 77
REMARK SMILES IDX 46 78 54 79 47 80 53 81 48 82 49 83 50 84 51 85 52 86
REMARK H PARENT 13 6 6 10 17 23 73 42 43 53
REMARK Flexibility Score: inf
ROOT
ATOM      1  C   UNL A   1      34.136  30.887  27.410  1.00  0.00     0.042 C 
ENDROOT
BRANCH   1   2
ATOM      2  C   UNL A   1      33.218  29.925  26.667  1.00  0.00     0.118 C 
BRANCH   2   3
ATOM      3  N   UNL A   1      33.631  29.728  25.287  1.00  0.00    -0.351 N 
ATOM      4  C   UNL A   1      33.119  29.030  24.242  1.00  0.00     0.278 C 
ATOM      5  O   UNL A   1      33.798  29.071  23.204  1.00  0.00    -0.268 OA
ATOM      6  H   UNL A   1      34.462  30.205  25.062  1.00  0.00     0.163 HD
BRANCH   4   7
ATOM      7  C   UNL A   1      31.815  28.195  24.263  1.00  0.00     0.274 C 
ATOM      8  N   UNL A   1      31.008  28.307  23.042  1.00  0.00    -0.320 N 
ATOM      9  C   UNL A   1      31.300  27.164  22.191  1.00  0.00     0.263 C 
ATOM     10  H   UNL A   1      31.286  29.141  22.525  1.00  0.00     0.349 HD
ATOM     11  C   UNL A   1      31.639  26.029  23.133  1.00  0.00     0.068 C 
ATOM     12  C   UNL A   1      32.178  26.706  24.383  1.00  0.00     0.081 C 
BRANCH   8  13
ATOM     13  C   UNL A   1      29.596  28.634  23.260  1.00  0.00     0.321 C 
BRANCH  13  14
ATOM     14  C   UNL A   1      29.184  30.007  22.815  1.00  0.00     0.106 A 
ATOM     15  C   UNL A   1      27.890  31.993  20.034  1.00  0.00     0.079 C 
ATOM     16  C   UNL A   1      28.413  31.451  21.317  1.00  0.00     0.090 A 
ATOM     17  N   UNL A   1      28.810  30.209  21.492  1.00  0.00    -0.241 NA
ATOM     18  S   UNL A   1      28.531  32.466  22.697  1.00  0.00    -0.127 S 
ATOM     19  C   UNL A   1      29.078  31.131  23.615  1.00  0.00     0.096 A 
ENDBRANCH  13  14
ENDBRANCH   8  13
ENDBRANCH   4   7
ENDBRANCH   2   3
ENDBRANCH   1   2
BRANCH   1  20
ATOM     20  C   UNL A   1      35.341  30.209  28.054  1.00  0.00     0.118 C 
BRANCH  20  21
ATOM     21  N   UNL A   1      35.422  30.454  29.490  1.00  0.00    -0.352 N 
ATOM     22  C   UNL A   1      36.386  30.107  30.405  1.00  0.00     0.251 C 
ATOM     23  H   UNL A   1      34.658  30.948  29.866  1.00  0.00     0.163 HD
ATOM     24  O   UNL A   1      36.150  30.229  31.604  1.00  0.00    -0.269 OA
BRANCH  22  25
ATOM     25  C   UNL A   1      37.691  29.575  29.958  1.00  0.00     0.039 A 
ATOM     26  C   UNL A   1      38.068  29.749  28.624  1.00  0.00     0.014 A 
ATOM     27  C   UNL A   1      38.533  28.893  30.839  1.00  0.00     0.014 A 
ATOM     28  C   UNL A   1      39.326  29.316  28.198  1.00  0.00     0.010 A 
ATOM     29  C   UNL A   1      39.816  28.534  30.435  1.00  0.00     0.010 A 
ATOM     30  C   UNL A   1      40.231  28.752  29.113  1.00  0.00    -0.014 A 
BRANCH  30  31
ATOM     31  C   UNL A   1      41.627  28.435  28.719  1.00  0.00     0.031 A 
ATOM     32  C   UNL A   1      42.671  29.516  28.654  1.00  0.00     0.074 A 
ATOM     33  C   UNL A   1      41.933  27.176  28.342  1.00  0.00     0.049 A 
ATOM     34  N   UNL A   1      43.919  29.431  28.270  1.00  0.00    -0.248 NA
ATOM     35  C   UNL A   1      42.256  30.871  29.050  1.00  0.00     0.031 C 
ATOM     36  C   UNL A   1      40.997  26.049  28.320  1.00  0.00     0.029 A 
ATOM     37  N   UNL A   1      43.112  26.634  27.899  1.00  0.00    -0.354 N 
ATOM     38  C   UNL A   1      44.435  30.718  28.366  1.00  0.00     0.074 A 
ATOM     39  C   UNL A   1      43.351  31.574  28.800  1.00  0.00     0.031 C 
ATOM     40  C   UNL A   1      41.643  24.946  27.912  1.00  0.00     0.029 A 
ATOM     41  C   UNL A   1      43.024  25.295  27.596  1.00  0.00     0.049 A 
ATOM     42  H   UNL A   1      43.943  27.153  27.806  1.00  0.00     0.167 HD
ATOM     43  C   UNL A   1      45.698  31.146  28.129  1.00  0.00     0.031 A 
ATOM     44  C   UNL A   1      43.945  24.443  27.103  1.00  0.00     0.031 A 
ATOM     45  C   UNL A   1      46.772  30.289  27.697  1.00  0.00     0.049 A 
ATOM     46  C   UNL A   1      45.331  24.949  26.817  1.00  0.00     0.074 A 
ATOM     47  C   UNL A   1      48.101  30.616  27.491  1.00  0.00     0.029 A 
ATOM     48  N   UNL A   1      46.640  28.943  27.394  1.00  0.00    -0.354 N 
ATOM     49  N   UNL A   1      45.819  26.154  26.992  1.00  0.00    -0.248 NA
ATOM     50  C   UNL A   1      46.291  23.981  26.270  1.00  0.00     0.031 C 
ATOM     51  C   UNL A   1      48.758  29.482  27.000  1.00  0.00     0.029 A 
ATOM     52  C   UNL A   1      47.854  28.433  26.963  1.00  0.00     0.049 A 
ATOM     53  H   UNL A   1      45.806  28.425  27.472  1.00  0.00     0.167 HD
ATOM     54  C   UNL A   1      47.148  26.085  26.590  1.00  0.00     0.074 A 
ATOM     55  C   UNL A   1      47.393  24.714  26.188  1.00  0.00     0.031 C 
ATOM     56  C   UNL A   1      48.080  27.069  26.552  1.00  0.00     0.031 A 
BRANCH  43  57
ATOM     57  C   UNL A   1      45.989  32.611  28.324  1.00  0.00    -0.014 A 
ATOM     58  C   UNL A   1      45.755  33.543  27.297  1.00  0.00     0.010 A 
ATOM     59  C   UNL A   1      46.455  33.072  29.569  1.00  0.00     0.010 A 
ATOM     60  C   UNL A   1      46.020  34.901  27.496  1.00  0.00     0.020 A 
ATOM     61  C   UNL A   1      46.694  34.434  29.783  1.00  0.00     0.020 A 
ATOM     62  C   UNL A   1      46.489  35.338  28.738  1.00  0.00     0.054 A 
BRANCH  62  63
ATOM     63  S   UNL A   1      46.798  37.109  28.975  1.00  0.00     0.124 S 
ATOM     64  O   UNL A   1      45.571  37.544  29.637  1.00  0.00    -0.237 OA
ATOM     65  O   UNL A   1      47.997  37.115  29.811  1.00  0.00    -0.237 OA
ATOM     66  O   UNL A   1      46.987  37.615  27.618  1.00  0.00    -0.744 OA
ENDBRANCH  62  63
ENDBRANCH  43  57
BRANCH  44  67
ATOM     67  C   UNL A   1      43.579  23.023  26.845  1.00  0.00    -0.014 A 
ATOM     68  C   UNL A   1      43.871  22.423  25.609  1.00  0.00     0.010 A 
ATOM     69  C   UNL A   1      42.950  22.257  27.845  1.00  0.00     0.010 A 
ATOM     70  C   UNL A   1      43.528  21.088  25.370  1.00  0.00     0.020 A 
ATOM     71  C   UNL A   1      42.632  20.915  27.621  1.00  0.00     0.020 A 
ATOM     72  C   UNL A   1      42.914  20.342  26.380  1.00  0.00     0.054 A 
BRANCH  72  73
ATOM     73  S   UNL A   1      42.531  18.596  26.067  1.00  0.00     0.124 S 
ATOM     74  O   UNL A   1      43.441  18.277  24.972  1.00  0.00    -0.237 OA
ATOM     75  O   UNL A   1      42.840  17.971  27.350  1.00  0.00    -0.237 OA
ATOM     76  O   UNL A   1      41.112  18.614  25.718  1.00  0.00    -0.744 OA
ENDBRANCH  72  73
ENDBRANCH  44  67
BRANCH  56  77
ATOM     77  C   UNL A   1      49.456  26.700  26.063  1.00  0.00    -0.014 A 
ATOM     78  C   UNL A   1      49.885  27.058  24.773  1.00  0.00     0.010 A 
ATOM     79  C   UNL A   1      50.349  26.036  26.923  1.00  0.00     0.010 A 
ATOM     80  C   UNL A   1      51.174  26.734  24.342  1.00  0.00     0.020 A 
ATOM     81  C   UNL A   1      51.649  25.737  26.507  1.00  0.00     0.020 A 
ATOM     82  C   UNL A   1      52.049  26.079  25.213  1.00  0.00     0.054 A 
BRANCH  82  83
ATOM     83  S   UNL A   1      53.733  25.717  24.646  1.00  0.00     0.124 S 
ATOM     84  O   UNL A   1      54.538  26.571  25.515  1.00  0.00    -0.237 OA
ATOM     85  O   UNL A   1      53.851  24.282  24.891  1.00  0.00    -0.237 OA
ATOM     86  O   UNL A   1      53.716  26.103  23.236  1.00  0.00    -0.744 OA
ENDBRANCH  82  83
ENDBRANCH  56  77
ENDBRANCH  30  31
ENDBRANCH  22  25
ENDBRANCH  20  21
ENDBRANCH   1  20
TORSDOF 15
ENDMDL
