MODEL 1
REMARK VINA RESULT:      -9.8      0.000      0.000
REMARK SMILES COc1ccc(Cl)cc1C[NH2+]CCC(=O)NCCCNC(=O)c1ccc(-c2c3nc(c(-c4ccc(S(=O)(=O)[O-])cc4)c4ccc([nH]4)c(-c4ccc(S(=O)(=O)[O-])cc4)c4nc(c(-c5ccc(S(=O)(=O)[O-])cc5)c5ccc2[nH]5)C=C4)C=C3)cc1
REMARK SMILES IDX 17 1 16 2 14 3 15 4 13 6 12 7 11 8 10 11 9 12 3 13 4 14 5 15
REMARK SMILES IDX 8 16 6 17 7 18 2 19 1 20 18 21 19 22 20 23 21 24 22 26 23 27
REMARK SMILES IDX 24 28 82 29 25 30 81 31 26 32 27 33 28 34 75 35 29 36 80 37
REMARK SMILES IDX 74 38 76 39 30 40 79 41 73 42 72 43 31 45 61 46 42 47 60 48
REMARK SMILES IDX 43 49 46 50 59 51 77 52 44 53 45 54 58 56 78 57 47 58 32 59
REMARK SMILES IDX 33 60 41 61 34 62 40 63 35 64 36 65 37 66 38 67 39 68 62 69
REMARK SMILES IDX 63 70 71 71 64 72 70 73 65 74 66 75 67 76 68 77 69 78 48 79
REMARK SMILES IDX 49 80 57 81 50 82 56 83 51 84 52 85 53 86 54 87 55 88
REMARK H PARENT 16 5 11 9 11 10 20 25 76 44 46 55
REMARK Flexibility Score: inf
ROOT
ATOM      1  C   UNL A   1      33.624  34.270  29.701  1.00  0.00     0.117 C 
ENDROOT
BRANCH   1   2
ATOM      2  N   UNL A   1      33.481  35.696  29.878  1.00  0.00    -0.356 N 
ATOM      3  C   UNL A   1      33.137  36.377  31.006  1.00  0.00     0.225 C 
ATOM      4  O   UNL A   1      33.075  37.606  30.950  1.00  0.00    -0.275 OA
ATOM      5  H   UNL A   1      33.655  36.247  29.081  1.00  0.00     0.163 HD
BRANCH   3   6
ATOM      6  C   UNL A   1      32.892  35.637  32.309  1.00  0.00     0.161 C 
BRANCH   6   7
ATOM      7  C   UNL A   1      34.144  35.371  33.155  1.00  0.00     0.270 C 
BRANCH   7   8
ATOM      8  N   UNL A   1      34.279  34.084  33.839  1.00  0.00    -0.342 N 
ATOM      9  H   UNL A   1      34.817  34.243  34.692  1.00  0.00     0.346 HD
ATOM     10  H   UNL A   1      33.324  33.761  33.990  1.00  0.00     0.346 HD
BRANCH   8  11
ATOM     11  C   UNL A   1      34.936  33.002  33.097  1.00  0.00     0.301 C 
BRANCH  11  12
ATOM     12  C   UNL A   1      36.426  33.280  32.923  1.00  0.00     0.050 A 
ATOM     13  C   UNL A   1      37.350  33.174  33.989  1.00  0.00     0.127 A 
ATOM     14  C   UNL A   1      38.687  33.549  33.791  1.00  0.00     0.048 A 
ATOM     15  C   UNL A   1      39.114  34.033  32.553  1.00  0.00     0.024 A 
ATOM     16  C   UNL A   1      36.883  33.746  31.673  1.00  0.00     0.034 A 
ATOM     17  C   UNL A   1      38.212  34.127  31.499  1.00  0.00     0.041 A 
ATOM     18  Cl  UNL A   1      38.738  34.755  29.988  1.00  0.00    -0.084 Cl
BRANCH  13  19
ATOM     19  O   UNL A   1      36.865  32.715  35.188  1.00  0.00    -0.496 OA
ATOM     20  C   UNL A   1      37.012  33.576  36.314  1.00  0.00     0.278 C 
ENDBRANCH  13  19
ENDBRANCH  11  12
ENDBRANCH   8  11
ENDBRANCH   7   8
ENDBRANCH   6   7
ENDBRANCH   3   6
ENDBRANCH   1   2
BRANCH   1  21
ATOM     21  C   UNL A   1      33.666  33.892  28.226  1.00  0.00     0.042 C 
BRANCH  21  22
ATOM     22  C   UNL A   1      34.660  32.792  27.916  1.00  0.00     0.118 C 
BRANCH  22  23
ATOM     23  N   UNL A   1      34.003  31.512  27.671  1.00  0.00    -0.352 N 
ATOM     24  C   UNL A   1      34.523  30.241  27.603  1.00  0.00     0.251 C 
ATOM     25  H   UNL A   1      33.030  31.568  27.533  1.00  0.00     0.163 HD
ATOM     26  O   UNL A   1      33.827  29.336  27.155  1.00  0.00    -0.269 OA
BRANCH  24  27
ATOM     27  C   UNL A   1      35.913  29.977  28.042  1.00  0.00     0.039 A 
ATOM     28  C   UNL A   1      36.155  29.608  29.367  1.00  0.00     0.014 A 
ATOM     29  C   UNL A   1      36.981  30.093  27.150  1.00  0.00     0.014 A 
ATOM     30  C   UNL A   1      37.454  29.283  29.771  1.00  0.00     0.010 A 
ATOM     31  C   UNL A   1      38.243  29.647  27.517  1.00  0.00     0.010 A 
ATOM     32  C   UNL A   1      38.501  29.256  28.836  1.00  0.00    -0.014 A 
BRANCH  32  33
ATOM     33  C   UNL A   1      39.879  28.845  29.205  1.00  0.00     0.031 A 
ATOM     34  C   UNL A   1      40.797  29.829  29.883  1.00  0.00     0.074 A 
ATOM     35  C   UNL A   1      40.331  27.626  28.852  1.00  0.00     0.049 A 
ATOM     36  N   UNL A   1      42.062  29.701  30.194  1.00  0.00    -0.248 NA
ATOM     37  C   UNL A   1      40.230  31.146  30.223  1.00  0.00     0.031 C 
ATOM     38  C   UNL A   1      39.556  26.606  28.143  1.00  0.00     0.029 A 
ATOM     39  N   UNL A   1      41.560  27.043  29.031  1.00  0.00    -0.354 N 
ATOM     40  C   UNL A   1      42.443  30.924  30.737  1.00  0.00     0.074 A 
ATOM     41  C   UNL A   1      41.297  31.801  30.650  1.00  0.00     0.031 C 
ATOM     42  C   UNL A   1      40.316  25.512  27.977  1.00  0.00     0.029 A 
ATOM     43  C   UNL A   1      41.646  25.770  28.520  1.00  0.00     0.049 A 
ATOM     44  H   UNL A   1      42.310  27.493  29.484  1.00  0.00     0.167 HD
ATOM     45  C   UNL A   1      43.630  31.278  31.282  1.00  0.00     0.031 A 
ATOM     46  C   UNL A   1      42.681  24.909  28.481  1.00  0.00     0.031 A 
ATOM     47  C   UNL A   1      44.762  30.395  31.375  1.00  0.00     0.049 A 
ATOM     48  C   UNL A   1      43.994  25.321  29.091  1.00  0.00     0.074 A 
ATOM     49  C   UNL A   1      45.993  30.630  31.960  1.00  0.00     0.029 A 
ATOM     50  N   UNL A   1      44.799  29.104  30.867  1.00  0.00    -0.354 N 
ATOM     51  N   UNL A   1      44.315  26.458  29.661  1.00  0.00    -0.248 NA
ATOM     52  C   UNL A   1      45.077  24.331  29.063  1.00  0.00     0.031 C 
ATOM     53  C   UNL A   1      46.795  29.503  31.753  1.00  0.00     0.029 A 
ATOM     54  C   UNL A   1      46.040  28.539  31.102  1.00  0.00     0.049 A 
ATOM     55  H   UNL A   1      44.052  28.656  30.406  1.00  0.00     0.167 HD
ATOM     56  C   UNL A   1      45.631  26.310  30.087  1.00  0.00     0.074 A 
ATOM     57  C   UNL A   1      46.037  24.968  29.720  1.00  0.00     0.031 C 
ATOM     58  C   UNL A   1      46.428  27.202  30.726  1.00  0.00     0.031 A 
BRANCH  45  59
ATOM     59  C   UNL A   1      43.759  32.685  31.813  1.00  0.00    -0.014 A 
ATOM     60  C   UNL A   1      43.424  32.995  33.145  1.00  0.00     0.010 A 
ATOM     61  C   UNL A   1      44.230  33.711  30.975  1.00  0.00     0.010 A 
ATOM     62  C   UNL A   1      43.499  34.311  33.609  1.00  0.00     0.020 A 
ATOM     63  C   UNL A   1      44.343  35.023  31.445  1.00  0.00     0.020 A 
ATOM     64  C   UNL A   1      43.954  35.318  32.754  1.00  0.00     0.054 A 
BRANCH  64  65
ATOM     65  S   UNL A   1      44.042  37.016  33.384  1.00  0.00     0.124 S 
ATOM     66  O   UNL A   1      42.879  37.069  34.269  1.00  0.00    -0.237 OA
ATOM     67  O   UNL A   1      45.340  37.043  34.053  1.00  0.00    -0.237 OA
ATOM     68  O   UNL A   1      43.946  37.839  32.181  1.00  0.00    -0.744 OA
ENDBRANCH  64  65
ENDBRANCH  45  59
BRANCH  46  69
ATOM     69  C   UNL A   1      42.504  23.568  27.859  1.00  0.00    -0.014 A 
ATOM     70  C   UNL A   1      43.166  23.242  26.662  1.00  0.00     0.010 A 
ATOM     71  C   UNL A   1      41.702  22.593  28.481  1.00  0.00     0.010 A 
ATOM     72  C   UNL A   1      43.021  21.972  26.093  1.00  0.00     0.020 A 
ATOM     73  C   UNL A   1      41.579  21.312  27.933  1.00  0.00     0.020 A 
ATOM     74  C   UNL A   1      42.233  21.014  26.736  1.00  0.00     0.054 A 
BRANCH  74  75
ATOM     75  S   UNL A   1      42.113  19.353  26.013  1.00  0.00     0.124 S 
ATOM     76  O   UNL A   1      42.660  18.519  27.078  1.00  0.00    -0.237 OA
ATOM     77  O   UNL A   1      40.678  19.217  25.777  1.00  0.00    -0.237 OA
ATOM     78  O   UNL A   1      42.930  19.444  24.806  1.00  0.00    -0.744 OA
ENDBRANCH  74  75
ENDBRANCH  46  69
BRANCH  58  79
ATOM     79  C   UNL A   1      47.813  26.747  31.105  1.00  0.00    -0.014 A 
ATOM     80  C   UNL A   1      48.886  26.834  30.201  1.00  0.00     0.010 A 
ATOM     81  C   UNL A   1      48.052  26.283  32.411  1.00  0.00     0.010 A 
ATOM     82  C   UNL A   1      50.169  26.435  30.589  1.00  0.00     0.020 A 
ATOM     83  C   UNL A   1      49.338  25.914  32.813  1.00  0.00     0.020 A 
ATOM     84  C   UNL A   1      50.387  25.979  31.893  1.00  0.00     0.054 A 
BRANCH  84  85
ATOM     85  S   UNL A   1      52.069  25.514  32.384  1.00  0.00     0.124 S 
ATOM     86  O   UNL A   1      52.136  26.019  33.753  1.00  0.00    -0.237 OA
ATOM     87  O   UNL A   1      52.050  24.060  32.250  1.00  0.00    -0.237 OA
ATOM     88  O   UNL A   1      52.917  26.213  31.421  1.00  0.00    -0.744 OA
ENDBRANCH  84  85
ENDBRANCH  58  79
ENDBRANCH  32  33
ENDBRANCH  24  27
ENDBRANCH  22  23
ENDBRANCH  21  22
ENDBRANCH   1  21
TORSDOF 18
ENDMDL
MODEL 2
REMARK VINA RESULT:      -9.1      3.662      6.364
REMARK SMILES COc1ccc(Cl)cc1C[NH2+]CCC(=O)NCCCNC(=O)c1ccc(-c2c3nc(c(-c4ccc(S(=O)(=O)[O-])cc4)c4ccc([nH]4)c(-c4ccc(S(=O)(=O)[O-])cc4)c4nc(c(-c5ccc(S(=O)(=O)[O-])cc5)c5ccc2[nH]5)C=C4)C=C3)cc1
REMARK SMILES IDX 17 1 16 2 14 3 15 4 13 6 12 7 11 8 10 11 9 12 3 13 4 14 5 15
REMARK SMILES IDX 8 16 6 17 7 18 2 19 1 20 18 21 19 22 20 23 21 24 22 26 23 27
REMARK SMILES IDX 24 28 82 29 25 30 81 31 26 32 27 33 28 34 75 35 29 36 80 37
REMARK SMILES IDX 74 38 76 39 30 40 79 41 73 42 72 43 31 45 61 46 42 47 60 48
REMARK SMILES IDX 43 49 46 50 59 51 77 52 44 53 45 54 58 56 78 57 47 58 32 59
REMARK SMILES IDX 33 60 41 61 34 62 40 63 35 64 36 65 37 66 38 67 39 68 62 69
REMARK SMILES IDX 63 70 71 71 64 72 70 73 65 74 66 75 67 76 68 77 69 78 48 79
REMARK SMILES IDX 49 80 57 81 50 82 56 83 51 84 52 85 53 86 54 87 55 88
REMARK H PARENT 16 5 11 9 11 10 20 25 76 44 46 55
REMARK Flexibility Score: inf
ROOT
ATOM      1  C   UNL A   1      31.816  28.603  25.386  1.00  0.00     0.117 C 
ENDROOT
BRANCH   1   2
ATOM      2  N   UNL A   1      30.755  27.640  25.207  1.00  0.00    -0.356 N 
ATOM      3  C   UNL A   1      30.415  26.956  24.079  1.00  0.00     0.225 C 
ATOM      4  O   UNL A   1      29.470  26.168  24.137  1.00  0.00    -0.275 OA
ATOM      5  H   UNL A   1      30.206  27.454  26.003  1.00  0.00     0.163 HD
BRANCH   3   6
ATOM      6  C   UNL A   1      31.220  27.126  22.803  1.00  0.00     0.161 C 
BRANCH   6   7
ATOM      7  C   UNL A   1      31.976  25.876  22.336  1.00  0.00     0.270 C 
BRANCH   7   8
ATOM      8  N   UNL A   1      31.377  24.559  22.553  1.00  0.00    -0.342 N 
ATOM      9  H   UNL A   1      30.647  24.664  23.258  1.00  0.00     0.346 HD
ATOM     10  H   UNL A   1      31.047  24.262  21.635  1.00  0.00     0.346 HD
BRANCH   8  11
ATOM     11  C   UNL A   1      32.273  23.487  23.002  1.00  0.00     0.301 C 
BRANCH  11  12
ATOM     12  C   UNL A   1      32.245  23.347  24.521  1.00  0.00     0.050 A 
ATOM     13  C   UNL A   1      33.419  23.185  25.293  1.00  0.00     0.127 A 
ATOM     14  C   UNL A   1      33.317  22.952  26.673  1.00  0.00     0.048 A 
ATOM     15  C   UNL A   1      32.068  22.873  27.291  1.00  0.00     0.024 A 
ATOM     16  C   UNL A   1      30.993  23.290  25.169  1.00  0.00     0.034 A 
ATOM     17  C   UNL A   1      30.912  23.043  26.538  1.00  0.00     0.041 A 
ATOM     18  Cl  UNL A   1      29.377  22.911  27.300  1.00  0.00    -0.084 Cl
BRANCH  13  19
ATOM     19  O   UNL A   1      34.615  23.250  24.625  1.00  0.00    -0.496 OA
ATOM     20  C   UNL A   1      35.503  24.302  24.994  1.00  0.00     0.278 C 
ENDBRANCH  13  19
ENDBRANCH  11  12
ENDBRANCH   8  11
ENDBRANCH   7   8
ENDBRANCH   6   7
ENDBRANCH   3   6
ENDBRANCH   1   2
BRANCH   1  21
ATOM     21  C   UNL A   1      33.110  27.932  25.827  1.00  0.00     0.042 C 
BRANCH  21  22
ATOM     22  C   UNL A   1      33.506  28.268  27.249  1.00  0.00     0.118 C 
BRANCH  22  23
ATOM     23  N   UNL A   1      33.477  29.707  27.501  1.00  0.00    -0.352 N 
ATOM     24  C   UNL A   1      34.418  30.531  28.071  1.00  0.00     0.251 C 
ATOM     25  H   UNL A   1      32.650  30.158  27.216  1.00  0.00     0.163 HD
ATOM     26  O   UNL A   1      34.095  31.668  28.397  1.00  0.00    -0.269 OA
BRANCH  24  27
ATOM     27  C   UNL A   1      35.797  30.043  28.307  1.00  0.00     0.039 A 
ATOM     28  C   UNL A   1      36.723  30.068  27.261  1.00  0.00     0.014 A 
ATOM     29  C   UNL A   1      36.180  29.557  29.558  1.00  0.00     0.014 A 
ATOM     30  C   UNL A   1      38.045  29.680  27.496  1.00  0.00     0.010 A 
ATOM     31  C   UNL A   1      37.518  29.297  29.822  1.00  0.00     0.010 A 
ATOM     32  C   UNL A   1      38.464  29.336  28.791  1.00  0.00    -0.014 A 
BRANCH  32  33
ATOM     33  C   UNL A   1      39.875  28.989  29.099  1.00  0.00     0.031 A 
ATOM     34  C   UNL A   1      40.791  30.032  29.685  1.00  0.00     0.074 A 
ATOM     35  C   UNL A   1      40.351  27.773  28.769  1.00  0.00     0.049 A 
ATOM     36  N   UNL A   1      42.074  29.961  29.930  1.00  0.00    -0.248 NA
ATOM     37  C   UNL A   1      40.193  31.341  30.004  1.00  0.00     0.031 C 
ATOM     38  C   UNL A   1      39.577  26.698  28.145  1.00  0.00     0.029 A 
ATOM     39  N   UNL A   1      41.609  27.241  28.903  1.00  0.00    -0.354 N 
ATOM     40  C   UNL A   1      42.439  31.218  30.402  1.00  0.00     0.074 A 
ATOM     41  C   UNL A   1      41.258  32.050  30.345  1.00  0.00     0.031 C 
ATOM     42  C   UNL A   1      40.368  25.625  27.980  1.00  0.00     0.029 A 
ATOM     43  C   UNL A   1      41.714  25.952  28.438  1.00  0.00     0.049 A 
ATOM     44  H   UNL A   1      42.365  27.736  29.295  1.00  0.00     0.167 HD
ATOM     45  C   UNL A   1      43.639  31.636  30.867  1.00  0.00     0.031 A 
ATOM     46  C   UNL A   1      42.778  25.127  28.375  1.00  0.00     0.031 A 
ATOM     47  C   UNL A   1      44.806  30.797  30.931  1.00  0.00     0.049 A 
ATOM     48  C   UNL A   1      44.105  25.609  28.895  1.00  0.00     0.074 A 
ATOM     49  C   UNL A   1      46.057  31.099  31.437  1.00  0.00     0.029 A 
ATOM     50  N   UNL A   1      44.864  29.489  30.473  1.00  0.00    -0.354 N 
ATOM     51  N   UNL A   1      44.415  26.780  29.401  1.00  0.00    -0.248 NA
ATOM     52  C   UNL A   1      45.221  24.658  28.846  1.00  0.00     0.031 C 
ATOM     53  C   UNL A   1      46.888  29.994  31.230  1.00  0.00     0.029 A 
ATOM     54  C   UNL A   1      46.136  28.978  30.660  1.00  0.00     0.049 A 
ATOM     55  H   UNL A   1      44.110  28.997  30.072  1.00  0.00     0.167 HD
ATOM     56  C   UNL A   1      45.756  26.695  29.759  1.00  0.00     0.074 A 
ATOM     57  C   UNL A   1      46.191  25.355  29.423  1.00  0.00     0.031 C 
ATOM     58  C   UNL A   1      46.553  27.641  30.316  1.00  0.00     0.031 A 
BRANCH  45  59
ATOM     59  C   UNL A   1      43.744  33.067  31.334  1.00  0.00    -0.014 A 
ATOM     60  C   UNL A   1      44.224  34.079  30.481  1.00  0.00     0.010 A 
ATOM     61  C   UNL A   1      43.347  33.409  32.639  1.00  0.00     0.010 A 
ATOM     62  C   UNL A   1      44.363  35.391  30.943  1.00  0.00     0.020 A 
ATOM     63  C   UNL A   1      43.450  34.727  33.094  1.00  0.00     0.020 A 
ATOM     64  C   UNL A   1      43.980  35.705  32.249  1.00  0.00     0.054 A 
BRANCH  64  65
ATOM     65  S   UNL A   1      44.171  37.416  32.821  1.00  0.00     0.124 S 
ATOM     66  O   UNL A   1      43.791  38.175  31.631  1.00  0.00    -0.237 OA
ATOM     67  O   UNL A   1      43.232  37.487  33.937  1.00  0.00    -0.237 OA
ATOM     68  O   UNL A   1      45.581  37.504  33.191  1.00  0.00    -0.744 OA
ENDBRANCH  64  65
ENDBRANCH  45  59
BRANCH  46  69
ATOM     69  C   UNL A   1      42.617  23.756  27.817  1.00  0.00    -0.014 A 
ATOM     70  C   UNL A   1      42.369  22.663  28.666  1.00  0.00     0.010 A 
ATOM     71  C   UNL A   1      42.673  23.541  26.427  1.00  0.00     0.010 A 
ATOM     72  C   UNL A   1      42.191  21.380  28.137  1.00  0.00     0.020 A 
ATOM     73  C   UNL A   1      42.464  22.266  25.892  1.00  0.00     0.020 A 
ATOM     74  C   UNL A   1      42.234  21.191  26.753  1.00  0.00     0.054 A 
BRANCH  74  75
ATOM     75  S   UNL A   1      41.934  19.529  26.088  1.00  0.00     0.124 S 
ATOM     76  O   UNL A   1      40.516  19.589  25.749  1.00  0.00    -0.237 OA
ATOM     77  O   UNL A   1      42.854  19.475  24.955  1.00  0.00    -0.237 OA
ATOM     78  O   UNL A   1      42.275  18.647  27.202  1.00  0.00    -0.744 OA
ENDBRANCH  74  75
ENDBRANCH  46  69
BRANCH  58  79
ATOM     79  C   UNL A   1      47.972  27.250  30.636  1.00  0.00    -0.014 A 
ATOM     80  C   UNL A   1      49.012  27.449  29.711  1.00  0.00     0.010 A 
ATOM     81  C   UNL A   1      48.275  26.734  31.909  1.00  0.00     0.010 A 
ATOM     82  C   UNL A   1      50.326  27.109  30.045  1.00  0.00     0.020 A 
ATOM     83  C   UNL A   1      49.591  26.422  32.257  1.00  0.00     0.020 A 
ATOM     84  C   UNL A   1      50.607  26.599  31.317  1.00  0.00     0.054 A 
BRANCH  84  85
ATOM     85  S   UNL A   1      52.327  26.211  31.740  1.00  0.00     0.124 S 
ATOM     86  O   UNL A   1      52.997  26.353  30.451  1.00  0.00    -0.237 OA
ATOM     87  O   UNL A   1      52.650  27.232  32.734  1.00  0.00    -0.237 OA
ATOM     88  O   UNL A   1      52.257  24.845  32.258  1.00  0.00    -0.744 OA
ENDBRANCH  84  85
ENDBRANCH  58  79
ENDBRANCH  32  33
ENDBRANCH  24  27
ENDBRANCH  22  23
ENDBRANCH  21  22
ENDBRANCH   1  21
TORSDOF 18
ENDMDL
MODEL 3
REMARK VINA RESULT:      -9.0      4.702     11.185
REMARK SMILES COc1ccc(Cl)cc1C[NH2+]CCC(=O)NCCCNC(=O)c1ccc(-c2c3nc(c(-c4ccc(S(=O)(=O)[O-])cc4)c4ccc([nH]4)c(-c4ccc(S(=O)(=O)[O-])cc4)c4nc(c(-c5ccc(S(=O)(=O)[O-])cc5)c5ccc2[nH]5)C=C4)C=C3)cc1
REMARK SMILES IDX 17 1 16 2 14 3 15 4 13 6 12 7 11 8 10 11 9 12 3 13 4 14 5 15
REMARK SMILES IDX 8 16 6 17 7 18 2 19 1 20 18 21 19 22 20 23 21 24 22 26 23 27
REMARK SMILES IDX 24 28 82 29 25 30 81 31 26 32 27 33 28 34 75 35 29 36 80 37
REMARK SMILES IDX 74 38 76 39 30 40 79 41 73 42 72 43 31 45 61 46 42 47 60 48
REMARK SMILES IDX 43 49 46 50 59 51 77 52 44 53 45 54 58 56 78 57 47 58 32 59
REMARK SMILES IDX 33 60 41 61 34 62 40 63 35 64 36 65 37 66 38 67 39 68 62 69
REMARK SMILES IDX 63 70 71 71 64 72 70 73 65 74 66 75 67 76 68 77 69 78 48 79
REMARK SMILES IDX 49 80 57 81 50 82 56 83 51 84 52 85 53 86 54 87 55 88
REMARK H PARENT 16 5 11 9 11 10 20 25 76 44 46 55
REMARK Flexibility Score: inf
ROOT
ATOM      1  C   UNL A   1      37.143  21.299  25.211  1.00  0.00     0.117 C 
ENDROOT
BRANCH   1   2
ATOM      2  N   UNL A   1      35.869  20.621  25.171  1.00  0.00    -0.356 N 
ATOM      3  C   UNL A   1      34.714  20.953  25.814  1.00  0.00     0.225 C 
ATOM      4  O   UNL A   1      33.725  20.239  25.642  1.00  0.00    -0.275 OA
ATOM      5  H   UNL A   1      35.829  19.815  24.606  1.00  0.00     0.163 HD
BRANCH   3   6
ATOM      6  C   UNL A   1      34.643  22.201  26.674  1.00  0.00     0.161 C 
BRANCH   6   7
ATOM      7  C   UNL A   1      33.362  22.349  27.506  1.00  0.00     0.270 C 
BRANCH   7   8
ATOM      8  N   UNL A   1      32.072  22.421  26.820  1.00  0.00    -0.342 N 
ATOM      9  H   UNL A   1      32.213  22.095  25.863  1.00  0.00     0.346 HD
ATOM     10  H   UNL A   1      31.441  21.848  27.379  1.00  0.00     0.346 HD
BRANCH   8  11
ATOM     11  C   UNL A   1      31.429  23.738  26.748  1.00  0.00     0.301 C 
BRANCH  11  12
ATOM     12  C   UNL A   1      32.208  24.680  25.835  1.00  0.00     0.050 A 
ATOM     13  C   UNL A   1      32.567  24.334  24.511  1.00  0.00     0.127 A 
ATOM     14  C   UNL A   1      33.378  25.200  23.761  1.00  0.00     0.048 A 
ATOM     15  C   UNL A   1      33.838  26.398  24.311  1.00  0.00     0.024 A 
ATOM     16  C   UNL A   1      32.662  25.907  26.362  1.00  0.00     0.034 A 
ATOM     17  C   UNL A   1      33.478  26.747  25.606  1.00  0.00     0.041 A 
ATOM     18  Cl  UNL A   1      34.077  28.208  26.288  1.00  0.00    -0.084 Cl
BRANCH  13  19
ATOM     19  O   UNL A   1      32.104  23.134  24.036  1.00  0.00    -0.496 OA
ATOM     20  C   UNL A   1      32.850  22.526  22.985  1.00  0.00     0.278 C 
ENDBRANCH  13  19
ENDBRANCH  11  12
ENDBRANCH   8  11
ENDBRANCH   7   8
ENDBRANCH   6   7
ENDBRANCH   3   6
ENDBRANCH   1   2
BRANCH   1  21
ATOM     21  C   UNL A   1      38.302  20.312  25.159  1.00  0.00     0.042 C 
BRANCH  21  22
ATOM     22  C   UNL A   1      39.421  20.649  26.122  1.00  0.00     0.118 C 
BRANCH  22  23
ATOM     23  N   UNL A   1      40.467  19.630  26.125  1.00  0.00    -0.352 N 
ATOM     24  C   UNL A   1      41.836  19.758  26.111  1.00  0.00     0.251 C 
ATOM     25  H   UNL A   1      40.139  18.702  26.140  1.00  0.00     0.163 HD
ATOM     26  O   UNL A   1      42.524  18.769  25.882  1.00  0.00    -0.269 OA
BRANCH  24  27
ATOM     27  C   UNL A   1      42.467  21.077  26.347  1.00  0.00     0.039 A 
ATOM     28  C   UNL A   1      42.783  21.892  25.257  1.00  0.00     0.014 A 
ATOM     29  C   UNL A   1      42.749  21.515  27.642  1.00  0.00     0.014 A 
ATOM     30  C   UNL A   1      43.309  23.169  25.474  1.00  0.00     0.010 A 
ATOM     31  C   UNL A   1      43.148  22.827  27.860  1.00  0.00     0.010 A 
ATOM     32  C   UNL A   1      43.452  23.664  26.780  1.00  0.00    -0.014 A 
BRANCH  32  33
ATOM     33  C   UNL A   1      43.936  25.041  27.054  1.00  0.00     0.031 A 
ATOM     34  C   UNL A   1      45.398  25.366  26.893  1.00  0.00     0.074 A 
ATOM     35  C   UNL A   1      43.082  25.967  27.531  1.00  0.00     0.049 A 
ATOM     36  N   UNL A   1      46.035  26.473  27.179  1.00  0.00    -0.248 NA
ATOM     37  C   UNL A   1      46.268  24.293  26.380  1.00  0.00     0.031 C 
ATOM     38  C   UNL A   1      41.654  25.756  27.783  1.00  0.00     0.029 A 
ATOM     39  N   UNL A   1      43.294  27.271  27.902  1.00  0.00    -0.354 N 
ATOM     40  C   UNL A   1      47.375  26.219  26.906  1.00  0.00     0.074 A 
ATOM     41  C   UNL A   1      47.469  24.835  26.499  1.00  0.00     0.031 C 
ATOM     42  C   UNL A   1      41.113  26.899  28.235  1.00  0.00     0.029 A 
ATOM     43  C   UNL A   1      42.162  27.906  28.355  1.00  0.00     0.049 A 
ATOM     44  H   UNL A   1      44.174  27.710  27.849  1.00  0.00     0.167 HD
ATOM     45  C   UNL A   1      48.429  27.067  26.963  1.00  0.00     0.031 A 
ATOM     46  C   UNL A   1      41.989  29.157  28.825  1.00  0.00     0.031 A 
ATOM     47  C   UNL A   1      48.324  28.446  27.357  1.00  0.00     0.049 A 
ATOM     48  C   UNL A   1      43.172  30.084  28.882  1.00  0.00     0.074 A 
ATOM     49  C   UNL A   1      49.316  29.409  27.395  1.00  0.00     0.029 A 
ATOM     50  N   UNL A   1      47.154  29.058  27.785  1.00  0.00    -0.354 N 
ATOM     51  N   UNL A   1      44.421  29.847  28.555  1.00  0.00    -0.248 NA
ATOM     52  C   UNL A   1      42.922  31.450  29.359  1.00  0.00     0.031 C 
ATOM     53  C   UNL A   1      48.759  30.587  27.901  1.00  0.00     0.029 A 
ATOM     54  C   UNL A   1      47.404  30.379  28.112  1.00  0.00     0.049 A 
ATOM     55  H   UNL A   1      46.276  28.617  27.846  1.00  0.00     0.167 HD
ATOM     56  C   UNL A   1      45.101  31.042  28.759  1.00  0.00     0.074 A 
ATOM     57  C   UNL A   1      44.120  32.003  29.224  1.00  0.00     0.031 C 
ATOM     58  C   UNL A   1      46.416  31.320  28.577  1.00  0.00     0.031 A 
BRANCH  45  59
ATOM     59  C   UNL A   1      49.784  26.516  26.593  1.00  0.00    -0.014 A 
ATOM     60  C   UNL A   1      50.238  26.527  25.260  1.00  0.00     0.010 A 
ATOM     61  C   UNL A   1      50.623  25.989  27.592  1.00  0.00     0.010 A 
ATOM     62  C   UNL A   1      51.473  25.967  24.925  1.00  0.00     0.020 A 
ATOM     63  C   UNL A   1      51.877  25.461  27.266  1.00  0.00     0.020 A 
ATOM     64  C   UNL A   1      52.283  25.432  25.930  1.00  0.00     0.054 A 
BRANCH  64  65
ATOM     65  S   UNL A   1      53.882  24.713  25.466  1.00  0.00     0.124 S 
ATOM     66  O   UNL A   1      53.492  23.379  25.015  1.00  0.00    -0.237 OA
ATOM     67  O   UNL A   1      54.347  25.618  24.418  1.00  0.00    -0.237 OA
ATOM     68  O   UNL A   1      54.654  24.750  26.705  1.00  0.00    -0.744 OA
ENDBRANCH  64  65
ENDBRANCH  45  59
BRANCH  46  69
ATOM     69  C   UNL A   1      40.635  29.602  29.256  1.00  0.00    -0.014 A 
ATOM     70  C   UNL A   1      39.651  29.925  28.304  1.00  0.00     0.010 A 
ATOM     71  C   UNL A   1      40.308  29.669  30.624  1.00  0.00     0.010 A 
ATOM     72  C   UNL A   1      38.372  30.317  28.712  1.00  0.00     0.020 A 
ATOM     73  C   UNL A   1      39.021  30.030  31.034  1.00  0.00     0.020 A 
ATOM     74  C   UNL A   1      38.063  30.360  30.074  1.00  0.00     0.054 A 
BRANCH  74  75
ATOM     75  S   UNL A   1      36.377  30.808  30.574  1.00  0.00     0.124 S 
ATOM     76  O   UNL A   1      36.059  29.761  31.540  1.00  0.00    -0.237 OA
ATOM     77  O   UNL A   1      36.560  32.146  31.129  1.00  0.00    -0.237 OA
ATOM     78  O   UNL A   1      35.622  30.757  29.324  1.00  0.00    -0.744 OA
ENDBRANCH  74  75
ENDBRANCH  46  69
BRANCH  58  79
ATOM     79  C   UNL A   1      46.869  32.731  28.843  1.00  0.00    -0.014 A 
ATOM     80  C   UNL A   1      46.824  33.717  27.841  1.00  0.00     0.010 A 
ATOM     81  C   UNL A   1      47.288  33.088  30.138  1.00  0.00     0.010 A 
ATOM     82  C   UNL A   1      47.220  35.027  28.123  1.00  0.00     0.020 A 
ATOM     83  C   UNL A   1      47.655  34.404  30.432  1.00  0.00     0.020 A 
ATOM     84  C   UNL A   1      47.631  35.363  29.417  1.00  0.00     0.054 A 
BRANCH  84  85
ATOM     85  S   UNL A   1      48.093  37.081  29.768  1.00  0.00     0.124 S 
ATOM     86  O   UNL A   1      48.692  37.499  28.503  1.00  0.00    -0.237 OA
ATOM     87  O   UNL A   1      46.809  37.697  30.090  1.00  0.00    -0.237 OA
ATOM     88  O   UNL A   1      49.023  36.968  30.890  1.00  0.00    -0.744 OA
ENDBRANCH  84  85
ENDBRANCH  58  79
ENDBRANCH  32  33
ENDBRANCH  24  27
ENDBRANCH  22  23
ENDBRANCH  21  22
ENDBRANCH   1  21
TORSDOF 18
ENDMDL
