MODEL 1
REMARK VINA RESULT:      -9.6      0.000      0.000
REMARK SMILES O=C(NCCCNC(=O)c1ccc(-c2ccc(Cl)cc2)cc1F)c1ccc(-c2c3nc(c(-c4ccc(S(=O)(=O)[O-])cc4)c4ccc([nH]4)c(-c4ccc(S(=O)(=O)[O-])cc4)c4nc(c(-c5ccc(S(=O)(=O)[O-])cc5)c5ccc2[nH]5)C=C4)C=C3)cc1
REMARK SMILES IDX 4 1 3 2 1 3 2 4 24 6 25 7 83 8 26 9 82 10 27 11 28 12 29 13
REMARK SMILES IDX 76 14 30 15 81 16 75 17 77 18 31 19 80 20 74 21 73 22 32 24
REMARK SMILES IDX 62 25 43 26 61 27 44 28 47 29 60 30 78 31 45 32 46 33 59 35
REMARK SMILES IDX 79 36 48 37 33 38 34 39 42 40 35 41 41 42 36 43 37 44 38 45
REMARK SMILES IDX 39 46 40 47 63 48 64 49 72 50 65 51 71 52 66 53 67 54 68 55
REMARK SMILES IDX 69 56 70 57 49 58 50 59 58 60 51 61 57 62 52 63 53 64 54 65
REMARK SMILES IDX 55 66 56 67 5 68 6 69 7 70 8 71 9 73 10 74 11 75 22 76 12 77
REMARK SMILES IDX 21 78 23 79 13 80 14 81 15 82 20 83 16 84 19 85 17 86 18 87
REMARK H PARENT 3 5 77 23 47 34 7 72
REMARK Flexibility Score: inf
ROOT
ATOM      1  C   UNL A   1      34.793  32.797  28.549  1.00  0.00     0.118 C 
ENDROOT
BRANCH   1   2
ATOM      2  N   UNL A   1      34.019  31.594  28.273  1.00  0.00    -0.352 N 
ATOM      3  O   UNL A   1      33.639  29.474  27.629  1.00  0.00    -0.269 OA
ATOM      4  C   UNL A   1      34.439  30.308  28.045  1.00  0.00     0.251 C 
ATOM      5  H   UNL A   1      33.043  31.724  28.247  1.00  0.00     0.163 HD
BRANCH   4   6
ATOM      6  C   UNL A   1      35.848  29.930  28.285  1.00  0.00     0.039 A 
ATOM      7  C   UNL A   1      36.804  30.062  27.276  1.00  0.00     0.014 A 
ATOM      8  C   UNL A   1      36.229  29.474  29.551  1.00  0.00     0.014 A 
ATOM      9  C   UNL A   1      38.101  29.609  27.483  1.00  0.00     0.010 A 
ATOM     10  C   UNL A   1      37.559  29.112  29.789  1.00  0.00     0.010 A 
ATOM     11  C   UNL A   1      38.501  29.160  28.750  1.00  0.00    -0.014 A 
BRANCH  11  12
ATOM     12  C   UNL A   1      39.933  28.861  28.995  1.00  0.00     0.031 A 
ATOM     13  C   UNL A   1      40.539  27.547  28.592  1.00  0.00     0.074 A 
ATOM     14  C   UNL A   1      40.685  29.804  29.600  1.00  0.00     0.049 A 
ATOM     15  N   UNL A   1      41.768  27.128  28.758  1.00  0.00    -0.248 NA
ATOM     16  C   UNL A   1      39.659  26.573  27.927  1.00  0.00     0.031 C 
ATOM     17  C   UNL A   1      40.197  31.114  30.046  1.00  0.00     0.029 A 
ATOM     18  N   UNL A   1      42.013  29.816  29.940  1.00  0.00    -0.354 N 
ATOM     19  C   UNL A   1      41.804  25.837  28.245  1.00  0.00     0.074 A 
ATOM     20  C   UNL A   1      40.471  25.535  27.770  1.00  0.00     0.031 C 
ATOM     21  C   UNL A   1      41.214  31.809  30.571  1.00  0.00     0.029 A 
ATOM     22  C   UNL A   1      42.407  30.973  30.569  1.00  0.00     0.049 A 
ATOM     23  H   UNL A   1      42.624  29.067  29.753  1.00  0.00     0.167 HD
ATOM     24  C   UNL A   1      42.857  24.986  28.183  1.00  0.00     0.031 A 
ATOM     25  C   UNL A   1      43.586  31.316  31.119  1.00  0.00     0.031 A 
ATOM     26  C   UNL A   1      44.180  25.305  28.652  1.00  0.00     0.049 A 
ATOM     27  C   UNL A   1      44.721  30.336  31.067  1.00  0.00     0.074 A 
ATOM     28  C   UNL A   1      45.327  24.534  28.571  1.00  0.00     0.029 A 
ATOM     29  N   UNL A   1      44.533  26.476  29.305  1.00  0.00    -0.354 N 
ATOM     30  N   UNL A   1      44.753  29.148  30.512  1.00  0.00    -0.248 NA
ATOM     31  C   UNL A   1      45.974  30.736  31.720  1.00  0.00     0.031 C 
ATOM     32  C   UNL A   1      46.356  25.210  29.233  1.00  0.00     0.029 A 
ATOM     33  C   UNL A   1      45.867  26.430  29.673  1.00  0.00     0.049 A 
ATOM     34  H   UNL A   1      43.924  27.230  29.481  1.00  0.00     0.167 HD
ATOM     35  C   UNL A   1      46.034  28.661  30.742  1.00  0.00     0.074 A 
ATOM     36  C   UNL A   1      46.753  29.694  31.462  1.00  0.00     0.031 C 
ATOM     37  C   UNL A   1      46.564  27.464  30.393  1.00  0.00     0.031 A 
BRANCH  24  38
ATOM     38  C   UNL A   1      42.626  23.609  27.617  1.00  0.00    -0.014 A 
ATOM     39  C   UNL A   1      42.982  23.290  26.295  1.00  0.00     0.010 A 
ATOM     40  C   UNL A   1      42.129  22.594  28.455  1.00  0.00     0.010 A 
ATOM     41  C   UNL A   1      42.823  21.986  25.814  1.00  0.00     0.020 A 
ATOM     42  C   UNL A   1      41.990  21.283  27.985  1.00  0.00     0.020 A 
ATOM     43  C   UNL A   1      42.329  20.991  26.665  1.00  0.00     0.054 A 
BRANCH  43  44
ATOM     44  S   UNL A   1      42.178  19.298  26.027  1.00  0.00     0.124 S 
ATOM     45  O   UNL A   1      40.736  19.179  25.831  1.00  0.00    -0.237 OA
ATOM     46  O   UNL A   1      42.975  19.345  24.804  1.00  0.00    -0.237 OA
ATOM     47  O   UNL A   1      42.732  18.472  27.097  1.00  0.00    -0.744 OA
ENDBRANCH  43  44
ENDBRANCH  24  38
BRANCH  25  48
ATOM     48  C   UNL A   1      43.727  32.625  31.812  1.00  0.00    -0.014 A 
ATOM     49  C   UNL A   1      43.441  32.752  33.182  1.00  0.00     0.010 A 
ATOM     50  C   UNL A   1      44.164  33.756  31.095  1.00  0.00     0.010 A 
ATOM     51  C   UNL A   1      43.569  33.991  33.816  1.00  0.00     0.020 A 
ATOM     52  C   UNL A   1      44.323  34.987  31.732  1.00  0.00     0.020 A 
ATOM     53  C   UNL A   1      44.007  35.101  33.087  1.00  0.00     0.054 A 
BRANCH  53  54
ATOM     54  S   UNL A   1      44.197  36.691  33.939  1.00  0.00     0.124 S 
ATOM     55  O   UNL A   1      44.463  37.598  32.827  1.00  0.00    -0.237 OA
ATOM     56  O   UNL A   1      42.902  36.855  34.595  1.00  0.00    -0.237 OA
ATOM     57  O   UNL A   1      45.321  36.461  34.844  1.00  0.00    -0.744 OA
ENDBRANCH  53  54
ENDBRANCH  25  48
BRANCH  37  58
ATOM     58  C   UNL A   1      47.997  27.209  30.775  1.00  0.00    -0.014 A 
ATOM     59  C   UNL A   1      48.317  26.513  31.954  1.00  0.00     0.010 A 
ATOM     60  C   UNL A   1      49.030  27.611  29.911  1.00  0.00     0.010 A 
ATOM     61  C   UNL A   1      49.650  26.239  32.271  1.00  0.00     0.020 A 
ATOM     62  C   UNL A   1      50.362  27.315  30.210  1.00  0.00     0.020 A 
ATOM     63  C   UNL A   1      50.663  26.639  31.394  1.00  0.00     0.054 A 
BRANCH  63  64
ATOM     64  S   UNL A   1      52.379  26.211  31.795  1.00  0.00     0.124 S 
ATOM     65  O   UNL A   1      52.239  24.859  32.329  1.00  0.00    -0.237 OA
ATOM     66  O   UNL A   1      53.046  26.310  30.499  1.00  0.00    -0.237 OA
ATOM     67  O   UNL A   1      52.771  27.228  32.770  1.00  0.00    -0.744 OA
ENDBRANCH  63  64
ENDBRANCH  37  58
ENDBRANCH  11  12
ENDBRANCH   4   6
ENDBRANCH   1   2
BRANCH   1  68
ATOM     68  C   UNL A   1      34.696  33.231  30.004  1.00  0.00     0.042 C 
BRANCH  68  69
ATOM     69  C   UNL A   1      35.911  34.004  30.493  1.00  0.00     0.118 C 
BRANCH  69  70
ATOM     70  N   UNL A   1      35.650  34.714  31.740  1.00  0.00    -0.352 N 
ATOM     71  C   UNL A   1      36.110  34.451  33.004  1.00  0.00     0.254 C 
ATOM     72  H   UNL A   1      35.057  35.496  31.662  1.00  0.00     0.163 HD
ATOM     73  O   UNL A   1      35.676  35.076  33.968  1.00  0.00    -0.269 OA
BRANCH  71  74
ATOM     74  C   UNL A   1      37.093  33.381  33.222  1.00  0.00     0.075 A 
ATOM     75  C   UNL A   1      36.660  32.053  33.223  1.00  0.00     0.017 A 
ATOM     76  C   UNL A   1      38.435  33.672  33.434  1.00  0.00     0.136 A 
ATOM     77  C   UNL A   1      37.598  31.023  33.358  1.00  0.00     0.010 A 
ATOM     78  C   UNL A   1      39.370  32.650  33.549  1.00  0.00     0.048 A 
ATOM     79  F   UNL A   1      38.867  34.940  33.491  1.00  0.00    -0.206 F 
ATOM     80  C   UNL A   1      38.969  31.305  33.499  1.00  0.00    -0.015 A 
BRANCH  80  81
ATOM     81  C   UNL A   1      39.970  30.229  33.579  1.00  0.00    -0.018 A 
ATOM     82  C   UNL A   1      41.201  30.437  34.224  1.00  0.00     0.010 A 
ATOM     83  C   UNL A   1      39.739  28.978  32.981  1.00  0.00     0.010 A 
ATOM     84  C   UNL A   1      42.171  29.432  34.267  1.00  0.00     0.021 A 
ATOM     85  C   UNL A   1      40.707  27.970  33.023  1.00  0.00     0.021 A 
ATOM     86  C   UNL A   1      41.919  28.203  33.666  1.00  0.00     0.041 A 
ATOM     87  Cl  UNL A   1      43.116  26.968  33.715  1.00  0.00    -0.084 Cl
ENDBRANCH  80  81
ENDBRANCH  71  74
ENDBRANCH  69  70
ENDBRANCH  68  69
ENDBRANCH   1  68
TORSDOF 14
ENDMDL
MODEL 2
REMARK VINA RESULT:      -9.6      3.358      9.738
REMARK SMILES O=C(NCCCNC(=O)c1ccc(-c2ccc(Cl)cc2)cc1F)c1ccc(-c2c3nc(c(-c4ccc(S(=O)(=O)[O-])cc4)c4ccc([nH]4)c(-c4ccc(S(=O)(=O)[O-])cc4)c4nc(c(-c5ccc(S(=O)(=O)[O-])cc5)c5ccc2[nH]5)C=C4)C=C3)cc1
REMARK SMILES IDX 4 1 3 2 1 3 2 4 24 6 25 7 83 8 26 9 82 10 27 11 28 12 29 13
REMARK SMILES IDX 76 14 30 15 81 16 75 17 77 18 31 19 80 20 74 21 73 22 32 24
REMARK SMILES IDX 62 25 43 26 61 27 44 28 47 29 60 30 78 31 45 32 46 33 59 35
REMARK SMILES IDX 79 36 48 37 33 38 34 39 42 40 35 41 41 42 36 43 37 44 38 45
REMARK SMILES IDX 39 46 40 47 63 48 64 49 72 50 65 51 71 52 66 53 67 54 68 55
REMARK SMILES IDX 69 56 70 57 49 58 50 59 58 60 51 61 57 62 52 63 53 64 54 65
REMARK SMILES IDX 55 66 56 67 5 68 6 69 7 70 8 71 9 73 10 74 11 75 22 76 12 77
REMARK SMILES IDX 21 78 23 79 13 80 14 81 15 82 20 83 16 84 19 85 17 86 18 87
REMARK H PARENT 3 5 77 23 47 34 7 72
REMARK Flexibility Score: inf
ROOT
ATOM      1  C   UNL A   1      40.762  21.625  26.886  1.00  0.00     0.118 C 
ENDROOT
BRANCH   1   2
ATOM      2  N   UNL A   1      39.593  21.966  26.088  1.00  0.00    -0.352 N 
ATOM      3  O   UNL A   1      37.762  23.119  25.477  1.00  0.00    -0.269 OA
ATOM      4  C   UNL A   1      38.832  23.108  26.080  1.00  0.00     0.251 C 
ATOM      5  H   UNL A   1      39.303  21.269  25.455  1.00  0.00     0.163 HD
BRANCH   4   6
ATOM      6  C   UNL A   1      39.288  24.313  26.805  1.00  0.00     0.039 A 
ATOM      7  C   UNL A   1      38.947  24.513  28.145  1.00  0.00     0.014 A 
ATOM      8  C   UNL A   1      40.104  25.239  26.148  1.00  0.00     0.014 A 
ATOM      9  C   UNL A   1      39.297  25.696  28.782  1.00  0.00     0.010 A 
ATOM     10  C   UNL A   1      40.541  26.384  26.822  1.00  0.00     0.010 A 
ATOM     11  C   UNL A   1      40.125  26.630  28.140  1.00  0.00    -0.014 A 
BRANCH  11  12
ATOM     12  C   UNL A   1      40.639  27.791  28.905  1.00  0.00     0.031 A 
ATOM     13  C   UNL A   1      42.002  27.774  29.535  1.00  0.00     0.074 A 
ATOM     14  C   UNL A   1      39.843  28.874  29.028  1.00  0.00     0.049 A 
ATOM     15  N   UNL A   1      42.584  28.701  30.252  1.00  0.00    -0.248 NA
ATOM     16  C   UNL A   1      42.817  26.563  29.347  1.00  0.00     0.031 C 
ATOM     17  C   UNL A   1      38.492  28.996  28.467  1.00  0.00     0.029 A 
ATOM     18  N   UNL A   1      40.047  30.075  29.655  1.00  0.00    -0.354 N 
ATOM     19  C   UNL A   1      43.817  28.180  30.624  1.00  0.00     0.074 A 
ATOM     20  C   UNL A   1      43.899  26.849  30.062  1.00  0.00     0.031 C 
ATOM     21  C   UNL A   1      38.005  30.211  28.749  1.00  0.00     0.029 A 
ATOM     22  C   UNL A   1      38.971  30.927  29.571  1.00  0.00     0.049 A 
ATOM     23  H   UNL A   1      40.883  30.306  30.122  1.00  0.00     0.167 HD
ATOM     24  C   UNL A   1      44.786  28.763  31.370  1.00  0.00     0.031 A 
ATOM     25  C   UNL A   1      38.762  32.136  30.124  1.00  0.00     0.031 A 
ATOM     26  C   UNL A   1      44.694  30.093  31.916  1.00  0.00     0.049 A 
ATOM     27  C   UNL A   1      39.840  32.738  30.976  1.00  0.00     0.074 A 
ATOM     28  C   UNL A   1      45.651  30.796  32.628  1.00  0.00     0.029 A 
ATOM     29  N   UNL A   1      43.579  30.912  31.830  1.00  0.00    -0.354 N 
ATOM     30  N   UNL A   1      41.029  32.258  31.255  1.00  0.00    -0.248 NA
ATOM     31  C   UNL A   1      39.550  34.038  31.594  1.00  0.00     0.031 C 
ATOM     32  C   UNL A   1      45.091  32.012  33.028  1.00  0.00     0.029 A 
ATOM     33  C   UNL A   1      43.807  32.095  32.514  1.00  0.00     0.049 A 
ATOM     34  H   UNL A   1      42.748  30.688  31.353  1.00  0.00     0.167 HD
ATOM     35  C   UNL A   1      41.632  33.202  32.075  1.00  0.00     0.074 A 
ATOM     36  C   UNL A   1      40.689  34.293  32.225  1.00  0.00     0.031 C 
ATOM     37  C   UNL A   1      42.855  33.166  32.657  1.00  0.00     0.031 A 
BRANCH  24  38
ATOM     38  C   UNL A   1      46.027  27.964  31.677  1.00  0.00    -0.014 A 
ATOM     39  C   UNL A   1      46.080  27.084  32.772  1.00  0.00     0.010 A 
ATOM     40  C   UNL A   1      47.123  28.030  30.797  1.00  0.00     0.010 A 
ATOM     41  C   UNL A   1      47.218  26.301  32.994  1.00  0.00     0.020 A 
ATOM     42  C   UNL A   1      48.253  27.232  31.003  1.00  0.00     0.020 A 
ATOM     43  C   UNL A   1      48.296  26.379  32.106  1.00  0.00     0.054 A 
BRANCH  43  44
ATOM     44  S   UNL A   1      49.739  25.317  32.396  1.00  0.00     0.124 S 
ATOM     45  O   UNL A   1      50.036  24.839  31.048  1.00  0.00    -0.237 OA
ATOM     46  O   UNL A   1      50.714  26.248  32.959  1.00  0.00    -0.237 OA
ATOM     47  O   UNL A   1      49.244  24.302  33.323  1.00  0.00    -0.744 OA
ENDBRANCH  43  44
ENDBRANCH  24  38
BRANCH  25  48
ATOM     48  C   UNL A   1      37.457  32.824  29.929  1.00  0.00    -0.014 A 
ATOM     49  C   UNL A   1      37.249  33.682  28.836  1.00  0.00     0.010 A 
ATOM     50  C   UNL A   1      36.406  32.607  30.840  1.00  0.00     0.010 A 
ATOM     51  C   UNL A   1      36.020  34.329  28.672  1.00  0.00     0.020 A 
ATOM     52  C   UNL A   1      35.167  33.225  30.661  1.00  0.00     0.020 A 
ATOM     53  C   UNL A   1      34.988  34.097  29.587  1.00  0.00     0.054 A 
BRANCH  53  54
ATOM     54  S   UNL A   1      33.392  34.921  29.335  1.00  0.00     0.124 S 
ATOM     55  O   UNL A   1      33.803  36.224  28.821  1.00  0.00    -0.237 OA
ATOM     56  O   UNL A   1      32.729  34.041  28.376  1.00  0.00    -0.237 OA
ATOM     57  O   UNL A   1      32.800  34.933  30.671  1.00  0.00    -0.744 OA
ENDBRANCH  53  54
ENDBRANCH  25  48
BRANCH  37  58
ATOM     58  C   UNL A   1      43.251  34.347  33.501  1.00  0.00    -0.014 A 
ATOM     59  C   UNL A   1      43.755  35.520  32.912  1.00  0.00     0.010 A 
ATOM     60  C   UNL A   1      43.054  34.305  34.893  1.00  0.00     0.010 A 
ATOM     61  C   UNL A   1      44.072  36.626  33.703  1.00  0.00     0.020 A 
ATOM     62  C   UNL A   1      43.343  35.419  35.684  1.00  0.00     0.020 A 
ATOM     63  C   UNL A   1      43.860  36.569  35.085  1.00  0.00     0.054 A 
BRANCH  63  64
ATOM     64  S   UNL A   1      44.216  38.043  36.080  1.00  0.00     0.124 S 
ATOM     65  O   UNL A   1      45.654  37.923  36.298  1.00  0.00    -0.237 OA
ATOM     66  O   UNL A   1      43.802  39.133  35.199  1.00  0.00    -0.237 OA
ATOM     67  O   UNL A   1      43.388  37.865  37.271  1.00  0.00    -0.744 OA
ENDBRANCH  63  64
ENDBRANCH  37  58
ENDBRANCH  11  12
ENDBRANCH   4   6
ENDBRANCH   1   2
BRANCH   1  68
ATOM     68  C   UNL A   1      42.050  21.662  26.078  1.00  0.00     0.042 C 
BRANCH  68  69
ATOM     69  C   UNL A   1      43.286  21.970  26.909  1.00  0.00     0.118 C 
BRANCH  69  70
ATOM     70  N   UNL A   1      44.522  21.683  26.191  1.00  0.00    -0.352 N 
ATOM     71  C   UNL A   1      45.456  22.551  25.685  1.00  0.00     0.254 C 
ATOM     72  H   UNL A   1      44.714  20.729  26.049  1.00  0.00     0.163 HD
ATOM     73  O   UNL A   1      46.374  22.138  24.983  1.00  0.00    -0.269 OA
BRANCH  71  74
ATOM     74  C   UNL A   1      45.334  23.993  25.939  1.00  0.00     0.075 A 
ATOM     75  C   UNL A   1      44.550  24.768  25.082  1.00  0.00     0.017 A 
ATOM     76  C   UNL A   1      45.993  24.591  27.006  1.00  0.00     0.136 A 
ATOM     77  C   UNL A   1      44.370  26.128  25.355  1.00  0.00     0.010 A 
ATOM     78  C   UNL A   1      45.799  25.938  27.291  1.00  0.00     0.048 A 
ATOM     79  F   UNL A   1      46.794  23.879  27.813  1.00  0.00    -0.206 F 
ATOM     80  C   UNL A   1      44.972  26.729  26.477  1.00  0.00    -0.015 A 
BRANCH  80  81
ATOM     81  C   UNL A   1      44.739  28.143  26.808  1.00  0.00    -0.018 A 
ATOM     82  C   UNL A   1      45.725  28.902  27.462  1.00  0.00     0.010 A 
ATOM     83  C   UNL A   1      43.513  28.764  26.514  1.00  0.00     0.010 A 
ATOM     84  C   UNL A   1      45.493  30.234  27.816  1.00  0.00     0.021 A 
ATOM     85  C   UNL A   1      43.278  30.097  26.866  1.00  0.00     0.021 A 
ATOM     86  C   UNL A   1      44.270  30.825  27.516  1.00  0.00     0.041 A 
ATOM     87  Cl  UNL A   1      43.983  32.463  27.956  1.00  0.00    -0.084 Cl
ENDBRANCH  80  81
ENDBRANCH  71  74
ENDBRANCH  69  70
ENDBRANCH  68  69
ENDBRANCH   1  68
TORSDOF 14
ENDMDL
MODEL 3
REMARK VINA RESULT:      -9.6      3.376     10.649
REMARK SMILES O=C(NCCCNC(=O)c1ccc(-c2ccc(Cl)cc2)cc1F)c1ccc(-c2c3nc(c(-c4ccc(S(=O)(=O)[O-])cc4)c4ccc([nH]4)c(-c4ccc(S(=O)(=O)[O-])cc4)c4nc(c(-c5ccc(S(=O)(=O)[O-])cc5)c5ccc2[nH]5)C=C4)C=C3)cc1
REMARK SMILES IDX 4 1 3 2 1 3 2 4 24 6 25 7 83 8 26 9 82 10 27 11 28 12 29 13
REMARK SMILES IDX 76 14 30 15 81 16 75 17 77 18 31 19 80 20 74 21 73 22 32 24
REMARK SMILES IDX 62 25 43 26 61 27 44 28 47 29 60 30 78 31 45 32 46 33 59 35
REMARK SMILES IDX 79 36 48 37 33 38 34 39 42 40 35 41 41 42 36 43 37 44 38 45
REMARK SMILES IDX 39 46 40 47 63 48 64 49 72 50 65 51 71 52 66 53 67 54 68 55
REMARK SMILES IDX 69 56 70 57 49 58 50 59 58 60 51 61 57 62 52 63 53 64 54 65
REMARK SMILES IDX 55 66 56 67 5 68 6 69 7 70 8 71 9 73 10 74 11 75 22 76 12 77
REMARK SMILES IDX 21 78 23 79 13 80 14 81 15 82 20 83 16 84 19 85 17 86 18 87
REMARK H PARENT 3 5 77 23 47 34 7 72
REMARK Flexibility Score: inf
ROOT
ATOM      1  C   UNL A   1      40.815  21.618  26.791  1.00  0.00     0.118 C 
ENDROOT
BRANCH   1   2
ATOM      2  N   UNL A   1      39.629  21.921  26.001  1.00  0.00    -0.352 N 
ATOM      3  O   UNL A   1      37.747  23.003  25.414  1.00  0.00    -0.269 OA
ATOM      4  C   UNL A   1      38.819  23.028  26.016  1.00  0.00     0.251 C 
ATOM      5  H   UNL A   1      39.370  21.224  25.356  1.00  0.00     0.163 HD
BRANCH   4   6
ATOM      6  C   UNL A   1      39.223  24.239  26.762  1.00  0.00     0.039 A 
ATOM      7  C   UNL A   1      38.845  24.416  28.095  1.00  0.00     0.014 A 
ATOM      8  C   UNL A   1      40.027  25.195  26.133  1.00  0.00     0.014 A 
ATOM      9  C   UNL A   1      39.146  25.602  28.751  1.00  0.00     0.010 A 
ATOM     10  C   UNL A   1      40.414  26.344  26.828  1.00  0.00     0.010 A 
ATOM     11  C   UNL A   1      39.961  26.565  28.137  1.00  0.00    -0.014 A 
BRANCH  11  12
ATOM     12  C   UNL A   1      40.423  27.734  28.925  1.00  0.00     0.031 A 
ATOM     13  C   UNL A   1      39.532  28.920  29.161  1.00  0.00     0.074 A 
ATOM     14  C   UNL A   1      41.675  27.708  29.426  1.00  0.00     0.049 A 
ATOM     15  N   UNL A   1      39.798  30.026  29.810  1.00  0.00    -0.248 NA
ATOM     16  C   UNL A   1      38.176  28.870  28.595  1.00  0.00     0.031 C 
ATOM     17  C   UNL A   1      42.633  26.611  29.248  1.00  0.00     0.029 A 
ATOM     18  N   UNL A   1      42.360  28.620  30.187  1.00  0.00    -0.354 N 
ATOM     19  C   UNL A   1      38.658  30.813  29.707  1.00  0.00     0.074 A 
ATOM     20  C   UNL A   1      37.698  30.064  28.925  1.00  0.00     0.031 C 
ATOM     21  C   UNL A   1      43.764  26.900  29.905  1.00  0.00     0.029 A 
ATOM     22  C   UNL A   1      43.644  28.230  30.486  1.00  0.00     0.049 A 
ATOM     23  H   UNL A   1      41.970  29.472  30.489  1.00  0.00     0.167 HD
ATOM     24  C   UNL A   1      38.440  32.049  30.218  1.00  0.00     0.031 A 
ATOM     25  C   UNL A   1      44.634  28.881  31.125  1.00  0.00     0.031 A 
ATOM     26  C   UNL A   1      39.402  32.779  31.003  1.00  0.00     0.049 A 
ATOM     27  C   UNL A   1      44.372  30.264  31.646  1.00  0.00     0.074 A 
ATOM     28  C   UNL A   1      39.250  34.008  31.620  1.00  0.00     0.029 A 
ATOM     29  N   UNL A   1      40.699  32.361  31.262  1.00  0.00    -0.354 N 
ATOM     30  N   UNL A   1      43.261  30.960  31.601  1.00  0.00    -0.248 NA
ATOM     31  C   UNL A   1      45.494  30.951  32.296  1.00  0.00     0.031 C 
ATOM     32  C   UNL A   1      40.473  34.362  32.196  1.00  0.00     0.029 A 
ATOM     33  C   UNL A   1      41.371  33.327  31.990  1.00  0.00     0.049 A 
ATOM     34  H   UNL A   1      41.085  31.503  30.971  1.00  0.00     0.167 HD
ATOM     35  C   UNL A   1      43.550  32.166  32.225  1.00  0.00     0.074 A 
ATOM     36  C   UNL A   1      44.930  32.094  32.662  1.00  0.00     0.031 C 
ATOM     37  C   UNL A   1      42.745  33.240  32.413  1.00  0.00     0.031 A 
BRANCH  24  38
ATOM     38  C   UNL A   1      37.122  32.718  29.925  1.00  0.00    -0.014 A 
ATOM     39  C   UNL A   1      36.053  32.662  30.836  1.00  0.00     0.010 A 
ATOM     40  C   UNL A   1      36.987  33.493  28.758  1.00  0.00     0.010 A 
ATOM     41  C   UNL A   1      34.863  33.351  30.572  1.00  0.00     0.020 A 
ATOM     42  C   UNL A   1      35.808  34.201  28.502  1.00  0.00     0.020 A 
ATOM     43  C   UNL A   1      34.751  34.117  29.407  1.00  0.00     0.054 A 
BRANCH  43  44
ATOM     44  S   UNL A   1      33.213  35.036  29.117  1.00  0.00     0.124 S 
ATOM     45  O   UNL A   1      32.572  34.230  28.081  1.00  0.00    -0.237 OA
ATOM     46  O   UNL A   1      32.567  35.003  30.427  1.00  0.00    -0.237 OA
ATOM     47  O   UNL A   1      33.672  36.355  28.685  1.00  0.00    -0.744 OA
ENDBRANCH  43  44
ENDBRANCH  24  38
BRANCH  25  48
ATOM     48  C   UNL A   1      45.974  28.247  31.254  1.00  0.00    -0.014 A 
ATOM     49  C   UNL A   1      46.307  27.484  32.385  1.00  0.00     0.010 A 
ATOM     50  C   UNL A   1      46.923  28.399  30.225  1.00  0.00     0.010 A 
ATOM     51  C   UNL A   1      47.574  26.904  32.495  1.00  0.00     0.020 A 
ATOM     52  C   UNL A   1      48.178  27.793  30.316  1.00  0.00     0.020 A 
ATOM     53  C   UNL A   1      48.501  27.063  31.461  1.00  0.00     0.054 A 
BRANCH  53  54
ATOM     54  S   UNL A   1      50.127  26.273  31.611  1.00  0.00     0.124 S 
ATOM     55  O   UNL A   1      50.126  25.364  30.469  1.00  0.00    -0.237 OA
ATOM     56  O   UNL A   1      51.041  27.409  31.517  1.00  0.00    -0.237 OA
ATOM     57  O   UNL A   1      50.075  25.631  32.923  1.00  0.00    -0.744 OA
ENDBRANCH  53  54
ENDBRANCH  25  48
BRANCH  37  58
ATOM     58  C   UNL A   1      43.333  34.423  33.134  1.00  0.00    -0.014 A 
ATOM     59  C   UNL A   1      43.923  35.482  32.423  1.00  0.00     0.010 A 
ATOM     60  C   UNL A   1      43.234  34.504  34.534  1.00  0.00     0.010 A 
ATOM     61  C   UNL A   1      44.420  36.597  33.102  1.00  0.00     0.020 A 
ATOM     62  C   UNL A   1      43.704  35.629  35.215  1.00  0.00     0.020 A 
ATOM     63  C   UNL A   1      44.303  36.664  34.495  1.00  0.00     0.054 A 
BRANCH  63  64
ATOM     64  S   UNL A   1      44.895  38.152  35.345  1.00  0.00     0.124 S 
ATOM     65  O   UNL A   1      44.309  37.997  36.674  1.00  0.00    -0.237 OA
ATOM     66  O   UNL A   1      46.347  38.005  35.278  1.00  0.00    -0.237 OA
ATOM     67  O   UNL A   1      44.349  39.248  34.548  1.00  0.00    -0.744 OA
ENDBRANCH  63  64
ENDBRANCH  37  58
ENDBRANCH  11  12
ENDBRANCH   4   6
ENDBRANCH   1   2
BRANCH   1  68
ATOM     68  C   UNL A   1      42.105  21.936  26.051  1.00  0.00     0.042 C 
BRANCH  68  69
ATOM     69  C   UNL A   1      43.311  22.093  26.964  1.00  0.00     0.118 C 
BRANCH  69  70
ATOM     70  N   UNL A   1      44.563  21.777  26.287  1.00  0.00    -0.352 N 
ATOM     71  C   UNL A   1      45.507  22.622  25.763  1.00  0.00     0.254 C 
ATOM     72  H   UNL A   1      44.759  20.817  26.193  1.00  0.00     0.163 HD
ATOM     73  O   UNL A   1      46.441  22.179  25.101  1.00  0.00    -0.269 OA
BRANCH  71  74
ATOM     74  C   UNL A   1      45.378  24.074  25.948  1.00  0.00     0.075 A 
ATOM     75  C   UNL A   1      44.440  24.773  25.187  1.00  0.00     0.017 A 
ATOM     76  C   UNL A   1      46.179  24.754  26.857  1.00  0.00     0.136 A 
ATOM     77  C   UNL A   1      44.260  26.144  25.404  1.00  0.00     0.010 A 
ATOM     78  C   UNL A   1      45.988  26.111  27.089  1.00  0.00     0.048 A 
ATOM     79  F   UNL A   1      47.124  24.115  27.562  1.00  0.00    -0.206 F 
ATOM     80  C   UNL A   1      45.014  26.829  26.376  1.00  0.00    -0.015 A 
BRANCH  80  81
ATOM     81  C   UNL A   1      44.789  28.255  26.657  1.00  0.00    -0.018 A 
ATOM     82  C   UNL A   1      45.859  29.101  26.996  1.00  0.00     0.010 A 
ATOM     83  C   UNL A   1      43.495  28.804  26.631  1.00  0.00     0.010 A 
ATOM     84  C   UNL A   1      45.645  30.447  27.304  1.00  0.00     0.021 A 
ATOM     85  C   UNL A   1      43.277  30.151  26.938  1.00  0.00     0.021 A 
ATOM     86  C   UNL A   1      44.355  30.966  27.274  1.00  0.00     0.041 A 
ATOM     87  Cl  UNL A   1      44.091  32.622  27.658  1.00  0.00    -0.084 Cl
ENDBRANCH  80  81
ENDBRANCH  71  74
ENDBRANCH  69  70
ENDBRANCH  68  69
ENDBRANCH   1  68
TORSDOF 14
ENDMDL
