MODEL 1
REMARK VINA RESULT:     -11.0      0.000      0.000
REMARK SMILES C[N@@H+]1CCC[C@@H](NC(=O)N(CC(=O)NCCCNC(=O)c2ccc(-c3c4nc(c(-c5ccc(S(=O)(=O)[O-])cc5)c5ccc([nH]5)c(-c5ccc(S(=O)(=O)[O-])cc5)c5nc(c(-c6ccc(S(=O)(=O)[O-])cc6)c6ccc3[nH]6)C=C5)C=C4)cc2)C(C)(C)C)C1
REMARK SMILES IDX 16 1 15 2 14 3 12 4 13 5 11 7 10 8 8 9 7 10 9 12 6 13 1 14
REMARK SMILES IDX 2 15 3 16 85 17 4 19 5 20 81 21 82 22 83 23 84 24 17 25
REMARK SMILES IDX 18 26 19 27 20 29 21 30 22 31 80 32 23 33 79 34 24 35 25 36
REMARK SMILES IDX 26 37 73 38 27 39 78 40 72 41 74 42 28 43 77 44 71 45 70 46
REMARK SMILES IDX 29 48 59 49 40 50 58 51 41 52 44 53 57 54 75 55 42 56 43 57
REMARK SMILES IDX 56 59 76 60 45 61 30 62 31 63 39 64 32 65 38 66 33 67 34 68
REMARK SMILES IDX 35 69 36 70 37 71 60 72 61 73 69 74 62 75 68 76 63 77 64 78
REMARK SMILES IDX 65 79 66 80 67 81 46 82 47 83 55 84 48 85 54 86 49 87 50 88
REMARK SMILES IDX 51 89 52 90 53 91
REMARK H PARENT 14 6 7 11 2 18 18 28 74 47 44 58
REMARK Flexibility Score: inf
ROOT
ATOM      1  C   UNL A   1      32.791  27.460  27.050  1.00  0.00     0.042 C 
ENDROOT
BRANCH   1   2
ATOM      2  C   UNL A   1      32.317  26.357  26.123  1.00  0.00     0.117 C 
BRANCH   2   3
ATOM      3  N   UNL A   1      31.567  25.286  26.732  1.00  0.00    -0.354 N 
ATOM      4  C   UNL A   1      31.748  23.941  26.610  1.00  0.00     0.239 C 
ATOM      5  O   UNL A   1      31.354  23.244  27.555  1.00  0.00    -0.273 OA
ATOM      6  H   UNL A   1      30.823  25.564  27.315  1.00  0.00     0.163 HD
BRANCH   4   7
ATOM      7  C   UNL A   1      32.522  23.277  25.449  1.00  0.00     0.221 C 
BRANCH   7   8
ATOM      8  N   UNL A   1      33.785  22.597  25.742  1.00  0.00    -0.311 N 
BRANCH   8   9
ATOM      9  C   UNL A   1      33.911  21.411  26.442  1.00  0.00     0.318 C 
ATOM     10  N   UNL A   1      34.030  20.181  25.899  1.00  0.00    -0.330 N 
ATOM     11  H   UNL A   1      34.132  19.519  26.619  1.00  0.00     0.165 HD
ATOM     12  O   UNL A   1      33.909  21.388  27.678  1.00  0.00    -0.249 OA
BRANCH  10  13
ATOM     13  C   UNL A   1      34.059  19.485  24.596  1.00  0.00     0.139 C 
ATOM     14  C   UNL A   1      35.399  15.985  25.319  1.00  0.00     0.332 C 
ATOM     15  N   UNL A   1      34.439  17.089  25.305  1.00  0.00    -0.336 N 
ATOM     16  C   UNL A   1      33.202  16.668  24.637  1.00  0.00     0.262 C 
ATOM     17  C   UNL A   1      35.021  18.273  24.643  1.00  0.00     0.287 C 
ATOM     18  H   UNL A   1      34.215  17.346  26.266  1.00  0.00     0.347 HD
ATOM     19  C   UNL A   1      32.155  17.766  24.749  1.00  0.00     0.064 C 
ATOM     20  C   UNL A   1      32.651  19.060  24.127  1.00  0.00     0.037 C 
ENDBRANCH  10  13
ENDBRANCH   8   9
BRANCH   8  21
ATOM     21  C   UNL A   1      35.051  23.248  25.162  1.00  0.00     0.037 C 
ATOM     22  C   UNL A   1      36.319  22.814  25.922  1.00  0.00     0.034 C 
ATOM     23  C   UNL A   1      35.210  22.909  23.661  1.00  0.00     0.034 C 
ATOM     24  C   UNL A   1      35.062  24.806  25.225  1.00  0.00     0.034 C 
ENDBRANCH   8  21
ENDBRANCH   7   8
ENDBRANCH   4   7
ENDBRANCH   2   3
ENDBRANCH   1   2
BRANCH   1  25
ATOM     25  C   UNL A   1      33.731  28.449  26.393  1.00  0.00     0.118 C 
BRANCH  25  26
ATOM     26  N   UNL A   1      33.545  29.799  26.906  1.00  0.00    -0.352 N 
ATOM     27  C   UNL A   1      34.348  30.525  27.753  1.00  0.00     0.251 C 
ATOM     28  H   UNL A   1      32.729  30.257  26.602  1.00  0.00     0.163 HD
ATOM     29  O   UNL A   1      33.918  31.559  28.254  1.00  0.00    -0.269 OA
BRANCH  27  30
ATOM     30  C   UNL A   1      35.714  30.050  28.070  1.00  0.00     0.039 A 
ATOM     31  C   UNL A   1      36.696  30.093  27.077  1.00  0.00     0.014 A 
ATOM     32  C   UNL A   1      36.027  29.558  29.341  1.00  0.00     0.014 A 
ATOM     33  C   UNL A   1      38.001  29.695  27.377  1.00  0.00     0.010 A 
ATOM     34  C   UNL A   1      37.345  29.256  29.664  1.00  0.00     0.010 A 
ATOM     35  C   UNL A   1      38.345  29.306  28.683  1.00  0.00    -0.014 A 
BRANCH  35  36
ATOM     36  C   UNL A   1      39.738  28.932  29.037  1.00  0.00     0.031 A 
ATOM     37  C   UNL A   1      40.642  29.935  29.707  1.00  0.00     0.074 A 
ATOM     38  C   UNL A   1      40.208  27.712  28.707  1.00  0.00     0.049 A 
ATOM     39  N   UNL A   1      41.898  29.811  30.051  1.00  0.00    -0.248 NA
ATOM     40  C   UNL A   1      40.068  31.259  30.003  1.00  0.00     0.031 C 
ATOM     41  C   UNL A   1      39.446  26.668  28.016  1.00  0.00     0.029 A 
ATOM     42  N   UNL A   1      41.441  27.144  28.906  1.00  0.00    -0.354 N 
ATOM     43  C   UNL A   1      42.267  31.039  30.587  1.00  0.00     0.074 A 
ATOM     44  C   UNL A   1      41.122  31.914  30.469  1.00  0.00     0.031 C 
ATOM     45  C   UNL A   1      40.216  25.577  27.882  1.00  0.00     0.029 A 
ATOM     46  C   UNL A   1      41.538  25.856  28.433  1.00  0.00     0.049 A 
ATOM     47  H   UNL A   1      42.186  27.613  29.346  1.00  0.00     0.167 HD
ATOM     48  C   UNL A   1      43.445  31.403  31.149  1.00  0.00     0.031 A 
ATOM     49  C   UNL A   1      42.576  24.996  28.435  1.00  0.00     0.031 A 
ATOM     50  C   UNL A   1      44.579  30.527  31.273  1.00  0.00     0.049 A 
ATOM     51  C   UNL A   1      43.879  25.428  29.053  1.00  0.00     0.074 A 
ATOM     52  C   UNL A   1      45.798  30.779  31.876  1.00  0.00     0.029 A 
ATOM     53  N   UNL A   1      44.634  29.229  30.787  1.00  0.00    -0.354 N 
ATOM     54  N   UNL A   1      44.185  26.571  29.618  1.00  0.00    -0.248 NA
ATOM     55  C   UNL A   1      44.973  24.446  29.046  1.00  0.00     0.031 C 
ATOM     56  C   UNL A   1      46.612  29.656  31.702  1.00  0.00     0.029 A 
ATOM     57  C   UNL A   1      45.877  28.677  31.051  1.00  0.00     0.049 A 
ATOM     58  H   UNL A   1      43.899  28.768  30.322  1.00  0.00     0.167 HD
ATOM     59  C   UNL A   1      45.497  26.436  30.061  1.00  0.00     0.074 A 
ATOM     60  C   UNL A   1      45.919  25.094  29.712  1.00  0.00     0.031 C 
ATOM     61  C   UNL A   1      46.282  27.340  30.698  1.00  0.00     0.031 A 
BRANCH  48  62
ATOM     62  C   UNL A   1      43.567  32.813  31.667  1.00  0.00    -0.014 A 
ATOM     63  C   UNL A   1      44.047  33.851  30.846  1.00  0.00     0.010 A 
ATOM     64  C   UNL A   1      43.159  33.115  32.979  1.00  0.00     0.010 A 
ATOM     65  C   UNL A   1      44.153  35.154  31.340  1.00  0.00     0.020 A 
ATOM     66  C   UNL A   1      43.233  34.424  33.467  1.00  0.00     0.020 A 
ATOM     67  C   UNL A   1      43.746  35.431  32.648  1.00  0.00     0.054 A 
BRANCH  67  68
ATOM     68  S   UNL A   1      43.871  37.137  33.251  1.00  0.00     0.124 S 
ATOM     69  O   UNL A   1      43.787  37.902  32.009  1.00  0.00    -0.237 OA
ATOM     70  O   UNL A   1      42.715  37.249  34.136  1.00  0.00    -0.237 OA
ATOM     71  O   UNL A   1      45.170  37.176  33.919  1.00  0.00    -0.744 OA
ENDBRANCH  67  68
ENDBRANCH  48  62
BRANCH  49  72
ATOM     72  C   UNL A   1      42.421  23.637  27.847  1.00  0.00    -0.014 A 
ATOM     73  C   UNL A   1      42.675  23.415  26.482  1.00  0.00     0.010 A 
ATOM     74  C   UNL A   1      42.020  22.554  28.650  1.00  0.00     0.010 A 
ATOM     75  C   UNL A   1      42.511  22.142  25.927  1.00  0.00     0.020 A 
ATOM     76  C   UNL A   1      41.886  21.273  28.106  1.00  0.00     0.020 A 
ATOM     77  C   UNL A   1      42.119  21.078  26.744  1.00  0.00     0.054 A 
BRANCH  77  78
ATOM     78  S   UNL A   1      41.953  19.428  26.009  1.00  0.00     0.124 S 
ATOM     79  O   UNL A   1      40.521  19.361  25.735  1.00  0.00    -0.237 OA
ATOM     80  O   UNL A   1      42.819  19.517  24.836  1.00  0.00    -0.237 OA
ATOM     81  O   UNL A   1      42.431  18.535  27.062  1.00  0.00    -0.744 OA
ENDBRANCH  77  78
ENDBRANCH  49  72
BRANCH  61  82
ATOM     82  C   UNL A   1      47.665  26.899  31.098  1.00  0.00    -0.014 A 
ATOM     83  C   UNL A   1      47.897  26.220  32.307  1.00  0.00     0.010 A 
ATOM     84  C   UNL A   1      48.742  27.123  30.221  1.00  0.00     0.010 A 
ATOM     85  C   UNL A   1      49.187  25.805  32.648  1.00  0.00     0.020 A 
ATOM     86  C   UNL A   1      50.028  26.682  30.543  1.00  0.00     0.020 A 
ATOM     87  C   UNL A   1      50.245  26.039  31.762  1.00  0.00     0.054 A 
BRANCH  87  88
ATOM     88  S   UNL A   1      51.902  25.454  32.211  1.00  0.00     0.124 S 
ATOM     89  O   UNL A   1      52.149  26.168  33.460  1.00  0.00    -0.237 OA
ATOM     90  O   UNL A   1      51.709  24.012  32.339  1.00  0.00    -0.237 OA
ATOM     91  O   UNL A   1      52.733  25.867  31.082  1.00  0.00    -0.744 OA
ENDBRANCH  87  88
ENDBRANCH  61  82
ENDBRANCH  35  36
ENDBRANCH  27  30
ENDBRANCH  25  26
ENDBRANCH   1  25
TORSDOF 17
ENDMDL
MODEL 2
REMARK VINA RESULT:     -10.8      3.452      9.149
REMARK SMILES C[N@@H+]1CCC[C@@H](NC(=O)N(CC(=O)NCCCNC(=O)c2ccc(-c3c4nc(c(-c5ccc(S(=O)(=O)[O-])cc5)c5ccc([nH]5)c(-c5ccc(S(=O)(=O)[O-])cc5)c5nc(c(-c6ccc(S(=O)(=O)[O-])cc6)c6ccc3[nH]6)C=C5)C=C4)cc2)C(C)(C)C)C1
REMARK SMILES IDX 16 1 15 2 14 3 12 4 13 5 11 7 10 8 8 9 7 10 9 12 6 13 1 14
REMARK SMILES IDX 2 15 3 16 85 17 4 19 5 20 81 21 82 22 83 23 84 24 17 25
REMARK SMILES IDX 18 26 19 27 20 29 21 30 22 31 80 32 23 33 79 34 24 35 25 36
REMARK SMILES IDX 26 37 73 38 27 39 78 40 72 41 74 42 28 43 77 44 71 45 70 46
REMARK SMILES IDX 29 48 59 49 40 50 58 51 41 52 44 53 57 54 75 55 42 56 43 57
REMARK SMILES IDX 56 59 76 60 45 61 30 62 31 63 39 64 32 65 38 66 33 67 34 68
REMARK SMILES IDX 35 69 36 70 37 71 60 72 61 73 69 74 62 75 68 76 63 77 64 78
REMARK SMILES IDX 65 79 66 80 67 81 46 82 47 83 55 84 48 85 54 86 49 87 50 88
REMARK SMILES IDX 51 89 52 90 53 91
REMARK H PARENT 14 6 7 11 2 18 18 28 74 47 44 58
REMARK Flexibility Score: inf
ROOT
ATOM      1  C   UNL A   1      38.499  19.749  25.018  1.00  0.00     0.042 C 
ENDROOT
BRANCH   1   2
ATOM      2  C   UNL A   1      37.416  20.747  24.656  1.00  0.00     0.117 C 
BRANCH   2   3
ATOM      3  N   UNL A   1      37.552  22.070  25.213  1.00  0.00    -0.354 N 
ATOM      4  C   UNL A   1      36.584  23.001  25.446  1.00  0.00     0.239 C 
ATOM      5  O   UNL A   1      36.813  23.820  26.346  1.00  0.00    -0.273 OA
ATOM      6  H   UNL A   1      38.467  22.338  25.459  1.00  0.00     0.163 HD
BRANCH   4   7
ATOM      7  C   UNL A   1      35.200  22.998  24.758  1.00  0.00     0.221 C 
BRANCH   7   8
ATOM      8  N   UNL A   1      34.064  22.402  25.463  1.00  0.00    -0.311 N 
BRANCH   8   9
ATOM      9  C   UNL A   1      34.119  21.269  26.255  1.00  0.00     0.318 C 
ATOM     10  N   UNL A   1      34.088  19.994  25.812  1.00  0.00    -0.330 N 
ATOM     11  H   UNL A   1      34.170  19.385  26.581  1.00  0.00     0.165 HD
ATOM     12  O   UNL A   1      34.188  21.345  27.486  1.00  0.00    -0.249 OA
BRANCH  10  13
ATOM     13  C   UNL A   1      33.974  19.197  24.574  1.00  0.00     0.139 C 
ATOM     14  C   UNL A   1      35.560  15.817  25.366  1.00  0.00     0.332 C 
ATOM     15  N   UNL A   1      34.557  16.881  25.401  1.00  0.00    -0.336 N 
ATOM     16  C   UNL A   1      33.262  16.364  24.944  1.00  0.00     0.262 C 
ATOM     17  C   UNL A   1      34.989  18.028  24.578  1.00  0.00     0.287 C 
ATOM     18  H   UNL A   1      34.454  17.207  26.362  1.00  0.00     0.347 HD
ATOM     19  C   UNL A   1      32.190  17.428  25.117  1.00  0.00     0.064 C 
ATOM     20  C   UNL A   1      32.536  18.686  24.337  1.00  0.00     0.037 C 
ENDBRANCH  10  13
ENDBRANCH   8   9
BRANCH   8  21
ATOM     21  C   UNL A   1      32.728  23.151  25.341  1.00  0.00     0.037 C 
ATOM     22  C   UNL A   1      32.585  24.249  26.413  1.00  0.00     0.034 C 
ATOM     23  C   UNL A   1      32.572  23.781  23.936  1.00  0.00     0.034 C 
ATOM     24  C   UNL A   1      31.465  22.254  25.520  1.00  0.00     0.034 C 
ENDBRANCH   8  21
ENDBRANCH   7   8
ENDBRANCH   4   7
ENDBRANCH   2   3
ENDBRANCH   1   2
BRANCH   1  25
ATOM     25  C   UNL A   1      39.598  20.327  25.885  1.00  0.00     0.118 C 
BRANCH  25  26
ATOM     26  N   UNL A   1      40.586  19.323  26.252  1.00  0.00    -0.352 N 
ATOM     27  C   UNL A   1      41.925  19.478  26.525  1.00  0.00     0.251 C 
ATOM     28  H   UNL A   1      40.247  18.401  26.315  1.00  0.00     0.163 HD
ATOM     29  O   UNL A   1      42.646  18.489  26.595  1.00  0.00    -0.269 OA
BRANCH  27  30
ATOM     30  C   UNL A   1      42.490  20.833  26.715  1.00  0.00     0.039 A 
ATOM     31  C   UNL A   1      42.878  21.572  25.594  1.00  0.00     0.014 A 
ATOM     32  C   UNL A   1      42.644  21.374  27.995  1.00  0.00     0.014 A 
ATOM     33  C   UNL A   1      43.366  22.871  25.756  1.00  0.00     0.010 A 
ATOM     34  C   UNL A   1      43.036  22.700  28.147  1.00  0.00     0.010 A 
ATOM     35  C   UNL A   1      43.417  23.459  27.032  1.00  0.00    -0.014 A 
BRANCH  35  36
ATOM     36  C   UNL A   1      43.880  24.857  27.221  1.00  0.00     0.031 A 
ATOM     37  C   UNL A   1      45.328  25.210  26.996  1.00  0.00     0.074 A 
ATOM     38  C   UNL A   1      43.014  25.797  27.649  1.00  0.00     0.049 A 
ATOM     39  N   UNL A   1      45.930  26.361  27.155  1.00  0.00    -0.248 NA
ATOM     40  C   UNL A   1      46.222  24.122  26.564  1.00  0.00     0.031 C 
ATOM     41  C   UNL A   1      41.597  25.571  27.947  1.00  0.00     0.029 A 
ATOM     42  N   UNL A   1      43.198  27.131  27.912  1.00  0.00    -0.354 N 
ATOM     43  C   UNL A   1      47.269  26.133  26.858  1.00  0.00     0.074 A 
ATOM     44  C   UNL A   1      47.404  24.723  26.568  1.00  0.00     0.031 C 
ATOM     45  C   UNL A   1      41.034  26.732  28.316  1.00  0.00     0.029 A 
ATOM     46  C   UNL A   1      42.055  27.775  28.327  1.00  0.00     0.049 A 
ATOM     47  H   UNL A   1      44.065  27.585  27.814  1.00  0.00     0.167 HD
ATOM     48  C   UNL A   1      48.292  27.019  26.808  1.00  0.00     0.031 A 
ATOM     49  C   UNL A   1      41.851  29.058  28.683  1.00  0.00     0.031 A 
ATOM     50  C   UNL A   1      48.151  28.423  27.087  1.00  0.00     0.049 A 
ATOM     51  C   UNL A   1      43.006  30.022  28.632  1.00  0.00     0.074 A 
ATOM     52  C   UNL A   1      49.113  29.415  27.010  1.00  0.00     0.029 A 
ATOM     53  N   UNL A   1      46.977  29.036  27.497  1.00  0.00    -0.354 N 
ATOM     54  N   UNL A   1      44.251  29.800  28.281  1.00  0.00    -0.248 NA
ATOM     55  C   UNL A   1      42.726  31.413  29.014  1.00  0.00     0.031 C 
ATOM     56  C   UNL A   1      48.535  30.616  27.432  1.00  0.00     0.029 A 
ATOM     57  C   UNL A   1      47.195  30.387  27.705  1.00  0.00     0.049 A 
ATOM     58  H   UNL A   1      46.115  28.577  27.624  1.00  0.00     0.167 HD
ATOM     59  C   UNL A   1      44.895  31.029  28.370  1.00  0.00     0.074 A 
ATOM     60  C   UNL A   1      43.898  31.993  28.791  1.00  0.00     0.031 C 
ATOM     61  C   UNL A   1      46.193  31.334  28.124  1.00  0.00     0.031 A 
BRANCH  48  62
ATOM     62  C   UNL A   1      49.656  26.493  26.441  1.00  0.00    -0.014 A 
ATOM     63  C   UNL A   1      50.488  25.894  27.406  1.00  0.00     0.010 A 
ATOM     64  C   UNL A   1      50.098  26.560  25.107  1.00  0.00     0.010 A 
ATOM     65  C   UNL A   1      51.750  25.409  27.051  1.00  0.00     0.020 A 
ATOM     66  C   UNL A   1      51.346  26.047  24.742  1.00  0.00     0.020 A 
ATOM     67  C   UNL A   1      52.171  25.490  25.721  1.00  0.00     0.054 A 
BRANCH  67  68
ATOM     68  S   UNL A   1      53.802  24.827  25.286  1.00  0.00     0.124 S 
ATOM     69  O   UNL A   1      54.122  25.582  24.077  1.00  0.00    -0.237 OA
ATOM     70  O   UNL A   1      54.604  25.156  26.461  1.00  0.00    -0.237 OA
ATOM     71  O   UNL A   1      53.556  23.402  25.082  1.00  0.00    -0.744 OA
ENDBRANCH  67  68
ENDBRANCH  48  62
BRANCH  49  72
ATOM     72  C   UNL A   1      40.496  29.510  29.104  1.00  0.00    -0.014 A 
ATOM     73  C   UNL A   1      40.197  29.708  30.464  1.00  0.00     0.010 A 
ATOM     74  C   UNL A   1      39.494  29.749  28.145  1.00  0.00     0.010 A 
ATOM     75  C   UNL A   1      38.919  30.113  30.859  1.00  0.00     0.020 A 
ATOM     76  C   UNL A   1      38.224  30.186  28.533  1.00  0.00     0.020 A 
ATOM     77  C   UNL A   1      37.941  30.352  29.890  1.00  0.00     0.054 A 
BRANCH  77  78
ATOM     78  S   UNL A   1      36.302  30.918  30.424  1.00  0.00     0.124 S 
ATOM     79  O   UNL A   1      35.947  29.917  31.425  1.00  0.00    -0.237 OA
ATOM     80  O   UNL A   1      36.583  32.256  30.938  1.00  0.00    -0.237 OA
ATOM     81  O   UNL A   1      35.510  30.883  29.196  1.00  0.00    -0.744 OA
ENDBRANCH  77  78
ENDBRANCH  49  72
BRANCH  61  82
ATOM     82  C   UNL A   1      46.607  32.775  28.265  1.00  0.00    -0.014 A 
ATOM     83  C   UNL A   1      47.120  33.276  29.475  1.00  0.00     0.010 A 
ATOM     84  C   UNL A   1      46.528  33.629  27.149  1.00  0.00     0.010 A 
ATOM     85  C   UNL A   1      47.512  34.613  29.576  1.00  0.00     0.020 A 
ATOM     86  C   UNL A   1      46.949  34.958  27.237  1.00  0.00     0.020 A 
ATOM     87  C   UNL A   1      47.425  35.446  28.455  1.00  0.00     0.054 A 
BRANCH  87  88
ATOM     88  S   UNL A   1      47.980  37.166  28.602  1.00  0.00     0.124 S 
ATOM     89  O   UNL A   1      49.339  37.005  29.114  1.00  0.00    -0.237 OA
ATOM     90  O   UNL A   1      47.879  37.654  27.229  1.00  0.00    -0.237 OA
ATOM     91  O   UNL A   1      47.028  37.759  29.539  1.00  0.00    -0.744 OA
ENDBRANCH  87  88
ENDBRANCH  61  82
ENDBRANCH  35  36
ENDBRANCH  27  30
ENDBRANCH  25  26
ENDBRANCH   1  25
TORSDOF 17
ENDMDL
MODEL 3
REMARK VINA RESULT:     -10.7      5.079      7.393
REMARK SMILES C[N@@H+]1CCC[C@@H](NC(=O)N(CC(=O)NCCCNC(=O)c2ccc(-c3c4nc(c(-c5ccc(S(=O)(=O)[O-])cc5)c5ccc([nH]5)c(-c5ccc(S(=O)(=O)[O-])cc5)c5nc(c(-c6ccc(S(=O)(=O)[O-])cc6)c6ccc3[nH]6)C=C5)C=C4)cc2)C(C)(C)C)C1
REMARK SMILES IDX 16 1 15 2 14 3 12 4 13 5 11 7 10 8 8 9 7 10 9 12 6 13 1 14
REMARK SMILES IDX 2 15 3 16 85 17 4 19 5 20 81 21 82 22 83 23 84 24 17 25
REMARK SMILES IDX 18 26 19 27 20 29 21 30 22 31 80 32 23 33 79 34 24 35 25 36
REMARK SMILES IDX 26 37 73 38 27 39 78 40 72 41 74 42 28 43 77 44 71 45 70 46
REMARK SMILES IDX 29 48 59 49 40 50 58 51 41 52 44 53 57 54 75 55 42 56 43 57
REMARK SMILES IDX 56 59 76 60 45 61 30 62 31 63 39 64 32 65 38 66 33 67 34 68
REMARK SMILES IDX 35 69 36 70 37 71 60 72 61 73 69 74 62 75 68 76 63 77 64 78
REMARK SMILES IDX 65 79 66 80 67 81 46 82 47 83 55 84 48 85 54 86 49 87 50 88
REMARK SMILES IDX 51 89 52 90 53 91
REMARK H PARENT 14 6 7 11 2 18 18 28 74 47 44 58
REMARK Flexibility Score: inf
ROOT
ATOM      1  C   UNL A   1      31.727  32.912  26.586  1.00  0.00     0.042 C 
ENDROOT
BRANCH   1   2
ATOM      2  C   UNL A   1      31.475  31.420  26.494  1.00  0.00     0.117 C 
BRANCH   2   3
ATOM      3  N   UNL A   1      32.541  30.560  26.946  1.00  0.00    -0.354 N 
ATOM      4  C   UNL A   1      32.752  29.243  26.664  1.00  0.00     0.239 C 
ATOM      5  O   UNL A   1      33.924  28.848  26.725  1.00  0.00    -0.273 OA
ATOM      6  H   UNL A   1      33.207  30.981  27.537  1.00  0.00     0.163 HD
BRANCH   4   7
ATOM      7  C   UNL A   1      31.654  28.283  26.154  1.00  0.00     0.221 C 
BRANCH   7   8
ATOM      8  N   UNL A   1      31.621  27.943  24.730  1.00  0.00    -0.311 N 
BRANCH   8   9
ATOM      9  C   UNL A   1      31.738  28.847  23.690  1.00  0.00     0.318 C 
ATOM     10  N   UNL A   1      30.751  29.638  23.216  1.00  0.00    -0.330 N 
ATOM     11  H   UNL A   1      31.111  30.203  22.495  1.00  0.00     0.165 HD
ATOM     12  O   UNL A   1      32.802  28.994  23.079  1.00  0.00    -0.249 OA
BRANCH  10  13
ATOM     13  C   UNL A   1      29.319  29.948  23.404  1.00  0.00     0.139 C 
ATOM     14  C   UNL A   1      29.047  33.750  23.220  1.00  0.00     0.332 C 
ATOM     15  N   UNL A   1      29.231  32.383  22.734  1.00  0.00    -0.336 N 
ATOM     16  C   UNL A   1      28.243  32.086  21.690  1.00  0.00     0.262 C 
ATOM     17  C   UNL A   1      29.130  31.419  23.847  1.00  0.00     0.287 C 
ATOM     18  H   UNL A   1      30.163  32.297  22.330  1.00  0.00     0.347 HD
ATOM     19  C   UNL A   1      28.524  30.720  21.085  1.00  0.00     0.064 C 
ATOM     20  C   UNL A   1      28.482  29.632  22.145  1.00  0.00     0.037 C 
ENDBRANCH  10  13
ENDBRANCH   8   9
BRANCH   8  21
ATOM     21  C   UNL A   1      31.502  26.448  24.397  1.00  0.00     0.037 C 
ATOM     22  C   UNL A   1      30.775  26.214  23.058  1.00  0.00     0.034 C 
ATOM     23  C   UNL A   1      32.896  25.778  24.350  1.00  0.00     0.034 C 
ATOM     24  C   UNL A   1      30.693  25.616  25.439  1.00  0.00     0.034 C 
ENDBRANCH   8  21
ENDBRANCH   7   8
ENDBRANCH   4   7
ENDBRANCH   2   3
ENDBRANCH   1   2
BRANCH   1  25
ATOM     25  C   UNL A   1      32.748  33.295  27.637  1.00  0.00     0.118 C 
BRANCH  25  26
ATOM     26  N   UNL A   1      32.611  34.686  28.047  1.00  0.00    -0.352 N 
ATOM     27  C   UNL A   1      33.215  35.349  29.088  1.00  0.00     0.251 C 
ATOM     28  H   UNL A   1      31.999  35.228  27.499  1.00  0.00     0.163 HD
ATOM     29  O   UNL A   1      32.807  36.458  29.416  1.00  0.00    -0.269 OA
BRANCH  27  30
ATOM     30  C   UNL A   1      34.339  34.719  29.817  1.00  0.00     0.039 A 
ATOM     31  C   UNL A   1      34.122  34.225  31.106  1.00  0.00     0.014 A 
ATOM     32  C   UNL A   1      35.607  34.619  29.235  1.00  0.00     0.014 A 
ATOM     33  C   UNL A   1      35.161  33.583  31.785  1.00  0.00     0.010 A 
ATOM     34  C   UNL A   1      36.608  33.895  29.871  1.00  0.00     0.010 A 
ATOM     35  C   UNL A   1      36.403  33.382  31.160  1.00  0.00    -0.014 A 
BRANCH  35  36
ATOM     36  C   UNL A   1      37.503  32.654  31.842  1.00  0.00     0.031 A 
ATOM     37  C   UNL A   1      38.025  33.143  33.168  1.00  0.00     0.074 A 
ATOM     38  C   UNL A   1      38.072  31.588  31.244  1.00  0.00     0.049 A 
ATOM     39  N   UNL A   1      39.006  32.671  33.893  1.00  0.00    -0.248 NA
ATOM     40  C   UNL A   1      37.377  34.336  33.742  1.00  0.00     0.031 C 
ATOM     41  C   UNL A   1      37.688  31.043  29.938  1.00  0.00     0.029 A 
ATOM     42  N   UNL A   1      39.097  30.771  31.653  1.00  0.00    -0.354 N 
ATOM     43  C   UNL A   1      39.103  33.513  34.995  1.00  0.00     0.074 A 
ATOM     44  C   UNL A   1      38.122  34.560  34.816  1.00  0.00     0.031 C 
ATOM     45  C   UNL A   1      38.441  29.964  29.672  1.00  0.00     0.029 A 
ATOM     46  C   UNL A   1      39.392  29.766  30.762  1.00  0.00     0.049 A 
ATOM     47  H   UNL A   1      39.575  30.894  32.505  1.00  0.00     0.167 HD
ATOM     48  C   UNL A   1      39.918  33.414  36.072  1.00  0.00     0.031 A 
ATOM     49  C   UNL A   1      40.327  28.797  30.811  1.00  0.00     0.031 A 
ATOM     50  C   UNL A   1      40.886  32.365  36.252  1.00  0.00     0.049 A 
ATOM     51  C   UNL A   1      41.230  28.715  32.012  1.00  0.00     0.074 A 
ATOM     52  C   UNL A   1      41.722  32.142  37.332  1.00  0.00     0.029 A 
ATOM     53  N   UNL A   1      41.150  31.363  35.330  1.00  0.00    -0.354 N 
ATOM     54  N   UNL A   1      41.258  29.481  33.077  1.00  0.00    -0.248 NA
ATOM     55  C   UNL A   1      42.219  27.629  32.024  1.00  0.00     0.031 C 
ATOM     56  C   UNL A   1      42.532  31.042  37.038  1.00  0.00     0.029 A 
ATOM     57  C   UNL A   1      42.154  30.536  35.803  1.00  0.00     0.049 A 
ATOM     58  H   UNL A   1      40.691  31.257  34.465  1.00  0.00     0.167 HD
ATOM     59  C   UNL A   1      42.247  28.951  33.899  1.00  0.00     0.074 A 
ATOM     60  C   UNL A   1      42.780  27.790  33.215  1.00  0.00     0.031 C 
ATOM     61  C   UNL A   1      42.675  29.384  35.111  1.00  0.00     0.031 A 
BRANCH  48  62
ATOM     62  C   UNL A   1      39.801  34.473  37.139  1.00  0.00    -0.014 A 
ATOM     63  C   UNL A   1      40.388  35.741  36.972  1.00  0.00     0.010 A 
ATOM     64  C   UNL A   1      39.060  34.212  38.306  1.00  0.00     0.010 A 
ATOM     65  C   UNL A   1      40.269  36.714  37.969  1.00  0.00     0.020 A 
ATOM     66  C   UNL A   1      38.911  35.194  39.291  1.00  0.00     0.020 A 
ATOM     67  C   UNL A   1      39.532  36.433  39.123  1.00  0.00     0.054 A 
BRANCH  67  68
ATOM     68  S   UNL A   1      39.373  37.724  40.385  1.00  0.00     0.124 S 
ATOM     69  O   UNL A   1      38.432  38.647  39.756  1.00  0.00    -0.237 OA
ATOM     70  O   UNL A   1      38.855  36.987  41.534  1.00  0.00    -0.237 OA
ATOM     71  O   UNL A   1      40.735  38.232  40.537  1.00  0.00    -0.744 OA
ENDBRANCH  67  68
ENDBRANCH  48  62
BRANCH  49  72
ATOM     72  C   UNL A   1      40.445  27.817  29.696  1.00  0.00    -0.014 A 
ATOM     73  C   UNL A   1      41.442  27.965  28.716  1.00  0.00     0.010 A 
ATOM     74  C   UNL A   1      39.561  26.725  29.609  1.00  0.00     0.010 A 
ATOM     75  C   UNL A   1      41.540  27.054  27.660  1.00  0.00     0.020 A 
ATOM     76  C   UNL A   1      39.676  25.795  28.573  1.00  0.00     0.020 A 
ATOM     77  C   UNL A   1      40.657  25.973  27.596  1.00  0.00     0.054 A 
BRANCH  77  78
ATOM     78  S   UNL A   1      40.830  24.783  26.238  1.00  0.00     0.124 S 
ATOM     79  O   UNL A   1      39.472  24.264  26.114  1.00  0.00    -0.237 OA
ATOM     80  O   UNL A   1      41.290  25.625  25.137  1.00  0.00    -0.237 OA
ATOM     81  O   UNL A   1      41.820  23.832  26.741  1.00  0.00    -0.744 OA
ENDBRANCH  77  78
ENDBRANCH  49  72
BRANCH  61  82
ATOM     82  C   UNL A   1      43.746  28.580  35.797  1.00  0.00    -0.014 A 
ATOM     83  C   UNL A   1      45.110  28.875  35.623  1.00  0.00     0.010 A 
ATOM     84  C   UNL A   1      43.377  27.542  36.673  1.00  0.00     0.010 A 
ATOM     85  C   UNL A   1      46.086  28.125  36.284  1.00  0.00     0.020 A 
ATOM     86  C   UNL A   1      44.348  26.810  37.361  1.00  0.00     0.020 A 
ATOM     87  C   UNL A   1      45.697  27.097  37.151  1.00  0.00     0.054 A 
BRANCH  87  88
ATOM     88  S   UNL A   1      46.983  26.165  38.028  1.00  0.00     0.124 S 
ATOM     89  O   UNL A   1      47.700  27.225  38.732  1.00  0.00    -0.237 OA
ATOM     90  O   UNL A   1      46.204  25.264  38.874  1.00  0.00    -0.237 OA
ATOM     91  O   UNL A   1      47.731  25.513  36.956  1.00  0.00    -0.744 OA
ENDBRANCH  87  88
ENDBRANCH  61  82
ENDBRANCH  35  36
ENDBRANCH  27  30
ENDBRANCH  25  26
ENDBRANCH   1  25
TORSDOF 17
ENDMDL
