MODEL 1
REMARK VINA RESULT:     -12.1      0.000      0.000
REMARK SMILES CN1C(=O)/C(=C\c2ccc(-c3ccccc3C(=O)NCCCNC(=O)c3ccc(-c4c5nc(c(-c6ccc(S(=O)(=O)[O-])cc6)c6ccc([nH]6)c(-c6ccc(S(=O)(=O)[O-])cc6)c6nc(c(-c7ccc(S(=O)(=O)[O-])cc7)c7ccc4[nH]7)C=C6)C=C5)cc3)o2)C(=O)[NH+]=C1S
REMARK SMILES IDX 21 1 20 2 19 3 17 4 18 5 16 7 11 8 12 9 13 10 15 11 14 12
REMARK SMILES IDX 10 13 7 14 8 15 86 16 9 17 6 18 1 19 2 20 3 21 90 22 4 23
REMARK SMILES IDX 5 24 89 25 87 26 88 28 91 29 22 31 23 32 24 33 25 35 26 36
REMARK SMILES IDX 27 37 85 38 28 39 84 40 29 41 30 42 31 43 78 44 32 45 83 46
REMARK SMILES IDX 77 47 79 48 33 49 82 50 76 51 75 52 34 54 64 55 45 56 63 57
REMARK SMILES IDX 46 58 49 59 62 60 80 61 47 62 48 63 61 65 81 66 50 67 35 68
REMARK SMILES IDX 36 69 44 70 37 71 43 72 38 73 39 74 40 75 41 76 42 77 65 78
REMARK SMILES IDX 66 79 74 80 67 81 73 82 68 83 69 84 70 85 71 86 72 87 51 88
REMARK SMILES IDX 52 89 60 90 53 91 59 92 54 93 55 94 56 95 57 96 58 97
REMARK H PARENT 19 6 89 27 91 30 23 34 79 53 49 64
REMARK Flexibility Score: inf
ROOT
ATOM      1  C   UNL A   1      32.956  28.129  26.190  1.00  0.00     0.042 C 
ENDROOT
BRANCH   1   2
ATOM      2  C   UNL A   1      33.683  28.895  25.114  1.00  0.00     0.118 C 
BRANCH   2   3
ATOM      3  N   UNL A   1      33.922  28.288  23.840  1.00  0.00    -0.352 N 
ATOM      4  C   UNL A   1      33.013  28.061  22.828  1.00  0.00     0.252 C 
ATOM      5  O   UNL A   1      33.501  27.715  21.746  1.00  0.00    -0.269 OA
ATOM      6  H   UNL A   1      34.847  27.998  23.666  1.00  0.00     0.163 HD
BRANCH   4   7
ATOM      7  C   UNL A   1      31.500  28.098  22.947  1.00  0.00     0.050 A 
ATOM      8  C   UNL A   1      30.561  27.083  23.251  1.00  0.00     0.030 A 
ATOM      9  C   UNL A   1      29.180  27.399  23.273  1.00  0.00     0.013 A 
ATOM     10  C   UNL A   1      28.714  28.693  23.054  1.00  0.00     0.001 A 
ATOM     11  C   UNL A   1      30.988  29.405  22.735  1.00  0.00     0.014 A 
ATOM     12  C   UNL A   1      29.624  29.702  22.795  1.00  0.00     0.001 A 
BRANCH   8  13
ATOM     13  C   UNL A   1      30.854  25.700  23.588  1.00  0.00     0.135 A 
ATOM     14  C   UNL A   1      31.802  24.189  24.928  1.00  0.00     0.128 A 
ATOM     15  C   UNL A   1      31.002  23.518  24.005  1.00  0.00     0.051 A 
ATOM     16  O   UNL A   1      31.710  25.531  24.644  1.00  0.00    -0.457 OA
ATOM     17  C   UNL A   1      30.449  24.475  23.117  1.00  0.00     0.051 A 
BRANCH  14  18
ATOM     18  C   UNL A   1      32.546  23.658  26.021  1.00  0.00     0.071 C 
ATOM     19  C   UNL A   1      36.330  22.944  23.189  1.00  0.00     0.301 C 
ATOM     20  N   UNL A   1      35.735  22.868  24.515  1.00  0.00    -0.189 N 
ATOM     21  C   UNL A   1      34.659  23.691  24.738  1.00  0.00     0.349 C 
ATOM     22  C   UNL A   1      36.283  22.204  25.582  1.00  0.00     0.318 C 
ATOM     23  O   UNL A   1      34.422  24.671  24.037  1.00  0.00    -0.240 OA
ATOM     24  C   UNL A   1      33.850  23.337  25.918  1.00  0.00     0.157 C 
ATOM     25  N   UNL A   1      35.741  22.073  26.738  1.00  0.00    -0.200 N 
ATOM     26  C   UNL A   1      34.476  22.531  26.991  1.00  0.00     0.347 C 
ATOM     27  H   UNL A   1      36.248  21.633  27.459  1.00  0.00     0.316 HD
ATOM     28  O   UNL A   1      33.867  22.246  28.011  1.00  0.00    -0.241 OA
BRANCH  22  29
ATOM     29  S   UNL A   1      37.875  21.510  25.382  1.00  0.00    -0.055 SA
ATOM     30  H   UNL A   1      37.766  20.163  25.235  1.00  0.00     0.116 HD
ENDBRANCH  22  29
ENDBRANCH  14  18
ENDBRANCH   8  13
ENDBRANCH   4   7
ENDBRANCH   2   3
ENDBRANCH   1   2
BRANCH   1  31
ATOM     31  C   UNL A   1      33.222  28.563  27.621  1.00  0.00     0.118 C 
BRANCH  31  32
ATOM     32  N   UNL A   1      33.475  29.995  27.808  1.00  0.00    -0.352 N 
ATOM     33  C   UNL A   1      34.596  30.729  28.129  1.00  0.00     0.251 C 
ATOM     34  H   UNL A   1      32.672  30.550  27.676  1.00  0.00     0.163 HD
ATOM     35  O   UNL A   1      34.468  31.939  28.319  1.00  0.00    -0.269 OA
BRANCH  33  36
ATOM     36  C   UNL A   1      35.928  30.101  28.310  1.00  0.00     0.039 A 
ATOM     37  C   UNL A   1      36.850  30.121  27.256  1.00  0.00     0.014 A 
ATOM     38  C   UNL A   1      36.295  29.500  29.508  1.00  0.00     0.014 A 
ATOM     39  C   UNL A   1      38.157  29.660  27.458  1.00  0.00     0.010 A 
ATOM     40  C   UNL A   1      37.629  29.209  29.761  1.00  0.00     0.010 A 
ATOM     41  C   UNL A   1      38.580  29.270  28.738  1.00  0.00    -0.014 A 
BRANCH  41  42
ATOM     42  C   UNL A   1      39.989  28.902  29.041  1.00  0.00     0.031 A 
ATOM     43  C   UNL A   1      40.925  29.928  29.637  1.00  0.00     0.074 A 
ATOM     44  C   UNL A   1      40.456  27.685  28.691  1.00  0.00     0.049 A 
ATOM     45  N   UNL A   1      42.213  29.845  29.854  1.00  0.00    -0.248 NA
ATOM     46  C   UNL A   1      40.347  31.236  29.995  1.00  0.00     0.031 C 
ATOM     47  C   UNL A   1      39.672  26.621  28.055  1.00  0.00     0.029 A 
ATOM     48  N   UNL A   1      41.709  27.137  28.813  1.00  0.00    -0.354 N 
ATOM     49  C   UNL A   1      42.597  31.092  30.336  1.00  0.00     0.074 A 
ATOM     50  C   UNL A   1      41.424  31.935  30.313  1.00  0.00     0.031 C 
ATOM     51  C   UNL A   1      40.449  25.540  27.885  1.00  0.00     0.029 A 
ATOM     52  C   UNL A   1      41.799  25.847  28.341  1.00  0.00     0.049 A 
ATOM     53  H   UNL A   1      42.474  27.622  29.201  1.00  0.00     0.167 HD
ATOM     54  C   UNL A   1      43.807  31.493  30.791  1.00  0.00     0.031 A 
ATOM     55  C   UNL A   1      42.850  25.008  28.273  1.00  0.00     0.031 A 
ATOM     56  C   UNL A   1      44.962  30.639  30.845  1.00  0.00     0.049 A 
ATOM     57  C   UNL A   1      44.187  25.475  28.784  1.00  0.00     0.074 A 
ATOM     58  C   UNL A   1      46.217  30.921  31.354  1.00  0.00     0.029 A 
ATOM     59  N   UNL A   1      45.001  29.333  30.379  1.00  0.00    -0.354 N 
ATOM     60  N   UNL A   1      44.511  26.636  29.306  1.00  0.00    -0.248 NA
ATOM     61  C   UNL A   1      45.299  24.520  28.706  1.00  0.00     0.031 C 
ATOM     62  C   UNL A   1      47.033  29.807  31.139  1.00  0.00     0.029 A 
ATOM     63  C   UNL A   1      46.267  28.806  30.562  1.00  0.00     0.049 A 
ATOM     64  H   UNL A   1      44.240  28.853  29.978  1.00  0.00     0.167 HD
ATOM     65  C   UNL A   1      45.855  26.537  29.645  1.00  0.00     0.074 A 
ATOM     66  C   UNL A   1      46.279  25.198  29.285  1.00  0.00     0.031 C 
ATOM     67  C   UNL A   1      46.667  27.469  30.202  1.00  0.00     0.031 A 
BRANCH  54  68
ATOM     68  C   UNL A   1      43.941  32.917  31.271  1.00  0.00    -0.014 A 
ATOM     69  C   UNL A   1      44.244  33.962  30.378  1.00  0.00     0.010 A 
ATOM     70  C   UNL A   1      43.717  33.223  32.626  1.00  0.00     0.010 A 
ATOM     71  C   UNL A   1      44.366  35.275  30.837  1.00  0.00     0.020 A 
ATOM     72  C   UNL A   1      43.804  34.541  33.083  1.00  0.00     0.020 A 
ATOM     73  C   UNL A   1      44.144  35.557  32.187  1.00  0.00     0.054 A 
BRANCH  73  74
ATOM     74  S   UNL A   1      44.277  37.278  32.746  1.00  0.00     0.124 S 
ATOM     75  O   UNL A   1      45.723  37.449  32.851  1.00  0.00    -0.237 OA
ATOM     76  O   UNL A   1      43.634  38.015  31.662  1.00  0.00    -0.237 OA
ATOM     77  O   UNL A   1      43.556  37.288  34.017  1.00  0.00    -0.744 OA
ENDBRANCH  73  74
ENDBRANCH  54  68
BRANCH  55  78
ATOM     78  C   UNL A   1      42.679  23.636  27.716  1.00  0.00    -0.014 A 
ATOM     79  C   UNL A   1      42.236  22.581  28.534  1.00  0.00     0.010 A 
ATOM     80  C   UNL A   1      42.954  23.374  26.360  1.00  0.00     0.010 A 
ATOM     81  C   UNL A   1      42.093  21.290  28.017  1.00  0.00     0.020 A 
ATOM     82  C   UNL A   1      42.781  22.091  25.831  1.00  0.00     0.020 A 
ATOM     83  C   UNL A   1      42.366  21.053  26.667  1.00  0.00     0.054 A 
BRANCH  83  84
ATOM     84  S   UNL A   1      42.137  19.377  26.010  1.00  0.00     0.124 S 
ATOM     85  O   UNL A   1      40.700  19.341  25.761  1.00  0.00    -0.237 OA
ATOM     86  O   UNL A   1      42.986  19.385  24.821  1.00  0.00    -0.237 OA
ATOM     87  O   UNL A   1      42.606  18.516  27.095  1.00  0.00    -0.744 OA
ENDBRANCH  83  84
ENDBRANCH  55  78
BRANCH  67  88
ATOM     88  C   UNL A   1      48.089  27.067  30.496  1.00  0.00    -0.014 A 
ATOM     89  C   UNL A   1      49.127  27.339  29.587  1.00  0.00     0.010 A 
ATOM     90  C   UNL A   1      48.397  26.473  31.733  1.00  0.00     0.010 A 
ATOM     91  C   UNL A   1      50.445  26.997  29.901  1.00  0.00     0.020 A 
ATOM     92  C   UNL A   1      49.716  26.161  32.064  1.00  0.00     0.020 A 
ATOM     93  C   UNL A   1      50.731  26.414  31.139  1.00  0.00     0.054 A 
BRANCH  93  94
ATOM     94  S   UNL A   1      52.457  26.034  31.543  1.00  0.00     0.124 S 
ATOM     95  O   UNL A   1      53.064  25.929  30.219  1.00  0.00    -0.237 OA
ATOM     96  O   UNL A   1      52.864  27.193  32.332  1.00  0.00    -0.237 OA
ATOM     97  O   UNL A   1      52.372  24.780  32.289  1.00  0.00    -0.744 OA
ENDBRANCH  93  94
ENDBRANCH  67  88
ENDBRANCH  41  42
ENDBRANCH  33  36
ENDBRANCH  31  32
ENDBRANCH   1  31
TORSDOF 16
ENDMDL
MODEL 2
REMARK VINA RESULT:     -11.8      4.654     10.406
REMARK SMILES CN1C(=O)/C(=C\c2ccc(-c3ccccc3C(=O)NCCCNC(=O)c3ccc(-c4c5nc(c(-c6ccc(S(=O)(=O)[O-])cc6)c6ccc([nH]6)c(-c6ccc(S(=O)(=O)[O-])cc6)c6nc(c(-c7ccc(S(=O)(=O)[O-])cc7)c7ccc4[nH]7)C=C6)C=C5)cc3)o2)C(=O)[NH+]=C1S
REMARK SMILES IDX 21 1 20 2 19 3 17 4 18 5 16 7 11 8 12 9 13 10 15 11 14 12
REMARK SMILES IDX 10 13 7 14 8 15 86 16 9 17 6 18 1 19 2 20 3 21 90 22 4 23
REMARK SMILES IDX 5 24 89 25 87 26 88 28 91 29 22 31 23 32 24 33 25 35 26 36
REMARK SMILES IDX 27 37 85 38 28 39 84 40 29 41 30 42 31 43 78 44 32 45 83 46
REMARK SMILES IDX 77 47 79 48 33 49 82 50 76 51 75 52 34 54 64 55 45 56 63 57
REMARK SMILES IDX 46 58 49 59 62 60 80 61 47 62 48 63 61 65 81 66 50 67 35 68
REMARK SMILES IDX 36 69 44 70 37 71 43 72 38 73 39 74 40 75 41 76 42 77 65 78
REMARK SMILES IDX 66 79 74 80 67 81 73 82 68 83 69 84 70 85 71 86 72 87 51 88
REMARK SMILES IDX 52 89 60 90 53 91 59 92 54 93 55 94 56 95 57 96 58 97
REMARK H PARENT 19 6 89 27 91 30 23 34 79 53 49 64
REMARK Flexibility Score: inf
ROOT
ATOM      1  C   UNL A   1      37.958  22.533  25.737  1.00  0.00     0.042 C 
ENDROOT
BRANCH   1   2
ATOM      2  C   UNL A   1      36.594  23.047  25.351  1.00  0.00     0.118 C 
BRANCH   2   3
ATOM      3  N   UNL A   1      35.575  23.191  26.346  1.00  0.00    -0.352 N 
ATOM      4  C   UNL A   1      34.427  22.442  26.494  1.00  0.00     0.252 C 
ATOM      5  O   UNL A   1      33.809  22.622  27.550  1.00  0.00    -0.269 OA
ATOM      6  H   UNL A   1      35.711  23.912  27.003  1.00  0.00     0.163 HD
BRANCH   4   7
ATOM      7  C   UNL A   1      33.813  21.515  25.461  1.00  0.00     0.050 A 
ATOM      8  C   UNL A   1      32.873  21.755  24.430  1.00  0.00     0.030 A 
ATOM      9  C   UNL A   1      32.450  20.679  23.610  1.00  0.00     0.013 A 
ATOM     10  C   UNL A   1      32.968  19.395  23.752  1.00  0.00     0.001 A 
ATOM     11  C   UNL A   1      34.322  20.194  25.571  1.00  0.00     0.014 A 
ATOM     12  C   UNL A   1      33.917  19.155  24.729  1.00  0.00     0.001 A 
BRANCH   8  13
ATOM     13  C   UNL A   1      32.283  23.035  24.073  1.00  0.00     0.135 A 
ATOM     14  C   UNL A   1      32.499  25.197  23.567  1.00  0.00     0.128 A 
ATOM     15  C   UNL A   1      31.175  24.823  23.342  1.00  0.00     0.051 A 
ATOM     16  O   UNL A   1      33.161  24.086  24.033  1.00  0.00    -0.457 OA
ATOM     17  C   UNL A   1      31.026  23.465  23.721  1.00  0.00     0.051 A 
BRANCH  14  18
ATOM     18  C   UNL A   1      33.128  26.451  23.323  1.00  0.00     0.071 C 
ATOM     19  C   UNL A   1      31.611  28.113  27.542  1.00  0.00     0.301 C 
ATOM     20  N   UNL A   1      32.358  28.333  26.312  1.00  0.00    -0.189 N 
ATOM     21  C   UNL A   1      32.775  27.204  25.652  1.00  0.00     0.349 C 
ATOM     22  C   UNL A   1      32.833  29.548  25.891  1.00  0.00     0.318 C 
ATOM     23  O   UNL A   1      32.848  26.108  26.202  1.00  0.00    -0.240 OA
ATOM     24  C   UNL A   1      33.182  27.425  24.253  1.00  0.00     0.157 C 
ATOM     25  N   UNL A   1      33.435  29.771  24.781  1.00  0.00    -0.200 N 
ATOM     26  C   UNL A   1      33.588  28.788  23.840  1.00  0.00     0.347 C 
ATOM     27  H   UNL A   1      33.796  30.670  24.601  1.00  0.00     0.316 HD
ATOM     28  O   UNL A   1      33.977  29.020  22.706  1.00  0.00    -0.241 OA
BRANCH  22  29
ATOM     29  S   UNL A   1      32.648  30.914  26.968  1.00  0.00    -0.055 SA
ATOM     30  H   UNL A   1      32.133  31.967  26.280  1.00  0.00     0.116 HD
ENDBRANCH  22  29
ENDBRANCH  14  18
ENDBRANCH   8  13
ENDBRANCH   4   7
ENDBRANCH   2   3
ENDBRANCH   1   2
BRANCH   1  31
ATOM     31  C   UNL A   1      38.772  23.418  26.665  1.00  0.00     0.118 C 
BRANCH  31  32
ATOM     32  N   UNL A   1      40.155  23.665  26.247  1.00  0.00    -0.352 N 
ATOM     33  C   UNL A   1      41.069  24.661  26.519  1.00  0.00     0.251 C 
ATOM     34  H   UNL A   1      40.508  22.970  25.645  1.00  0.00     0.163 HD
ATOM     35  O   UNL A   1      42.146  24.645  25.922  1.00  0.00    -0.269 OA
BRANCH  33  36
ATOM     36  C   UNL A   1      40.770  25.774  27.454  1.00  0.00     0.039 A 
ATOM     37  C   UNL A   1      39.810  25.594  28.457  1.00  0.00     0.014 A 
ATOM     38  C   UNL A   1      41.430  26.993  27.371  1.00  0.00     0.014 A 
ATOM     39  C   UNL A   1      39.621  26.581  29.433  1.00  0.00     0.010 A 
ATOM     40  C   UNL A   1      41.372  27.890  28.429  1.00  0.00     0.010 A 
ATOM     41  C   UNL A   1      40.456  27.708  29.470  1.00  0.00    -0.014 A 
BRANCH  41  42
ATOM     42  C   UNL A   1      40.392  28.720  30.559  1.00  0.00     0.031 A 
ATOM     43  C   UNL A   1      41.293  28.588  31.765  1.00  0.00     0.074 A 
ATOM     44  C   UNL A   1      39.462  29.696  30.515  1.00  0.00     0.049 A 
ATOM     45  N   UNL A   1      41.301  29.286  32.871  1.00  0.00    -0.248 NA
ATOM     46  C   UNL A   1      42.286  27.498  31.745  1.00  0.00     0.031 C 
ATOM     47  C   UNL A   1      38.492  29.902  29.435  1.00  0.00     0.029 A 
ATOM     48  N   UNL A   1      39.172  30.698  31.408  1.00  0.00    -0.354 N 
ATOM     49  C   UNL A   1      42.267  28.700  33.683  1.00  0.00     0.074 A 
ATOM     50  C   UNL A   1      42.774  27.547  32.975  1.00  0.00     0.031 C 
ATOM     51  C   UNL A   1      37.748  30.985  29.708  1.00  0.00     0.029 A 
ATOM     52  C   UNL A   1      38.142  31.519  31.006  1.00  0.00     0.049 A 
ATOM     53  H   UNL A   1      39.655  30.819  32.258  1.00  0.00     0.167 HD
ATOM     54  C   UNL A   1      42.720  29.102  34.894  1.00  0.00     0.031 A 
ATOM     55  C   UNL A   1      37.571  32.575  31.617  1.00  0.00     0.031 A 
ATOM     56  C   UNL A   1      42.237  30.270  35.578  1.00  0.00     0.049 A 
ATOM     57  C   UNL A   1      38.090  33.003  32.963  1.00  0.00     0.074 A 
ATOM     58  C   UNL A   1      42.676  30.808  36.775  1.00  0.00     0.029 A 
ATOM     59  N   UNL A   1      41.211  31.084  35.124  1.00  0.00    -0.354 N 
ATOM     60  N   UNL A   1      39.057  32.478  33.679  1.00  0.00    -0.248 NA
ATOM     61  C   UNL A   1      37.449  34.171  33.581  1.00  0.00     0.031 C 
ATOM     62  C   UNL A   1      41.874  31.912  37.074  1.00  0.00     0.029 A 
ATOM     63  C   UNL A   1      40.982  32.104  36.030  1.00  0.00     0.049 A 
ATOM     64  H   UNL A   1      40.718  30.955  34.280  1.00  0.00     0.167 HD
ATOM     65  C   UNL A   1      39.158  33.270  34.817  1.00  0.00     0.074 A 
ATOM     66  C   UNL A   1      38.167  34.319  34.685  1.00  0.00     0.031 C 
ATOM     67  C   UNL A   1      39.994  33.142  35.877  1.00  0.00     0.031 A 
BRANCH  54  68
ATOM     68  C   UNL A   1      43.795  28.273  35.552  1.00  0.00    -0.014 A 
ATOM     69  C   UNL A   1      45.159  28.559  35.354  1.00  0.00     0.010 A 
ATOM     70  C   UNL A   1      43.439  27.220  36.415  1.00  0.00     0.010 A 
ATOM     71  C   UNL A   1      46.144  27.782  35.968  1.00  0.00     0.020 A 
ATOM     72  C   UNL A   1      44.421  26.462  37.059  1.00  0.00     0.020 A 
ATOM     73  C   UNL A   1      45.768  26.739  36.818  1.00  0.00     0.054 A 
BRANCH  73  74
ATOM     74  S   UNL A   1      47.071  25.769  37.627  1.00  0.00     0.124 S 
ATOM     75  O   UNL A   1      48.281  26.360  37.061  1.00  0.00    -0.237 OA
ATOM     76  O   UNL A   1      46.841  26.045  39.042  1.00  0.00    -0.237 OA
ATOM     77  O   UNL A   1      46.794  24.397  37.209  1.00  0.00    -0.744 OA
ENDBRANCH  73  74
ENDBRANCH  54  68
BRANCH  55  78
ATOM     78  C   UNL A   1      36.457  33.311  30.954  1.00  0.00    -0.014 A 
ATOM     79  C   UNL A   1      36.681  34.029  29.765  1.00  0.00     0.010 A 
ATOM     80  C   UNL A   1      35.162  33.296  31.504  1.00  0.00     0.010 A 
ATOM     81  C   UNL A   1      35.640  34.735  29.154  1.00  0.00     0.020 A 
ATOM     82  C   UNL A   1      34.111  33.974  30.878  1.00  0.00     0.020 A 
ATOM     83  C   UNL A   1      34.360  34.702  29.714  1.00  0.00     0.054 A 
BRANCH  83  84
ATOM     84  S   UNL A   1      33.019  35.596  28.881  1.00  0.00     0.124 S 
ATOM     85  O   UNL A   1      32.267  36.136  30.010  1.00  0.00    -0.237 OA
ATOM     86  O   UNL A   1      33.744  36.578  28.077  1.00  0.00    -0.237 OA
ATOM     87  O   UNL A   1      32.336  34.557  28.114  1.00  0.00    -0.744 OA
ENDBRANCH  83  84
ENDBRANCH  55  78
BRANCH  67  88
ATOM     88  C   UNL A   1      39.905  34.180  36.964  1.00  0.00    -0.014 A 
ATOM     89  C   UNL A   1      40.610  35.393  36.875  1.00  0.00     0.010 A 
ATOM     90  C   UNL A   1      39.044  33.965  38.056  1.00  0.00     0.010 A 
ATOM     91  C   UNL A   1      40.476  36.361  37.875  1.00  0.00     0.020 A 
ATOM     92  C   UNL A   1      38.881  34.942  39.039  1.00  0.00     0.020 A 
ATOM     93  C   UNL A   1      39.609  36.130  38.948  1.00  0.00     0.054 A 
BRANCH  93  94
ATOM     94  S   UNL A   1      39.412  37.427  40.200  1.00  0.00     0.124 S 
ATOM     95  O   UNL A   1      40.780  37.912  40.353  1.00  0.00    -0.237 OA
ATOM     96  O   UNL A   1      38.483  38.352  39.557  1.00  0.00    -0.237 OA
ATOM     97  O   UNL A   1      38.871  36.714  41.356  1.00  0.00    -0.744 OA
ENDBRANCH  93  94
ENDBRANCH  67  88
ENDBRANCH  41  42
ENDBRANCH  33  36
ENDBRANCH  31  32
ENDBRANCH   1  31
TORSDOF 16
ENDMDL
MODEL 3
REMARK VINA RESULT:     -11.5      2.973      9.412
REMARK SMILES CN1C(=O)/C(=C\c2ccc(-c3ccccc3C(=O)NCCCNC(=O)c3ccc(-c4c5nc(c(-c6ccc(S(=O)(=O)[O-])cc6)c6ccc([nH]6)c(-c6ccc(S(=O)(=O)[O-])cc6)c6nc(c(-c7ccc(S(=O)(=O)[O-])cc7)c7ccc4[nH]7)C=C6)C=C5)cc3)o2)C(=O)[NH+]=C1S
REMARK SMILES IDX 21 1 20 2 19 3 17 4 18 5 16 7 11 8 12 9 13 10 15 11 14 12
REMARK SMILES IDX 10 13 7 14 8 15 86 16 9 17 6 18 1 19 2 20 3 21 90 22 4 23
REMARK SMILES IDX 5 24 89 25 87 26 88 28 91 29 22 31 23 32 24 33 25 35 26 36
REMARK SMILES IDX 27 37 85 38 28 39 84 40 29 41 30 42 31 43 78 44 32 45 83 46
REMARK SMILES IDX 77 47 79 48 33 49 82 50 76 51 75 52 34 54 64 55 45 56 63 57
REMARK SMILES IDX 46 58 49 59 62 60 80 61 47 62 48 63 61 65 81 66 50 67 35 68
REMARK SMILES IDX 36 69 44 70 37 71 43 72 38 73 39 74 40 75 41 76 42 77 65 78
REMARK SMILES IDX 66 79 74 80 67 81 73 82 68 83 69 84 70 85 71 86 72 87 51 88
REMARK SMILES IDX 52 89 60 90 53 91 59 92 54 93 55 94 56 95 57 96 58 97
REMARK H PARENT 19 6 89 27 91 30 23 34 79 53 49 64
REMARK Flexibility Score: inf
ROOT
ATOM      1  C   UNL A   1      35.934  22.869  24.806  1.00  0.00     0.042 C 
ENDROOT
BRANCH   1   2
ATOM      2  C   UNL A   1      35.466  22.369  26.149  1.00  0.00     0.118 C 
BRANCH   2   3
ATOM      3  N   UNL A   1      34.172  22.736  26.638  1.00  0.00    -0.352 N 
ATOM      4  C   UNL A   1      32.944  22.289  26.197  1.00  0.00     0.252 C 
ATOM      5  O   UNL A   1      31.982  22.589  26.915  1.00  0.00    -0.269 OA
ATOM      6  H   UNL A   1      34.158  23.385  27.379  1.00  0.00     0.163 HD
BRANCH   4   7
ATOM      7  C   UNL A   1      32.660  21.567  24.893  1.00  0.00     0.050 A 
ATOM      8  C   UNL A   1      32.515  22.049  23.570  1.00  0.00     0.030 A 
ATOM      9  C   UNL A   1      32.224  21.137  22.526  1.00  0.00     0.013 A 
ATOM     10  C   UNL A   1      32.127  19.766  22.749  1.00  0.00     0.001 A 
ATOM     11  C   UNL A   1      32.559  20.163  25.080  1.00  0.00     0.014 A 
ATOM     12  C   UNL A   1      32.307  19.277  24.030  1.00  0.00     0.001 A 
BRANCH   8  13
ATOM     13  C   UNL A   1      32.662  23.425  23.125  1.00  0.00     0.135 A 
ATOM     14  C   UNL A   1      32.916  25.594  23.581  1.00  0.00     0.128 A 
ATOM     15  C   UNL A   1      33.073  25.412  22.208  1.00  0.00     0.051 A 
ATOM     16  O   UNL A   1      32.647  24.361  24.125  1.00  0.00    -0.457 OA
ATOM     17  C   UNL A   1      32.851  24.044  21.913  1.00  0.00     0.051 A 
BRANCH  14  18
ATOM     18  C   UNL A   1      33.057  26.787  24.347  1.00  0.00     0.071 C 
ATOM     19  C   UNL A   1      28.953  28.490  22.584  1.00  0.00     0.301 C 
ATOM     20  N   UNL A   1      30.097  28.664  23.467  1.00  0.00    -0.189 N 
ATOM     21  C   UNL A   1      30.750  27.516  23.838  1.00  0.00     0.349 C 
ATOM     22  C   UNL A   1      30.430  29.838  24.094  1.00  0.00     0.318 C 
ATOM     23  O   UNL A   1      30.232  26.405  23.752  1.00  0.00    -0.240 OA
ATOM     24  C   UNL A   1      32.095  27.729  24.401  1.00  0.00     0.157 C 
ATOM     25  N   UNL A   1      31.470  30.026  24.822  1.00  0.00    -0.200 N 
ATOM     26  C   UNL A   1      32.423  29.055  24.974  1.00  0.00     0.347 C 
ATOM     27  H   UNL A   1      31.584  30.889  25.282  1.00  0.00     0.316 HD
ATOM     28  O   UNL A   1      33.506  29.274  25.492  1.00  0.00    -0.241 OA
BRANCH  22  29
ATOM     29  S   UNL A   1      29.332  31.189  23.934  1.00  0.00    -0.055 SA
ATOM     30  H   UNL A   1      29.772  32.016  22.949  1.00  0.00     0.116 HD
ENDBRANCH  22  29
ENDBRANCH  14  18
ENDBRANCH   8  13
ENDBRANCH   4   7
ENDBRANCH   2   3
ENDBRANCH   1   2
BRANCH   1  31
ATOM     31  C   UNL A   1      37.367  23.367  24.735  1.00  0.00     0.118 C 
BRANCH  31  32
ATOM     32  N   UNL A   1      38.350  22.564  25.470  1.00  0.00    -0.352 N 
ATOM     33  C   UNL A   1      39.308  22.863  26.414  1.00  0.00     0.251 C 
ATOM     34  H   UNL A   1      38.317  21.607  25.240  1.00  0.00     0.163 HD
ATOM     35  O   UNL A   1      40.069  21.966  26.779  1.00  0.00    -0.269 OA
BRANCH  33  36
ATOM     36  C   UNL A   1      39.487  24.233  26.954  1.00  0.00     0.039 A 
ATOM     37  C   UNL A   1      39.007  24.540  28.234  1.00  0.00     0.014 A 
ATOM     38  C   UNL A   1      40.132  25.225  26.227  1.00  0.00     0.014 A 
ATOM     39  C   UNL A   1      39.294  25.783  28.811  1.00  0.00     0.010 A 
ATOM     40  C   UNL A   1      40.566  26.383  26.859  1.00  0.00     0.010 A 
ATOM     41  C   UNL A   1      40.142  26.688  28.157  1.00  0.00    -0.014 A 
BRANCH  41  42
ATOM     42  C   UNL A   1      40.591  27.964  28.779  1.00  0.00     0.031 A 
ATOM     43  C   UNL A   1      41.980  28.070  29.364  1.00  0.00     0.074 A 
ATOM     44  C   UNL A   1      39.723  28.989  28.909  1.00  0.00     0.049 A 
ATOM     45  N   UNL A   1      42.512  29.042  30.058  1.00  0.00    -0.248 NA
ATOM     46  C   UNL A   1      42.874  26.911  29.184  1.00  0.00     0.031 C 
ATOM     47  C   UNL A   1      38.334  28.996  28.440  1.00  0.00     0.029 A 
ATOM     48  N   UNL A   1      39.879  30.226  29.485  1.00  0.00    -0.354 N 
ATOM     49  C   UNL A   1      43.779  28.598  30.423  1.00  0.00     0.074 A 
ATOM     50  C   UNL A   1      43.911  27.244  29.936  1.00  0.00     0.031 C 
ATOM     51  C   UNL A   1      37.783  30.190  28.707  1.00  0.00     0.029 A 
ATOM     52  C   UNL A   1      38.752  31.015  29.418  1.00  0.00     0.049 A 
ATOM     53  H   UNL A   1      40.718  30.522  29.909  1.00  0.00     0.167 HD
ATOM     54  C   UNL A   1      44.762  29.266  31.073  1.00  0.00     0.031 A 
ATOM     55  C   UNL A   1      38.521  32.257  29.885  1.00  0.00     0.031 A 
ATOM     56  C   UNL A   1      44.639  30.625  31.523  1.00  0.00     0.049 A 
ATOM     57  C   UNL A   1      39.627  32.980  30.606  1.00  0.00     0.074 A 
ATOM     58  C   UNL A   1      45.596  31.420  32.127  1.00  0.00     0.029 A 
ATOM     59  N   UNL A   1      43.489  31.393  31.412  1.00  0.00    -0.354 N 
ATOM     60  N   UNL A   1      40.844  32.568  30.873  1.00  0.00    -0.248 NA
ATOM     61  C   UNL A   1      39.333  34.338  31.079  1.00  0.00     0.031 C 
ATOM     62  C   UNL A   1      45.006  32.648  32.438  1.00  0.00     0.029 A 
ATOM     63  C   UNL A   1      43.703  32.644  31.964  1.00  0.00     0.049 A 
ATOM     64  H   UNL A   1      42.646  31.092  31.002  1.00  0.00     0.167 HD
ATOM     65  C   UNL A   1      41.469  33.628  31.520  1.00  0.00     0.074 A 
ATOM     66  C   UNL A   1      40.502  34.705  31.587  1.00  0.00     0.031 C 
ATOM     67  C   UNL A   1      42.729  33.704  32.015  1.00  0.00     0.031 A 
BRANCH  54  68
ATOM     68  C   UNL A   1      46.056  28.535  31.330  1.00  0.00    -0.014 A 
ATOM     69  C   UNL A   1      46.271  27.833  32.531  1.00  0.00     0.010 A 
ATOM     70  C   UNL A   1      47.057  28.513  30.341  1.00  0.00     0.010 A 
ATOM     71  C   UNL A   1      47.475  27.162  32.756  1.00  0.00     0.020 A 
ATOM     72  C   UNL A   1      48.250  27.814  30.548  1.00  0.00     0.020 A 
ATOM     73  C   UNL A   1      48.457  27.156  31.762  1.00  0.00     0.054 A 
BRANCH  73  74
ATOM     74  S   UNL A   1      49.997  26.248  32.071  1.00  0.00     0.124 S 
ATOM     75  O   UNL A   1      49.833  25.844  33.465  1.00  0.00    -0.237 OA
ATOM     76  O   UNL A   1      49.932  25.167  31.092  1.00  0.00    -0.237 OA
ATOM     77  O   UNL A   1      51.041  27.242  31.831  1.00  0.00    -0.744 OA
ENDBRANCH  73  74
ENDBRANCH  54  68
BRANCH  55  78
ATOM     78  C   UNL A   1      37.194  32.902  29.670  1.00  0.00    -0.014 A 
ATOM     79  C   UNL A   1      36.834  33.395  28.403  1.00  0.00     0.010 A 
ATOM     80  C   UNL A   1      36.277  33.025  30.732  1.00  0.00     0.010 A 
ATOM     81  C   UNL A   1      35.598  34.018  28.206  1.00  0.00     0.020 A 
ATOM     82  C   UNL A   1      35.026  33.617  30.531  1.00  0.00     0.020 A 
ATOM     83  C   UNL A   1      34.700  34.124  29.272  1.00  0.00     0.054 A 
BRANCH  83  84
ATOM     84  S   UNL A   1      33.088  34.902  28.982  1.00  0.00     0.124 S 
ATOM     85  O   UNL A   1      33.471  36.217  28.475  1.00  0.00    -0.237 OA
ATOM     86  O   UNL A   1      32.473  34.004  28.007  1.00  0.00    -0.237 OA
ATOM     87  O   UNL A   1      32.461  34.899  30.302  1.00  0.00    -0.744 OA
ENDBRANCH  83  84
ENDBRANCH  55  78
BRANCH  67  88
ATOM     88  C   UNL A   1      43.153  35.007  32.641  1.00  0.00    -0.014 A 
ATOM     89  C   UNL A   1      43.788  36.008  31.885  1.00  0.00     0.010 A 
ATOM     90  C   UNL A   1      42.845  35.257  33.991  1.00  0.00     0.010 A 
ATOM     91  C   UNL A   1      44.131  37.226  32.476  1.00  0.00     0.020 A 
ATOM     92  C   UNL A   1      43.157  36.485  34.576  1.00  0.00     0.020 A 
ATOM     93  C   UNL A   1      43.810  37.458  33.817  1.00  0.00     0.054 A 
BRANCH  93  94
ATOM     94  S   UNL A   1      44.217  39.069  34.543  1.00  0.00     0.124 S 
ATOM     95  O   UNL A   1      45.550  39.318  34.002  1.00  0.00    -0.237 OA
ATOM     96  O   UNL A   1      43.156  39.929  34.026  1.00  0.00    -0.237 OA
ATOM     97  O   UNL A   1      44.166  38.825  35.983  1.00  0.00    -0.744 OA
ENDBRANCH  93  94
ENDBRANCH  67  88
ENDBRANCH  41  42
ENDBRANCH  33  36
ENDBRANCH  31  32
ENDBRANCH   1  31
TORSDOF 16
ENDMDL
