MODEL 1
REMARK VINA RESULT:     -11.3      0.000      0.000
REMARK SMILES C[C@@H]1CCCCN1S(=O)(=O)c1ccc(CCC(=O)NCCCNC(=O)c2ccc(-c3c4nc(c(-c5ccc(S(=O)(=O)[O-])cc5)c5ccc([nH]5)c(-c5ccc(S(=O)(=O)[O-])cc5)c5nc(c(-c6ccc(S(=O)(=O)[O-])cc6)c6ccc3[nH]6)C=C5)C=C4)cc2)cc1
REMARK SMILES IDX 20 1 19 2 17 3 18 4 16 6 15 7 14 8 11 9 12 10 87 11 13 12
REMARK SMILES IDX 86 13 8 14 9 15 10 16 7 17 1 18 2 19 3 20 4 21 6 22 5 23
REMARK SMILES IDX 21 24 22 25 23 26 24 27 25 29 26 30 27 31 85 32 28 33 84 34
REMARK SMILES IDX 29 35 30 36 31 37 78 38 32 39 83 40 77 41 79 42 33 43 82 44
REMARK SMILES IDX 76 45 75 46 34 48 64 49 45 50 63 51 46 52 49 53 62 54 80 55
REMARK SMILES IDX 47 56 48 57 61 59 81 60 50 61 35 62 36 63 44 64 37 65 43 66
REMARK SMILES IDX 38 67 39 68 40 69 41 70 42 71 65 72 66 73 74 74 67 75 73 76
REMARK SMILES IDX 68 77 69 78 70 79 71 80 72 81 51 82 52 83 60 84 53 85 59 86
REMARK SMILES IDX 54 87 55 88 56 89 57 90 58 91
REMARK H PARENT 19 5 23 28 79 47 49 58
REMARK Flexibility Score: inf
ROOT
ATOM      1  C   UNL A   1      33.886  32.562  27.849  1.00  0.00     0.117 C 
ENDROOT
BRANCH   1   2
ATOM      2  N   UNL A   1      34.500  31.332  27.362  1.00  0.00    -0.356 N 
ATOM      3  C   UNL A   1      33.955  30.118  27.063  1.00  0.00     0.220 C 
ATOM      4  O   UNL A   1      34.722  29.187  26.806  1.00  0.00    -0.275 OA
ATOM      5  H   UNL A   1      35.474  31.386  27.227  1.00  0.00     0.163 HD
BRANCH   3   6
ATOM      6  C   UNL A   1      32.453  29.914  26.989  1.00  0.00     0.105 C 
BRANCH   6   7
ATOM      7  C   UNL A   1      31.954  29.590  25.571  1.00  0.00     0.045 C 
BRANCH   7   8
ATOM      8  C   UNL A   1      31.372  28.199  25.472  1.00  0.00    -0.047 A 
ATOM      9  C   UNL A   1      30.839  25.478  25.126  1.00  0.00     0.082 A 
ATOM     10  C   UNL A   1      30.500  26.384  24.114  1.00  0.00     0.022 A 
ATOM     11  C   UNL A   1      31.308  25.946  26.357  1.00  0.00     0.022 A 
ATOM     12  C   UNL A   1      30.767  27.747  24.292  1.00  0.00     0.005 A 
ATOM     13  C   UNL A   1      31.545  27.304  26.538  1.00  0.00     0.005 A 
BRANCH   9  14
ATOM     14  S   UNL A   1      31.182  23.780  24.693  1.00  0.00     0.243 S 
ATOM     15  O   UNL A   1      30.753  23.597  23.320  1.00  0.00    -0.207 OA
ATOM     16  O   UNL A   1      30.589  22.969  25.735  1.00  0.00    -0.207 OA
BRANCH  14  17
ATOM     17  N   UNL A   1      32.857  23.546  24.755  1.00  0.00    -0.195 NA
ATOM     18  C   UNL A   1      33.685  25.010  22.868  1.00  0.00     0.026 C 
ATOM     19  C   UNL A   1      33.784  24.641  24.347  1.00  0.00     0.070 C 
ATOM     20  C   UNL A   1      35.241  24.270  24.702  1.00  0.00     0.020 C 
ATOM     21  C   UNL A   1      35.362  22.935  25.424  1.00  0.00     0.003 C 
ATOM     22  C   UNL A   1      33.253  22.212  24.213  1.00  0.00     0.103 C 
ATOM     23  C   UNL A   1      34.679  21.846  24.610  1.00  0.00     0.017 C 
ENDBRANCH  14  17
ENDBRANCH   9  14
ENDBRANCH   7   8
ENDBRANCH   6   7
ENDBRANCH   3   6
ENDBRANCH   1   2
BRANCH   1  24
ATOM     24  C   UNL A   1      34.679  33.161  29.006  1.00  0.00     0.042 C 
BRANCH  24  25
ATOM     25  C   UNL A   1      35.971  32.439  29.378  1.00  0.00     0.118 C 
BRANCH  25  26
ATOM     26  N   UNL A   1      35.800  31.518  30.490  1.00  0.00    -0.352 N 
ATOM     27  C   UNL A   1      36.516  30.418  30.902  1.00  0.00     0.251 C 
ATOM     28  H   UNL A   1      35.021  31.722  31.057  1.00  0.00     0.163 HD
ATOM     29  O   UNL A   1      36.023  29.728  31.798  1.00  0.00    -0.269 OA
BRANCH  27  30
ATOM     30  C   UNL A   1      37.837  30.016  30.334  1.00  0.00     0.039 A 
ATOM     31  C   UNL A   1      38.853  29.650  31.233  1.00  0.00     0.014 A 
ATOM     32  C   UNL A   1      38.144  30.069  28.972  1.00  0.00     0.014 A 
ATOM     33  C   UNL A   1      40.130  29.294  30.772  1.00  0.00     0.010 A 
ATOM     34  C   UNL A   1      39.401  29.651  28.507  1.00  0.00     0.010 A 
ATOM     35  C   UNL A   1      40.414  29.272  29.400  1.00  0.00    -0.014 A 
BRANCH  35  36
ATOM     36  C   UNL A   1      41.773  28.900  28.903  1.00  0.00     0.031 A 
ATOM     37  C   UNL A   1      42.885  29.914  28.882  1.00  0.00     0.074 A 
ATOM     38  C   UNL A   1      42.018  27.659  28.436  1.00  0.00     0.049 A 
ATOM     39  N   UNL A   1      44.124  29.768  28.483  1.00  0.00    -0.248 NA
ATOM     40  C   UNL A   1      42.556  31.274  29.334  1.00  0.00     0.031 C 
ATOM     41  C   UNL A   1      41.023  26.596  28.320  1.00  0.00     0.029 A 
ATOM     42  N   UNL A   1      43.178  27.077  27.974  1.00  0.00    -0.354 N 
ATOM     43  C   UNL A   1      44.709  31.024  28.591  1.00  0.00     0.074 A 
ATOM     44  C   UNL A   1      43.685  31.922  29.082  1.00  0.00     0.031 C 
ATOM     45  C   UNL A   1      41.624  25.483  27.872  1.00  0.00     0.029 A 
ATOM     46  C   UNL A   1      43.036  25.751  27.634  1.00  0.00     0.049 A 
ATOM     47  H   UNL A   1      44.030  27.565  27.895  1.00  0.00     0.167 HD
ATOM     48  C   UNL A   1      45.978  31.398  28.307  1.00  0.00     0.031 A 
ATOM     49  C   UNL A   1      43.927  24.845  27.181  1.00  0.00     0.031 A 
ATOM     50  C   UNL A   1      47.011  30.508  27.844  1.00  0.00     0.049 A 
ATOM     51  C   UNL A   1      45.350  25.269  26.942  1.00  0.00     0.074 A 
ATOM     52  C   UNL A   1      48.343  30.797  27.597  1.00  0.00     0.029 A 
ATOM     53  N   UNL A   1      46.835  29.165  27.555  1.00  0.00    -0.354 N 
ATOM     54  N   UNL A   1      45.899  26.445  27.128  1.00  0.00    -0.248 NA
ATOM     55  C   UNL A   1      46.274  24.247  26.424  1.00  0.00     0.031 C 
ATOM     56  C   UNL A   1      48.961  29.639  27.113  1.00  0.00     0.029 A 
ATOM     57  C   UNL A   1      48.027  28.617  27.109  1.00  0.00     0.049 A 
ATOM     58  H   UNL A   1      45.988  28.673  27.651  1.00  0.00     0.167 HD
ATOM     59  C   UNL A   1      47.231  26.303  26.753  1.00  0.00     0.074 A 
ATOM     60  C   UNL A   1      47.415  24.921  26.365  1.00  0.00     0.031 C 
ATOM     61  C   UNL A   1      48.207  27.242  26.721  1.00  0.00     0.031 A 
BRANCH  48  62
ATOM     62  C   UNL A   1      46.324  32.854  28.465  1.00  0.00    -0.014 A 
ATOM     63  C   UNL A   1      46.846  33.355  29.669  1.00  0.00     0.010 A 
ATOM     64  C   UNL A   1      46.170  33.723  27.369  1.00  0.00     0.010 A 
ATOM     65  C   UNL A   1      47.175  34.708  29.787  1.00  0.00     0.020 A 
ATOM     66  C   UNL A   1      46.523  35.071  27.474  1.00  0.00     0.020 A 
ATOM     67  C   UNL A   1      47.009  35.558  28.689  1.00  0.00     0.054 A 
BRANCH  67  68
ATOM     68  S   UNL A   1      47.477  37.302  28.858  1.00  0.00     0.124 S 
ATOM     69  O   UNL A   1      46.648  37.726  29.983  1.00  0.00    -0.237 OA
ATOM     70  O   UNL A   1      48.910  37.226  29.127  1.00  0.00    -0.237 OA
ATOM     71  O   UNL A   1      47.119  37.884  27.567  1.00  0.00    -0.744 OA
ENDBRANCH  67  68
ENDBRANCH  48  62
BRANCH  49  72
ATOM     72  C   UNL A   1      43.511  23.436  26.925  1.00  0.00    -0.014 A 
ATOM     73  C   UNL A   1      43.034  22.631  27.977  1.00  0.00     0.010 A 
ATOM     74  C   UNL A   1      43.604  22.882  25.635  1.00  0.00     0.010 A 
ATOM     75  C   UNL A   1      42.680  21.296  27.749  1.00  0.00     0.020 A 
ATOM     76  C   UNL A   1      43.222  21.558  25.397  1.00  0.00     0.020 A 
ATOM     77  C   UNL A   1      42.778  20.768  26.460  1.00  0.00     0.054 A 
BRANCH  77  78
ATOM     78  S   UNL A   1      42.271  19.049  26.170  1.00  0.00     0.124 S 
ATOM     79  O   UNL A   1      42.501  18.441  27.477  1.00  0.00    -0.237 OA
ATOM     80  O   UNL A   1      40.872  19.191  25.773  1.00  0.00    -0.237 OA
ATOM     81  O   UNL A   1      43.167  18.608  25.104  1.00  0.00    -0.744 OA
ENDBRANCH  77  78
ENDBRANCH  49  72
BRANCH  61  82
ATOM     82  C   UNL A   1      49.573  26.808  26.263  1.00  0.00    -0.014 A 
ATOM     83  C   UNL A   1      50.506  26.272  27.168  1.00  0.00     0.010 A 
ATOM     84  C   UNL A   1      49.909  26.888  24.899  1.00  0.00     0.010 A 
ATOM     85  C   UNL A   1      51.761  25.850  26.722  1.00  0.00     0.020 A 
ATOM     86  C   UNL A   1      51.153  26.443  24.446  1.00  0.00     0.020 A 
ATOM     87  C   UNL A   1      52.077  25.938  25.363  1.00  0.00     0.054 A 
BRANCH  87  88
ATOM     88  S   UNL A   1      53.695  25.341  24.802  1.00  0.00     0.124 S 
ATOM     89  O   UNL A   1      53.807  25.959  23.484  1.00  0.00    -0.237 OA
ATOM     90  O   UNL A   1      54.603  25.863  25.820  1.00  0.00    -0.237 OA
ATOM     91  O   UNL A   1      53.545  23.887  24.798  1.00  0.00    -0.744 OA
ENDBRANCH  87  88
ENDBRANCH  61  82
ENDBRANCH  35  36
ENDBRANCH  27  30
ENDBRANCH  25  26
ENDBRANCH  24  25
ENDBRANCH   1  24
TORSDOF 17
ENDMDL
MODEL 2
REMARK VINA RESULT:     -11.2      6.105     12.100
REMARK SMILES C[C@@H]1CCCCN1S(=O)(=O)c1ccc(CCC(=O)NCCCNC(=O)c2ccc(-c3c4nc(c(-c5ccc(S(=O)(=O)[O-])cc5)c5ccc([nH]5)c(-c5ccc(S(=O)(=O)[O-])cc5)c5nc(c(-c6ccc(S(=O)(=O)[O-])cc6)c6ccc3[nH]6)C=C5)C=C4)cc2)cc1
REMARK SMILES IDX 20 1 19 2 17 3 18 4 16 6 15 7 14 8 11 9 12 10 87 11 13 12
REMARK SMILES IDX 86 13 8 14 9 15 10 16 7 17 1 18 2 19 3 20 4 21 6 22 5 23
REMARK SMILES IDX 21 24 22 25 23 26 24 27 25 29 26 30 27 31 85 32 28 33 84 34
REMARK SMILES IDX 29 35 30 36 31 37 78 38 32 39 83 40 77 41 79 42 33 43 82 44
REMARK SMILES IDX 76 45 75 46 34 48 64 49 45 50 63 51 46 52 49 53 62 54 80 55
REMARK SMILES IDX 47 56 48 57 61 59 81 60 50 61 35 62 36 63 44 64 37 65 43 66
REMARK SMILES IDX 38 67 39 68 40 69 41 70 42 71 65 72 66 73 74 74 67 75 73 76
REMARK SMILES IDX 68 77 69 78 70 79 71 80 72 81 51 82 52 83 60 84 53 85 59 86
REMARK SMILES IDX 54 87 55 88 56 89 57 90 58 91
REMARK H PARENT 19 5 23 28 79 47 49 58
REMARK Flexibility Score: inf
ROOT
ATOM      1  C   UNL A   1      39.790  21.353  26.180  1.00  0.00     0.117 C 
ENDROOT
BRANCH   1   2
ATOM      2  N   UNL A   1      39.016  22.524  26.573  1.00  0.00    -0.356 N 
ATOM      3  C   UNL A   1      37.980  23.160  25.954  1.00  0.00     0.220 C 
ATOM      4  O   UNL A   1      37.591  24.230  26.431  1.00  0.00    -0.275 OA
ATOM      5  H   UNL A   1      39.287  22.925  27.431  1.00  0.00     0.163 HD
BRANCH   3   6
ATOM      6  C   UNL A   1      37.279  22.560  24.750  1.00  0.00     0.105 C 
BRANCH   6   7
ATOM      7  C   UNL A   1      35.895  21.977  25.081  1.00  0.00     0.045 C 
BRANCH   7   8
ATOM      8  C   UNL A   1      34.771  22.879  24.627  1.00  0.00    -0.047 A 
ATOM      9  C   UNL A   1      33.113  24.810  23.474  1.00  0.00     0.082 A 
ATOM     10  C   UNL A   1      33.595  24.999  24.774  1.00  0.00     0.022 A 
ATOM     11  C   UNL A   1      33.340  23.600  22.811  1.00  0.00     0.022 A 
ATOM     12  C   UNL A   1      34.425  24.028  25.350  1.00  0.00     0.005 A 
ATOM     13  C   UNL A   1      34.141  22.627  23.399  1.00  0.00     0.005 A 
BRANCH   9  14
ATOM     14  S   UNL A   1      32.696  26.237  22.486  1.00  0.00     0.243 S 
ATOM     15  O   UNL A   1      31.477  25.917  21.768  1.00  0.00    -0.207 OA
ATOM     16  O   UNL A   1      33.890  26.575  21.740  1.00  0.00    -0.207 OA
BRANCH  14  17
ATOM     17  N   UNL A   1      32.366  27.526  23.531  1.00  0.00    -0.195 NA
ATOM     18  C   UNL A   1      31.012  29.083  22.070  1.00  0.00     0.026 C 
ATOM     19  C   UNL A   1      31.104  28.309  23.384  1.00  0.00     0.070 C 
ATOM     20  C   UNL A   1      30.929  29.273  24.578  1.00  0.00     0.020 C 
ATOM     21  C   UNL A   1      32.031  29.144  25.621  1.00  0.00     0.003 C 
ATOM     22  C   UNL A   1      33.566  28.389  23.749  1.00  0.00     0.103 C 
ATOM     23  C   UNL A   1      33.390  29.303  24.957  1.00  0.00     0.017 C 
ENDBRANCH  14  17
ENDBRANCH   9  14
ENDBRANCH   7   8
ENDBRANCH   6   7
ENDBRANCH   3   6
ENDBRANCH   1   2
BRANCH   1  24
ATOM     24  C   UNL A   1      41.281  21.669  26.108  1.00  0.00     0.042 C 
BRANCH  24  25
ATOM     25  C   UNL A   1      41.721  22.977  26.759  1.00  0.00     0.118 C 
BRANCH  25  26
ATOM     26  N   UNL A   1      42.167  23.965  25.790  1.00  0.00    -0.352 N 
ATOM     27  C   UNL A   1      42.157  25.341  25.798  1.00  0.00     0.251 C 
ATOM     28  H   UNL A   1      42.548  23.574  24.972  1.00  0.00     0.163 HD
ATOM     29  O   UNL A   1      42.454  25.912  24.745  1.00  0.00    -0.269 OA
BRANCH  27  30
ATOM     30  C   UNL A   1      41.813  26.171  26.989  1.00  0.00     0.039 A 
ATOM     31  C   UNL A   1      42.536  27.359  27.192  1.00  0.00     0.014 A 
ATOM     32  C   UNL A   1      40.880  25.791  27.957  1.00  0.00     0.014 A 
ATOM     33  C   UNL A   1      42.290  28.172  28.309  1.00  0.00     0.010 A 
ATOM     34  C   UNL A   1      40.589  26.634  29.040  1.00  0.00     0.010 A 
ATOM     35  C   UNL A   1      41.298  27.828  29.239  1.00  0.00    -0.014 A 
BRANCH  35  36
ATOM     36  C   UNL A   1      41.035  28.685  30.433  1.00  0.00     0.031 A 
ATOM     37  C   UNL A   1      41.890  28.563  31.667  1.00  0.00     0.074 A 
ATOM     38  C   UNL A   1      40.009  29.560  30.440  1.00  0.00     0.049 A 
ATOM     39  N   UNL A   1      41.805  29.222  32.795  1.00  0.00    -0.248 NA
ATOM     40  C   UNL A   1      42.953  27.548  31.643  1.00  0.00     0.031 C 
ATOM     41  C   UNL A   1      39.049  29.733  29.352  1.00  0.00     0.029 A 
ATOM     42  N   UNL A   1      39.601  30.472  31.388  1.00  0.00    -0.354 N 
ATOM     43  C   UNL A   1      42.769  28.673  33.630  1.00  0.00     0.074 A 
ATOM     44  C   UNL A   1      43.419  27.617  32.883  1.00  0.00     0.031 C 
ATOM     45  C   UNL A   1      38.202  30.723  29.672  1.00  0.00     0.029 A 
ATOM     46  C   UNL A   1      38.526  31.237  30.995  1.00  0.00     0.049 A 
ATOM     47  H   UNL A   1      40.037  30.566  32.266  1.00  0.00     0.167 HD
ATOM     48  C   UNL A   1      43.086  29.012  34.902  1.00  0.00     0.031 A 
ATOM     49  C   UNL A   1      37.869  32.237  31.617  1.00  0.00     0.031 A 
ATOM     50  C   UNL A   1      42.464  30.077  35.646  1.00  0.00     0.049 A 
ATOM     51  C   UNL A   1      38.286  32.643  33.004  1.00  0.00     0.074 A 
ATOM     52  C   UNL A   1      42.774  30.527  36.918  1.00  0.00     0.029 A 
ATOM     53  N   UNL A   1      41.411  30.854  35.194  1.00  0.00    -0.354 N 
ATOM     54  N   UNL A   1      39.255  32.161  33.744  1.00  0.00    -0.248 NA
ATOM     55  C   UNL A   1      37.519  33.723  33.644  1.00  0.00     0.031 C 
ATOM     56  C   UNL A   1      41.877  31.545  37.255  1.00  0.00     0.029 A 
ATOM     57  C   UNL A   1      41.043  31.765  36.172  1.00  0.00     0.049 A 
ATOM     58  H   UNL A   1      40.986  30.771  34.310  1.00  0.00     0.167 HD
ATOM     59  C   UNL A   1      39.215  32.879  34.934  1.00  0.00     0.074 A 
ATOM     60  C   UNL A   1      38.152  33.853  34.803  1.00  0.00     0.031 C 
ATOM     61  C   UNL A   1      39.983  32.731  36.039  1.00  0.00     0.031 A 
BRANCH  48  62
ATOM     62  C   UNL A   1      44.146  28.198  35.594  1.00  0.00    -0.014 A 
ATOM     63  C   UNL A   1      45.509  28.373  35.300  1.00  0.00     0.010 A 
ATOM     64  C   UNL A   1      43.771  27.279  36.590  1.00  0.00     0.010 A 
ATOM     65  C   UNL A   1      46.477  27.617  35.967  1.00  0.00     0.020 A 
ATOM     66  C   UNL A   1      44.737  26.539  37.278  1.00  0.00     0.020 A 
ATOM     67  C   UNL A   1      46.084  26.704  36.950  1.00  0.00     0.054 A 
BRANCH  67  68
ATOM     68  S   UNL A   1      47.363  25.761  37.824  1.00  0.00     0.124 S 
ATOM     69  O   UNL A   1      47.593  26.590  39.005  1.00  0.00    -0.237 OA
ATOM     70  O   UNL A   1      46.706  24.481  38.073  1.00  0.00    -0.237 OA
ATOM     71  O   UNL A   1      48.471  25.714  36.873  1.00  0.00    -0.744 OA
ENDBRANCH  67  68
ENDBRANCH  48  62
BRANCH  49  72
ATOM     72  C   UNL A   1      36.742  32.940  30.937  1.00  0.00    -0.014 A 
ATOM     73  C   UNL A   1      37.000  33.939  29.981  1.00  0.00     0.010 A 
ATOM     74  C   UNL A   1      35.407  32.629  31.251  1.00  0.00     0.010 A 
ATOM     75  C   UNL A   1      35.946  34.630  29.370  1.00  0.00     0.020 A 
ATOM     76  C   UNL A   1      34.351  33.295  30.621  1.00  0.00     0.020 A 
ATOM     77  C   UNL A   1      34.628  34.303  29.694  1.00  0.00     0.054 A 
BRANCH  77  78
ATOM     78  S   UNL A   1      33.271  35.173  28.860  1.00  0.00     0.124 S 
ATOM     79  O   UNL A   1      32.476  35.646  29.988  1.00  0.00    -0.237 OA
ATOM     80  O   UNL A   1      33.974  36.206  28.101  1.00  0.00    -0.237 OA
ATOM     81  O   UNL A   1      32.651  34.131  28.046  1.00  0.00    -0.744 OA
ENDBRANCH  77  78
ENDBRANCH  49  72
BRANCH  61  82
ATOM     82  C   UNL A   1      39.715  33.652  37.199  1.00  0.00    -0.014 A 
ATOM     83  C   UNL A   1      38.814  33.293  38.218  1.00  0.00     0.010 A 
ATOM     84  C   UNL A   1      40.414  34.868  37.300  1.00  0.00     0.010 A 
ATOM     85  C   UNL A   1      38.595  34.147  39.301  1.00  0.00     0.020 A 
ATOM     86  C   UNL A   1      40.217  35.714  38.395  1.00  0.00     0.020 A 
ATOM     87  C   UNL A   1      39.298  35.354  39.383  1.00  0.00     0.054 A 
BRANCH  87  88
ATOM     88  S   UNL A   1      39.031  36.425  40.822  1.00  0.00     0.124 S 
ATOM     89  O   UNL A   1      40.362  36.468  41.420  1.00  0.00    -0.237 OA
ATOM     90  O   UNL A   1      38.574  37.673  40.215  1.00  0.00    -0.237 OA
ATOM     91  O   UNL A   1      38.020  35.712  41.601  1.00  0.00    -0.744 OA
ENDBRANCH  87  88
ENDBRANCH  61  82
ENDBRANCH  35  36
ENDBRANCH  27  30
ENDBRANCH  25  26
ENDBRANCH  24  25
ENDBRANCH   1  24
TORSDOF 17
ENDMDL
MODEL 3
REMARK VINA RESULT:     -11.2      6.221     13.770
REMARK SMILES C[C@@H]1CCCCN1S(=O)(=O)c1ccc(CCC(=O)NCCCNC(=O)c2ccc(-c3c4nc(c(-c5ccc(S(=O)(=O)[O-])cc5)c5ccc([nH]5)c(-c5ccc(S(=O)(=O)[O-])cc5)c5nc(c(-c6ccc(S(=O)(=O)[O-])cc6)c6ccc3[nH]6)C=C5)C=C4)cc2)cc1
REMARK SMILES IDX 20 1 19 2 17 3 18 4 16 6 15 7 14 8 11 9 12 10 87 11 13 12
REMARK SMILES IDX 86 13 8 14 9 15 10 16 7 17 1 18 2 19 3 20 4 21 6 22 5 23
REMARK SMILES IDX 21 24 22 25 23 26 24 27 25 29 26 30 27 31 85 32 28 33 84 34
REMARK SMILES IDX 29 35 30 36 31 37 78 38 32 39 83 40 77 41 79 42 33 43 82 44
REMARK SMILES IDX 76 45 75 46 34 48 64 49 45 50 63 51 46 52 49 53 62 54 80 55
REMARK SMILES IDX 47 56 48 57 61 59 81 60 50 61 35 62 36 63 44 64 37 65 43 66
REMARK SMILES IDX 38 67 39 68 40 69 41 70 42 71 65 72 66 73 74 74 67 75 73 76
REMARK SMILES IDX 68 77 69 78 70 79 71 80 72 81 51 82 52 83 60 84 53 85 59 86
REMARK SMILES IDX 54 87 55 88 56 89 57 90 58 91
REMARK H PARENT 19 5 23 28 79 47 49 58
REMARK Flexibility Score: inf
ROOT
ATOM      1  C   UNL A   1      40.836  20.586  26.623  1.00  0.00     0.117 C 
ENDROOT
BRANCH   1   2
ATOM      2  N   UNL A   1      41.623  19.438  27.058  1.00  0.00    -0.356 N 
ATOM      3  C   UNL A   1      42.612  18.741  26.429  1.00  0.00     0.220 C 
ATOM      4  O   UNL A   1      43.021  17.707  26.963  1.00  0.00    -0.275 OA
ATOM      5  H   UNL A   1      41.404  19.110  27.961  1.00  0.00     0.163 HD
BRANCH   3   6
ATOM      6  C   UNL A   1      43.240  19.234  25.139  1.00  0.00     0.105 C 
BRANCH   6   7
ATOM      7  C   UNL A   1      44.715  19.639  25.298  1.00  0.00     0.045 C 
BRANCH   7   8
ATOM      8  C   UNL A   1      44.917  21.131  25.155  1.00  0.00    -0.047 A 
ATOM      9  C   UNL A   1      45.751  23.796  25.242  1.00  0.00     0.082 A 
ATOM     10  C   UNL A   1      44.704  23.371  26.068  1.00  0.00     0.022 A 
ATOM     11  C   UNL A   1      46.280  22.931  24.279  1.00  0.00     0.022 A 
ATOM     12  C   UNL A   1      44.287  22.035  26.020  1.00  0.00     0.005 A 
ATOM     13  C   UNL A   1      45.842  21.612  24.217  1.00  0.00     0.005 A 
BRANCH   9  14
ATOM     14  S   UNL A   1      46.747  25.189  25.748  1.00  0.00     0.243 S 
ATOM     15  O   UNL A   1      46.565  26.226  24.752  1.00  0.00    -0.207 OA
ATOM     16  O   UNL A   1      48.075  24.667  25.995  1.00  0.00    -0.207 OA
BRANCH  14  17
ATOM     17  N   UNL A   1      46.144  25.763  27.221  1.00  0.00    -0.195 NA
ATOM     18  C   UNL A   1      47.306  27.995  27.455  1.00  0.00     0.026 C 
ATOM     19  C   UNL A   1      45.985  27.229  27.447  1.00  0.00     0.070 C 
ATOM     20  C   UNL A   1      45.216  27.489  28.762  1.00  0.00     0.020 C 
ATOM     21  C   UNL A   1      44.764  26.211  29.455  1.00  0.00     0.003 C 
ATOM     22  C   UNL A   1      46.753  25.054  28.387  1.00  0.00     0.103 C 
ATOM     23  C   UNL A   1      45.956  25.289  29.665  1.00  0.00     0.017 C 
ENDBRANCH  14  17
ENDBRANCH   9  14
ENDBRANCH   7   8
ENDBRANCH   6   7
ENDBRANCH   3   6
ENDBRANCH   1   2
BRANCH   1  24
ATOM     24  C   UNL A   1      41.006  21.770  27.569  1.00  0.00     0.042 C 
BRANCH  24  25
ATOM     25  C   UNL A   1      40.319  23.066  27.151  1.00  0.00     0.118 C 
BRANCH  25  26
ATOM     26  N   UNL A   1      41.087  23.818  26.172  1.00  0.00    -0.352 N 
ATOM     27  C   UNL A   1      41.492  25.133  26.121  1.00  0.00     0.251 C 
ATOM     28  H   UNL A   1      41.373  23.283  25.396  1.00  0.00     0.163 HD
ATOM     29  O   UNL A   1      41.997  25.526  25.066  1.00  0.00    -0.269 OA
BRANCH  27  30
ATOM     30  C   UNL A   1      41.356  26.096  27.253  1.00  0.00     0.039 A 
ATOM     31  C   UNL A   1      40.605  25.694  28.370  1.00  0.00     0.014 A 
ATOM     32  C   UNL A   1      41.856  27.401  27.226  1.00  0.00     0.014 A 
ATOM     33  C   UNL A   1      40.406  26.560  29.456  1.00  0.00     0.010 A 
ATOM     34  C   UNL A   1      41.712  28.245  28.338  1.00  0.00     0.010 A 
ATOM     35  C   UNL A   1      40.974  27.842  29.461  1.00  0.00    -0.014 A 
BRANCH  35  36
ATOM     36  C   UNL A   1      40.762  28.771  30.611  1.00  0.00     0.031 A 
ATOM     37  C   UNL A   1      41.639  28.691  31.832  1.00  0.00     0.074 A 
ATOM     38  C   UNL A   1      39.762  29.675  30.589  1.00  0.00     0.049 A 
ATOM     39  N   UNL A   1      41.598  29.414  32.923  1.00  0.00    -0.248 NA
ATOM     40  C   UNL A   1      42.672  27.645  31.844  1.00  0.00     0.031 C 
ATOM     41  C   UNL A   1      38.784  29.816  29.514  1.00  0.00     0.029 A 
ATOM     42  N   UNL A   1      39.400  30.650  31.493  1.00  0.00    -0.354 N 
ATOM     43  C   UNL A   1      42.564  28.883  33.768  1.00  0.00     0.074 A 
ATOM     44  C   UNL A   1      43.167  27.768  33.068  1.00  0.00     0.031 C 
ATOM     45  C   UNL A   1      37.972  30.847  29.795  1.00  0.00     0.029 A 
ATOM     46  C   UNL A   1      38.340  31.424  31.081  1.00  0.00     0.049 A 
ATOM     47  H   UNL A   1      39.858  30.779  32.356  1.00  0.00     0.167 HD
ATOM     48  C   UNL A   1      42.918  29.282  35.013  1.00  0.00     0.031 A 
ATOM     49  C   UNL A   1      37.725  32.476  31.659  1.00  0.00     0.031 A 
ATOM     50  C   UNL A   1      42.343  30.405  35.708  1.00  0.00     0.049 A 
ATOM     51  C   UNL A   1      38.184  32.945  33.012  1.00  0.00     0.074 A 
ATOM     52  C   UNL A   1      42.694  30.915  36.947  1.00  0.00     0.029 A 
ATOM     53  N   UNL A   1      41.303  31.187  35.235  1.00  0.00    -0.354 N 
ATOM     54  N   UNL A   1      39.155  32.475  33.758  1.00  0.00    -0.248 NA
ATOM     55  C   UNL A   1      37.462  34.081  33.606  1.00  0.00     0.031 C 
ATOM     56  C   UNL A   1      41.833  31.977  37.244  1.00  0.00     0.029 A 
ATOM     57  C   UNL A   1      40.983  32.161  36.167  1.00  0.00     0.049 A 
ATOM     58  H   UNL A   1      40.857  31.068  34.366  1.00  0.00     0.167 HD
ATOM     59  C   UNL A   1      39.161  33.259  34.906  1.00  0.00     0.074 A 
ATOM     60  C   UNL A   1      38.124  34.256  34.743  1.00  0.00     0.031 C 
ATOM     61  C   UNL A   1      39.949  33.149  36.003  1.00  0.00     0.031 A 
BRANCH  48  62
ATOM     62  C   UNL A   1      43.969  28.476  35.727  1.00  0.00    -0.014 A 
ATOM     63  C   UNL A   1      43.620  27.444  36.615  1.00  0.00     0.010 A 
ATOM     64  C   UNL A   1      45.328  28.725  35.463  1.00  0.00     0.010 A 
ATOM     65  C   UNL A   1      44.613  26.698  37.255  1.00  0.00     0.020 A 
ATOM     66  C   UNL A   1      46.324  27.963  36.080  1.00  0.00     0.020 A 
ATOM     67  C   UNL A   1      45.959  26.964  36.984  1.00  0.00     0.054 A 
BRANCH  67  68
ATOM     68  S   UNL A   1      47.227  25.958  37.802  1.00  0.00     0.124 S 
ATOM     69  O   UNL A   1      46.857  24.609  37.380  1.00  0.00    -0.237 OA
ATOM     70  O   UNL A   1      48.467  26.476  37.230  1.00  0.00    -0.237 OA
ATOM     71  O   UNL A   1      47.034  26.241  39.221  1.00  0.00    -0.744 OA
ENDBRANCH  67  68
ENDBRANCH  48  62
BRANCH  49  72
ATOM     72  C   UNL A   1      36.605  33.174  30.964  1.00  0.00    -0.014 A 
ATOM     73  C   UNL A   1      36.848  33.933  29.804  1.00  0.00     0.010 A 
ATOM     74  C   UNL A   1      35.292  33.099  31.462  1.00  0.00     0.010 A 
ATOM     75  C   UNL A   1      35.807  34.623  29.171  1.00  0.00     0.020 A 
ATOM     76  C   UNL A   1      34.243  33.761  30.816  1.00  0.00     0.020 A 
ATOM     77  C   UNL A   1      34.511  34.532  29.682  1.00  0.00     0.054 A 
BRANCH  77  78
ATOM     78  S   UNL A   1      33.162  35.393  28.825  1.00  0.00     0.124 S 
ATOM     79  O   UNL A   1      33.890  36.359  28.010  1.00  0.00    -0.237 OA
ATOM     80  O   UNL A   1      32.507  34.310  28.092  1.00  0.00    -0.237 OA
ATOM     81  O   UNL A   1      32.373  35.957  29.917  1.00  0.00    -0.744 OA
ENDBRANCH  77  78
ENDBRANCH  49  72
BRANCH  61  82
ATOM     82  C   UNL A   1      39.733  34.141  37.115  1.00  0.00    -0.014 A 
ATOM     83  C   UNL A   1      38.991  33.797  38.259  1.00  0.00     0.010 A 
ATOM     84  C   UNL A   1      40.325  35.414  37.039  1.00  0.00     0.010 A 
ATOM     85  C   UNL A   1      38.821  34.720  39.294  1.00  0.00     0.020 A 
ATOM     86  C   UNL A   1      40.178  36.331  38.083  1.00  0.00     0.020 A 
ATOM     87  C   UNL A   1      39.415  35.982  39.200  1.00  0.00     0.054 A 
BRANCH  87  88
ATOM     88  S   UNL A   1      39.218  37.146  40.576  1.00  0.00     0.124 S 
ATOM     89  O   UNL A   1      38.323  38.147  40.003  1.00  0.00    -0.237 OA
ATOM     90  O   UNL A   1      38.639  36.311  41.625  1.00  0.00    -0.237 OA
ATOM     91  O   UNL A   1      40.581  37.606  40.838  1.00  0.00    -0.744 OA
ENDBRANCH  87  88
ENDBRANCH  61  82
ENDBRANCH  35  36
ENDBRANCH  27  30
ENDBRANCH  25  26
ENDBRANCH  24  25
ENDBRANCH   1  24
TORSDOF 17
ENDMDL
