MODEL 1
REMARK VINA RESULT:     -13.0      0.000      0.000
REMARK SMILES NS(=O)(=O)c1ccc(-n2nc(C(F)(F)F)cc2-c2ccc(C(=O)NCCCNC(=O)c3ccc(-c4c5nc(c(-c6ccc(S(=O)(=O)[O-])cc6)c6ccc([nH]6)c(-c6ccc(S(=O)(=O)[O-])cc6)c6nc(c(-c7ccc(S(=O)(=O)[O-])cc7)c7ccc4[nH]7)C=C6)C=C5)cc3)cc2)cc1
REMARK SMILES IDX 25 1 24 2 22 3 23 4 21 6 18 7 19 8 92 9 20 10 91 11 17 12
REMARK SMILES IDX 9 13 10 14 11 15 16 16 8 17 5 18 6 19 94 20 7 21 93 22 2 23
REMARK SMILES IDX 3 24 4 25 1 26 12 29 13 30 14 31 15 32 26 33 27 34 28 35
REMARK SMILES IDX 29 36 30 38 31 39 32 40 90 41 33 42 89 43 34 44 35 45 36 46
REMARK SMILES IDX 83 47 37 48 88 49 82 50 84 51 38 52 87 53 81 54 80 55 39 57
REMARK SMILES IDX 69 58 50 59 68 60 51 61 54 62 67 63 85 64 52 65 53 66 66 68
REMARK SMILES IDX 86 69 55 70 40 71 41 72 49 73 42 74 48 75 43 76 44 77 45 78
REMARK SMILES IDX 46 79 47 80 70 81 71 82 79 83 72 84 78 85 73 86 74 87 75 88
REMARK SMILES IDX 76 89 77 90 56 91 57 92 65 93 58 94 64 95 59 96 60 97 61 98
REMARK SMILES IDX 62 99 63 100
REMARK H PARENT 24 5 1 27 1 28 28 37 84 56 54 67
REMARK Flexibility Score: inf
ROOT
ATOM      1  C   UNL A   1      31.900  30.966  26.880  1.00  0.00     0.118 C 
ENDROOT
BRANCH   1   2
ATOM      2  N   UNL A   1      33.072  30.599  27.657  1.00  0.00    -0.352 N 
ATOM      3  C   UNL A   1      33.807  29.439  27.698  1.00  0.00     0.251 C 
ATOM      4  O   UNL A   1      34.835  29.422  28.372  1.00  0.00    -0.269 OA
ATOM      5  H   UNL A   1      33.396  31.306  28.261  1.00  0.00     0.163 HD
BRANCH   3   6
ATOM      6  C   UNL A   1      33.437  28.234  26.910  1.00  0.00     0.039 A 
ATOM      7  C   UNL A   1      32.709  25.881  25.567  1.00  0.00     0.000 A 
ATOM      8  C   UNL A   1      31.899  26.384  26.593  1.00  0.00     0.011 A 
ATOM      9  C   UNL A   1      33.856  26.572  25.193  1.00  0.00     0.011 A 
ATOM     10  C   UNL A   1      32.264  27.554  27.264  1.00  0.00     0.014 A 
ATOM     11  C   UNL A   1      34.184  27.761  25.831  1.00  0.00     0.014 A 
BRANCH   7  12
ATOM     12  C   UNL A   1      32.332  24.703  24.807  1.00  0.00     0.075 A 
ATOM     13  N   UNL A   1      31.293  24.660  23.895  1.00  0.00    -0.233 N 
ATOM     14  N   UNL A   1      31.056  23.398  23.456  1.00  0.00    -0.163 NA
ATOM     15  C   UNL A   1      32.095  22.675  23.926  1.00  0.00     0.167 A 
ATOM     16  C   UNL A   1      32.886  23.444  24.813  1.00  0.00     0.064 A 
BRANCH  13  17
ATOM     17  C   UNL A   1      30.510  25.758  23.460  1.00  0.00     0.065 A 
ATOM     18  C   UNL A   1      29.091  28.078  22.889  1.00  0.00     0.082 A 
ATOM     19  C   UNL A   1      30.367  27.903  22.346  1.00  0.00     0.024 A 
ATOM     20  C   UNL A   1      28.510  27.085  23.687  1.00  0.00     0.024 A 
ATOM     21  C   UNL A   1      31.081  26.744  22.639  1.00  0.00     0.030 A 
ATOM     22  C   UNL A   1      29.211  25.905  23.952  1.00  0.00     0.030 A 
BRANCH  18  23
ATOM     23  S   UNL A   1      28.244  29.580  22.505  1.00  0.00     0.238 S 
ATOM     24  O   UNL A   1      28.283  29.763  21.075  1.00  0.00    -0.207 OA
ATOM     25  O   UNL A   1      28.666  30.590  23.447  1.00  0.00    -0.207 OA
BRANCH  23  26
ATOM     26  N   UNL A   1      26.632  29.269  22.869  1.00  0.00    -0.225 NA
ATOM     27  H   UNL A   1      26.565  28.875  23.807  1.00  0.00     0.137 HD
ATOM     28  H   UNL A   1      26.253  28.605  22.193  1.00  0.00     0.137 HD
ENDBRANCH  23  26
ENDBRANCH  18  23
ENDBRANCH  13  17
BRANCH  15  29
ATOM     29  C   UNL A   1      32.357  21.243  23.545  1.00  0.00     0.435 C 
ATOM     30  F   UNL A   1      33.678  20.932  23.508  1.00  0.00    -0.164 F 
ATOM     31  F   UNL A   1      31.761  20.369  24.400  1.00  0.00    -0.164 F 
ATOM     32  F   UNL A   1      31.862  20.956  22.307  1.00  0.00    -0.164 F 
ENDBRANCH  15  29
ENDBRANCH   7  12
ENDBRANCH   3   6
ENDBRANCH   1   2
BRANCH   1  33
ATOM     33  C   UNL A   1      31.679  32.488  26.857  1.00  0.00     0.042 C 
BRANCH  33  34
ATOM     34  C   UNL A   1      32.945  33.249  27.189  1.00  0.00     0.118 C 
BRANCH  34  35
ATOM     35  N   UNL A   1      32.665  34.461  27.965  1.00  0.00    -0.352 N 
ATOM     36  C   UNL A   1      33.226  34.868  29.160  1.00  0.00     0.251 C 
ATOM     37  H   UNL A   1      31.989  35.066  27.583  1.00  0.00     0.163 HD
ATOM     38  O   UNL A   1      32.658  35.693  29.865  1.00  0.00    -0.269 OA
BRANCH  36  39
ATOM     39  C   UNL A   1      34.521  34.292  29.557  1.00  0.00     0.039 A 
ATOM     40  C   UNL A   1      34.667  33.483  30.690  1.00  0.00     0.014 A 
ATOM     41  C   UNL A   1      35.603  34.553  28.726  1.00  0.00     0.014 A 
ATOM     42  C   UNL A   1      35.905  32.890  30.929  1.00  0.00     0.010 A 
ATOM     43  C   UNL A   1      36.728  33.792  28.829  1.00  0.00     0.010 A 
ATOM     44  C   UNL A   1      36.926  33.045  29.980  1.00  0.00    -0.014 A 
BRANCH  44  45
ATOM     45  C   UNL A   1      38.209  32.368  30.078  1.00  0.00     0.031 A 
ATOM     46  C   UNL A   1      38.170  30.956  29.624  1.00  0.00     0.074 A 
ATOM     47  C   UNL A   1      39.356  33.068  30.250  1.00  0.00     0.049 A 
ATOM     48  N   UNL A   1      38.234  29.893  30.352  1.00  0.00    -0.248 NA
ATOM     49  C   UNL A   1      37.814  30.689  28.217  1.00  0.00     0.031 C 
ATOM     50  C   UNL A   1      39.515  34.529  30.352  1.00  0.00     0.029 A 
ATOM     51  N   UNL A   1      40.643  32.640  30.221  1.00  0.00    -0.354 N 
ATOM     52  C   UNL A   1      38.213  28.829  29.455  1.00  0.00     0.074 A 
ATOM     53  C   UNL A   1      37.685  29.362  28.226  1.00  0.00     0.031 C 
ATOM     54  C   UNL A   1      40.804  34.864  30.122  1.00  0.00     0.029 A 
ATOM     55  C   UNL A   1      41.588  33.648  30.032  1.00  0.00     0.049 A 
ATOM     56  H   UNL A   1      40.891  31.693  30.325  1.00  0.00     0.167 HD
ATOM     57  C   UNL A   1      38.939  27.699  29.685  1.00  0.00     0.031 A 
ATOM     58  C   UNL A   1      42.916  33.490  29.789  1.00  0.00     0.031 A 
ATOM     59  C   UNL A   1      39.462  27.687  31.030  1.00  0.00     0.049 A 
ATOM     60  C   UNL A   1      43.262  32.112  30.216  1.00  0.00     0.074 A 
ATOM     61  C   UNL A   1      38.916  27.711  32.296  1.00  0.00     0.029 A 
ATOM     62  N   UNL A   1      40.776  28.078  31.164  1.00  0.00    -0.354 N 
ATOM     63  N   UNL A   1      43.192  31.710  31.454  1.00  0.00    -0.248 NA
ATOM     64  C   UNL A   1      43.221  31.057  29.216  1.00  0.00     0.031 C 
ATOM     65  C   UNL A   1      39.797  28.530  33.062  1.00  0.00     0.029 A 
ATOM     66  C   UNL A   1      40.880  28.894  32.258  1.00  0.00     0.049 A 
ATOM     67  H   UNL A   1      41.517  27.814  30.571  1.00  0.00     0.167 HD
ATOM     68  C   UNL A   1      42.647  30.435  31.381  1.00  0.00     0.074 A 
ATOM     69  C   UNL A   1      42.797  30.043  29.979  1.00  0.00     0.031 C 
ATOM     70  C   UNL A   1      41.866  29.949  32.392  1.00  0.00     0.031 A 
BRANCH  57  71
ATOM     71  C   UNL A   1      39.576  26.859  28.596  1.00  0.00    -0.014 A 
ATOM     72  C   UNL A   1      39.311  25.473  28.584  1.00  0.00     0.010 A 
ATOM     73  C   UNL A   1      40.629  27.309  27.774  1.00  0.00     0.010 A 
ATOM     74  C   UNL A   1      40.117  24.580  27.867  1.00  0.00     0.020 A 
ATOM     75  C   UNL A   1      41.411  26.434  27.019  1.00  0.00     0.020 A 
ATOM     76  C   UNL A   1      41.174  25.070  27.101  1.00  0.00     0.054 A 
BRANCH  76  77
ATOM     77  S   UNL A   1      42.277  23.905  26.266  1.00  0.00     0.124 S 
ATOM     78  O   UNL A   1      42.653  24.655  25.071  1.00  0.00    -0.237 OA
ATOM     79  O   UNL A   1      43.332  23.718  27.257  1.00  0.00    -0.237 OA
ATOM     80  O   UNL A   1      41.429  22.738  26.035  1.00  0.00    -0.744 OA
ENDBRANCH  76  77
ENDBRANCH  57  71
BRANCH  58  81
ATOM     81  C   UNL A   1      43.824  34.327  28.961  1.00  0.00    -0.014 A 
ATOM     82  C   UNL A   1      44.997  34.894  29.498  1.00  0.00     0.010 A 
ATOM     83  C   UNL A   1      43.686  34.331  27.557  1.00  0.00     0.010 A 
ATOM     84  C   UNL A   1      46.014  35.395  28.661  1.00  0.00     0.020 A 
ATOM     85  C   UNL A   1      44.693  34.829  26.718  1.00  0.00     0.020 A 
ATOM     86  C   UNL A   1      45.864  35.340  27.274  1.00  0.00     0.054 A 
BRANCH  86  87
ATOM     87  S   UNL A   1      47.249  35.831  26.199  1.00  0.00     0.124 S 
ATOM     88  O   UNL A   1      47.223  34.800  25.165  1.00  0.00    -0.237 OA
ATOM     89  O   UNL A   1      46.859  37.170  25.765  1.00  0.00    -0.237 OA
ATOM     90  O   UNL A   1      48.409  35.786  27.088  1.00  0.00    -0.744 OA
ENDBRANCH  86  87
ENDBRANCH  58  81
BRANCH  70  91
ATOM     91  C   UNL A   1      41.876  30.681  33.715  1.00  0.00    -0.014 A 
ATOM     92  C   UNL A   1      41.106  31.828  33.995  1.00  0.00     0.010 A 
ATOM     93  C   UNL A   1      42.588  30.080  34.766  1.00  0.00     0.010 A 
ATOM     94  C   UNL A   1      41.072  32.368  35.293  1.00  0.00     0.020 A 
ATOM     95  C   UNL A   1      42.545  30.600  36.060  1.00  0.00     0.020 A 
ATOM     96  C   UNL A   1      41.795  31.748  36.317  1.00  0.00     0.054 A 
BRANCH  96  97
ATOM     97  S   UNL A   1      41.724  32.419  38.002  1.00  0.00     0.124 S 
ATOM     98  O   UNL A   1      40.301  32.340  38.316  1.00  0.00    -0.237 OA
ATOM     99  O   UNL A   1      42.586  31.508  38.752  1.00  0.00    -0.237 OA
ATOM    100  O   UNL A   1      42.250  33.776  37.860  1.00  0.00    -0.744 OA
ENDBRANCH  96  97
ENDBRANCH  70  91
ENDBRANCH  44  45
ENDBRANCH  36  39
ENDBRANCH  34  35
ENDBRANCH  33  34
ENDBRANCH   1  33
TORSDOF 18
ENDMDL
MODEL 2
REMARK VINA RESULT:     -12.6      5.478     11.013
REMARK SMILES NS(=O)(=O)c1ccc(-n2nc(C(F)(F)F)cc2-c2ccc(C(=O)NCCCNC(=O)c3ccc(-c4c5nc(c(-c6ccc(S(=O)(=O)[O-])cc6)c6ccc([nH]6)c(-c6ccc(S(=O)(=O)[O-])cc6)c6nc(c(-c7ccc(S(=O)(=O)[O-])cc7)c7ccc4[nH]7)C=C6)C=C5)cc3)cc2)cc1
REMARK SMILES IDX 25 1 24 2 22 3 23 4 21 6 18 7 19 8 92 9 20 10 91 11 17 12
REMARK SMILES IDX 9 13 10 14 11 15 16 16 8 17 5 18 6 19 94 20 7 21 93 22 2 23
REMARK SMILES IDX 3 24 4 25 1 26 12 29 13 30 14 31 15 32 26 33 27 34 28 35
REMARK SMILES IDX 29 36 30 38 31 39 32 40 90 41 33 42 89 43 34 44 35 45 36 46
REMARK SMILES IDX 83 47 37 48 88 49 82 50 84 51 38 52 87 53 81 54 80 55 39 57
REMARK SMILES IDX 69 58 50 59 68 60 51 61 54 62 67 63 85 64 52 65 53 66 66 68
REMARK SMILES IDX 86 69 55 70 40 71 41 72 49 73 42 74 48 75 43 76 44 77 45 78
REMARK SMILES IDX 46 79 47 80 70 81 71 82 79 83 72 84 78 85 73 86 74 87 75 88
REMARK SMILES IDX 76 89 77 90 56 91 57 92 65 93 58 94 64 95 59 96 60 97 61 98
REMARK SMILES IDX 62 99 63 100
REMARK H PARENT 24 5 1 27 1 28 28 37 84 56 54 67
REMARK Flexibility Score: inf
ROOT
ATOM      1  C   UNL A   1      41.918  33.306  35.150  1.00  0.00     0.118 C 
ENDROOT
BRANCH   1   2
ATOM      2  N   UNL A   1      40.803  33.768  35.962  1.00  0.00    -0.352 N 
ATOM      3  C   UNL A   1      39.446  33.684  35.770  1.00  0.00     0.251 C 
ATOM      4  O   UNL A   1      38.703  34.063  36.673  1.00  0.00    -0.269 OA
ATOM      5  H   UNL A   1      41.068  34.221  36.794  1.00  0.00     0.163 HD
BRANCH   3   6
ATOM      6  C   UNL A   1      38.850  33.096  34.541  1.00  0.00     0.039 A 
ATOM      7  C   UNL A   1      37.613  32.105  32.226  1.00  0.00     0.000 A 
ATOM      8  C   UNL A   1      37.904  33.471  32.338  1.00  0.00     0.011 A 
ATOM      9  C   UNL A   1      37.971  31.238  33.251  1.00  0.00     0.011 A 
ATOM     10  C   UNL A   1      38.517  33.964  33.493  1.00  0.00     0.014 A 
ATOM     11  C   UNL A   1      38.626  31.728  34.372  1.00  0.00     0.014 A 
BRANCH   7  12
ATOM     12  C   UNL A   1      37.032  31.548  31.019  1.00  0.00     0.075 A 
ATOM     13  N   UNL A   1      35.810  31.928  30.491  1.00  0.00    -0.233 N 
ATOM     14  N   UNL A   1      35.437  31.133  29.456  1.00  0.00    -0.163 NA
ATOM     15  C   UNL A   1      36.530  30.386  29.189  1.00  0.00     0.167 A 
ATOM     16  C   UNL A   1      37.529  30.583  30.173  1.00  0.00     0.064 A 
BRANCH  13  17
ATOM     17  C   UNL A   1      34.988  32.985  30.951  1.00  0.00     0.065 A 
ATOM     18  C   UNL A   1      33.668  35.214  31.956  1.00  0.00     0.082 A 
ATOM     19  C   UNL A   1      34.032  35.183  30.608  1.00  0.00     0.024 A 
ATOM     20  C   UNL A   1      33.930  34.124  32.795  1.00  0.00     0.024 A 
ATOM     21  C   UNL A   1      34.701  34.070  30.107  1.00  0.00     0.030 A 
ATOM     22  C   UNL A   1      34.569  32.990  32.284  1.00  0.00     0.030 A 
BRANCH  18  23
ATOM     23  S   UNL A   1      32.847  36.665  32.543  1.00  0.00     0.238 S 
ATOM     24  O   UNL A   1      32.696  37.573  31.433  1.00  0.00    -0.207 OA
ATOM     25  O   UNL A   1      33.443  37.042  33.803  1.00  0.00    -0.207 OA
BRANCH  23  26
ATOM     26  N   UNL A   1      31.288  36.155  32.914  1.00  0.00    -0.225 NA
ATOM     27  H   UNL A   1      30.834  36.852  33.504  1.00  0.00     0.137 HD
ATOM     28  H   UNL A   1      31.330  35.265  33.410  1.00  0.00     0.137 HD
ENDBRANCH  23  26
ENDBRANCH  18  23
ENDBRANCH  13  17
BRANCH  15  29
ATOM     29  C   UNL A   1      36.649  29.473  27.999  1.00  0.00     0.435 C 
ATOM     30  F   UNL A   1      35.488  28.838  27.693  1.00  0.00    -0.164 F 
ATOM     31  F   UNL A   1      37.051  30.138  26.883  1.00  0.00    -0.164 F 
ATOM     32  F   UNL A   1      37.576  28.495  28.210  1.00  0.00    -0.164 F 
ENDBRANCH  15  29
ENDBRANCH   7  12
ENDBRANCH   3   6
ENDBRANCH   1   2
BRANCH   1  33
ATOM     33  C   UNL A   1      42.482  34.426  34.260  1.00  0.00     0.042 C 
BRANCH  33  34
ATOM     34  C   UNL A   1      42.641  33.981  32.823  1.00  0.00     0.118 C 
BRANCH  34  35
ATOM     35  N   UNL A   1      41.505  34.395  31.994  1.00  0.00    -0.352 N 
ATOM     36  C   UNL A   1      41.138  33.936  30.744  1.00  0.00     0.251 C 
ATOM     37  H   UNL A   1      40.925  35.090  32.381  1.00  0.00     0.163 HD
ATOM     38  O   UNL A   1      40.401  34.604  30.028  1.00  0.00    -0.269 OA
BRANCH  36  39
ATOM     39  C   UNL A   1      41.646  32.627  30.301  1.00  0.00     0.039 A 
ATOM     40  C   UNL A   1      42.850  32.487  29.603  1.00  0.00     0.014 A 
ATOM     41  C   UNL A   1      40.891  31.514  30.647  1.00  0.00     0.014 A 
ATOM     42  C   UNL A   1      43.310  31.202  29.320  1.00  0.00     0.010 A 
ATOM     43  C   UNL A   1      41.453  30.275  30.582  1.00  0.00     0.010 A 
ATOM     44  C   UNL A   1      42.604  30.103  29.828  1.00  0.00    -0.014 A 
BRANCH  44  45
ATOM     45  C   UNL A   1      43.068  28.731  29.692  1.00  0.00     0.031 A 
ATOM     46  C   UNL A   1      43.772  28.222  30.895  1.00  0.00     0.074 A 
ATOM     47  C   UNL A   1      42.603  27.932  28.703  1.00  0.00     0.049 A 
ATOM     48  N   UNL A   1      45.036  27.999  31.032  1.00  0.00    -0.248 NA
ATOM     49  C   UNL A   1      43.017  28.144  32.161  1.00  0.00     0.031 C 
ATOM     50  C   UNL A   1      41.610  28.264  27.666  1.00  0.00     0.029 A 
ATOM     51  N   UNL A   1      42.799  26.605  28.498  1.00  0.00    -0.354 N 
ATOM     52  C   UNL A   1      45.182  27.481  32.315  1.00  0.00     0.074 A 
ATOM     53  C   UNL A   1      43.987  27.851  33.028  1.00  0.00     0.031 C 
ATOM     54  C   UNL A   1      41.119  27.127  27.124  1.00  0.00     0.029 A 
ATOM     55  C   UNL A   1      41.877  26.004  27.642  1.00  0.00     0.049 A 
ATOM     56  H   UNL A   1      43.535  26.104  28.920  1.00  0.00     0.167 HD
ATOM     57  C   UNL A   1      46.103  26.512  32.583  1.00  0.00     0.031 A 
ATOM     58  C   UNL A   1      41.728  24.675  27.400  1.00  0.00     0.031 A 
ATOM     59  C   UNL A   1      47.004  26.335  31.470  1.00  0.00     0.049 A 
ATOM     60  C   UNL A   1      42.990  24.024  27.832  1.00  0.00     0.074 A 
ATOM     61  C   UNL A   1      47.900  27.137  30.796  1.00  0.00     0.029 A 
ATOM     62  N   UNL A   1      46.723  25.277  30.634  1.00  0.00    -0.354 N 
ATOM     63  N   UNL A   1      44.140  24.249  27.260  1.00  0.00    -0.248 NA
ATOM     64  C   UNL A   1      43.061  23.503  29.188  1.00  0.00     0.031 C 
ATOM     65  C   UNL A   1      47.778  26.757  29.426  1.00  0.00     0.029 A 
ATOM     66  C   UNL A   1      46.884  25.687  29.339  1.00  0.00     0.049 A 
ATOM     67  H   UNL A   1      46.450  24.375  30.922  1.00  0.00     0.167 HD
ATOM     68  C   UNL A   1      45.045  24.337  28.310  1.00  0.00     0.074 A 
ATOM     69  C   UNL A   1      44.347  23.753  29.456  1.00  0.00     0.031 C 
ATOM     70  C   UNL A   1      46.149  25.138  28.216  1.00  0.00     0.031 A 
BRANCH  57  71
ATOM     71  C   UNL A   1      45.910  25.412  33.608  1.00  0.00    -0.014 A 
ATOM     72  C   UNL A   1      46.957  25.160  34.518  1.00  0.00     0.010 A 
ATOM     73  C   UNL A   1      44.886  24.445  33.536  1.00  0.00     0.010 A 
ATOM     74  C   UNL A   1      47.025  23.961  35.240  1.00  0.00     0.020 A 
ATOM     75  C   UNL A   1      44.920  23.268  34.285  1.00  0.00     0.020 A 
ATOM     76  C   UNL A   1      46.011  23.016  35.104  1.00  0.00     0.054 A 
BRANCH  76  77
ATOM     77  S   UNL A   1      46.159  21.427  35.954  1.00  0.00     0.124 S 
ATOM     78  O   UNL A   1      45.744  21.775  37.310  1.00  0.00    -0.237 OA
ATOM     79  O   UNL A   1      45.231  20.589  35.202  1.00  0.00    -0.237 OA
ATOM     80  O   UNL A   1      47.571  21.086  35.796  1.00  0.00    -0.744 OA
ENDBRANCH  76  77
ENDBRANCH  57  71
BRANCH  58  81
ATOM     81  C   UNL A   1      40.490  23.907  27.103  1.00  0.00    -0.014 A 
ATOM     82  C   UNL A   1      39.272  24.557  26.819  1.00  0.00     0.010 A 
ATOM     83  C   UNL A   1      40.572  22.529  26.816  1.00  0.00     0.010 A 
ATOM     84  C   UNL A   1      38.200  23.866  26.220  1.00  0.00     0.020 A 
ATOM     85  C   UNL A   1      39.509  21.835  26.221  1.00  0.00     0.020 A 
ATOM     86  C   UNL A   1      38.333  22.512  25.906  1.00  0.00     0.054 A 
BRANCH  86  87
ATOM     87  S   UNL A   1      37.011  21.669  24.980  1.00  0.00     0.124 S 
ATOM     88  O   UNL A   1      36.923  22.469  23.761  1.00  0.00    -0.237 OA
ATOM     89  O   UNL A   1      37.548  20.321  24.812  1.00  0.00    -0.237 OA
ATOM     90  O   UNL A   1      35.853  21.765  25.867  1.00  0.00    -0.744 OA
ENDBRANCH  86  87
ENDBRANCH  58  81
BRANCH  70  91
ATOM     91  C   UNL A   1      46.535  25.662  26.851  1.00  0.00    -0.014 A 
ATOM     92  C   UNL A   1      45.927  26.766  26.221  1.00  0.00     0.010 A 
ATOM     93  C   UNL A   1      47.674  25.093  26.254  1.00  0.00     0.010 A 
ATOM     94  C   UNL A   1      46.437  27.270  25.011  1.00  0.00     0.020 A 
ATOM     95  C   UNL A   1      48.195  25.600  25.064  1.00  0.00     0.020 A 
ATOM     96  C   UNL A   1      47.569  26.680  24.441  1.00  0.00     0.054 A 
BRANCH  96  97
ATOM     97  S   UNL A   1      48.254  27.351  22.900  1.00  0.00     0.124 S 
ATOM     98  O   UNL A   1      49.485  27.991  23.351  1.00  0.00    -0.237 OA
ATOM     99  O   UNL A   1      48.429  26.159  22.074  1.00  0.00    -0.237 OA
ATOM    100  O   UNL A   1      47.218  28.271  22.429  1.00  0.00    -0.744 OA
ENDBRANCH  96  97
ENDBRANCH  70  91
ENDBRANCH  44  45
ENDBRANCH  36  39
ENDBRANCH  34  35
ENDBRANCH  33  34
ENDBRANCH   1  33
TORSDOF 18
ENDMDL
MODEL 3
REMARK VINA RESULT:     -12.3      3.587      7.885
REMARK SMILES NS(=O)(=O)c1ccc(-n2nc(C(F)(F)F)cc2-c2ccc(C(=O)NCCCNC(=O)c3ccc(-c4c5nc(c(-c6ccc(S(=O)(=O)[O-])cc6)c6ccc([nH]6)c(-c6ccc(S(=O)(=O)[O-])cc6)c6nc(c(-c7ccc(S(=O)(=O)[O-])cc7)c7ccc4[nH]7)C=C6)C=C5)cc3)cc2)cc1
REMARK SMILES IDX 25 1 24 2 22 3 23 4 21 6 18 7 19 8 92 9 20 10 91 11 17 12
REMARK SMILES IDX 9 13 10 14 11 15 16 16 8 17 5 18 6 19 94 20 7 21 93 22 2 23
REMARK SMILES IDX 3 24 4 25 1 26 12 29 13 30 14 31 15 32 26 33 27 34 28 35
REMARK SMILES IDX 29 36 30 38 31 39 32 40 90 41 33 42 89 43 34 44 35 45 36 46
REMARK SMILES IDX 83 47 37 48 88 49 82 50 84 51 38 52 87 53 81 54 80 55 39 57
REMARK SMILES IDX 69 58 50 59 68 60 51 61 54 62 67 63 85 64 52 65 53 66 66 68
REMARK SMILES IDX 86 69 55 70 40 71 41 72 49 73 42 74 48 75 43 76 44 77 45 78
REMARK SMILES IDX 46 79 47 80 70 81 71 82 79 83 72 84 78 85 73 86 74 87 75 88
REMARK SMILES IDX 76 89 77 90 56 91 57 92 65 93 58 94 64 95 59 96 60 97 61 98
REMARK SMILES IDX 62 99 63 100
REMARK H PARENT 24 5 1 27 1 28 28 37 84 56 54 67
REMARK Flexibility Score: inf
ROOT
ATOM      1  C   UNL A   1      35.165  32.613  27.862  1.00  0.00     0.118 C 
ENDROOT
BRANCH   1   2
ATOM      2  N   UNL A   1      35.698  31.304  28.205  1.00  0.00    -0.352 N 
ATOM      3  C   UNL A   1      35.310  30.040  27.833  1.00  0.00     0.251 C 
ATOM      4  O   UNL A   1      36.005  29.088  28.182  1.00  0.00    -0.269 OA
ATOM      5  H   UNL A   1      36.473  31.328  28.812  1.00  0.00     0.163 HD
BRANCH   3   6
ATOM      6  C   UNL A   1      34.119  29.793  26.977  1.00  0.00     0.039 A 
ATOM      7  C   UNL A   1      31.956  29.395  25.235  1.00  0.00     0.000 A 
ATOM      8  C   UNL A   1      33.250  29.022  24.846  1.00  0.00     0.011 A 
ATOM      9  C   UNL A   1      31.744  29.930  26.500  1.00  0.00     0.011 A 
ATOM     10  C   UNL A   1      34.327  29.223  25.714  1.00  0.00     0.014 A 
ATOM     11  C   UNL A   1      32.812  30.079  27.374  1.00  0.00     0.014 A 
BRANCH   7  12
ATOM     12  C   UNL A   1      30.806  29.146  24.386  1.00  0.00     0.075 A 
ATOM     13  N   UNL A   1      30.408  27.893  23.956  1.00  0.00    -0.233 N 
ATOM     14  N   UNL A   1      29.405  27.965  23.044  1.00  0.00    -0.163 NA
ATOM     15  C   UNL A   1      29.020  29.260  23.065  1.00  0.00     0.167 A 
ATOM     16  C   UNL A   1      29.902  30.036  23.855  1.00  0.00     0.064 A 
BRANCH  13  17
ATOM     17  C   UNL A   1      30.962  26.652  24.355  1.00  0.00     0.065 A 
ATOM     18  C   UNL A   1      32.337  24.396  25.217  1.00  0.00     0.082 A 
ATOM     19  C   UNL A   1      31.528  25.092  26.118  1.00  0.00     0.024 A 
ATOM     20  C   UNL A   1      32.435  24.802  23.880  1.00  0.00     0.024 A 
ATOM     21  C   UNL A   1      30.846  26.227  25.688  1.00  0.00     0.030 A 
ATOM     22  C   UNL A   1      31.722  25.920  23.438  1.00  0.00     0.030 A 
BRANCH  18  23
ATOM     23  S   UNL A   1      33.201  22.980  25.826  1.00  0.00     0.238 S 
ATOM     24  O   UNL A   1      32.368  21.823  25.614  1.00  0.00    -0.207 OA
ATOM     25  O   UNL A   1      33.778  23.320  27.106  1.00  0.00    -0.207 OA
BRANCH  23  26
ATOM     26  N   UNL A   1      34.503  22.789  24.780  1.00  0.00    -0.225 NA
ATOM     27  H   UNL A   1      35.310  22.446  25.300  1.00  0.00     0.137 HD
ATOM     28  H   UNL A   1      34.730  23.686  24.351  1.00  0.00     0.137 HD
ENDBRANCH  23  26
ENDBRANCH  18  23
ENDBRANCH  13  17
BRANCH  15  29
ATOM     29  C   UNL A   1      27.812  29.784  22.337  1.00  0.00     0.435 C 
ATOM     30  F   UNL A   1      28.027  29.974  21.010  1.00  0.00    -0.164 F 
ATOM     31  F   UNL A   1      26.742  28.953  22.457  1.00  0.00    -0.164 F 
ATOM     32  F   UNL A   1      27.411  30.989  22.837  1.00  0.00    -0.164 F 
ENDBRANCH  15  29
ENDBRANCH   7  12
ENDBRANCH   3   6
ENDBRANCH   1   2
BRANCH   1  33
ATOM     33  C   UNL A   1      33.994  33.012  28.774  1.00  0.00     0.042 C 
BRANCH  33  34
ATOM     34  C   UNL A   1      34.289  34.274  29.556  1.00  0.00     0.118 C 
BRANCH  34  35
ATOM     35  N   UNL A   1      34.000  34.111  30.984  1.00  0.00    -0.352 N 
ATOM     36  C   UNL A   1      34.595  33.255  31.891  1.00  0.00     0.251 C 
ATOM     37  H   UNL A   1      33.288  34.688  31.344  1.00  0.00     0.163 HD
ATOM     38  O   UNL A   1      34.028  32.967  32.939  1.00  0.00    -0.269 OA
BRANCH  36  39
ATOM     39  C   UNL A   1      35.924  32.710  31.571  1.00  0.00     0.039 A 
ATOM     40  C   UNL A   1      37.059  33.519  31.453  1.00  0.00     0.014 A 
ATOM     41  C   UNL A   1      36.016  31.331  31.430  1.00  0.00     0.014 A 
ATOM     42  C   UNL A   1      38.296  32.907  31.257  1.00  0.00     0.010 A 
ATOM     43  C   UNL A   1      37.238  30.731  31.478  1.00  0.00     0.010 A 
ATOM     44  C   UNL A   1      38.371  31.507  31.283  1.00  0.00    -0.014 A 
BRANCH  44  45
ATOM     45  C   UNL A   1      39.628  30.779  31.211  1.00  0.00     0.031 A 
ATOM     46  C   UNL A   1      40.245  30.530  32.537  1.00  0.00     0.074 A 
ATOM     47  C   UNL A   1      39.993  30.128  30.081  1.00  0.00     0.049 A 
ATOM     48  N   UNL A   1      41.295  31.093  33.035  1.00  0.00    -0.248 NA
ATOM     49  C   UNL A   1      39.496  29.710  33.509  1.00  0.00     0.031 C 
ATOM     50  C   UNL A   1      39.246  30.029  28.815  1.00  0.00     0.029 A 
ATOM     51  N   UNL A   1      41.037  29.289  29.865  1.00  0.00    -0.354 N 
ATOM     52  C   UNL A   1      41.492  30.480  34.268  1.00  0.00     0.074 A 
ATOM     53  C   UNL A   1      40.235  29.867  34.609  1.00  0.00     0.031 C 
ATOM     54  C   UNL A   1      39.724  28.999  28.083  1.00  0.00     0.029 A 
ATOM     55  C   UNL A   1      40.911  28.480  28.736  1.00  0.00     0.049 A 
ATOM     56  H   UNL A   1      41.822  29.253  30.458  1.00  0.00     0.167 HD
ATOM     57  C   UNL A   1      42.747  30.237  34.742  1.00  0.00     0.031 A 
ATOM     58  C   UNL A   1      41.709  27.439  28.381  1.00  0.00     0.031 A 
ATOM     59  C   UNL A   1      43.739  30.915  33.944  1.00  0.00     0.049 A 
ATOM     60  C   UNL A   1      42.978  27.605  29.133  1.00  0.00     0.074 A 
ATOM     61  C   UNL A   1      44.010  32.228  33.621  1.00  0.00     0.029 A 
ATOM     62  N   UNL A   1      44.378  30.142  33.000  1.00  0.00    -0.354 N 
ATOM     63  N   UNL A   1      43.790  28.609  28.949  1.00  0.00    -0.248 NA
ATOM     64  C   UNL A   1      43.108  26.927  30.412  1.00  0.00     0.031 C 
ATOM     65  C   UNL A   1      44.429  32.194  32.258  1.00  0.00     0.029 A 
ATOM     66  C   UNL A   1      44.481  30.862  31.840  1.00  0.00     0.049 A 
ATOM     67  H   UNL A   1      44.706  29.224  33.137  1.00  0.00     0.167 HD
ATOM     68  C   UNL A   1      44.198  28.971  30.225  1.00  0.00     0.074 A 
ATOM     69  C   UNL A   1      43.841  27.830  31.070  1.00  0.00     0.031 C 
ATOM     70  C   UNL A   1      44.511  30.270  30.517  1.00  0.00     0.031 A 
BRANCH  57  71
ATOM     71  C   UNL A   1      43.120  29.040  35.593  1.00  0.00    -0.014 A 
ATOM     72  C   UNL A   1      44.100  29.213  36.592  1.00  0.00     0.010 A 
ATOM     73  C   UNL A   1      42.769  27.712  35.273  1.00  0.00     0.010 A 
ATOM     74  C   UNL A   1      44.761  28.119  37.166  1.00  0.00     0.020 A 
ATOM     75  C   UNL A   1      43.388  26.613  35.871  1.00  0.00     0.020 A 
ATOM     76  C   UNL A   1      44.408  26.825  36.787  1.00  0.00     0.054 A 
BRANCH  76  77
ATOM     77  S   UNL A   1      45.338  25.423  37.450  1.00  0.00     0.124 S 
ATOM     78  O   UNL A   1      44.645  25.175  38.711  1.00  0.00    -0.237 OA
ATOM     79  O   UNL A   1      45.150  24.413  36.413  1.00  0.00    -0.237 OA
ATOM     80  O   UNL A   1      46.698  25.942  37.571  1.00  0.00    -0.744 OA
ENDBRANCH  76  77
ENDBRANCH  57  71
BRANCH  58  81
ATOM     81  C   UNL A   1      41.351  26.179  27.678  1.00  0.00    -0.014 A 
ATOM     82  C   UNL A   1      42.324  25.404  27.016  1.00  0.00     0.010 A 
ATOM     83  C   UNL A   1      40.091  25.586  27.902  1.00  0.00     0.010 A 
ATOM     84  C   UNL A   1      42.063  24.070  26.643  1.00  0.00     0.020 A 
ATOM     85  C   UNL A   1      39.824  24.260  27.533  1.00  0.00     0.020 A 
ATOM     86  C   UNL A   1      40.820  23.499  26.924  1.00  0.00     0.054 A 
BRANCH  86  87
ATOM     87  S   UNL A   1      40.548  21.729  26.596  1.00  0.00     0.124 S 
ATOM     88  O   UNL A   1      39.215  21.723  25.999  1.00  0.00    -0.237 OA
ATOM     89  O   UNL A   1      41.645  21.398  25.691  1.00  0.00    -0.237 OA
ATOM     90  O   UNL A   1      40.635  21.115  27.920  1.00  0.00    -0.744 OA
ENDBRANCH  86  87
ENDBRANCH  58  81
BRANCH  70  91
ATOM     91  C   UNL A   1      44.718  31.229  29.367  1.00  0.00    -0.014 A 
ATOM     92  C   UNL A   1      45.921  31.356  28.644  1.00  0.00     0.010 A 
ATOM     93  C   UNL A   1      43.585  31.921  28.907  1.00  0.00     0.010 A 
ATOM     94  C   UNL A   1      45.988  32.175  27.503  1.00  0.00     0.020 A 
ATOM     95  C   UNL A   1      43.640  32.721  27.766  1.00  0.00     0.020 A 
ATOM     96  C   UNL A   1      44.843  32.853  27.073  1.00  0.00     0.054 A 
BRANCH  96  97
ATOM     97  S   UNL A   1      44.915  33.882  25.579  1.00  0.00     0.124 S 
ATOM     98  O   UNL A   1      44.313  33.017  24.570  1.00  0.00    -0.237 OA
ATOM     99  O   UNL A   1      44.129  35.055  25.954  1.00  0.00    -0.237 OA
ATOM    100  O   UNL A   1      46.344  34.137  25.399  1.00  0.00    -0.744 OA
ENDBRANCH  96  97
ENDBRANCH  70  91
ENDBRANCH  44  45
ENDBRANCH  36  39
ENDBRANCH  34  35
ENDBRANCH  33  34
ENDBRANCH   1  33
TORSDOF 18
ENDMDL
