MODEL 1
REMARK VINA RESULT:     -12.0      0.000      0.000
REMARK SMILES O=C(NCc1ccc(C(=O)NCCCNC(=O)c2ccc(-c3c4nc(c(-c5ccc(S(=O)(=O)[O-])cc5)c5ccc([nH]5)c(-c5ccc(S(=O)(=O)[O-])cc5)c5nc(c(-c6ccc(S(=O)(=O)[O-])cc6)c6ccc3[nH]6)C=C5)C=C4)cc2)o1)Nc1ccc(F)c(Cl)c1
REMARK SMILES IDX 13 1 12 2 11 3 9 4 10 5 8 7 5 8 6 9 78 10 7 11 4 12 3 13
REMARK SMILES IDX 1 14 2 15 79 16 80 19 81 20 87 21 82 22 85 23 83 24 86 25
REMARK SMILES IDX 84 26 14 27 15 28 16 29 17 31 18 32 19 33 77 34 20 35 76 36
REMARK SMILES IDX 21 37 22 38 23 39 70 40 24 41 75 42 69 43 71 44 25 45 74 46
REMARK SMILES IDX 68 47 67 48 26 50 56 51 37 52 55 53 38 54 41 55 54 56 72 57
REMARK SMILES IDX 39 58 40 59 53 61 73 62 42 63 27 64 28 65 36 66 29 67 35 68
REMARK SMILES IDX 30 69 31 70 32 71 33 72 34 73 57 74 58 75 66 76 59 77 65 78
REMARK SMILES IDX 60 79 61 80 62 81 63 82 64 83 43 84 44 85 52 86 45 87 51 88
REMARK SMILES IDX 46 89 47 90 48 91 49 92 50 93
REMARK H PARENT 11 6 3 17 79 18 15 30 71 49 41 60
REMARK Flexibility Score: inf
ROOT
ATOM      1  C   UNL A   1      32.673  28.083  26.187  1.00  0.00     0.042 C 
ENDROOT
BRANCH   1   2
ATOM      2  C   UNL A   1      31.819  29.251  25.701  1.00  0.00     0.118 C 
BRANCH   2   3
ATOM      3  N   UNL A   1      31.943  29.456  24.272  1.00  0.00    -0.349 N 
ATOM      4  C   UNL A   1      31.409  28.768  23.208  1.00  0.00     0.286 C 
ATOM      5  O   UNL A   1      31.597  29.274  22.099  1.00  0.00    -0.266 OA
ATOM      6  H   UNL A   1      32.509  30.222  24.019  1.00  0.00     0.163 HD
BRANCH   4   7
ATOM      7  C   UNL A   1      30.659  27.537  23.392  1.00  0.00     0.191 A 
ATOM      8  C   UNL A   1      30.525  25.326  23.478  1.00  0.00     0.124 A 
ATOM      9  C   UNL A   1      29.264  25.798  23.757  1.00  0.00     0.048 A 
ATOM     10  O   UNL A   1      31.366  26.366  23.238  1.00  0.00    -0.454 OA
ATOM     11  C   UNL A   1      29.358  27.211  23.738  1.00  0.00     0.056 A 
BRANCH   8  12
ATOM     12  C   UNL A   1      31.123  23.970  23.454  1.00  0.00     0.193 C 
BRANCH  12  13
ATOM     13  N   UNL A   1      31.455  23.620  24.819  1.00  0.00    -0.331 N 
ATOM     14  O   UNL A   1      32.611  22.670  26.455  1.00  0.00    -0.248 OA
ATOM     15  C   UNL A   1      32.635  23.230  25.363  1.00  0.00     0.319 C 
ATOM     16  N   UNL A   1      33.762  23.534  24.652  1.00  0.00    -0.308 N 
ATOM     17  H   UNL A   1      30.704  23.674  25.455  1.00  0.00     0.165 HD
ATOM     18  H   UNL A   1      33.647  24.105  23.857  1.00  0.00     0.171 HD
BRANCH  16  19
ATOM     19  C   UNL A   1      35.072  23.107  24.948  1.00  0.00     0.044 A 
ATOM     20  C   UNL A   1      35.959  24.061  25.467  1.00  0.00     0.029 A 
ATOM     21  C   UNL A   1      35.517  21.795  24.747  1.00  0.00     0.049 A 
ATOM     22  C   UNL A   1      37.257  23.694  25.833  1.00  0.00     0.043 A 
ATOM     23  C   UNL A   1      36.820  21.435  25.097  1.00  0.00     0.078 A 
ATOM     24  C   UNL A   1      37.678  22.382  25.650  1.00  0.00     0.141 A 
ATOM     25  Cl  UNL A   1      37.355  19.819  24.841  1.00  0.00    -0.081 Cl
ATOM     26  F   UNL A   1      38.926  22.051  26.016  1.00  0.00    -0.205 F 
ENDBRANCH  16  19
ENDBRANCH  12  13
ENDBRANCH   8  12
ENDBRANCH   4   7
ENDBRANCH   2   3
ENDBRANCH   1   2
BRANCH   1  27
ATOM     27  C   UNL A   1      33.695  28.483  27.253  1.00  0.00     0.118 C 
BRANCH  27  28
ATOM     28  N   UNL A   1      33.640  29.909  27.552  1.00  0.00    -0.352 N 
ATOM     29  C   UNL A   1      34.530  30.716  28.215  1.00  0.00     0.251 C 
ATOM     30  H   UNL A   1      32.833  30.367  27.224  1.00  0.00     0.163 HD
ATOM     31  O   UNL A   1      34.171  31.839  28.560  1.00  0.00    -0.269 OA
BRANCH  29  32
ATOM     32  C   UNL A   1      35.902  30.253  28.518  1.00  0.00     0.039 A 
ATOM     33  C   UNL A   1      36.874  30.325  27.515  1.00  0.00     0.014 A 
ATOM     34  C   UNL A   1      36.221  29.692  29.758  1.00  0.00     0.014 A 
ATOM     35  C   UNL A   1      38.175  29.883  27.771  1.00  0.00     0.010 A 
ATOM     36  C   UNL A   1      37.534  29.315  30.035  1.00  0.00     0.010 A 
ATOM     37  C   UNL A   1      38.522  29.400  29.043  1.00  0.00    -0.014 A 
BRANCH  37  38
ATOM     38  C   UNL A   1      39.912  28.980  29.353  1.00  0.00     0.031 A 
ATOM     39  C   UNL A   1      40.855  29.922  30.051  1.00  0.00     0.074 A 
ATOM     40  C   UNL A   1      40.345  27.769  28.951  1.00  0.00     0.049 A 
ATOM     41  N   UNL A   1      42.115  29.751  30.359  1.00  0.00    -0.248 NA
ATOM     42  C   UNL A   1      40.315  31.237  30.432  1.00  0.00     0.031 C 
ATOM     43  C   UNL A   1      39.538  26.775  28.241  1.00  0.00     0.029 A 
ATOM     44  N   UNL A   1      41.572  27.170  29.081  1.00  0.00    -0.354 N 
ATOM     45  C   UNL A   1      42.524  30.940  30.952  1.00  0.00     0.074 A 
ATOM     46  C   UNL A   1      41.392  31.840  30.914  1.00  0.00     0.031 C 
ATOM     47  C   UNL A   1      40.280  25.676  28.030  1.00  0.00     0.029 A 
ATOM     48  C   UNL A   1      41.626  25.904  28.550  1.00  0.00     0.049 A 
ATOM     49  H   UNL A   1      42.342  27.606  29.513  1.00  0.00     0.167 HD
ATOM     50  C   UNL A   1      43.728  31.252  31.493  1.00  0.00     0.031 A 
ATOM     51  C   UNL A   1      42.641  25.021  28.489  1.00  0.00     0.031 A 
ATOM     52  C   UNL A   1      44.853  30.355  31.528  1.00  0.00     0.049 A 
ATOM     53  C   UNL A   1      43.973  25.394  29.076  1.00  0.00     0.074 A 
ATOM     54  C   UNL A   1      46.100  30.557  32.093  1.00  0.00     0.029 A 
ATOM     55  N   UNL A   1      44.869  29.085  30.970  1.00  0.00    -0.354 N 
ATOM     56  N   UNL A   1      44.328  26.504  29.676  1.00  0.00    -0.248 NA
ATOM     57  C   UNL A   1      45.041  24.388  28.982  1.00  0.00     0.031 C 
ATOM     58  C   UNL A   1      46.885  29.426  31.835  1.00  0.00     0.029 A 
ATOM     59  C   UNL A   1      46.110  28.500  31.156  1.00  0.00     0.049 A 
ATOM     60  H   UNL A   1      44.109  28.662  30.507  1.00  0.00     0.167 HD
ATOM     61  C   UNL A   1      45.652  26.322  30.057  1.00  0.00     0.074 A 
ATOM     62  C   UNL A   1      46.031  24.991  29.625  1.00  0.00     0.031 C 
ATOM     63  C   UNL A   1      46.476  27.179  30.710  1.00  0.00     0.031 A 
BRANCH  50  64
ATOM     64  C   UNL A   1      43.881  32.635  32.073  1.00  0.00    -0.014 A 
ATOM     65  C   UNL A   1      43.554  32.902  33.415  1.00  0.00     0.010 A 
ATOM     66  C   UNL A   1      44.343  33.687  31.261  1.00  0.00     0.010 A 
ATOM     67  C   UNL A   1      43.618  34.206  33.915  1.00  0.00     0.020 A 
ATOM     68  C   UNL A   1      44.438  34.987  31.765  1.00  0.00     0.020 A 
ATOM     69  C   UNL A   1      44.046  35.243  33.081  1.00  0.00     0.054 A 
BRANCH  69  70
ATOM     70  S   UNL A   1      44.089  36.932  33.743  1.00  0.00     0.124 S 
ATOM     71  O   UNL A   1      44.739  37.661  32.658  1.00  0.00    -0.237 OA
ATOM     72  O   UNL A   1      42.674  37.237  33.943  1.00  0.00    -0.237 OA
ATOM     73  O   UNL A   1      44.874  36.803  34.967  1.00  0.00    -0.744 OA
ENDBRANCH  69  70
ENDBRANCH  50  64
BRANCH  51  74
ATOM     74  C   UNL A   1      42.412  23.682  27.884  1.00  0.00    -0.014 A 
ATOM     75  C   UNL A   1      42.719  23.461  26.530  1.00  0.00     0.010 A 
ATOM     76  C   UNL A   1      41.942  22.611  28.665  1.00  0.00     0.010 A 
ATOM     77  C   UNL A   1      42.561  22.192  25.968  1.00  0.00     0.020 A 
ATOM     78  C   UNL A   1      41.805  21.334  28.111  1.00  0.00     0.020 A 
ATOM     79  C   UNL A   1      42.113  21.134  26.764  1.00  0.00     0.054 A 
BRANCH  79  80
ATOM     80  S   UNL A   1      42.001  19.478  26.031  1.00  0.00     0.124 S 
ATOM     81  O   UNL A   1      42.547  18.639  27.091  1.00  0.00    -0.237 OA
ATOM     82  O   UNL A   1      40.567  19.339  25.788  1.00  0.00    -0.237 OA
ATOM     83  O   UNL A   1      42.821  19.582  24.826  1.00  0.00    -0.744 OA
ENDBRANCH  79  80
ENDBRANCH  51  74
BRANCH  63  84
ATOM     84  C   UNL A   1      47.867  26.692  31.022  1.00  0.00    -0.014 A 
ATOM     85  C   UNL A   1      48.957  27.027  30.199  1.00  0.00     0.010 A 
ATOM     86  C   UNL A   1      48.090  25.926  32.181  1.00  0.00     0.010 A 
ATOM     87  C   UNL A   1      50.243  26.577  30.515  1.00  0.00     0.020 A 
ATOM     88  C   UNL A   1      49.377  25.497  32.514  1.00  0.00     0.020 A 
ATOM     89  C   UNL A   1      50.444  25.814  31.670  1.00  0.00     0.054 A 
BRANCH  89  90
ATOM     90  S   UNL A   1      52.127  25.277  32.081  1.00  0.00     0.124 S 
ATOM     91  O   UNL A   1      51.953  23.839  32.261  1.00  0.00    -0.237 OA
ATOM     92  O   UNL A   1      52.890  25.676  30.901  1.00  0.00    -0.237 OA
ATOM     93  O   UNL A   1      52.440  26.024  33.297  1.00  0.00    -0.744 OA
ENDBRANCH  89  90
ENDBRANCH  63  84
ENDBRANCH  37  38
ENDBRANCH  29  32
ENDBRANCH  27  28
ENDBRANCH   1  27
TORSDOF 16
ENDMDL
MODEL 2
REMARK VINA RESULT:     -12.0      3.000      3.697
REMARK SMILES O=C(NCc1ccc(C(=O)NCCCNC(=O)c2ccc(-c3c4nc(c(-c5ccc(S(=O)(=O)[O-])cc5)c5ccc([nH]5)c(-c5ccc(S(=O)(=O)[O-])cc5)c5nc(c(-c6ccc(S(=O)(=O)[O-])cc6)c6ccc3[nH]6)C=C5)C=C4)cc2)o1)Nc1ccc(F)c(Cl)c1
REMARK SMILES IDX 13 1 12 2 11 3 9 4 10 5 8 7 5 8 6 9 78 10 7 11 4 12 3 13
REMARK SMILES IDX 1 14 2 15 79 16 80 19 81 20 87 21 82 22 85 23 83 24 86 25
REMARK SMILES IDX 84 26 14 27 15 28 16 29 17 31 18 32 19 33 77 34 20 35 76 36
REMARK SMILES IDX 21 37 22 38 23 39 70 40 24 41 75 42 69 43 71 44 25 45 74 46
REMARK SMILES IDX 68 47 67 48 26 50 56 51 37 52 55 53 38 54 41 55 54 56 72 57
REMARK SMILES IDX 39 58 40 59 53 61 73 62 42 63 27 64 28 65 36 66 29 67 35 68
REMARK SMILES IDX 30 69 31 70 32 71 33 72 34 73 57 74 58 75 66 76 59 77 65 78
REMARK SMILES IDX 60 79 61 80 62 81 63 82 64 83 43 84 44 85 52 86 45 87 51 88
REMARK SMILES IDX 46 89 47 90 48 91 49 92 50 93
REMARK H PARENT 11 6 3 17 79 18 15 30 71 49 41 60
REMARK Flexibility Score: inf
ROOT
ATOM      1  C   UNL A   1      34.896  29.786  27.256  1.00  0.00     0.042 C 
ENDROOT
BRANCH   1   2
ATOM      2  C   UNL A   1      33.489  30.110  26.761  1.00  0.00     0.118 C 
BRANCH   2   3
ATOM      3  N   UNL A   1      32.472  29.402  27.512  1.00  0.00    -0.349 N 
ATOM      4  C   UNL A   1      31.722  28.293  27.199  1.00  0.00     0.286 C 
ATOM      5  O   UNL A   1      31.024  27.849  28.113  1.00  0.00    -0.266 OA
ATOM      6  H   UNL A   1      32.287  29.782  28.402  1.00  0.00     0.163 HD
BRANCH   4   7
ATOM      7  C   UNL A   1      31.771  27.684  25.881  1.00  0.00     0.191 A 
ATOM      8  C   UNL A   1      31.653  25.925  24.537  1.00  0.00     0.124 A 
ATOM      9  C   UNL A   1      31.861  27.015  23.724  1.00  0.00     0.048 A 
ATOM     10  O   UNL A   1      31.617  26.316  25.838  1.00  0.00    -0.454 OA
ATOM     11  C   UNL A   1      31.900  28.142  24.581  1.00  0.00     0.056 A 
BRANCH   8  12
ATOM     12  C   UNL A   1      31.410  24.487  24.269  1.00  0.00     0.193 C 
BRANCH  12  13
ATOM     13  N   UNL A   1      32.310  24.087  23.208  1.00  0.00    -0.331 N 
ATOM     14  O   UNL A   1      34.261  23.690  22.234  1.00  0.00    -0.248 OA
ATOM     15  C   UNL A   1      33.595  23.654  23.263  1.00  0.00     0.319 C 
ATOM     16  N   UNL A   1      34.023  23.175  24.470  1.00  0.00    -0.308 N 
ATOM     17  H   UNL A   1      31.929  24.137  22.301  1.00  0.00     0.165 HD
ATOM     18  H   UNL A   1      33.345  23.078  25.177  1.00  0.00     0.171 HD
BRANCH  16  19
ATOM     19  C   UNL A   1      35.344  22.809  24.796  1.00  0.00     0.044 A 
ATOM     20  C   UNL A   1      36.192  23.816  25.280  1.00  0.00     0.029 A 
ATOM     21  C   UNL A   1      35.838  21.506  24.658  1.00  0.00     0.049 A 
ATOM     22  C   UNL A   1      37.498  23.513  25.672  1.00  0.00     0.043 A 
ATOM     23  C   UNL A   1      37.149  21.209  25.036  1.00  0.00     0.078 A 
ATOM     24  C   UNL A   1      37.967  22.210  25.552  1.00  0.00     0.141 A 
ATOM     25  Cl  UNL A   1      37.743  19.603  24.857  1.00  0.00    -0.081 Cl
ATOM     26  F   UNL A   1      39.222  21.941  25.944  1.00  0.00    -0.205 F 
ENDBRANCH  16  19
ENDBRANCH  12  13
ENDBRANCH   8  12
ENDBRANCH   4   7
ENDBRANCH   2   3
ENDBRANCH   1   2
BRANCH   1  27
ATOM     27  C   UNL A   1      35.556  30.945  28.004  1.00  0.00     0.118 C 
BRANCH  27  28
ATOM     28  N   UNL A   1      35.481  30.774  29.450  1.00  0.00    -0.352 N 
ATOM     29  C   UNL A   1      36.357  30.182  30.325  1.00  0.00     0.251 C 
ATOM     30  H   UNL A   1      34.669  31.145  29.867  1.00  0.00     0.163 HD
ATOM     31  O   UNL A   1      35.981  29.940  31.469  1.00  0.00    -0.269 OA
BRANCH  29  32
ATOM     32  C   UNL A   1      37.733  29.835  29.910  1.00  0.00     0.039 A 
ATOM     33  C   UNL A   1      38.640  29.400  30.881  1.00  0.00     0.014 A 
ATOM     34  C   UNL A   1      38.153  29.992  28.586  1.00  0.00     0.014 A 
ATOM     35  C   UNL A   1      39.950  29.076  30.518  1.00  0.00     0.010 A 
ATOM     36  C   UNL A   1      39.438  29.603  28.212  1.00  0.00     0.010 A 
ATOM     37  C   UNL A   1      40.352  29.149  29.175  1.00  0.00    -0.014 A 
BRANCH  37  38
ATOM     38  C   UNL A   1      41.721  28.754  28.758  1.00  0.00     0.031 A 
ATOM     39  C   UNL A   1      42.834  29.767  28.738  1.00  0.00     0.074 A 
ATOM     40  C   UNL A   1      41.950  27.495  28.337  1.00  0.00     0.049 A 
ATOM     41  N   UNL A   1      44.077  29.621  28.357  1.00  0.00    -0.248 NA
ATOM     42  C   UNL A   1      42.496  31.129  29.184  1.00  0.00     0.031 C 
ATOM     43  C   UNL A   1      40.950  26.426  28.282  1.00  0.00     0.029 A 
ATOM     44  N   UNL A   1      43.097  26.901  27.875  1.00  0.00    -0.354 N 
ATOM     45  C   UNL A   1      44.665  30.872  28.499  1.00  0.00     0.074 A 
ATOM     46  C   UNL A   1      43.630  31.775  28.953  1.00  0.00     0.031 C 
ATOM     47  C   UNL A   1      41.535  25.299  27.847  1.00  0.00     0.029 A 
ATOM     48  C   UNL A   1      42.939  25.575  27.552  1.00  0.00     0.049 A 
ATOM     49  H   UNL A   1      43.953  27.380  27.783  1.00  0.00     0.167 HD
ATOM     50  C   UNL A   1      45.954  31.236  28.286  1.00  0.00     0.031 A 
ATOM     51  C   UNL A   1      43.822  24.678  27.074  1.00  0.00     0.031 A 
ATOM     52  C   UNL A   1      46.982  30.336  27.833  1.00  0.00     0.049 A 
ATOM     53  C   UNL A   1      45.241  25.106  26.825  1.00  0.00     0.074 A 
ATOM     54  C   UNL A   1      48.326  30.593  27.632  1.00  0.00     0.029 A 
ATOM     55  N   UNL A   1      46.777  29.003  27.507  1.00  0.00    -0.354 N 
ATOM     56  N   UNL A   1      45.791  26.281  27.012  1.00  0.00    -0.248 NA
ATOM     57  C   UNL A   1      46.159  24.082  26.307  1.00  0.00     0.031 C 
ATOM     58  C   UNL A   1      48.925  29.428  27.137  1.00  0.00     0.029 A 
ATOM     59  C   UNL A   1      47.965  28.430  27.084  1.00  0.00     0.049 A 
ATOM     60  H   UNL A   1      45.914  28.533  27.567  1.00  0.00     0.167 HD
ATOM     61  C   UNL A   1      47.128  26.132  26.660  1.00  0.00     0.074 A 
ATOM     62  C   UNL A   1      47.302  24.751  26.257  1.00  0.00     0.031 C 
ATOM     63  C   UNL A   1      48.121  27.057  26.674  1.00  0.00     0.031 A 
BRANCH  50  64
ATOM     64  C   UNL A   1      46.307  32.682  28.528  1.00  0.00    -0.014 A 
ATOM     65  C   UNL A   1      46.718  33.128  29.798  1.00  0.00     0.010 A 
ATOM     66  C   UNL A   1      46.210  33.611  27.476  1.00  0.00     0.010 A 
ATOM     67  C   UNL A   1      46.958  34.486  30.029  1.00  0.00     0.020 A 
ATOM     68  C   UNL A   1      46.479  34.965  27.696  1.00  0.00     0.020 A 
ATOM     69  C   UNL A   1      46.822  35.398  28.978  1.00  0.00     0.054 A 
BRANCH  69  70
ATOM     70  S   UNL A   1      47.106  37.159  29.311  1.00  0.00     0.124 S 
ATOM     71  O   UNL A   1      48.151  37.481  28.343  1.00  0.00    -0.237 OA
ATOM     72  O   UNL A   1      45.799  37.753  29.045  1.00  0.00    -0.237 OA
ATOM     73  O   UNL A   1      47.524  37.183  30.710  1.00  0.00    -0.744 OA
ENDBRANCH  69  70
ENDBRANCH  50  64
BRANCH  51  74
ATOM     74  C   UNL A   1      43.389  23.273  26.846  1.00  0.00    -0.014 A 
ATOM     75  C   UNL A   1      43.410  22.734  25.548  1.00  0.00     0.010 A 
ATOM     76  C   UNL A   1      43.008  22.453  27.923  1.00  0.00     0.010 A 
ATOM     77  C   UNL A   1      43.060  21.399  25.330  1.00  0.00     0.020 A 
ATOM     78  C   UNL A   1      42.680  21.111  27.713  1.00  0.00     0.020 A 
ATOM     79  C   UNL A   1      42.705  20.593  26.416  1.00  0.00     0.054 A 
BRANCH  79  80
ATOM     80  S   UNL A   1      42.340  18.841  26.117  1.00  0.00     0.124 S 
ATOM     81  O   UNL A   1      43.292  18.507  25.064  1.00  0.00    -0.237 OA
ATOM     82  O   UNL A   1      42.602  18.239  27.423  1.00  0.00    -0.237 OA
ATOM     83  O   UNL A   1      40.935  18.849  25.716  1.00  0.00    -0.744 OA
ENDBRANCH  79  80
ENDBRANCH  51  74
BRANCH  63  84
ATOM     84  C   UNL A   1      49.495  26.596  26.267  1.00  0.00    -0.014 A 
ATOM     85  C   UNL A   1      49.977  26.809  24.963  1.00  0.00     0.010 A 
ATOM     86  C   UNL A   1      50.331  25.983  27.216  1.00  0.00     0.010 A 
ATOM     87  C   UNL A   1      51.262  26.387  24.609  1.00  0.00     0.020 A 
ATOM     88  C   UNL A   1      51.625  25.583  26.874  1.00  0.00     0.020 A 
ATOM     89  C   UNL A   1      52.077  25.775  25.566  1.00  0.00     0.054 A 
BRANCH  89  90
ATOM     90  S   UNL A   1      53.756  25.275  25.095  1.00  0.00     0.124 S 
ATOM     91  O   UNL A   1      54.570  25.969  26.089  1.00  0.00    -0.237 OA
ATOM     92  O   UNL A   1      53.707  23.820  25.226  1.00  0.00    -0.237 OA
ATOM     93  O   UNL A   1      53.892  25.765  23.725  1.00  0.00    -0.744 OA
ENDBRANCH  89  90
ENDBRANCH  63  84
ENDBRANCH  37  38
ENDBRANCH  29  32
ENDBRANCH  27  28
ENDBRANCH   1  27
TORSDOF 16
ENDMDL
MODEL 3
REMARK VINA RESULT:     -11.9      4.635     11.566
REMARK SMILES O=C(NCc1ccc(C(=O)NCCCNC(=O)c2ccc(-c3c4nc(c(-c5ccc(S(=O)(=O)[O-])cc5)c5ccc([nH]5)c(-c5ccc(S(=O)(=O)[O-])cc5)c5nc(c(-c6ccc(S(=O)(=O)[O-])cc6)c6ccc3[nH]6)C=C5)C=C4)cc2)o1)Nc1ccc(F)c(Cl)c1
REMARK SMILES IDX 13 1 12 2 11 3 9 4 10 5 8 7 5 8 6 9 78 10 7 11 4 12 3 13
REMARK SMILES IDX 1 14 2 15 79 16 80 19 81 20 87 21 82 22 85 23 83 24 86 25
REMARK SMILES IDX 84 26 14 27 15 28 16 29 17 31 18 32 19 33 77 34 20 35 76 36
REMARK SMILES IDX 21 37 22 38 23 39 70 40 24 41 75 42 69 43 71 44 25 45 74 46
REMARK SMILES IDX 68 47 67 48 26 50 56 51 37 52 55 53 38 54 41 55 54 56 72 57
REMARK SMILES IDX 39 58 40 59 53 61 73 62 42 63 27 64 28 65 36 66 29 67 35 68
REMARK SMILES IDX 30 69 31 70 32 71 33 72 34 73 57 74 58 75 66 76 59 77 65 78
REMARK SMILES IDX 60 79 61 80 62 81 63 82 64 83 43 84 44 85 52 86 45 87 51 88
REMARK SMILES IDX 46 89 47 90 48 91 49 92 50 93
REMARK H PARENT 11 6 3 17 79 18 15 30 71 49 41 60
REMARK Flexibility Score: inf
ROOT
ATOM      1  C   UNL A   1      41.776  20.892  26.162  1.00  0.00     0.042 C 
ENDROOT
BRANCH   1   2
ATOM      2  C   UNL A   1      42.851  21.923  25.830  1.00  0.00     0.118 C 
BRANCH   2   3
ATOM      3  N   UNL A   1      44.106  21.299  25.463  1.00  0.00    -0.349 N 
ATOM      4  C   UNL A   1      45.407  21.657  25.727  1.00  0.00     0.286 C 
ATOM      5  O   UNL A   1      46.264  20.839  25.383  1.00  0.00    -0.266 OA
ATOM      6  H   UNL A   1      44.010  20.475  24.932  1.00  0.00     0.163 HD
BRANCH   4   7
ATOM      7  C   UNL A   1      45.738  22.910  26.383  1.00  0.00     0.191 A 
ATOM      8  C   UNL A   1      46.969  24.742  26.589  1.00  0.00     0.124 A 
ATOM      9  C   UNL A   1      46.003  24.818  27.564  1.00  0.00     0.048 A 
ATOM     10  O   UNL A   1      46.829  23.588  25.886  1.00  0.00    -0.454 OA
ATOM     11  C   UNL A   1      45.195  23.665  27.409  1.00  0.00     0.056 A 
BRANCH   8  12
ATOM     12  C   UNL A   1      48.039  25.665  26.142  1.00  0.00     0.193 C 
BRANCH  12  13
ATOM     13  N   UNL A   1      47.513  26.431  25.032  1.00  0.00    -0.331 N 
ATOM     14  O   UNL A   1      46.189  27.883  24.005  1.00  0.00    -0.248 OA
ATOM     15  C   UNL A   1      46.812  27.593  25.021  1.00  0.00     0.319 C 
ATOM     16  N   UNL A   1      46.897  28.364  26.147  1.00  0.00    -0.308 N 
ATOM     17  H   UNL A   1      47.692  26.048  24.142  1.00  0.00     0.165 HD
ATOM     18  H   UNL A   1      47.540  28.078  26.836  1.00  0.00     0.171 HD
BRANCH  16  19
ATOM     19  C   UNL A   1      46.149  29.529  26.415  1.00  0.00     0.044 A 
ATOM     20  C   UNL A   1      44.786  29.368  26.701  1.00  0.00     0.029 A 
ATOM     21  C   UNL A   1      46.700  30.815  26.404  1.00  0.00     0.049 A 
ATOM     22  C   UNL A   1      43.998  30.474  27.028  1.00  0.00     0.043 A 
ATOM     23  C   UNL A   1      45.906  31.922  26.714  1.00  0.00     0.078 A 
ATOM     24  C   UNL A   1      44.563  31.744  27.037  1.00  0.00     0.141 A 
ATOM     25  Cl  UNL A   1      46.596  33.498  26.693  1.00  0.00    -0.081 Cl
ATOM     26  F   UNL A   1      43.788  32.790  27.362  1.00  0.00    -0.205 F 
ENDBRANCH  16  19
ENDBRANCH  12  13
ENDBRANCH   8  12
ENDBRANCH   4   7
ENDBRANCH   2   3
ENDBRANCH   1   2
BRANCH   1  27
ATOM     27  C   UNL A   1      40.641  21.456  27.018  1.00  0.00     0.118 C 
BRANCH  27  28
ATOM     28  N   UNL A   1      39.472  21.799  26.217  1.00  0.00    -0.352 N 
ATOM     29  C   UNL A   1      38.720  22.947  26.182  1.00  0.00     0.251 C 
ATOM     30  H   UNL A   1      39.174  21.092  25.600  1.00  0.00     0.163 HD
ATOM     31  O   UNL A   1      37.637  22.929  25.603  1.00  0.00    -0.269 OA
BRANCH  29  32
ATOM     32  C   UNL A   1      39.193  24.190  26.829  1.00  0.00     0.039 A 
ATOM     33  C   UNL A   1      39.972  25.082  26.085  1.00  0.00     0.014 A 
ATOM     34  C   UNL A   1      38.930  24.452  28.176  1.00  0.00     0.014 A 
ATOM     35  C   UNL A   1      40.442  26.258  26.675  1.00  0.00     0.010 A 
ATOM     36  C   UNL A   1      39.340  25.657  28.744  1.00  0.00     0.010 A 
ATOM     37  C   UNL A   1      40.106  26.568  28.002  1.00  0.00    -0.014 A 
BRANCH  37  38
ATOM     38  C   UNL A   1      40.546  27.840  28.631  1.00  0.00     0.031 A 
ATOM     39  C   UNL A   1      41.947  27.983  29.160  1.00  0.00     0.074 A 
ATOM     40  C   UNL A   1      39.664  28.846  28.781  1.00  0.00     0.049 A 
ATOM     41  N   UNL A   1      42.495  28.994  29.784  1.00  0.00    -0.248 NA
ATOM     42  C   UNL A   1      42.842  26.828  28.985  1.00  0.00     0.031 C 
ATOM     43  C   UNL A   1      38.268  28.822  28.336  1.00  0.00     0.029 A 
ATOM     44  N   UNL A   1      39.809  30.086  29.351  1.00  0.00    -0.354 N 
ATOM     45  C   UNL A   1      43.790  28.593  30.091  1.00  0.00     0.074 A 
ATOM     46  C   UNL A   1      43.928  27.229  29.630  1.00  0.00     0.031 C 
ATOM     47  C   UNL A   1      37.697  30.004  28.618  1.00  0.00     0.029 A 
ATOM     48  C   UNL A   1      38.670  30.853  29.300  1.00  0.00     0.049 A 
ATOM     49  H   UNL A   1      40.650  30.396  29.759  1.00  0.00     0.167 HD
ATOM     50  C   UNL A   1      44.781  29.300  30.690  1.00  0.00     0.031 A 
ATOM     51  C   UNL A   1      38.433  32.100  29.748  1.00  0.00     0.031 A 
ATOM     52  C   UNL A   1      44.640  30.656  31.149  1.00  0.00     0.049 A 
ATOM     53  C   UNL A   1      39.538  32.858  30.428  1.00  0.00     0.074 A 
ATOM     54  C   UNL A   1      45.595  31.475  31.725  1.00  0.00     0.029 A 
ATOM     55  N   UNL A   1      43.466  31.393  31.088  1.00  0.00    -0.354 N 
ATOM     56  N   UNL A   1      40.770  32.481  30.666  1.00  0.00    -0.248 NA
ATOM     57  C   UNL A   1      39.219  34.216  30.892  1.00  0.00     0.031 C 
ATOM     58  C   UNL A   1      44.985  32.692  32.056  1.00  0.00     0.029 A 
ATOM     59  C   UNL A   1      43.665  32.649  31.636  1.00  0.00     0.049 A 
ATOM     60  H   UNL A   1      42.615  31.070  30.711  1.00  0.00     0.167 HD
ATOM     61  C   UNL A   1      41.384  33.564  31.284  1.00  0.00     0.074 A 
ATOM     62  C   UNL A   1      40.388  34.613  31.376  1.00  0.00     0.031 C 
ATOM     63  C   UNL A   1      42.660  33.679  31.731  1.00  0.00     0.031 A 
BRANCH  50  64
ATOM     64  C   UNL A   1      46.098  28.595  30.893  1.00  0.00    -0.014 A 
ATOM     65  C   UNL A   1      47.090  28.606  29.895  1.00  0.00     0.010 A 
ATOM     66  C   UNL A   1      46.342  27.899  32.091  1.00  0.00     0.010 A 
ATOM     67  C   UNL A   1      48.271  27.876  30.061  1.00  0.00     0.020 A 
ATOM     68  C   UNL A   1      47.535  27.193  32.274  1.00  0.00     0.020 A 
ATOM     69  C   UNL A   1      48.478  27.162  31.245  1.00  0.00     0.054 A 
BRANCH  69  70
ATOM     70  S   UNL A   1      50.004  26.195  31.424  1.00  0.00     0.124 S 
ATOM     71  O   UNL A   1      49.643  25.261  32.486  1.00  0.00    -0.237 OA
ATOM     72  O   UNL A   1      50.169  25.605  30.099  1.00  0.00    -0.237 OA
ATOM     73  O   UNL A   1      51.005  27.195  31.786  1.00  0.00    -0.744 OA
ENDBRANCH  69  70
ENDBRANCH  50  64
BRANCH  51  74
ATOM     74  C   UNL A   1      37.098  32.718  29.523  1.00  0.00    -0.014 A 
ATOM     75  C   UNL A   1      36.191  32.839  30.590  1.00  0.00     0.010 A 
ATOM     76  C   UNL A   1      36.749  33.236  28.264  1.00  0.00     0.010 A 
ATOM     77  C   UNL A   1      34.959  33.469  30.403  1.00  0.00     0.020 A 
ATOM     78  C   UNL A   1      35.526  33.888  28.078  1.00  0.00     0.020 A 
ATOM     79  C   UNL A   1      34.637  33.997  29.150  1.00  0.00     0.054 A 
BRANCH  79  80
ATOM     80  S   UNL A   1      33.068  34.887  28.956  1.00  0.00     0.124 S 
ATOM     81  O   UNL A   1      32.512  34.821  30.303  1.00  0.00    -0.237 OA
ATOM     82  O   UNL A   1      33.509  36.209  28.516  1.00  0.00    -0.237 OA
ATOM     83  O   UNL A   1      32.357  34.109  27.943  1.00  0.00    -0.744 OA
ENDBRANCH  79  80
ENDBRANCH  51  74
BRANCH  63  84
ATOM     84  C   UNL A   1      43.060  34.998  32.336  1.00  0.00    -0.014 A 
ATOM     85  C   UNL A   1      43.633  36.015  31.552  1.00  0.00     0.010 A 
ATOM     86  C   UNL A   1      42.817  35.238  33.701  1.00  0.00     0.010 A 
ATOM     87  C   UNL A   1      43.984  37.238  32.130  1.00  0.00     0.020 A 
ATOM     88  C   UNL A   1      43.142  36.469  34.276  1.00  0.00     0.020 A 
ATOM     89  C   UNL A   1      43.738  37.457  33.489  1.00  0.00     0.054 A 
BRANCH  89  90
ATOM     90  S   UNL A   1      44.163  39.067  34.207  1.00  0.00     0.124 S 
ATOM     91  O   UNL A   1      44.225  38.758  35.633  1.00  0.00    -0.237 OA
ATOM     92  O   UNL A   1      45.443  39.375  33.574  1.00  0.00    -0.237 OA
ATOM     93  O   UNL A   1      43.054  39.929  33.804  1.00  0.00    -0.744 OA
ENDBRANCH  89  90
ENDBRANCH  63  84
ENDBRANCH  37  38
ENDBRANCH  29  32
ENDBRANCH  27  28
ENDBRANCH   1  27
TORSDOF 16
ENDMDL
