MODEL 1
REMARK VINA RESULT:     -11.4      0.000      0.000
REMARK SMILES O=C(NCCCNC(=O)c1ccc(C[N@@H+]2CC[N@H+]3CCCC[C@@H]3C2)c(F)c1)c1ccc(-c2c3nc(c(-c4ccc(S(=O)(=O)[O-])cc4)c4ccc([nH]4)c(-c4ccc(S(=O)(=O)[O-])cc4)c4nc(c(-c5ccc(S(=O)(=O)[O-])cc5)c5ccc2[nH]5)C=C4)C=C3)cc1
REMARK SMILES IDX 4 1 3 2 1 3 2 4 28 6 29 7 87 8 30 9 86 10 31 11 32 12 33 13
REMARK SMILES IDX 80 14 34 15 85 16 79 17 81 18 35 19 84 20 78 21 77 22 36 24
REMARK SMILES IDX 66 25 47 26 65 27 48 28 51 29 64 30 82 31 49 32 50 33 63 35
REMARK SMILES IDX 83 36 52 37 37 38 38 39 46 40 39 41 45 42 40 43 41 44 42 45
REMARK SMILES IDX 43 46 44 47 67 48 68 49 76 50 69 51 75 52 70 53 71 54 72 55
REMARK SMILES IDX 73 56 74 57 53 58 54 59 62 60 55 61 61 62 56 63 57 64 58 65
REMARK SMILES IDX 59 66 60 67 5 68 6 69 7 70 8 71 9 73 10 74 11 75 27 76 12 77
REMARK SMILES IDX 25 78 13 79 26 80 14 81 15 82 16 83 24 84 17 86 23 87 18 88
REMARK SMILES IDX 22 89 19 90 21 92 20 93
REMARK H PARENT 3 5 81 23 51 34 7 72 15 85 18 91
REMARK Flexibility Score: inf
ROOT
ATOM      1  C   UNL A   1      34.052  28.063  26.763  1.00  0.00     0.118 C 
ENDROOT
BRANCH   1   2
ATOM      2  N   UNL A   1      33.767  29.434  27.171  1.00  0.00    -0.352 N 
ATOM      3  O   UNL A   1      34.006  31.378  28.277  1.00  0.00    -0.269 OA
ATOM      4  C   UNL A   1      34.519  30.328  27.899  1.00  0.00     0.251 C 
ATOM      5  H   UNL A   1      32.892  29.777  26.878  1.00  0.00     0.163 HD
BRANCH   4   6
ATOM      6  C   UNL A   1      35.926  30.024  28.244  1.00  0.00     0.039 A 
ATOM      7  C   UNL A   1      36.943  30.206  27.309  1.00  0.00     0.014 A 
ATOM      8  C   UNL A   1      36.241  29.574  29.531  1.00  0.00     0.014 A 
ATOM      9  C   UNL A   1      38.229  29.763  27.591  1.00  0.00     0.010 A 
ATOM     10  C   UNL A   1      37.563  29.240  29.854  1.00  0.00     0.010 A 
ATOM     11  C   UNL A   1      38.563  29.297  28.874  1.00  0.00    -0.014 A 
BRANCH  11  12
ATOM     12  C   UNL A   1      39.984  28.954  29.149  1.00  0.00     0.031 A 
ATOM     13  C   UNL A   1      40.569  27.625  28.754  1.00  0.00     0.074 A 
ATOM     14  C   UNL A   1      40.773  29.907  29.688  1.00  0.00     0.049 A 
ATOM     15  N   UNL A   1      41.815  27.227  28.828  1.00  0.00    -0.248 NA
ATOM     16  C   UNL A   1      39.649  26.611  28.217  1.00  0.00     0.031 C 
ATOM     17  C   UNL A   1      40.312  31.227  30.136  1.00  0.00     0.029 A 
ATOM     18  N   UNL A   1      42.125  29.939  29.909  1.00  0.00    -0.354 N 
ATOM     19  C   UNL A   1      41.828  25.918  28.359  1.00  0.00     0.074 A 
ATOM     20  C   UNL A   1      40.460  25.577  28.030  1.00  0.00     0.031 C 
ATOM     21  C   UNL A   1      41.371  31.965  30.497  1.00  0.00     0.029 A 
ATOM     22  C   UNL A   1      42.575  31.153  30.375  1.00  0.00     0.049 A 
ATOM     23  H   UNL A   1      42.716  29.169  29.748  1.00  0.00     0.167 HD
ATOM     24  C   UNL A   1      42.883  25.081  28.211  1.00  0.00     0.031 A 
ATOM     25  C   UNL A   1      43.817  31.573  30.678  1.00  0.00     0.031 A 
ATOM     26  C   UNL A   1      44.244  25.424  28.542  1.00  0.00     0.049 A 
ATOM     27  C   UNL A   1      44.966  30.627  30.494  1.00  0.00     0.074 A 
ATOM     28  C   UNL A   1      45.381  24.643  28.427  1.00  0.00     0.029 A 
ATOM     29  N   UNL A   1      44.653  26.650  29.045  1.00  0.00    -0.354 N 
ATOM     30  N   UNL A   1      44.952  29.397  30.040  1.00  0.00    -0.248 NA
ATOM     31  C   UNL A   1      46.296  31.126  30.863  1.00  0.00     0.031 C 
ATOM     32  C   UNL A   1      46.472  25.384  28.895  1.00  0.00     0.029 A 
ATOM     33  C   UNL A   1      46.023  26.643  29.256  1.00  0.00     0.049 A 
ATOM     34  H   UNL A   1      44.058  27.413  29.225  1.00  0.00     0.167 HD
ATOM     35  C   UNL A   1      46.273  28.971  30.075  1.00  0.00     0.074 A 
ATOM     36  C   UNL A   1      47.062  30.089  30.554  1.00  0.00     0.031 C 
ATOM     37  C   UNL A   1      46.786  27.757  29.753  1.00  0.00     0.031 A 
BRANCH  24  38
ATOM     38  C   UNL A   1      42.612  23.699  27.677  1.00  0.00    -0.014 A 
ATOM     39  C   UNL A   1      42.704  23.424  26.300  1.00  0.00     0.010 A 
ATOM     40  C   UNL A   1      42.329  22.645  28.567  1.00  0.00     0.010 A 
ATOM     41  C   UNL A   1      42.492  22.127  25.821  1.00  0.00     0.020 A 
ATOM     42  C   UNL A   1      42.139  21.343  28.093  1.00  0.00     0.020 A 
ATOM     43  C   UNL A   1      42.209  21.095  26.721  1.00  0.00     0.054 A 
BRANCH  43  44
ATOM     44  S   UNL A   1      41.976  19.416  26.075  1.00  0.00     0.124 S 
ATOM     45  O   UNL A   1      40.530  19.369  25.876  1.00  0.00    -0.237 OA
ATOM     46  O   UNL A   1      42.777  19.428  24.853  1.00  0.00    -0.237 OA
ATOM     47  O   UNL A   1      42.486  18.559  27.141  1.00  0.00    -0.744 OA
ENDBRANCH  43  44
ENDBRANCH  24  38
BRANCH  25  48
ATOM     48  C   UNL A   1      44.021  32.945  31.214  1.00  0.00    -0.014 A 
ATOM     49  C   UNL A   1      44.277  34.027  30.355  1.00  0.00     0.010 A 
ATOM     50  C   UNL A   1      43.938  33.174  32.600  1.00  0.00     0.010 A 
ATOM     51  C   UNL A   1      44.464  35.312  30.875  1.00  0.00     0.020 A 
ATOM     52  C   UNL A   1      44.092  34.459  33.120  1.00  0.00     0.020 A 
ATOM     53  C   UNL A   1      44.371  35.519  32.255  1.00  0.00     0.054 A 
BRANCH  53  54
ATOM     54  S   UNL A   1      44.566  37.198  32.912  1.00  0.00     0.124 S 
ATOM     55  O   UNL A   1      43.325  37.375  33.659  1.00  0.00    -0.237 OA
ATOM     56  O   UNL A   1      45.781  37.089  33.717  1.00  0.00    -0.237 OA
ATOM     57  O   UNL A   1      44.699  38.019  31.710  1.00  0.00    -0.744 OA
ENDBRANCH  53  54
ENDBRANCH  25  48
BRANCH  37  58
ATOM     58  C   UNL A   1      48.272  27.592  29.912  1.00  0.00    -0.014 A 
ATOM     59  C   UNL A   1      49.155  27.970  28.884  1.00  0.00     0.010 A 
ATOM     60  C   UNL A   1      48.791  27.054  31.103  1.00  0.00     0.010 A 
ATOM     61  C   UNL A   1      50.528  27.765  29.024  1.00  0.00     0.020 A 
ATOM     62  C   UNL A   1      50.168  26.872  31.256  1.00  0.00     0.020 A 
ATOM     63  C   UNL A   1      51.026  27.209  30.207  1.00  0.00     0.054 A 
BRANCH  63  64
ATOM     64  S   UNL A   1      52.814  26.955  30.370  1.00  0.00     0.124 S 
ATOM     65  O   UNL A   1      52.893  26.114  31.560  1.00  0.00    -0.237 OA
ATOM     66  O   UNL A   1      53.164  26.297  29.112  1.00  0.00    -0.237 OA
ATOM     67  O   UNL A   1      53.342  28.308  30.524  1.00  0.00    -0.744 OA
ENDBRANCH  63  64
ENDBRANCH  37  58
ENDBRANCH  11  12
ENDBRANCH   4   6
ENDBRANCH   1   2
BRANCH   1  68
ATOM     68  C   UNL A   1      33.020  27.505  25.794  1.00  0.00     0.042 C 
BRANCH  68  69
ATOM     69  C   UNL A   1      33.474  27.510  24.341  1.00  0.00     0.118 C 
BRANCH  69  70
ATOM     70  N   UNL A   1      32.386  27.803  23.415  1.00  0.00    -0.352 N 
ATOM     71  C   UNL A   1      31.558  26.944  22.735  1.00  0.00     0.251 C 
ATOM     72  H   UNL A   1      32.219  28.760  23.253  1.00  0.00     0.163 HD
ATOM     73  O   UNL A   1      30.801  27.365  21.864  1.00  0.00    -0.269 OA
BRANCH  71  74
ATOM     74  C   UNL A   1      31.594  25.503  23.034  1.00  0.00     0.042 A 
ATOM     75  C   UNL A   1      30.840  24.971  24.087  1.00  0.00     0.014 A 
ATOM     76  C   UNL A   1      32.415  24.682  22.264  1.00  0.00     0.053 A 
ATOM     77  C   UNL A   1      31.015  23.639  24.465  1.00  0.00     0.013 A 
ATOM     78  C   UNL A   1      32.565  23.352  22.634  1.00  0.00     0.132 A 
ATOM     79  C   UNL A   1      31.915  22.828  23.761  1.00  0.00     0.042 A 
ATOM     80  F   UNL A   1      33.399  22.579  21.921  1.00  0.00    -0.206 F 
BRANCH  79  81
ATOM     81  C   UNL A   1      32.329  21.474  24.295  1.00  0.00     0.302 C 
BRANCH  81  82
ATOM     82  N   UNL A   1      33.766  21.502  24.523  1.00  0.00    -0.322 N 
ATOM     83  C   UNL A   1      34.362  20.223  24.909  1.00  0.00     0.324 C 
ATOM     84  C   UNL A   1      34.238  22.564  25.418  1.00  0.00     0.328 C 
ATOM     85  H   UNL A   1      34.103  21.722  23.586  1.00  0.00     0.348 HD
ATOM     86  C   UNL A   1      35.905  20.311  24.814  1.00  0.00     0.324 C 
ATOM     87  C   UNL A   1      35.777  22.697  25.290  1.00  0.00     0.239 C 
ATOM     88  N   UNL A   1      36.485  21.429  25.591  1.00  0.00    -0.323 N 
ATOM     89  C   UNL A   1      36.308  23.798  26.220  1.00  0.00     0.071 C 
ATOM     90  C   UNL A   1      37.919  21.570  25.284  1.00  0.00     0.262 C 
ATOM     91  H   UNL A   1      36.374  21.221  26.583  1.00  0.00     0.348 HD
ATOM     92  C   UNL A   1      37.806  23.999  26.007  1.00  0.00     0.012 C 
ATOM     93  C   UNL A   1      38.559  22.676  26.125  1.00  0.00     0.062 C 
ENDBRANCH  81  82
ENDBRANCH  79  81
ENDBRANCH  71  74
ENDBRANCH  69  70
ENDBRANCH  68  69
ENDBRANCH   1  68
TORSDOF 15
ENDMDL
MODEL 2
REMARK VINA RESULT:     -11.0      4.839      9.907
REMARK SMILES O=C(NCCCNC(=O)c1ccc(C[N@@H+]2CC[N@H+]3CCCC[C@@H]3C2)c(F)c1)c1ccc(-c2c3nc(c(-c4ccc(S(=O)(=O)[O-])cc4)c4ccc([nH]4)c(-c4ccc(S(=O)(=O)[O-])cc4)c4nc(c(-c5ccc(S(=O)(=O)[O-])cc5)c5ccc2[nH]5)C=C4)C=C3)cc1
REMARK SMILES IDX 4 1 3 2 1 3 2 4 28 6 29 7 87 8 30 9 86 10 31 11 32 12 33 13
REMARK SMILES IDX 80 14 34 15 85 16 79 17 81 18 35 19 84 20 78 21 77 22 36 24
REMARK SMILES IDX 66 25 47 26 65 27 48 28 51 29 64 30 82 31 49 32 50 33 63 35
REMARK SMILES IDX 83 36 52 37 37 38 38 39 46 40 39 41 45 42 40 43 41 44 42 45
REMARK SMILES IDX 43 46 44 47 67 48 68 49 76 50 69 51 75 52 70 53 71 54 72 55
REMARK SMILES IDX 73 56 74 57 53 58 54 59 62 60 55 61 61 62 56 63 57 64 58 65
REMARK SMILES IDX 59 66 60 67 5 68 6 69 7 70 8 71 9 73 10 74 11 75 27 76 12 77
REMARK SMILES IDX 25 78 13 79 26 80 14 81 15 82 16 83 24 84 17 86 23 87 18 88
REMARK SMILES IDX 22 89 19 90 21 92 20 93
REMARK H PARENT 3 5 81 23 51 34 7 72 15 85 18 91
REMARK Flexibility Score: inf
ROOT
ATOM      1  C   UNL A   1      39.765  23.454  26.920  1.00  0.00     0.118 C 
ENDROOT
BRANCH   1   2
ATOM      2  N   UNL A   1      40.707  24.145  26.047  1.00  0.00    -0.352 N 
ATOM      3  O   UNL A   1      41.864  25.858  25.162  1.00  0.00    -0.269 OA
ATOM      4  C   UNL A   1      41.212  25.424  26.107  1.00  0.00     0.251 C 
ATOM      5  H   UNL A   1      41.038  23.609  25.291  1.00  0.00     0.163 HD
BRANCH   4   6
ATOM      6  C   UNL A   1      40.956  26.282  27.287  1.00  0.00     0.039 A 
ATOM      7  C   UNL A   1      41.710  27.433  27.506  1.00  0.00     0.014 A 
ATOM      8  C   UNL A   1      39.930  25.946  28.178  1.00  0.00     0.014 A 
ATOM      9  C   UNL A   1      41.571  28.134  28.697  1.00  0.00     0.010 A 
ATOM     10  C   UNL A   1      39.710  26.726  29.321  1.00  0.00     0.010 A 
ATOM     11  C   UNL A   1      40.554  27.806  29.610  1.00  0.00    -0.014 A 
BRANCH  11  12
ATOM     12  C   UNL A   1      40.378  28.672  30.806  1.00  0.00     0.031 A 
ATOM     13  C   UNL A   1      41.278  28.557  32.006  1.00  0.00     0.074 A 
ATOM     14  C   UNL A   1      39.435  29.636  30.758  1.00  0.00     0.049 A 
ATOM     15  N   UNL A   1      41.317  29.315  33.073  1.00  0.00    -0.248 NA
ATOM     16  C   UNL A   1      42.253  27.455  32.021  1.00  0.00     0.031 C 
ATOM     17  C   UNL A   1      38.484  29.828  29.656  1.00  0.00     0.029 A 
ATOM     18  N   UNL A   1      39.148  30.660  31.621  1.00  0.00    -0.354 N 
ATOM     19  C   UNL A   1      42.307  28.779  33.890  1.00  0.00     0.074 A 
ATOM     20  C   UNL A   1      42.826  27.613  33.208  1.00  0.00     0.031 C 
ATOM     21  C   UNL A   1      37.780  30.948  29.871  1.00  0.00     0.029 A 
ATOM     22  C   UNL A   1      38.177  31.515  31.154  1.00  0.00     0.049 A 
ATOM     23  H   UNL A   1      39.595  30.774  32.491  1.00  0.00     0.167 HD
ATOM     24  C   UNL A   1      42.746  29.223  35.092  1.00  0.00     0.031 A 
ATOM     25  C   UNL A   1      37.653  32.630  31.694  1.00  0.00     0.031 A 
ATOM     26  C   UNL A   1      42.224  30.384  35.769  1.00  0.00     0.049 A 
ATOM     27  C   UNL A   1      38.166  33.102  33.022  1.00  0.00     0.074 A 
ATOM     28  C   UNL A   1      42.604  30.912  36.991  1.00  0.00     0.029 A 
ATOM     29  N   UNL A   1      41.216  31.201  35.280  1.00  0.00    -0.354 N 
ATOM     30  N   UNL A   1      39.110  32.582  33.769  1.00  0.00    -0.248 NA
ATOM     31  C   UNL A   1      37.544  34.309  33.578  1.00  0.00     0.031 C 
ATOM     32  C   UNL A   1      41.801  32.026  37.258  1.00  0.00     0.029 A 
ATOM     33  C   UNL A   1      40.954  32.221  36.181  1.00  0.00     0.049 A 
ATOM     34  H   UNL A   1      40.755  31.075  34.420  1.00  0.00     0.167 HD
ATOM     35  C   UNL A   1      39.191  33.397  34.890  1.00  0.00     0.074 A 
ATOM     36  C   UNL A   1      38.231  34.466  34.701  1.00  0.00     0.031 C 
ATOM     37  C   UNL A   1      39.980  33.264  35.985  1.00  0.00     0.031 A 
BRANCH  24  38
ATOM     38  C   UNL A   1      43.842  28.442  35.770  1.00  0.00    -0.014 A 
ATOM     39  C   UNL A   1      43.541  27.362  36.620  1.00  0.00     0.010 A 
ATOM     40  C   UNL A   1      45.190  28.746  35.502  1.00  0.00     0.010 A 
ATOM     41  C   UNL A   1      44.568  26.618  37.210  1.00  0.00     0.020 A 
ATOM     42  C   UNL A   1      46.219  27.989  36.071  1.00  0.00     0.020 A 
ATOM     43  C   UNL A   1      45.901  26.937  36.933  1.00  0.00     0.054 A 
BRANCH  43  44
ATOM     44  S   UNL A   1      47.211  25.931  37.682  1.00  0.00     0.124 S 
ATOM     45  O   UNL A   1      46.628  25.598  38.979  1.00  0.00    -0.237 OA
ATOM     46  O   UNL A   1      47.336  24.817  36.745  1.00  0.00    -0.237 OA
ATOM     47  O   UNL A   1      48.358  26.833  37.728  1.00  0.00    -0.744 OA
ENDBRANCH  43  44
ENDBRANCH  24  38
BRANCH  25  48
ATOM     48  C   UNL A   1      36.563  33.352  30.984  1.00  0.00    -0.014 A 
ATOM     49  C   UNL A   1      36.769  33.903  29.709  1.00  0.00     0.010 A 
ATOM     50  C   UNL A   1      35.296  33.471  31.586  1.00  0.00     0.010 A 
ATOM     51  C   UNL A   1      35.733  34.576  29.054  1.00  0.00     0.020 A 
ATOM     52  C   UNL A   1      34.250  34.114  30.923  1.00  0.00     0.020 A 
ATOM     53  C   UNL A   1      34.480  34.677  29.666  1.00  0.00     0.054 A 
BRANCH  53  54
ATOM     54  S   UNL A   1      33.130  35.509  28.785  1.00  0.00     0.124 S 
ATOM     55  O   UNL A   1      33.851  36.507  28.002  1.00  0.00    -0.237 OA
ATOM     56  O   UNL A   1      32.526  34.420  28.023  1.00  0.00    -0.237 OA
ATOM     57  O   UNL A   1      32.298  36.038  29.864  1.00  0.00    -0.744 OA
ENDBRANCH  53  54
ENDBRANCH  25  48
BRANCH  37  58
ATOM     58  C   UNL A   1      39.827  34.309  37.055  1.00  0.00    -0.014 A 
ATOM     59  C   UNL A   1      40.542  35.519  36.989  1.00  0.00     0.010 A 
ATOM     60  C   UNL A   1      38.959  34.079  38.136  1.00  0.00     0.010 A 
ATOM     61  C   UNL A   1      40.429  36.460  38.014  1.00  0.00     0.020 A 
ATOM     62  C   UNL A   1      38.824  35.032  39.151  1.00  0.00     0.020 A 
ATOM     63  C   UNL A   1      39.577  36.207  39.093  1.00  0.00     0.054 A 
BRANCH  63  64
ATOM     64  S   UNL A   1      39.442  37.444  40.412  1.00  0.00     0.124 S 
ATOM     65  O   UNL A   1      38.524  38.414  39.824  1.00  0.00    -0.237 OA
ATOM     66  O   UNL A   1      38.907  36.669  41.530  1.00  0.00    -0.237 OA
ATOM     67  O   UNL A   1      40.816  37.910  40.588  1.00  0.00    -0.744 OA
ENDBRANCH  63  64
ENDBRANCH  37  58
ENDBRANCH  11  12
ENDBRANCH   4   6
ENDBRANCH   1   2
BRANCH   1  68
ATOM     68  C   UNL A   1      38.952  22.392  26.193  1.00  0.00     0.042 C 
BRANCH  68  69
ATOM     69  C   UNL A   1      37.562  22.855  25.782  1.00  0.00     0.118 C 
BRANCH  69  70
ATOM     70  N   UNL A   1      36.683  21.746  25.429  1.00  0.00    -0.352 N 
ATOM     71  C   UNL A   1      35.349  21.753  25.104  1.00  0.00     0.251 C 
ATOM     72  H   UNL A   1      37.110  20.859  25.422  1.00  0.00     0.163 HD
ATOM     73  O   UNL A   1      34.727  20.699  24.997  1.00  0.00    -0.269 OA
BRANCH  71  74
ATOM     74  C   UNL A   1      34.650  23.035  24.908  1.00  0.00     0.042 A 
ATOM     75  C   UNL A   1      33.931  23.624  25.955  1.00  0.00     0.014 A 
ATOM     76  C   UNL A   1      34.698  23.636  23.653  1.00  0.00     0.053 A 
ATOM     77  C   UNL A   1      33.138  24.745  25.708  1.00  0.00     0.013 A 
ATOM     78  C   UNL A   1      33.923  24.765  23.424  1.00  0.00     0.132 A 
ATOM     79  C   UNL A   1      33.097  25.301  24.423  1.00  0.00     0.042 A 
ATOM     80  F   UNL A   1      33.931  25.309  22.197  1.00  0.00    -0.206 F 
BRANCH  79  81
ATOM     81  C   UNL A   1      32.060  26.338  24.052  1.00  0.00     0.302 C 
BRANCH  81  82
ATOM     82  N   UNL A   1      32.278  27.509  24.889  1.00  0.00    -0.322 N 
ATOM     83  C   UNL A   1      31.688  28.752  24.391  1.00  0.00     0.324 C 
ATOM     84  C   UNL A   1      33.670  27.742  25.291  1.00  0.00     0.328 C 
ATOM     85  H   UNL A   1      31.760  27.243  25.726  1.00  0.00     0.348 HD
ATOM     86  C   UNL A   1      31.717  29.830  25.501  1.00  0.00     0.324 C 
ATOM     87  C   UNL A   1      33.705  28.782  26.440  1.00  0.00     0.239 C 
ATOM     88  N   UNL A   1      33.063  30.065  26.066  1.00  0.00    -0.323 N 
ATOM     89  C   UNL A   1      35.150  29.055  26.883  1.00  0.00     0.071 C 
ATOM     90  C   UNL A   1      32.972  30.943  27.247  1.00  0.00     0.262 C 
ATOM     91  H   UNL A   1      33.634  30.520  25.354  1.00  0.00     0.348 HD
ATOM     92  C   UNL A   1      35.169  29.993  28.087  1.00  0.00     0.012 C 
ATOM     93  C   UNL A   1      34.359  31.257  27.811  1.00  0.00     0.062 C 
ENDBRANCH  81  82
ENDBRANCH  79  81
ENDBRANCH  71  74
ENDBRANCH  69  70
ENDBRANCH  68  69
ENDBRANCH   1  68
TORSDOF 15
ENDMDL
MODEL 3
REMARK VINA RESULT:     -11.0      4.823      9.933
REMARK SMILES O=C(NCCCNC(=O)c1ccc(C[N@@H+]2CC[N@H+]3CCCC[C@@H]3C2)c(F)c1)c1ccc(-c2c3nc(c(-c4ccc(S(=O)(=O)[O-])cc4)c4ccc([nH]4)c(-c4ccc(S(=O)(=O)[O-])cc4)c4nc(c(-c5ccc(S(=O)(=O)[O-])cc5)c5ccc2[nH]5)C=C4)C=C3)cc1
REMARK SMILES IDX 4 1 3 2 1 3 2 4 28 6 29 7 87 8 30 9 86 10 31 11 32 12 33 13
REMARK SMILES IDX 80 14 34 15 85 16 79 17 81 18 35 19 84 20 78 21 77 22 36 24
REMARK SMILES IDX 66 25 47 26 65 27 48 28 51 29 64 30 82 31 49 32 50 33 63 35
REMARK SMILES IDX 83 36 52 37 37 38 38 39 46 40 39 41 45 42 40 43 41 44 42 45
REMARK SMILES IDX 43 46 44 47 67 48 68 49 76 50 69 51 75 52 70 53 71 54 72 55
REMARK SMILES IDX 73 56 74 57 53 58 54 59 62 60 55 61 61 62 56 63 57 64 58 65
REMARK SMILES IDX 59 66 60 67 5 68 6 69 7 70 8 71 9 73 10 74 11 75 27 76 12 77
REMARK SMILES IDX 25 78 13 79 26 80 14 81 15 82 16 83 24 84 17 86 23 87 18 88
REMARK SMILES IDX 22 89 19 90 21 92 20 93
REMARK H PARENT 3 5 81 23 51 34 7 72 15 85 18 91
REMARK Flexibility Score: inf
ROOT
ATOM      1  C   UNL A   1      39.203  23.657  26.852  1.00  0.00     0.118 C 
ENDROOT
BRANCH   1   2
ATOM      2  N   UNL A   1      40.191  24.238  25.950  1.00  0.00    -0.352 N 
ATOM      3  O   UNL A   1      41.533  25.801  25.048  1.00  0.00    -0.269 OA
ATOM      4  C   UNL A   1      40.872  25.432  26.015  1.00  0.00     0.251 C 
ATOM      5  H   UNL A   1      40.407  23.685  25.165  1.00  0.00     0.163 HD
BRANCH   4   6
ATOM      6  C   UNL A   1      40.795  26.280  27.227  1.00  0.00     0.039 A 
ATOM      7  C   UNL A   1      40.005  25.900  28.310  1.00  0.00     0.014 A 
ATOM      8  C   UNL A   1      41.543  27.461  27.295  1.00  0.00     0.014 A 
ATOM      9  C   UNL A   1      39.813  26.780  29.367  1.00  0.00     0.010 A 
ATOM     10  C   UNL A   1      41.441  28.292  28.418  1.00  0.00     0.010 A 
ATOM     11  C   UNL A   1      40.546  27.977  29.449  1.00  0.00    -0.014 A 
BRANCH  11  12
ATOM     12  C   UNL A   1      40.387  28.816  30.666  1.00  0.00     0.031 A 
ATOM     13  C   UNL A   1      41.328  28.702  31.835  1.00  0.00     0.074 A 
ATOM     14  C   UNL A   1      39.421  29.758  30.666  1.00  0.00     0.049 A 
ATOM     15  N   UNL A   1      41.382  29.441  32.915  1.00  0.00    -0.248 NA
ATOM     16  C   UNL A   1      42.328  27.623  31.799  1.00  0.00     0.031 C 
ATOM     17  C   UNL A   1      38.431  29.947  29.598  1.00  0.00     0.029 A 
ATOM     18  N   UNL A   1      39.138  30.760  31.557  1.00  0.00    -0.354 N 
ATOM     19  C   UNL A   1      42.410  28.914  33.690  1.00  0.00     0.074 A 
ATOM     20  C   UNL A   1      42.935  27.774  32.970  1.00  0.00     0.031 C 
ATOM     21  C   UNL A   1      37.709  31.046  29.856  1.00  0.00     0.029 A 
ATOM     22  C   UNL A   1      38.133  31.599  31.136  1.00  0.00     0.049 A 
ATOM     23  H   UNL A   1      39.609  30.868  32.414  1.00  0.00     0.167 HD
ATOM     24  C   UNL A   1      42.877  29.346  34.886  1.00  0.00     0.031 A 
ATOM     25  C   UNL A   1      37.600  32.692  31.713  1.00  0.00     0.031 A 
ATOM     26  C   UNL A   1      42.350  30.482  35.601  1.00  0.00     0.049 A 
ATOM     27  C   UNL A   1      38.144  33.152  33.033  1.00  0.00     0.074 A 
ATOM     28  C   UNL A   1      42.756  30.997  36.820  1.00  0.00     0.029 A 
ATOM     29  N   UNL A   1      41.308  31.284  35.158  1.00  0.00    -0.354 N 
ATOM     30  N   UNL A   1      39.123  32.640  33.740  1.00  0.00    -0.248 NA
ATOM     31  C   UNL A   1      37.512  34.333  33.631  1.00  0.00     0.031 C 
ATOM     32  C   UNL A   1      41.936  32.087  37.132  1.00  0.00     0.029 A 
ATOM     33  C   UNL A   1      41.051  32.281  36.086  1.00  0.00     0.049 A 
ATOM     34  H   UNL A   1      40.823  31.162  34.311  1.00  0.00     0.167 HD
ATOM     35  C   UNL A   1      39.221  33.437  34.873  1.00  0.00     0.074 A 
ATOM     36  C   UNL A   1      38.231  34.486  34.735  1.00  0.00     0.031 C 
ATOM     37  C   UNL A   1      40.048  33.303  35.940  1.00  0.00     0.031 A 
BRANCH  24  38
ATOM     38  C   UNL A   1      44.012  28.580  35.514  1.00  0.00    -0.014 A 
ATOM     39  C   UNL A   1      45.350  28.937  35.266  1.00  0.00     0.010 A 
ATOM     40  C   UNL A   1      43.739  27.534  36.416  1.00  0.00     0.010 A 
ATOM     41  C   UNL A   1      46.394  28.245  35.888  1.00  0.00     0.020 A 
ATOM     42  C   UNL A   1      44.780  26.856  37.058  1.00  0.00     0.020 A 
ATOM     43  C   UNL A   1      46.103  27.208  36.780  1.00  0.00     0.054 A 
BRANCH  43  44
ATOM     44  S   UNL A   1      47.476  26.353  37.601  1.00  0.00     0.124 S 
ATOM     45  O   UNL A   1      48.590  26.645  36.702  1.00  0.00    -0.237 OA
ATOM     46  O   UNL A   1      47.532  27.013  38.903  1.00  0.00    -0.237 OA
ATOM     47  O   UNL A   1      47.049  24.958  37.631  1.00  0.00    -0.744 OA
ENDBRANCH  43  44
ENDBRANCH  24  38
BRANCH  25  48
ATOM     48  C   UNL A   1      36.472  33.400  31.052  1.00  0.00    -0.014 A 
ATOM     49  C   UNL A   1      35.270  33.645  31.737  1.00  0.00     0.010 A 
ATOM     50  C   UNL A   1      36.611  33.852  29.727  1.00  0.00     0.010 A 
ATOM     51  C   UNL A   1      34.220  34.315  31.101  1.00  0.00     0.020 A 
ATOM     52  C   UNL A   1      35.577  34.549  29.100  1.00  0.00     0.020 A 
ATOM     53  C   UNL A   1      34.380  34.762  29.786  1.00  0.00     0.054 A 
BRANCH  53  54
ATOM     54  S   UNL A   1      33.029  35.674  28.990  1.00  0.00     0.124 S 
ATOM     55  O   UNL A   1      33.747  36.754  28.322  1.00  0.00    -0.237 OA
ATOM     56  O   UNL A   1      32.437  34.667  28.112  1.00  0.00    -0.237 OA
ATOM     57  O   UNL A   1      32.187  36.080  30.114  1.00  0.00    -0.744 OA
ENDBRANCH  53  54
ENDBRANCH  25  48
BRANCH  37  58
ATOM     58  C   UNL A   1      39.904  34.325  37.034  1.00  0.00    -0.014 A 
ATOM     59  C   UNL A   1      39.213  34.020  38.220  1.00  0.00     0.010 A 
ATOM     60  C   UNL A   1      40.468  35.603  36.874  1.00  0.00     0.010 A 
ATOM     61  C   UNL A   1      39.044  34.992  39.208  1.00  0.00     0.020 A 
ATOM     62  C   UNL A   1      40.323  36.571  37.872  1.00  0.00     0.020 A 
ATOM     63  C   UNL A   1      39.593  36.266  39.023  1.00  0.00     0.054 A 
BRANCH  63  64
ATOM     64  S   UNL A   1      39.365  37.513  40.319  1.00  0.00     0.124 S 
ATOM     65  O   UNL A   1      40.740  37.916  40.596  1.00  0.00    -0.237 OA
ATOM     66  O   UNL A   1      38.536  38.519  39.657  1.00  0.00    -0.237 OA
ATOM     67  O   UNL A   1      38.701  36.778  41.392  1.00  0.00    -0.744 OA
ENDBRANCH  63  64
ENDBRANCH  37  58
ENDBRANCH  11  12
ENDBRANCH   4   6
ENDBRANCH   1   2
BRANCH   1  68
ATOM     68  C   UNL A   1      37.770  23.949  26.431  1.00  0.00     0.042 C 
BRANCH  68  69
ATOM     69  C   UNL A   1      37.438  23.490  25.018  1.00  0.00     0.118 C 
BRANCH  69  70
ATOM     70  N   UNL A   1      37.555  22.046  24.856  1.00  0.00    -0.352 N 
ATOM     71  C   UNL A   1      36.613  21.063  25.038  1.00  0.00     0.251 C 
ATOM     72  H   UNL A   1      38.443  21.727  24.573  1.00  0.00     0.163 HD
ATOM     73  O   UNL A   1      36.935  19.879  25.018  1.00  0.00    -0.269 OA
BRANCH  71  74
ATOM     74  C   UNL A   1      35.209  21.433  25.286  1.00  0.00     0.042 A 
ATOM     75  C   UNL A   1      34.326  21.642  24.219  1.00  0.00     0.014 A 
ATOM     76  C   UNL A   1      34.783  21.595  26.601  1.00  0.00     0.053 A 
ATOM     77  C   UNL A   1      33.052  22.156  24.462  1.00  0.00     0.013 A 
ATOM     78  C   UNL A   1      33.505  22.084  26.834  1.00  0.00     0.132 A 
ATOM     79  C   UNL A   1      32.646  22.420  25.777  1.00  0.00     0.042 A 
ATOM     80  F   UNL A   1      33.119  22.290  28.103  1.00  0.00    -0.206 F 
BRANCH  79  81
ATOM     81  C   UNL A   1      31.391  23.215  26.063  1.00  0.00     0.302 C 
BRANCH  81  82
ATOM     82  N   UNL A   1      31.549  24.533  25.466  1.00  0.00    -0.322 N 
ATOM     83  C   UNL A   1      32.381  25.467  26.223  1.00  0.00     0.324 C 
ATOM     84  C   UNL A   1      30.302  25.191  25.060  1.00  0.00     0.328 C 
ATOM     85  H   UNL A   1      32.059  24.296  24.615  1.00  0.00     0.348 HD
ATOM     86  C   UNL A   1      32.724  26.697  25.348  1.00  0.00     0.324 C 
ATOM     87  C   UNL A   1      30.632  26.393  24.138  1.00  0.00     0.239 C 
ATOM     88  N   UNL A   1      31.536  27.374  24.785  1.00  0.00    -0.323 N 
ATOM     89  C   UNL A   1      29.347  27.110  23.698  1.00  0.00     0.071 C 
ATOM     90  C   UNL A   1      31.950  28.396  23.806  1.00  0.00     0.262 C 
ATOM     91  H   UNL A   1      31.034  27.827  25.548  1.00  0.00     0.348 HD
ATOM     92  C   UNL A   1      29.672  28.222  22.704  1.00  0.00     0.012 C 
ATOM     93  C   UNL A   1      30.743  29.158  23.258  1.00  0.00     0.062 C 
ENDBRANCH  81  82
ENDBRANCH  79  81
ENDBRANCH  71  74
ENDBRANCH  69  70
ENDBRANCH  68  69
ENDBRANCH   1  68
TORSDOF 15
ENDMDL
