MODEL 1
REMARK VINA RESULT:     -10.8      0.000      0.000
REMARK SMILES O=C(NCCCNC(=O)[C@@H]1C=C[C@@H](NC(=O)[C@@H]2CCS(=O)(=O)C2)C1)c1ccc(-c2c3nc(c(-c4ccc(S(=O)(=O)[O-])cc4)c4ccc([nH]4)c(-c4ccc(S(=O)(=O)[O-])cc4)c4nc(c(-c5ccc(S(=O)(=O)[O-])cc5)c5ccc2[nH]5)C=C4)C=C3)cc1
REMARK SMILES IDX 4 1 3 2 1 3 2 4 25 6 26 7 84 8 27 9 83 10 28 11 29 12 30 13
REMARK SMILES IDX 77 14 31 15 82 16 76 17 78 18 32 19 81 20 75 21 74 22 33 24
REMARK SMILES IDX 63 25 44 26 62 27 45 28 48 29 61 30 79 31 46 32 47 33 60 35
REMARK SMILES IDX 80 36 49 37 34 38 35 39 43 40 36 41 42 42 37 43 38 44 39 45
REMARK SMILES IDX 40 46 41 47 64 48 65 49 73 50 66 51 72 52 67 53 68 54 69 55
REMARK SMILES IDX 70 56 71 57 50 58 51 59 59 60 52 61 58 62 53 63 54 64 55 65
REMARK SMILES IDX 56 66 57 67 5 68 6 69 7 70 8 71 9 73 10 74 11 75 24 76 12 77
REMARK SMILES IDX 13 78 14 79 15 80 16 82 17 83 18 84 23 85 19 86 20 87 21 88
REMARK SMILES IDX 22 89
REMARK H PARENT 3 5 78 23 48 34 7 72 14 81
REMARK Flexibility Score: inf
ROOT
ATOM      1  C   UNL A   1      40.891  22.045  26.371  1.00  0.00     0.118 C 
ENDROOT
BRANCH   1   2
ATOM      2  N   UNL A   1      39.580  22.366  25.819  1.00  0.00    -0.352 N 
ATOM      3  O   UNL A   1      37.594  23.411  25.665  1.00  0.00    -0.269 OA
ATOM      4  C   UNL A   1      38.751  23.434  26.072  1.00  0.00     0.251 C 
ATOM      5  H   UNL A   1      39.233  21.718  25.164  1.00  0.00     0.163 HD
BRANCH   4   6
ATOM      6  C   UNL A   1      39.248  24.594  26.844  1.00  0.00     0.039 A 
ATOM      7  C   UNL A   1      38.937  24.723  28.198  1.00  0.00     0.014 A 
ATOM      8  C   UNL A   1      40.052  25.552  26.219  1.00  0.00     0.014 A 
ATOM      9  C   UNL A   1      39.275  25.884  28.876  1.00  0.00     0.010 A 
ATOM     10  C   UNL A   1      40.498  26.664  26.941  1.00  0.00     0.010 A 
ATOM     11  C   UNL A   1      40.089  26.853  28.270  1.00  0.00    -0.014 A 
BRANCH  11  12
ATOM     12  C   UNL A   1      40.560  27.994  29.096  1.00  0.00     0.031 A 
ATOM     13  C   UNL A   1      41.945  28.026  29.679  1.00  0.00     0.074 A 
ATOM     14  C   UNL A   1      39.730  29.045  29.253  1.00  0.00     0.049 A 
ATOM     15  N   UNL A   1      42.524  28.986  30.354  1.00  0.00    -0.248 NA
ATOM     16  C   UNL A   1      42.788  26.835  29.488  1.00  0.00     0.031 C 
ATOM     17  C   UNL A   1      38.355  29.115  28.743  1.00  0.00     0.029 A 
ATOM     18  N   UNL A   1      39.921  30.265  29.848  1.00  0.00    -0.354 N 
ATOM     19  C   UNL A   1      43.794  28.518  30.673  1.00  0.00     0.074 A 
ATOM     20  C   UNL A   1      43.887  27.171  30.150  1.00  0.00     0.031 C 
ATOM     21  C   UNL A   1      37.855  30.334  28.986  1.00  0.00     0.029 A 
ATOM     22  C   UNL A   1      38.836  31.102  29.739  1.00  0.00     0.049 A 
ATOM     23  H   UNL A   1      40.755  30.516  30.308  1.00  0.00     0.167 HD
ATOM     24  C   UNL A   1      44.791  29.158  31.331  1.00  0.00     0.031 A 
ATOM     25  C   UNL A   1      38.636  32.347  30.213  1.00  0.00     0.031 A 
ATOM     26  C   UNL A   1      44.680  30.493  31.862  1.00  0.00     0.049 A 
ATOM     27  C   UNL A   1      39.746  33.013  30.973  1.00  0.00     0.074 A 
ATOM     28  C   UNL A   1      45.634  31.230  32.546  1.00  0.00     0.029 A 
ATOM     29  N   UNL A   1      43.550  31.294  31.772  1.00  0.00    -0.354 N 
ATOM     30  N   UNL A   1      40.947  32.559  31.241  1.00  0.00    -0.248 NA
ATOM     31  C   UNL A   1      39.476  34.359  31.489  1.00  0.00     0.031 C 
ATOM     32  C   UNL A   1      45.062  32.452  32.914  1.00  0.00     0.029 A 
ATOM     33  C   UNL A   1      43.776  32.507  32.403  1.00  0.00     0.049 A 
ATOM     34  H   UNL A   1      42.711  31.036  31.326  1.00  0.00     0.167 HD
ATOM     35  C   UNL A   1      41.582  33.572  31.948  1.00  0.00     0.074 A 
ATOM     36  C   UNL A   1      40.643  34.673  32.032  1.00  0.00     0.031 C 
ATOM     37  C   UNL A   1      42.826  33.588  32.485  1.00  0.00     0.031 A 
BRANCH  24  38
ATOM     38  C   UNL A   1      46.091  28.420  31.525  1.00  0.00    -0.014 A 
ATOM     39  C   UNL A   1      47.142  28.548  30.599  1.00  0.00     0.010 A 
ATOM     40  C   UNL A   1      46.291  27.638  32.678  1.00  0.00     0.010 A 
ATOM     41  C   UNL A   1      48.356  27.886  30.807  1.00  0.00     0.020 A 
ATOM     42  C   UNL A   1      47.513  26.997  32.904  1.00  0.00     0.020 A 
ATOM     43  C   UNL A   1      48.534  27.115  31.959  1.00  0.00     0.054 A 
BRANCH  43  44
ATOM     44  S   UNL A   1      50.133  26.297  32.215  1.00  0.00     0.124 S 
ATOM     45  O   UNL A   1      50.372  26.545  33.635  1.00  0.00    -0.237 OA
ATOM     46  O   UNL A   1      49.842  24.910  31.860  1.00  0.00    -0.237 OA
ATOM     47  O   UNL A   1      51.033  26.998  31.302  1.00  0.00    -0.744 OA
ENDBRANCH  43  44
ENDBRANCH  24  38
BRANCH  25  48
ATOM     48  C   UNL A   1      37.321  33.014  30.016  1.00  0.00    -0.014 A 
ATOM     49  C   UNL A   1      36.385  33.099  31.060  1.00  0.00     0.010 A 
ATOM     50  C   UNL A   1      37.001  33.575  28.765  1.00  0.00     0.010 A 
ATOM     51  C   UNL A   1      35.142  33.704  30.847  1.00  0.00     0.020 A 
ATOM     52  C   UNL A   1      35.779  34.214  28.558  1.00  0.00     0.020 A 
ATOM     53  C   UNL A   1      34.847  34.256  29.596  1.00  0.00     0.054 A 
BRANCH  53  54
ATOM     54  S   UNL A   1      33.239  35.056  29.346  1.00  0.00     0.124 S 
ATOM     55  O   UNL A   1      33.632  36.400  28.936  1.00  0.00    -0.237 OA
ATOM     56  O   UNL A   1      32.633  34.227  28.306  1.00  0.00    -0.237 OA
ATOM     57  O   UNL A   1      32.602  34.960  30.658  1.00  0.00    -0.744 OA
ENDBRANCH  53  54
ENDBRANCH  25  48
BRANCH  37  58
ATOM     58  C   UNL A   1      43.249  34.853  33.183  1.00  0.00    -0.014 A 
ATOM     59  C   UNL A   1      43.865  35.905  32.481  1.00  0.00     0.010 A 
ATOM     60  C   UNL A   1      43.013  34.995  34.563  1.00  0.00     0.010 A 
ATOM     61  C   UNL A   1      44.282  37.055  33.156  1.00  0.00     0.020 A 
ATOM     62  C   UNL A   1      43.398  36.158  35.235  1.00  0.00     0.020 A 
ATOM     63  C   UNL A   1      44.049  37.172  34.530  1.00  0.00     0.054 A 
BRANCH  63  64
ATOM     64  S   UNL A   1      44.585  38.681  35.380  1.00  0.00     0.124 S 
ATOM     65  O   UNL A   1      44.115  38.445  36.742  1.00  0.00    -0.237 OA
ATOM     66  O   UNL A   1      46.034  38.651  35.201  1.00  0.00    -0.237 OA
ATOM     67  O   UNL A   1      43.895  39.749  34.659  1.00  0.00    -0.744 OA
ENDBRANCH  63  64
ENDBRANCH  37  58
ENDBRANCH  11  12
ENDBRANCH   4   6
ENDBRANCH   1   2
BRANCH   1  68
ATOM     68  C   UNL A   1      40.896  20.689  27.057  1.00  0.00     0.042 C 
BRANCH  68  69
ATOM     69  C   UNL A   1      41.055  19.532  26.079  1.00  0.00     0.117 C 
BRANCH  69  70
ATOM     70  N   UNL A   1      42.131  18.642  26.469  1.00  0.00    -0.356 N 
ATOM     71  C   UNL A   1      43.404  18.478  26.025  1.00  0.00     0.227 C 
ATOM     72  H   UNL A   1      41.890  18.033  27.205  1.00  0.00     0.163 HD
ATOM     73  O   UNL A   1      44.090  17.655  26.646  1.00  0.00    -0.274 OA
BRANCH  71  74
ATOM     74  C   UNL A   1      44.025  19.228  24.834  1.00  0.00     0.103 C 
ATOM     75  C   UNL A   1      45.457  18.896  24.550  1.00  0.00    -0.016 C 
ATOM     76  C   UNL A   1      44.029  20.763  24.908  1.00  0.00     0.047 C 
ATOM     77  C   UNL A   1      46.248  19.962  24.715  1.00  0.00    -0.006 C 
ATOM     78  C   UNL A   1      45.478  21.142  25.217  1.00  0.00     0.106 C 
BRANCH  78  79
ATOM     79  N   UNL A   1      45.987  22.327  24.592  1.00  0.00    -0.350 N 
ATOM     80  C   UNL A   1      45.930  23.610  25.057  1.00  0.00     0.224 C 
ATOM     81  H   UNL A   1      46.431  22.201  23.723  1.00  0.00     0.164 HD
ATOM     82  O   UNL A   1      46.577  24.472  24.464  1.00  0.00    -0.275 OA
BRANCH  80  83
ATOM     83  C   UNL A   1      45.020  23.964  26.244  1.00  0.00     0.094 C 
ATOM     84  C   UNL A   1      44.802  25.486  26.360  1.00  0.00     0.030 C 
ATOM     85  C   UNL A   1      45.573  23.577  27.612  1.00  0.00     0.150 C 
ATOM     86  C   UNL A   1      46.070  26.096  26.967  1.00  0.00     0.138 C 
ATOM     87  S   UNL A   1      46.765  24.827  28.011  1.00  0.00     0.151 S 
ATOM     88  O   UNL A   1      48.042  24.392  27.481  1.00  0.00    -0.229 OA
ATOM     89  O   UNL A   1      46.595  25.180  29.404  1.00  0.00    -0.229 OA
ENDBRANCH  80  83
ENDBRANCH  78  79
ENDBRANCH  71  74
ENDBRANCH  69  70
ENDBRANCH  68  69
ENDBRANCH   1  68
TORSDOF 15
ENDMDL
MODEL 2
REMARK VINA RESULT:     -10.7      4.291     13.149
REMARK SMILES O=C(NCCCNC(=O)[C@@H]1C=C[C@@H](NC(=O)[C@@H]2CCS(=O)(=O)C2)C1)c1ccc(-c2c3nc(c(-c4ccc(S(=O)(=O)[O-])cc4)c4ccc([nH]4)c(-c4ccc(S(=O)(=O)[O-])cc4)c4nc(c(-c5ccc(S(=O)(=O)[O-])cc5)c5ccc2[nH]5)C=C4)C=C3)cc1
REMARK SMILES IDX 4 1 3 2 1 3 2 4 25 6 26 7 84 8 27 9 83 10 28 11 29 12 30 13
REMARK SMILES IDX 77 14 31 15 82 16 76 17 78 18 32 19 81 20 75 21 74 22 33 24
REMARK SMILES IDX 63 25 44 26 62 27 45 28 48 29 61 30 79 31 46 32 47 33 60 35
REMARK SMILES IDX 80 36 49 37 34 38 35 39 43 40 36 41 42 42 37 43 38 44 39 45
REMARK SMILES IDX 40 46 41 47 64 48 65 49 73 50 66 51 72 52 67 53 68 54 69 55
REMARK SMILES IDX 70 56 71 57 50 58 51 59 59 60 52 61 58 62 53 63 54 64 55 65
REMARK SMILES IDX 56 66 57 67 5 68 6 69 7 70 8 71 9 73 10 74 11 75 24 76 12 77
REMARK SMILES IDX 13 78 14 79 15 80 16 82 17 83 18 84 23 85 19 86 20 87 21 88
REMARK SMILES IDX 22 89
REMARK H PARENT 3 5 78 23 48 34 7 72 14 81
REMARK Flexibility Score: inf
ROOT
ATOM      1  C   UNL A   1      36.368  32.623  29.141  1.00  0.00     0.118 C 
ENDROOT
BRANCH   1   2
ATOM      2  N   UNL A   1      36.011  31.690  30.203  1.00  0.00    -0.352 N 
ATOM      3  O   UNL A   1      36.029  29.763  31.363  1.00  0.00    -0.269 OA
ATOM      4  C   UNL A   1      36.609  30.511  30.582  1.00  0.00     0.251 C 
ATOM      5  H   UNL A   1      35.219  31.942  30.731  1.00  0.00     0.163 HD
BRANCH   4   6
ATOM      6  C   UNL A   1      37.934  30.141  30.038  1.00  0.00     0.039 A 
ATOM      7  C   UNL A   1      39.023  29.973  30.893  1.00  0.00     0.014 A 
ATOM      8  C   UNL A   1      38.089  29.937  28.663  1.00  0.00     0.014 A 
ATOM      9  C   UNL A   1      40.290  29.777  30.366  1.00  0.00     0.010 A 
ATOM     10  C   UNL A   1      39.348  29.615  28.145  1.00  0.00     0.010 A 
ATOM     11  C   UNL A   1      40.466  29.560  28.991  1.00  0.00    -0.014 A 
BRANCH  11  12
ATOM     12  C   UNL A   1      41.819  29.188  28.504  1.00  0.00     0.031 A 
ATOM     13  C   UNL A   1      42.945  30.183  28.470  1.00  0.00     0.074 A 
ATOM     14  C   UNL A   1      42.033  27.903  28.154  1.00  0.00     0.049 A 
ATOM     15  N   UNL A   1      44.198  29.987  28.145  1.00  0.00    -0.248 NA
ATOM     16  C   UNL A   1      42.633  31.572  28.842  1.00  0.00     0.031 C 
ATOM     17  C   UNL A   1      41.007  26.854  28.134  1.00  0.00     0.029 A 
ATOM     18  N   UNL A   1      43.179  27.248  27.788  1.00  0.00    -0.354 N 
ATOM     19  C   UNL A   1      44.822  31.222  28.267  1.00  0.00     0.074 A 
ATOM     20  C   UNL A   1      43.802  32.171  28.660  1.00  0.00     0.031 C 
ATOM     21  C   UNL A   1      41.581  25.680  27.841  1.00  0.00     0.029 A 
ATOM     22  C   UNL A   1      42.994  25.902  27.572  1.00  0.00     0.049 A 
ATOM     23  H   UNL A   1      44.050  27.697  27.688  1.00  0.00     0.167 HD
ATOM     24  C   UNL A   1      46.128  31.532  28.081  1.00  0.00     0.031 A 
ATOM     25  C   UNL A   1      43.859  24.949  27.177  1.00  0.00     0.031 A 
ATOM     26  C   UNL A   1      47.133  30.581  27.673  1.00  0.00     0.049 A 
ATOM     27  C   UNL A   1      45.291  25.332  26.939  1.00  0.00     0.074 A 
ATOM     28  C   UNL A   1      48.484  30.796  27.455  1.00  0.00     0.029 A 
ATOM     29  N   UNL A   1      46.899  29.237  27.420  1.00  0.00    -0.354 N 
ATOM     30  N   UNL A   1      45.864  26.503  27.084  1.00  0.00    -0.248 NA
ATOM     31  C   UNL A   1      46.193  24.266  26.488  1.00  0.00     0.031 C 
ATOM     32  C   UNL A   1      49.054  29.596  27.020  1.00  0.00     0.029 A 
ATOM     33  C   UNL A   1      48.076  28.616  27.032  1.00  0.00     0.049 A 
ATOM     34  H   UNL A   1      46.026  28.791  27.504  1.00  0.00     0.167 HD
ATOM     35  C   UNL A   1      47.200  26.311  26.755  1.00  0.00     0.074 A 
ATOM     36  C   UNL A   1      47.352  24.904  26.439  1.00  0.00     0.031 C 
ATOM     37  C   UNL A   1      48.207  27.216  26.712  1.00  0.00     0.031 A 
BRANCH  24  38
ATOM     38  C   UNL A   1      46.551  32.962  28.305  1.00  0.00    -0.014 A 
ATOM     39  C   UNL A   1      46.961  33.406  29.575  1.00  0.00     0.010 A 
ATOM     40  C   UNL A   1      46.599  33.859  27.222  1.00  0.00     0.010 A 
ATOM     41  C   UNL A   1      47.384  34.725  29.763  1.00  0.00     0.020 A 
ATOM     42  C   UNL A   1      47.047  35.172  27.399  1.00  0.00     0.020 A 
ATOM     43  C   UNL A   1      47.425  35.600  28.674  1.00  0.00     0.054 A 
BRANCH  43  44
ATOM     44  S   UNL A   1      48.010  37.295  28.946  1.00  0.00     0.124 S 
ATOM     45  O   UNL A   1      48.702  37.171  30.226  1.00  0.00    -0.237 OA
ATOM     46  O   UNL A   1      48.869  37.525  27.787  1.00  0.00    -0.237 OA
ATOM     47  O   UNL A   1      46.782  38.086  28.977  1.00  0.00    -0.744 OA
ENDBRANCH  43  44
ENDBRANCH  24  38
BRANCH  25  48
ATOM     48  C   UNL A   1      43.378  23.560  26.943  1.00  0.00    -0.014 A 
ATOM     49  C   UNL A   1      43.076  22.705  28.017  1.00  0.00     0.010 A 
ATOM     50  C   UNL A   1      43.216  23.088  25.627  1.00  0.00     0.010 A 
ATOM     51  C   UNL A   1      42.652  21.394  27.777  1.00  0.00     0.020 A 
ATOM     52  C   UNL A   1      42.757  21.794  25.382  1.00  0.00     0.020 A 
ATOM     53  C   UNL A   1      42.498  20.947  26.461  1.00  0.00     0.054 A 
BRANCH  53  54
ATOM     54  S   UNL A   1      41.926  19.250  26.170  1.00  0.00     0.124 S 
ATOM     55  O   UNL A   1      42.710  18.865  25.001  1.00  0.00    -0.237 OA
ATOM     56  O   UNL A   1      42.280  18.581  27.420  1.00  0.00    -0.237 OA
ATOM     57  O   UNL A   1      40.492  19.408  25.941  1.00  0.00    -0.744 OA
ENDBRANCH  53  54
ENDBRANCH  25  48
BRANCH  37  58
ATOM     58  C   UNL A   1      49.571  26.699  26.337  1.00  0.00    -0.014 A 
ATOM     59  C   UNL A   1      50.074  26.844  25.032  1.00  0.00     0.010 A 
ATOM     60  C   UNL A   1      50.366  26.070  27.313  1.00  0.00     0.010 A 
ATOM     61  C   UNL A   1      51.327  26.324  24.696  1.00  0.00     0.020 A 
ATOM     62  C   UNL A   1      51.633  25.580  26.990  1.00  0.00     0.020 A 
ATOM     63  C   UNL A   1      52.097  25.692  25.678  1.00  0.00     0.054 A 
BRANCH  63  64
ATOM     64  S   UNL A   1      53.726  25.041  25.223  1.00  0.00     0.124 S 
ATOM     65  O   UNL A   1      53.902  25.578  23.876  1.00  0.00    -0.237 OA
ATOM     66  O   UNL A   1      54.597  25.614  26.245  1.00  0.00    -0.237 OA
ATOM     67  O   UNL A   1      53.555  23.592  25.298  1.00  0.00    -0.744 OA
ENDBRANCH  63  64
ENDBRANCH  37  58
ENDBRANCH  11  12
ENDBRANCH   4   6
ENDBRANCH   1   2
BRANCH   1  68
ATOM     68  C   UNL A   1      35.793  34.007  29.391  1.00  0.00     0.042 C 
BRANCH  68  69
ATOM     69  C   UNL A   1      34.336  34.129  28.962  1.00  0.00     0.117 C 
BRANCH  69  70
ATOM     70  N   UNL A   1      33.957  35.510  28.732  1.00  0.00    -0.356 N 
ATOM     71  C   UNL A   1      33.405  36.463  29.527  1.00  0.00     0.227 C 
ATOM     72  H   UNL A   1      34.136  35.819  27.814  1.00  0.00     0.163 HD
ATOM     73  O   UNL A   1      33.278  37.583  29.016  1.00  0.00    -0.274 OA
BRANCH  71  74
ATOM     74  C   UNL A   1      32.941  36.241  30.977  1.00  0.00     0.103 C 
ATOM     75  C   UNL A   1      33.174  37.394  31.903  1.00  0.00    -0.016 C 
ATOM     76  C   UNL A   1      33.566  35.055  31.730  1.00  0.00     0.047 C 
ATOM     77  C   UNL A   1      34.028  37.071  32.880  1.00  0.00    -0.006 C 
ATOM     78  C   UNL A   1      34.560  35.684  32.707  1.00  0.00     0.106 C 
BRANCH  78  79
ATOM     79  N   UNL A   1      34.682  35.071  33.996  1.00  0.00    -0.350 N 
ATOM     80  C   UNL A   1      35.568  34.106  34.384  1.00  0.00     0.224 C 
ATOM     81  H   UNL A   1      34.050  35.381  34.684  1.00  0.00     0.164 HD
ATOM     82  O   UNL A   1      35.636  33.828  35.580  1.00  0.00    -0.275 OA
BRANCH  80  83
ATOM     83  C   UNL A   1      36.396  33.348  33.335  1.00  0.00     0.094 C 
ATOM     84  C   UNL A   1      37.136  32.145  33.954  1.00  0.00     0.030 C 
ATOM     85  C   UNL A   1      37.514  34.162  32.691  1.00  0.00     0.150 C 
ATOM     86  C   UNL A   1      38.346  32.686  34.725  1.00  0.00     0.138 C 
ATOM     87  S   UNL A   1      38.831  34.180  33.878  1.00  0.00     0.151 S 
ATOM     88  O   UNL A   1      38.623  35.328  34.738  1.00  0.00    -0.229 OA
ATOM     89  O   UNL A   1      40.075  33.969  33.171  1.00  0.00    -0.229 OA
ENDBRANCH  80  83
ENDBRANCH  78  79
ENDBRANCH  71  74
ENDBRANCH  69  70
ENDBRANCH  68  69
ENDBRANCH   1  68
TORSDOF 15
ENDMDL
MODEL 3
REMARK VINA RESULT:     -10.6      3.310     10.605
REMARK SMILES O=C(NCCCNC(=O)[C@@H]1C=C[C@@H](NC(=O)[C@@H]2CCS(=O)(=O)C2)C1)c1ccc(-c2c3nc(c(-c4ccc(S(=O)(=O)[O-])cc4)c4ccc([nH]4)c(-c4ccc(S(=O)(=O)[O-])cc4)c4nc(c(-c5ccc(S(=O)(=O)[O-])cc5)c5ccc2[nH]5)C=C4)C=C3)cc1
REMARK SMILES IDX 4 1 3 2 1 3 2 4 25 6 26 7 84 8 27 9 83 10 28 11 29 12 30 13
REMARK SMILES IDX 77 14 31 15 82 16 76 17 78 18 32 19 81 20 75 21 74 22 33 24
REMARK SMILES IDX 63 25 44 26 62 27 45 28 48 29 61 30 79 31 46 32 47 33 60 35
REMARK SMILES IDX 80 36 49 37 34 38 35 39 43 40 36 41 42 42 37 43 38 44 39 45
REMARK SMILES IDX 40 46 41 47 64 48 65 49 73 50 66 51 72 52 67 53 68 54 69 55
REMARK SMILES IDX 70 56 71 57 50 58 51 59 59 60 52 61 58 62 53 63 54 64 55 65
REMARK SMILES IDX 56 66 57 67 5 68 6 69 7 70 8 71 9 73 10 74 11 75 24 76 12 77
REMARK SMILES IDX 13 78 14 79 15 80 16 82 17 83 18 84 23 85 19 86 20 87 21 88
REMARK SMILES IDX 22 89
REMARK H PARENT 3 5 78 23 48 34 7 72 14 81
REMARK Flexibility Score: inf
ROOT
ATOM      1  C   UNL A   1      34.594  32.788  28.012  1.00  0.00     0.118 C 
ENDROOT
BRANCH   1   2
ATOM      2  N   UNL A   1      33.859  31.541  27.830  1.00  0.00    -0.352 N 
ATOM      3  O   UNL A   1      33.560  29.355  27.398  1.00  0.00    -0.269 OA
ATOM      4  C   UNL A   1      34.317  30.246  27.771  1.00  0.00     0.251 C 
ATOM      5  H   UNL A   1      32.884  31.642  27.734  1.00  0.00     0.163 HD
BRANCH   4   6
ATOM      6  C   UNL A   1      35.714  29.933  28.139  1.00  0.00     0.039 A 
ATOM      7  C   UNL A   1      36.736  30.068  27.199  1.00  0.00     0.014 A 
ATOM      8  C   UNL A   1      36.015  29.523  29.441  1.00  0.00     0.014 A 
ATOM      9  C   UNL A   1      38.016  29.631  27.502  1.00  0.00     0.010 A 
ATOM     10  C   UNL A   1      37.333  29.200  29.782  1.00  0.00     0.010 A 
ATOM     11  C   UNL A   1      38.340  29.225  28.806  1.00  0.00    -0.014 A 
BRANCH  11  12
ATOM     12  C   UNL A   1      39.762  28.927  29.117  1.00  0.00     0.031 A 
ATOM     13  C   UNL A   1      40.387  27.608  28.761  1.00  0.00     0.074 A 
ATOM     14  C   UNL A   1      40.506  29.907  29.669  1.00  0.00     0.049 A 
ATOM     15  N   UNL A   1      41.634  27.231  28.898  1.00  0.00    -0.248 NA
ATOM     16  C   UNL A   1      39.510  26.577  28.183  1.00  0.00     0.031 C 
ATOM     17  C   UNL A   1      39.998  31.224  30.072  1.00  0.00     0.029 A 
ATOM     18  N   UNL A   1      41.845  29.971  29.956  1.00  0.00    -0.354 N 
ATOM     19  C   UNL A   1      41.692  25.924  28.430  1.00  0.00     0.074 A 
ATOM     20  C   UNL A   1      40.347  25.558  28.040  1.00  0.00     0.031 C 
ATOM     21  C   UNL A   1      41.021  31.984  30.487  1.00  0.00     0.029 A 
ATOM     22  C   UNL A   1      42.239  31.188  30.460  1.00  0.00     0.049 A 
ATOM     23  H   UNL A   1      42.463  29.218  29.814  1.00  0.00     0.167 HD
ATOM     24  C   UNL A   1      42.771  25.111  28.325  1.00  0.00     0.031 A 
ATOM     25  C   UNL A   1      43.445  31.616  30.879  1.00  0.00     0.031 A 
ATOM     26  C   UNL A   1      44.103  25.481  28.732  1.00  0.00     0.049 A 
ATOM     27  C   UNL A   1      44.612  30.677  30.789  1.00  0.00     0.074 A 
ATOM     28  C   UNL A   1      45.264  24.727  28.669  1.00  0.00     0.029 A 
ATOM     29  N   UNL A   1      44.456  26.706  29.280  1.00  0.00    -0.354 N 
ATOM     30  N   UNL A   1      44.648  29.452  30.319  1.00  0.00    -0.248 NA
ATOM     31  C   UNL A   1      45.901  31.178  31.278  1.00  0.00     0.031 C 
ATOM     32  C   UNL A   1      46.304  25.477  29.227  1.00  0.00     0.029 A 
ATOM     33  C   UNL A   1      45.810  26.722  29.575  1.00  0.00     0.049 A 
ATOM     34  H   UNL A   1      43.834  27.453  29.437  1.00  0.00     0.167 HD
ATOM     35  C   UNL A   1      45.968  29.040  30.445  1.00  0.00     0.074 A 
ATOM     36  C   UNL A   1      46.703  30.160  31.001  1.00  0.00     0.031 C 
ATOM     37  C   UNL A   1      46.522  27.843  30.137  1.00  0.00     0.031 A 
BRANCH  24  38
ATOM     38  C   UNL A   1      42.558  23.731  27.755  1.00  0.00    -0.014 A 
ATOM     39  C   UNL A   1      42.759  23.472  26.387  1.00  0.00     0.010 A 
ATOM     40  C   UNL A   1      42.214  22.664  28.606  1.00  0.00     0.010 A 
ATOM     41  C   UNL A   1      42.593  22.182  25.877  1.00  0.00     0.020 A 
ATOM     42  C   UNL A   1      42.073  21.366  28.105  1.00  0.00     0.020 A 
ATOM     43  C   UNL A   1      42.251  21.137  26.739  1.00  0.00     0.054 A 
BRANCH  43  44
ATOM     44  S   UNL A   1      42.075  19.468  26.050  1.00  0.00     0.124 S 
ATOM     45  O   UNL A   1      40.638  19.396  25.801  1.00  0.00    -0.237 OA
ATOM     46  O   UNL A   1      42.917  19.525  24.857  1.00  0.00    -0.237 OA
ATOM     47  O   UNL A   1      42.565  18.598  27.116  1.00  0.00    -0.744 OA
ENDBRANCH  43  44
ENDBRANCH  24  38
BRANCH  25  48
ATOM     48  C   UNL A   1      43.588  32.978  31.460  1.00  0.00    -0.014 A 
ATOM     49  C   UNL A   1      43.858  34.091  30.646  1.00  0.00     0.010 A 
ATOM     50  C   UNL A   1      43.448  33.165  32.849  1.00  0.00     0.010 A 
ATOM     51  C   UNL A   1      44.017  35.359  31.215  1.00  0.00     0.020 A 
ATOM     52  C   UNL A   1      43.568  34.434  33.416  1.00  0.00     0.020 A 
ATOM     53  C   UNL A   1      43.873  35.521  32.596  1.00  0.00     0.054 A 
BRANCH  53  54
ATOM     54  S   UNL A   1      44.062  37.177  33.311  1.00  0.00     0.124 S 
ATOM     55  O   UNL A   1      43.926  38.030  32.134  1.00  0.00    -0.237 OA
ATOM     56  O   UNL A   1      42.959  37.235  34.267  1.00  0.00    -0.237 OA
ATOM     57  O   UNL A   1      45.394  37.141  33.910  1.00  0.00    -0.744 OA
ENDBRANCH  53  54
ENDBRANCH  25  48
BRANCH  37  58
ATOM     58  C   UNL A   1      48.004  27.699  30.366  1.00  0.00    -0.014 A 
ATOM     59  C   UNL A   1      48.933  28.024  29.362  1.00  0.00     0.010 A 
ATOM     60  C   UNL A   1      48.471  27.244  31.613  1.00  0.00     0.010 A 
ATOM     61  C   UNL A   1      50.302  27.849  29.584  1.00  0.00     0.020 A 
ATOM     62  C   UNL A   1      49.839  27.100  31.850  1.00  0.00     0.020 A 
ATOM     63  C   UNL A   1      50.746  27.384  30.827  1.00  0.00     0.054 A 
BRANCH  63  64
ATOM     64  S   UNL A   1      52.526  27.181  31.096  1.00  0.00     0.124 S 
ATOM     65  O   UNL A   1      52.722  27.870  32.368  1.00  0.00    -0.237 OA
ATOM     66  O   UNL A   1      52.680  25.729  31.137  1.00  0.00    -0.237 OA
ATOM     67  O   UNL A   1      53.130  27.833  29.935  1.00  0.00    -0.744 OA
ENDBRANCH  63  64
ENDBRANCH  37  58
ENDBRANCH  11  12
ENDBRANCH   4   6
ENDBRANCH   1   2
BRANCH   1  68
ATOM     68  C   UNL A   1      33.697  33.900  28.528  1.00  0.00     0.042 C 
BRANCH  68  69
ATOM     69  C   UNL A   1      34.161  34.462  29.866  1.00  0.00     0.117 C 
BRANCH  69  70
ATOM     70  N   UNL A   1      35.598  34.350  30.027  1.00  0.00    -0.356 N 
ATOM     71  C   UNL A   1      36.381  33.674  30.907  1.00  0.00     0.227 C 
ATOM     72  H   UNL A   1      36.109  34.869  29.364  1.00  0.00     0.163 HD
ATOM     73  O   UNL A   1      37.600  33.745  30.708  1.00  0.00    -0.274 OA
BRANCH  71  74
ATOM     74  C   UNL A   1      35.860  32.853  32.099  1.00  0.00     0.103 C 
ATOM     75  C   UNL A   1      35.667  33.625  33.367  1.00  0.00    -0.016 C 
ATOM     76  C   UNL A   1      36.717  31.657  32.544  1.00  0.00     0.047 C 
ATOM     77  C   UNL A   1      36.478  33.184  34.336  1.00  0.00    -0.006 C 
ATOM     78  C   UNL A   1      37.394  32.111  33.837  1.00  0.00     0.106 C 
BRANCH  78  79
ATOM     79  N   UNL A   1      37.557  31.128  34.866  1.00  0.00    -0.350 N 
ATOM     80  C   UNL A   1      38.636  30.943  35.684  1.00  0.00     0.224 C 
ATOM     81  H   UNL A   1      36.802  30.511  34.999  1.00  0.00     0.164 HD
ATOM     82  O   UNL A   1      38.522  30.159  36.625  1.00  0.00    -0.275 OA
BRANCH  80  83
ATOM     83  C   UNL A   1      39.968  31.645  35.380  1.00  0.00     0.094 C 
ATOM     84  C   UNL A   1      40.452  31.351  33.945  1.00  0.00     0.030 C 
ATOM     85  C   UNL A   1      41.140  31.200  36.250  1.00  0.00     0.150 C 
ATOM     86  C   UNL A   1      41.032  29.933  33.928  1.00  0.00     0.138 C 
ATOM     87  S   UNL A   1      41.673  29.652  35.570  1.00  0.00     0.151 S 
ATOM     88  O   UNL A   1      40.915  28.606  36.227  1.00  0.00    -0.229 OA
ATOM     89  O   UNL A   1      43.119  29.648  35.545  1.00  0.00    -0.229 OA
ENDBRANCH  80  83
ENDBRANCH  78  79
ENDBRANCH  71  74
ENDBRANCH  69  70
ENDBRANCH  68  69
ENDBRANCH   1  68
TORSDOF 15
ENDMDL
