MODEL 1
REMARK VINA RESULT:     -11.8      0.000      0.000
REMARK SMILES CC1=C2C(=O)CC(C)(C)CC2=N[C@@H]1C(=O)NCCCNC(=O)c1ccc(-c2c3nc(c(-c4ccc(S(=O)(=O)[O-])cc4)c4ccc([nH]4)c(-c4ccc(S(=O)(=O)[O-])cc4)c4nc(c(-c5ccc(S(=O)(=O)[O-])cc5)c5ccc2[nH]5)C=C4)C=C3)cc1
REMARK SMILES IDX 20 1 21 2 22 3 19 5 18 6 17 7 16 8 14 9 15 10 13 12 1 13
REMARK SMILES IDX 2 14 3 15 4 16 11 17 12 18 5 19 6 20 10 21 7 22 8 23 9 24
REMARK SMILES IDX 23 25 24 26 82 27 25 28 81 29 26 30 27 31 28 32 75 33 29 34
REMARK SMILES IDX 80 35 74 36 76 37 30 38 79 39 73 40 72 41 31 43 61 44 42 45
REMARK SMILES IDX 60 46 43 47 46 48 59 49 77 50 44 51 45 52 58 54 78 55 47 56
REMARK SMILES IDX 32 57 33 58 41 59 34 60 40 61 35 62 36 63 37 64 38 65 39 66
REMARK SMILES IDX 62 67 63 68 71 69 64 70 70 71 65 72 66 73 67 74 68 75 69 76
REMARK SMILES IDX 48 77 49 78 57 79 50 80 56 81 51 82 52 83 53 84 54 85 55 86
REMARK H PARENT 20 4 16 11 76 42 46 53
REMARK Flexibility Score: inf
ROOT
ATOM      1  N   UNL A   1      33.835  32.800  28.065  1.00  0.00    -0.352 N 
ATOM      2  C   UNL A   1      34.300  31.565  27.680  1.00  0.00     0.251 C 
ATOM      3  O   UNL A   1      33.652  30.900  26.868  1.00  0.00    -0.269 OA
ATOM      4  H   UNL A   1      32.879  32.969  27.900  1.00  0.00     0.163 HD
ENDROOT
BRANCH   1   5
ATOM      5  C   UNL A   1      34.573  33.895  28.688  1.00  0.00     0.118 C 
BRANCH   5   6
ATOM      6  C   UNL A   1      33.687  35.104  28.970  1.00  0.00     0.042 C 
BRANCH   6   7
ATOM      7  C   UNL A   1      33.837  35.603  30.410  1.00  0.00     0.117 C 
BRANCH   7   8
ATOM      8  N   UNL A   1      33.583  34.532  31.358  1.00  0.00    -0.354 N 
ATOM      9  C   UNL A   1      34.355  34.086  32.395  1.00  0.00     0.249 C 
ATOM     10  O   UNL A   1      34.023  33.046  32.969  1.00  0.00    -0.272 OA
ATOM     11  H   UNL A   1      32.729  34.056  31.237  1.00  0.00     0.163 HD
BRANCH   9  12
ATOM     12  C   UNL A   1      35.533  34.962  32.885  1.00  0.00     0.221 C 
ATOM     13  C   UNL A   1      37.214  34.103  31.053  1.00  0.00     0.043 C 
ATOM     14  C   UNL A   1      36.909  34.533  32.443  1.00  0.00    -0.027 C 
ATOM     15  C   UNL A   1      37.715  34.421  33.502  1.00  0.00     0.040 C 
ATOM     16  C   UNL A   1      39.116  34.038  33.722  1.00  0.00     0.165 C 
ATOM     17  C   UNL A   1      36.696  34.169  34.510  1.00  0.00     0.048 C 
ATOM     18  N   UNL A   1      35.535  34.735  34.367  1.00  0.00    -0.271 NA
ATOM     19  O   UNL A   1      40.031  34.696  33.232  1.00  0.00    -0.294 OA
ATOM     20  C   UNL A   1      39.363  32.892  34.690  1.00  0.00     0.088 C 
ATOM     21  C   UNL A   1      36.973  33.108  35.532  1.00  0.00     0.063 C 
ATOM     22  C   UNL A   1      38.066  32.113  35.023  1.00  0.00    -0.023 C 
ATOM     23  C   UNL A   1      37.645  31.303  33.766  1.00  0.00     0.012 C 
ATOM     24  C   UNL A   1      38.321  31.090  36.141  1.00  0.00     0.012 C 
ENDBRANCH   9  12
ENDBRANCH   7   8
ENDBRANCH   6   7
ENDBRANCH   5   6
ENDBRANCH   1   5
BRANCH   2  25
ATOM     25  C   UNL A   1      35.576  31.051  28.213  1.00  0.00     0.039 A 
ATOM     26  C   UNL A   1      35.705  29.696  28.525  1.00  0.00     0.014 A 
ATOM     27  C   UNL A   1      36.649  31.923  28.410  1.00  0.00     0.014 A 
ATOM     28  C   UNL A   1      36.941  29.213  28.947  1.00  0.00     0.010 A 
ATOM     29  C   UNL A   1      37.899  31.428  28.729  1.00  0.00     0.010 A 
ATOM     30  C   UNL A   1      38.050  30.076  29.016  1.00  0.00    -0.014 A 
BRANCH  30  31
ATOM     31  C   UNL A   1      39.383  29.514  29.232  1.00  0.00     0.031 A 
ATOM     32  C   UNL A   1      39.708  29.254  30.662  1.00  0.00     0.074 A 
ATOM     33  C   UNL A   1      40.222  29.081  28.267  1.00  0.00     0.049 A 
ATOM     34  N   UNL A   1      40.522  29.918  31.409  1.00  0.00    -0.248 NA
ATOM     35  C   UNL A   1      38.927  28.238  31.387  1.00  0.00     0.031 C 
ATOM     36  C   UNL A   1      39.973  28.953  26.830  1.00  0.00     0.029 A 
ATOM     37  N   UNL A   1      41.473  28.556  28.401  1.00  0.00    -0.354 N 
ATOM     38  C   UNL A   1      40.537  29.270  32.640  1.00  0.00     0.074 A 
ATOM     39  C   UNL A   1      39.411  28.369  32.625  1.00  0.00     0.031 C 
ATOM     40  C   UNL A   1      40.932  28.178  26.274  1.00  0.00     0.029 A 
ATOM     41  C   UNL A   1      41.946  27.893  27.274  1.00  0.00     0.049 A 
ATOM     42  H   UNL A   1      41.999  28.639  29.229  1.00  0.00     0.167 HD
ATOM     43  C   UNL A   1      41.613  29.358  33.472  1.00  0.00     0.031 A 
ATOM     44  C   UNL A   1      43.070  27.137  27.179  1.00  0.00     0.031 A 
ATOM     45  C   UNL A   1      42.512  30.410  33.064  1.00  0.00     0.049 A 
ATOM     46  C   UNL A   1      43.970  27.552  28.285  1.00  0.00     0.074 A 
ATOM     47  C   UNL A   1      42.380  31.767  32.839  1.00  0.00     0.029 A 
ATOM     48  N   UNL A   1      43.669  30.032  32.423  1.00  0.00    -0.354 N 
ATOM     49  N   UNL A   1      44.534  28.726  28.346  1.00  0.00    -0.248 NA
ATOM     50  C   UNL A   1      43.882  26.835  29.547  1.00  0.00     0.031 C 
ATOM     51  C   UNL A   1      43.163  32.019  31.675  1.00  0.00     0.029 A 
ATOM     52  C   UNL A   1      43.798  30.829  31.316  1.00  0.00     0.049 A 
ATOM     53  H   UNL A   1      44.289  29.323  32.705  1.00  0.00     0.167 HD
ATOM     54  C   UNL A   1      44.461  29.081  29.685  1.00  0.00     0.074 A 
ATOM     55  C   UNL A   1      44.137  27.841  30.388  1.00  0.00     0.031 C 
ATOM     56  C   UNL A   1      44.394  30.390  30.072  1.00  0.00     0.031 A 
BRANCH  43  57
ATOM     57  C   UNL A   1      42.067  28.244  34.389  1.00  0.00    -0.014 A 
ATOM     58  C   UNL A   1      42.096  28.488  35.779  1.00  0.00     0.010 A 
ATOM     59  C   UNL A   1      42.734  27.090  33.931  1.00  0.00     0.010 A 
ATOM     60  C   UNL A   1      42.840  27.678  36.647  1.00  0.00     0.020 A 
ATOM     61  C   UNL A   1      43.438  26.249  34.795  1.00  0.00     0.020 A 
ATOM     62  C   UNL A   1      43.521  26.571  36.142  1.00  0.00     0.054 A 
BRANCH  62  63
ATOM     63  S   UNL A   1      44.561  25.593  37.252  1.00  0.00     0.124 S 
ATOM     64  O   UNL A   1      44.283  24.234  36.799  1.00  0.00    -0.237 OA
ATOM     65  O   UNL A   1      45.896  26.103  36.951  1.00  0.00    -0.237 OA
ATOM     66  O   UNL A   1      44.054  25.931  38.580  1.00  0.00    -0.744 OA
ENDBRANCH  62  63
ENDBRANCH  43  57
BRANCH  44  67
ATOM     67  C   UNL A   1      43.293  25.901  26.381  1.00  0.00    -0.014 A 
ATOM     68  C   UNL A   1      44.414  25.775  25.536  1.00  0.00     0.010 A 
ATOM     69  C   UNL A   1      42.562  24.730  26.668  1.00  0.00     0.010 A 
ATOM     70  C   UNL A   1      44.831  24.517  25.064  1.00  0.00     0.020 A 
ATOM     71  C   UNL A   1      42.965  23.476  26.193  1.00  0.00     0.020 A 
ATOM     72  C   UNL A   1      44.116  23.371  25.418  1.00  0.00     0.054 A 
BRANCH  72  73
ATOM     73  S   UNL A   1      44.771  21.731  24.982  1.00  0.00     0.124 S 
ATOM     74  O   UNL A   1      44.694  21.741  23.524  1.00  0.00    -0.237 OA
ATOM     75  O   UNL A   1      46.118  21.765  25.544  1.00  0.00    -0.237 OA
ATOM     76  O   UNL A   1      43.851  20.806  25.644  1.00  0.00    -0.744 OA
ENDBRANCH  72  73
ENDBRANCH  44  67
BRANCH  56  77
ATOM     77  C   UNL A   1      44.740  31.479  29.082  1.00  0.00    -0.014 A 
ATOM     78  C   UNL A   1      46.025  32.030  28.916  1.00  0.00     0.010 A 
ATOM     79  C   UNL A   1      43.733  31.849  28.172  1.00  0.00     0.010 A 
ATOM     80  C   UNL A   1      46.282  32.947  27.883  1.00  0.00     0.020 A 
ATOM     81  C   UNL A   1      43.988  32.741  27.129  1.00  0.00     0.020 A 
ATOM     82  C   UNL A   1      45.258  33.297  26.996  1.00  0.00     0.054 A 
BRANCH  82  83
ATOM     83  S   UNL A   1      45.599  34.453  25.640  1.00  0.00     0.124 S 
ATOM     84  O   UNL A   1      45.160  35.731  26.196  1.00  0.00    -0.237 OA
ATOM     85  O   UNL A   1      47.040  34.311  25.445  1.00  0.00    -0.237 OA
ATOM     86  O   UNL A   1      44.781  33.948  24.537  1.00  0.00    -0.744 OA
ENDBRANCH  82  83
ENDBRANCH  56  77
ENDBRANCH  30  31
ENDBRANCH   2  25
TORSDOF 13
ENDMDL
MODEL 2
REMARK VINA RESULT:     -11.8      3.012     11.717
REMARK SMILES CC1=C2C(=O)CC(C)(C)CC2=N[C@@H]1C(=O)NCCCNC(=O)c1ccc(-c2c3nc(c(-c4ccc(S(=O)(=O)[O-])cc4)c4ccc([nH]4)c(-c4ccc(S(=O)(=O)[O-])cc4)c4nc(c(-c5ccc(S(=O)(=O)[O-])cc5)c5ccc2[nH]5)C=C4)C=C3)cc1
REMARK SMILES IDX 20 1 21 2 22 3 19 5 18 6 17 7 16 8 14 9 15 10 13 12 1 13
REMARK SMILES IDX 2 14 3 15 4 16 11 17 12 18 5 19 6 20 10 21 7 22 8 23 9 24
REMARK SMILES IDX 23 25 24 26 82 27 25 28 81 29 26 30 27 31 28 32 75 33 29 34
REMARK SMILES IDX 80 35 74 36 76 37 30 38 79 39 73 40 72 41 31 43 61 44 42 45
REMARK SMILES IDX 60 46 43 47 46 48 59 49 77 50 44 51 45 52 58 54 78 55 47 56
REMARK SMILES IDX 32 57 33 58 41 59 34 60 40 61 35 62 36 63 37 64 38 65 39 66
REMARK SMILES IDX 62 67 63 68 71 69 64 70 70 71 65 72 66 73 67 74 68 75 69 76
REMARK SMILES IDX 48 77 49 78 57 79 50 80 56 81 51 82 52 83 53 84 54 85 55 86
REMARK H PARENT 20 4 16 11 76 42 46 53
REMARK Flexibility Score: inf
ROOT
ATOM      1  N   UNL A   1      40.188  20.996  26.179  1.00  0.00    -0.352 N 
ATOM      2  C   UNL A   1      39.308  22.036  26.365  1.00  0.00     0.251 C 
ATOM      3  O   UNL A   1      38.107  21.859  26.152  1.00  0.00    -0.269 OA
ATOM      4  H   UNL A   1      39.864  20.255  25.617  1.00  0.00     0.163 HD
ENDROOT
BRANCH   1   5
ATOM      5  C   UNL A   1      41.542  20.845  26.706  1.00  0.00     0.118 C 
BRANCH   5   6
ATOM      6  C   UNL A   1      42.214  19.566  26.218  1.00  0.00     0.042 C 
BRANCH   6   7
ATOM      7  C   UNL A   1      43.680  19.797  25.841  1.00  0.00     0.117 C 
BRANCH   7   8
ATOM      8  N   UNL A   1      43.787  20.693  24.703  1.00  0.00    -0.354 N 
ATOM      9  C   UNL A   1      44.558  21.812  24.546  1.00  0.00     0.249 C 
ATOM     10  O   UNL A   1      44.364  22.524  23.557  1.00  0.00    -0.272 OA
ATOM     11  H   UNL A   1      43.221  20.463  23.930  1.00  0.00     0.163 HD
BRANCH   9  12
ATOM     12  C   UNL A   1      45.717  22.071  25.538  1.00  0.00     0.221 C 
ATOM     13  C   UNL A   1      44.158  22.966  27.459  1.00  0.00     0.043 C 
ATOM     14  C   UNL A   1      45.421  23.016  26.675  1.00  0.00    -0.027 C 
ATOM     15  C   UNL A   1      46.346  23.976  26.724  1.00  0.00     0.040 C 
ATOM     16  C   UNL A   1      46.593  25.159  27.561  1.00  0.00     0.165 C 
ATOM     17  C   UNL A   1      46.750  23.944  25.326  1.00  0.00     0.048 C 
ATOM     18  N   UNL A   1      46.724  22.804  24.703  1.00  0.00    -0.271 NA
ATOM     19  O   UNL A   1      46.809  25.040  28.765  1.00  0.00    -0.294 OA
ATOM     20  C   UNL A   1      46.708  26.491  26.838  1.00  0.00     0.088 C 
ATOM     21  C   UNL A   1      46.964  25.255  24.630  1.00  0.00     0.063 C 
ATOM     22  C   UNL A   1      46.215  26.410  25.372  1.00  0.00    -0.023 C 
ATOM     23  C   UNL A   1      44.670  26.255  25.383  1.00  0.00     0.012 C 
ATOM     24  C   UNL A   1      46.522  27.718  24.625  1.00  0.00     0.012 C 
ENDBRANCH   9  12
ENDBRANCH   7   8
ENDBRANCH   6   7
ENDBRANCH   5   6
ENDBRANCH   1   5
BRANCH   2  25
ATOM     25  C   UNL A   1      39.795  23.345  26.842  1.00  0.00     0.039 A 
ATOM     26  C   UNL A   1      39.340  24.518  26.237  1.00  0.00     0.014 A 
ATOM     27  C   UNL A   1      40.712  23.406  27.893  1.00  0.00     0.014 A 
ATOM     28  C   UNL A   1      39.743  25.747  26.753  1.00  0.00     0.010 A 
ATOM     29  C   UNL A   1      41.031  24.621  28.470  1.00  0.00     0.010 A 
ATOM     30  C   UNL A   1      40.564  25.797  27.895  1.00  0.00    -0.014 A 
BRANCH  30  31
ATOM     31  C   UNL A   1      40.786  27.080  28.561  1.00  0.00     0.031 A 
ATOM     32  C   UNL A   1      41.885  27.891  27.967  1.00  0.00     0.074 A 
ATOM     33  C   UNL A   1      39.998  27.622  29.513  1.00  0.00     0.049 A 
ATOM     34  N   UNL A   1      43.053  28.108  28.469  1.00  0.00    -0.248 NA
ATOM     35  C   UNL A   1      41.727  28.389  26.591  1.00  0.00     0.031 C 
ATOM     36  C   UNL A   1      38.706  27.142  30.011  1.00  0.00     0.029 A 
ATOM     37  N   UNL A   1      40.153  28.804  30.175  1.00  0.00    -0.354 N 
ATOM     38  C   UNL A   1      43.704  28.961  27.585  1.00  0.00     0.074 A 
ATOM     39  C   UNL A   1      42.919  28.949  26.374  1.00  0.00     0.031 C 
ATOM     40  C   UNL A   1      38.096  28.130  30.704  1.00  0.00     0.029 A 
ATOM     41  C   UNL A   1      39.015  29.247  30.841  1.00  0.00     0.049 A 
ATOM     42  H   UNL A   1      41.001  29.303  30.182  1.00  0.00     0.167 HD
ATOM     43  C   UNL A   1      44.702  29.789  28.005  1.00  0.00     0.031 A 
ATOM     44  C   UNL A   1      38.829  30.457  31.429  1.00  0.00     0.031 A 
ATOM     45  C   UNL A   1      45.167  29.428  29.323  1.00  0.00     0.049 A 
ATOM     46  C   UNL A   1      40.175  31.016  31.711  1.00  0.00     0.074 A 
ATOM     47  C   UNL A   1      45.672  28.276  29.892  1.00  0.00     0.029 A 
ATOM     48  N   UNL A   1      44.750  30.216  30.372  1.00  0.00    -0.354 N 
ATOM     49  N   UNL A   1      40.995  30.503  32.584  1.00  0.00    -0.248 NA
ATOM     50  C   UNL A   1      40.788  31.869  30.705  1.00  0.00     0.031 C 
ATOM     51  C   UNL A   1      45.071  28.216  31.184  1.00  0.00     0.029 A 
ATOM     52  C   UNL A   1      44.315  29.375  31.362  1.00  0.00     0.049 A 
ATOM     53  H   UNL A   1      44.762  31.199  30.406  1.00  0.00     0.167 HD
ATOM     54  C   UNL A   1      42.245  30.590  31.987  1.00  0.00     0.074 A 
ATOM     55  C   UNL A   1      42.067  31.523  30.876  1.00  0.00     0.031 C 
ATOM     56  C   UNL A   1      43.235  29.692  32.272  1.00  0.00     0.031 A 
BRANCH  43  57
ATOM     57  C   UNL A   1      44.967  31.160  27.424  1.00  0.00    -0.014 A 
ATOM     58  C   UNL A   1      46.252  31.434  26.907  1.00  0.00     0.010 A 
ATOM     59  C   UNL A   1      44.115  32.264  27.627  1.00  0.00     0.010 A 
ATOM     60  C   UNL A   1      46.693  32.747  26.705  1.00  0.00     0.020 A 
ATOM     61  C   UNL A   1      44.528  33.575  27.383  1.00  0.00     0.020 A 
ATOM     62  C   UNL A   1      45.830  33.811  26.962  1.00  0.00     0.054 A 
BRANCH  62  63
ATOM     63  S   UNL A   1      46.441  35.505  26.798  1.00  0.00     0.124 S 
ATOM     64  O   UNL A   1      47.243  35.416  25.581  1.00  0.00    -0.237 OA
ATOM     65  O   UNL A   1      45.202  36.270  26.688  1.00  0.00    -0.237 OA
ATOM     66  O   UNL A   1      47.192  35.717  28.033  1.00  0.00    -0.744 OA
ENDBRANCH  62  63
ENDBRANCH  43  57
BRANCH  44  67
ATOM     67  C   UNL A   1      37.587  31.273  31.503  1.00  0.00    -0.014 A 
ATOM     68  C   UNL A   1      36.793  31.283  32.668  1.00  0.00     0.010 A 
ATOM     69  C   UNL A   1      37.334  32.267  30.536  1.00  0.00     0.010 A 
ATOM     70  C   UNL A   1      35.841  32.295  32.890  1.00  0.00     0.020 A 
ATOM     71  C   UNL A   1      36.380  33.271  30.745  1.00  0.00     0.020 A 
ATOM     72  C   UNL A   1      35.659  33.299  31.936  1.00  0.00     0.054 A 
BRANCH  72  73
ATOM     73  S   UNL A   1      34.583  34.716  32.313  1.00  0.00     0.124 S 
ATOM     74  O   UNL A   1      35.468  35.583  33.086  1.00  0.00    -0.237 OA
ATOM     75  O   UNL A   1      34.221  35.204  30.985  1.00  0.00    -0.237 OA
ATOM     76  O   UNL A   1      33.483  34.121  33.071  1.00  0.00    -0.744 OA
ENDBRANCH  72  73
ENDBRANCH  44  67
BRANCH  56  77
ATOM     77  C   UNL A   1      43.106  28.800  33.486  1.00  0.00    -0.014 A 
ATOM     78  C   UNL A   1      43.645  29.091  34.753  1.00  0.00     0.010 A 
ATOM     79  C   UNL A   1      42.262  27.681  33.361  1.00  0.00     0.010 A 
ATOM     80  C   UNL A   1      43.367  28.266  35.856  1.00  0.00     0.020 A 
ATOM     81  C   UNL A   1      41.962  26.871  34.457  1.00  0.00     0.020 A 
ATOM     82  C   UNL A   1      42.525  27.159  35.698  1.00  0.00     0.054 A 
BRANCH  82  83
ATOM     83  S   UNL A   1      42.137  26.114  37.129  1.00  0.00     0.124 S 
ATOM     84  O   UNL A   1      42.407  24.771  36.623  1.00  0.00    -0.237 OA
ATOM     85  O   UNL A   1      43.060  26.603  38.149  1.00  0.00    -0.237 OA
ATOM     86  O   UNL A   1      40.726  26.399  37.396  1.00  0.00    -0.744 OA
ENDBRANCH  82  83
ENDBRANCH  56  77
ENDBRANCH  30  31
ENDBRANCH   2  25
TORSDOF 13
ENDMDL
MODEL 3
REMARK VINA RESULT:     -11.8      4.956      9.641
REMARK SMILES CC1=C2C(=O)CC(C)(C)CC2=N[C@@H]1C(=O)NCCCNC(=O)c1ccc(-c2c3nc(c(-c4ccc(S(=O)(=O)[O-])cc4)c4ccc([nH]4)c(-c4ccc(S(=O)(=O)[O-])cc4)c4nc(c(-c5ccc(S(=O)(=O)[O-])cc5)c5ccc2[nH]5)C=C4)C=C3)cc1
REMARK SMILES IDX 20 1 21 2 22 3 19 5 18 6 17 7 16 8 14 9 15 10 13 12 1 13
REMARK SMILES IDX 2 14 3 15 4 16 11 17 12 18 5 19 6 20 10 21 7 22 8 23 9 24
REMARK SMILES IDX 23 25 24 26 82 27 25 28 81 29 26 30 27 31 28 32 75 33 29 34
REMARK SMILES IDX 80 35 74 36 76 37 30 38 79 39 73 40 72 41 31 43 61 44 42 45
REMARK SMILES IDX 60 46 43 47 46 48 59 49 77 50 44 51 45 52 58 54 78 55 47 56
REMARK SMILES IDX 32 57 33 58 41 59 34 60 40 61 35 62 36 63 37 64 38 65 39 66
REMARK SMILES IDX 62 67 63 68 71 69 64 70 70 71 65 72 66 73 67 74 68 75 69 76
REMARK SMILES IDX 48 77 49 78 57 79 50 80 56 81 51 82 52 83 53 84 54 85 55 86
REMARK H PARENT 20 4 16 11 76 42 46 53
REMARK Flexibility Score: inf
ROOT
ATOM      1  N   UNL A   1      36.181  20.678  25.436  1.00  0.00    -0.352 N 
ATOM      2  C   UNL A   1      37.536  20.503  25.278  1.00  0.00     0.251 C 
ATOM      3  O   UNL A   1      37.953  19.514  24.670  1.00  0.00    -0.269 OA
ATOM      4  H   UNL A   1      35.628  19.873  25.312  1.00  0.00     0.163 HD
ENDROOT
BRANCH   1   5
ATOM      5  C   UNL A   1      35.455  21.901  25.764  1.00  0.00     0.118 C 
BRANCH   5   6
ATOM      6  C   UNL A   1      34.799  21.834  27.140  1.00  0.00     0.042 C 
BRANCH   6   7
ATOM      7  C   UNL A   1      33.342  21.373  27.059  1.00  0.00     0.117 C 
BRANCH   7   8
ATOM      8  N   UNL A   1      32.435  22.468  27.355  1.00  0.00    -0.354 N 
ATOM      9  C   UNL A   1      32.022  23.497  26.554  1.00  0.00     0.249 C 
ATOM     10  O   UNL A   1      31.379  24.417  27.065  1.00  0.00    -0.272 OA
ATOM     11  H   UNL A   1      32.062  22.472  28.267  1.00  0.00     0.163 HD
BRANCH   9  12
ATOM     12  C   UNL A   1      32.265  23.405  25.028  1.00  0.00     0.221 C 
ATOM     13  C   UNL A   1      34.205  25.182  25.014  1.00  0.00     0.043 C 
ATOM     14  C   UNL A   1      33.000  24.563  24.401  1.00  0.00    -0.027 C 
ATOM     15  C   UNL A   1      32.306  25.037  23.364  1.00  0.00     0.040 C 
ATOM     16  C   UNL A   1      32.477  26.126  22.393  1.00  0.00     0.165 C 
ATOM     17  C   UNL A   1      30.983  24.603  23.786  1.00  0.00     0.048 C 
ATOM     18  N   UNL A   1      30.882  23.493  24.456  1.00  0.00    -0.271 NA
ATOM     19  O   UNL A   1      33.431  26.132  21.618  1.00  0.00    -0.294 OA
ATOM     20  C   UNL A   1      31.351  27.144  22.309  1.00  0.00     0.088 C 
ATOM     21  C   UNL A   1      29.846  25.565  23.615  1.00  0.00     0.063 C 
ATOM     22  C   UNL A   1      30.368  27.034  23.500  1.00  0.00    -0.023 C 
ATOM     23  C   UNL A   1      31.086  27.549  24.778  1.00  0.00     0.012 C 
ATOM     24  C   UNL A   1      29.149  27.945  23.282  1.00  0.00     0.012 C 
ENDBRANCH   9  12
ENDBRANCH   7   8
ENDBRANCH   6   7
ENDBRANCH   5   6
ENDBRANCH   1   5
BRANCH   2  25
ATOM     25  C   UNL A   1      38.481  21.505  25.808  1.00  0.00     0.039 A 
ATOM     26  C   UNL A   1      38.166  22.863  25.739  1.00  0.00     0.014 A 
ATOM     27  C   UNL A   1      39.690  21.092  26.372  1.00  0.00     0.014 A 
ATOM     28  C   UNL A   1      39.029  23.789  26.319  1.00  0.00     0.010 A 
ATOM     29  C   UNL A   1      40.495  21.997  27.036  1.00  0.00     0.010 A 
ATOM     30  C   UNL A   1      40.180  23.351  26.999  1.00  0.00    -0.014 A 
BRANCH  30  31
ATOM     31  C   UNL A   1      40.947  24.307  27.798  1.00  0.00     0.031 A 
ATOM     32  C   UNL A   1      40.249  25.602  28.029  1.00  0.00     0.074 A 
ATOM     33  C   UNL A   1      42.102  24.046  28.445  1.00  0.00     0.049 A 
ATOM     34  N   UNL A   1      40.525  26.742  27.492  1.00  0.00    -0.248 NA
ATOM     35  C   UNL A   1      39.012  25.603  28.825  1.00  0.00     0.031 C 
ATOM     36  C   UNL A   1      42.787  22.763  28.610  1.00  0.00     0.029 A 
ATOM     37  N   UNL A   1      42.865  24.891  29.196  1.00  0.00    -0.354 N 
ATOM     38  C   UNL A   1      39.644  27.660  28.054  1.00  0.00     0.074 A 
ATOM     39  C   UNL A   1      38.629  26.878  28.716  1.00  0.00     0.031 C 
ATOM     40  C   UNL A   1      43.713  22.868  29.591  1.00  0.00     0.029 A 
ATOM     41  C   UNL A   1      43.801  24.257  30.007  1.00  0.00     0.049 A 
ATOM     42  H   UNL A   1      42.762  25.869  29.167  1.00  0.00     0.167 HD
ATOM     43  C   UNL A   1      39.955  28.985  28.128  1.00  0.00     0.031 A 
ATOM     44  C   UNL A   1      44.567  24.826  30.974  1.00  0.00     0.031 A 
ATOM     45  C   UNL A   1      41.092  29.308  27.299  1.00  0.00     0.049 A 
ATOM     46  C   UNL A   1      44.636  26.279  30.676  1.00  0.00     0.074 A 
ATOM     47  C   UNL A   1      41.391  29.154  25.960  1.00  0.00     0.029 A 
ATOM     48  N   UNL A   1      42.297  29.501  27.936  1.00  0.00    -0.354 N 
ATOM     49  N   UNL A   1      45.249  26.768  29.634  1.00  0.00    -0.248 NA
ATOM     50  C   UNL A   1      43.645  27.153  31.283  1.00  0.00     0.031 C 
ATOM     51  C   UNL A   1      42.760  28.755  25.938  1.00  0.00     0.029 A 
ATOM     52  C   UNL A   1      43.238  28.781  27.249  1.00  0.00     0.049 A 
ATOM     53  H   UNL A   1      42.454  30.054  28.734  1.00  0.00     0.167 HD
ATOM     54  C   UNL A   1      44.425  27.792  29.190  1.00  0.00     0.074 A 
ATOM     55  C   UNL A   1      43.504  28.043  30.297  1.00  0.00     0.031 C 
ATOM     56  C   UNL A   1      44.383  28.150  27.871  1.00  0.00     0.031 A 
BRANCH  43  57
ATOM     57  C   UNL A   1      39.514  29.897  29.251  1.00  0.00    -0.014 A 
ATOM     58  C   UNL A   1      39.974  29.625  30.558  1.00  0.00     0.010 A 
ATOM     59  C   UNL A   1      38.454  30.817  29.129  1.00  0.00     0.010 A 
ATOM     60  C   UNL A   1      39.338  30.163  31.683  1.00  0.00     0.020 A 
ATOM     61  C   UNL A   1      37.843  31.397  30.242  1.00  0.00     0.020 A 
ATOM     62  C   UNL A   1      38.263  31.034  31.515  1.00  0.00     0.054 A 
BRANCH  62  63
ATOM     63  S   UNL A   1      37.382  31.642  32.972  1.00  0.00     0.124 S 
ATOM     64  O   UNL A   1      37.873  30.745  34.013  1.00  0.00    -0.237 OA
ATOM     65  O   UNL A   1      37.843  33.025  33.056  1.00  0.00    -0.237 OA
ATOM     66  O   UNL A   1      35.976  31.480  32.613  1.00  0.00    -0.744 OA
ENDBRANCH  62  63
ENDBRANCH  43  57
BRANCH  44  67
ATOM     67  C   UNL A   1      44.999  24.251  32.275  1.00  0.00    -0.014 A 
ATOM     68  C   UNL A   1      46.127  24.754  32.954  1.00  0.00     0.010 A 
ATOM     69  C   UNL A   1      44.136  23.398  32.995  1.00  0.00     0.010 A 
ATOM     70  C   UNL A   1      46.337  24.481  34.318  1.00  0.00     0.020 A 
ATOM     71  C   UNL A   1      44.345  23.113  34.349  1.00  0.00     0.020 A 
ATOM     72  C   UNL A   1      45.428  23.681  35.014  1.00  0.00     0.054 A 
BRANCH  72  73
ATOM     73  S   UNL A   1      45.586  23.498  36.817  1.00  0.00     0.124 S 
ATOM     74  O   UNL A   1      46.890  24.099  37.079  1.00  0.00    -0.237 OA
ATOM     75  O   UNL A   1      44.434  24.244  37.315  1.00  0.00    -0.237 OA
ATOM     76  O   UNL A   1      45.517  22.052  37.024  1.00  0.00    -0.744 OA
ENDBRANCH  72  73
ENDBRANCH  44  67
BRANCH  56  77
ATOM     77  C   UNL A   1      45.471  27.679  26.934  1.00  0.00    -0.014 A 
ATOM     78  C   UNL A   1      45.436  26.472  26.211  1.00  0.00     0.010 A 
ATOM     79  C   UNL A   1      46.511  28.588  26.665  1.00  0.00     0.010 A 
ATOM     80  C   UNL A   1      46.432  26.175  25.265  1.00  0.00     0.020 A 
ATOM     81  C   UNL A   1      47.490  28.311  25.710  1.00  0.00     0.020 A 
ATOM     82  C   UNL A   1      47.454  27.100  25.023  1.00  0.00     0.054 A 
BRANCH  82  83
ATOM     83  S   UNL A   1      48.721  26.733  23.776  1.00  0.00     0.124 S 
ATOM     84  O   UNL A   1      48.221  25.502  23.170  1.00  0.00    -0.237 OA
ATOM     85  O   UNL A   1      48.687  27.916  22.920  1.00  0.00    -0.237 OA
ATOM     86  O   UNL A   1      49.947  26.581  24.559  1.00  0.00    -0.744 OA
ENDBRANCH  82  83
ENDBRANCH  56  77
ENDBRANCH  30  31
ENDBRANCH   2  25
TORSDOF 13
ENDMDL
