MODEL 1
REMARK VINA RESULT:     -13.3      0.000      0.000
REMARK SMILES Cc1ccc(CNc2ccc(C(=O)NCCCNC(=O)c3ccc(-c4c5nc(c(-c6ccc(S(=O)(=O)[O-])cc6)c6ccc([nH]6)c(-c6ccc(S(=O)(=O)[O-])cc6)c6nc(c(-c7ccc(S(=O)(=O)[O-])cc7)c7ccc4[nH]7)C=C6)C=C5)cc3)cc2Br)cc1
REMARK SMILES IDX 16 1 15 2 14 3 12 4 13 5 11 7 8 8 9 9 82 10 10 11 81 12
REMARK SMILES IDX 83 13 7 14 6 16 5 17 1 18 2 19 3 20 85 21 4 22 84 23 17 24
REMARK SMILES IDX 18 25 19 26 20 28 21 29 22 30 80 31 23 32 79 33 24 34 25 35
REMARK SMILES IDX 26 36 73 37 27 38 78 39 72 40 74 41 28 42 77 43 71 44 70 45
REMARK SMILES IDX 29 47 59 48 40 49 58 50 41 51 44 52 57 53 75 54 42 55 43 56
REMARK SMILES IDX 56 58 76 59 45 60 30 61 31 62 39 63 32 64 38 65 33 66 34 67
REMARK SMILES IDX 35 68 36 69 37 70 60 71 61 72 69 73 62 74 68 75 63 76 64 77
REMARK SMILES IDX 65 78 66 79 67 80 46 81 47 82 55 83 48 84 54 85 49 86 50 87
REMARK SMILES IDX 51 88 52 89 53 90
REMARK H PARENT 14 6 7 15 18 27 74 46 44 57
REMARK Flexibility Score: inf
ROOT
ATOM      1  C   UNL A   1      33.810  29.427  25.907  1.00  0.00     0.042 C 
ENDROOT
BRANCH   1   2
ATOM      2  C   UNL A   1      32.335  29.833  25.924  1.00  0.00     0.118 C 
BRANCH   2   3
ATOM      3  N   UNL A   1      31.749  29.838  24.588  1.00  0.00    -0.352 N 
ATOM      4  C   UNL A   1      31.130  28.878  23.827  1.00  0.00     0.251 C 
ATOM      5  O   UNL A   1      30.631  29.241  22.759  1.00  0.00    -0.269 OA
ATOM      6  H   UNL A   1      31.810  30.712  24.139  1.00  0.00     0.163 HD
BRANCH   4   7
ATOM      7  C   UNL A   1      31.012  27.433  24.201  1.00  0.00     0.041 A 
ATOM      8  C   UNL A   1      30.905  24.634  24.761  1.00  0.00     0.049 A 
ATOM      9  C   UNL A   1      30.233  25.562  25.555  1.00  0.00     0.028 A 
ATOM     10  C   UNL A   1      31.680  25.136  23.703  1.00  0.00     0.041 A 
ATOM     11  C   UNL A   1      30.283  26.931  25.276  1.00  0.00     0.016 A 
ATOM     12  C   UNL A   1      31.732  26.509  23.424  1.00  0.00     0.031 A 
ATOM     13  Br  UNL A   1      32.658  23.959  22.571  1.00  0.00    -0.049 Br
BRANCH   8  14
ATOM     14  N   UNL A   1      30.762  23.271  24.984  1.00  0.00    -0.380 N 
ATOM     15  H   UNL A   1      30.273  22.720  24.332  1.00  0.00     0.160 HD
BRANCH  14  16
ATOM     16  C   UNL A   1      31.327  22.648  26.171  1.00  0.00     0.148 C 
BRANCH  16  17
ATOM     17  C   UNL A   1      32.696  22.103  25.845  1.00  0.00    -0.029 A 
ATOM     18  C   UNL A   1      36.631  20.549  25.007  1.00  0.00     0.044 C 
ATOM     19  C   UNL A   1      35.260  21.093  25.273  1.00  0.00    -0.051 A 
ATOM     20  C   UNL A   1      35.115  22.291  25.980  1.00  0.00     0.004 A 
ATOM     21  C   UNL A   1      34.116  20.412  24.842  1.00  0.00     0.004 A 
ATOM     22  C   UNL A   1      33.846  22.795  26.256  1.00  0.00     0.006 A 
ATOM     23  C   UNL A   1      32.844  20.913  25.124  1.00  0.00     0.006 A 
ENDBRANCH  16  17
ENDBRANCH  14  16
ENDBRANCH   8  14
ENDBRANCH   4   7
ENDBRANCH   2   3
ENDBRANCH   1   2
BRANCH   1  24
ATOM     24  C   UNL A   1      34.450  29.429  27.284  1.00  0.00     0.118 C 
BRANCH  24  25
ATOM     25  N   UNL A   1      35.073  30.708  27.620  1.00  0.00    -0.352 N 
ATOM     26  C   UNL A   1      36.363  30.909  28.078  1.00  0.00     0.251 C 
ATOM     27  H   UNL A   1      34.515  31.510  27.509  1.00  0.00     0.163 HD
ATOM     28  O   UNL A   1      36.776  31.990  28.457  1.00  0.00    -0.269 OA
BRANCH  26  29
ATOM     29  C   UNL A   1      37.259  29.742  27.989  1.00  0.00     0.039 A 
ATOM     30  C   UNL A   1      37.382  28.950  29.135  1.00  0.00     0.014 A 
ATOM     31  C   UNL A   1      38.190  29.688  26.955  1.00  0.00     0.014 A 
ATOM     32  C   UNL A   1      38.542  28.205  29.320  1.00  0.00     0.010 A 
ATOM     33  C   UNL A   1      39.379  29.024  27.186  1.00  0.00     0.010 A 
ATOM     34  C   UNL A   1      39.571  28.320  28.384  1.00  0.00    -0.014 A 
BRANCH  34  35
ATOM     35  C   UNL A   1      40.912  27.792  28.609  1.00  0.00     0.031 A 
ATOM     36  C   UNL A   1      41.209  26.386  28.250  1.00  0.00     0.074 A 
ATOM     37  C   UNL A   1      41.891  28.582  29.106  1.00  0.00     0.049 A 
ATOM     38  N   UNL A   1      42.129  25.670  28.806  1.00  0.00    -0.248 NA
ATOM     39  C   UNL A   1      40.435  25.656  27.248  1.00  0.00     0.031 C 
ATOM     40  C   UNL A   1      43.319  28.276  29.150  1.00  0.00     0.029 A 
ATOM     41  N   UNL A   1      41.771  29.739  29.880  1.00  0.00    -0.354 N 
ATOM     42  C   UNL A   1      42.260  24.523  28.055  1.00  0.00     0.074 A 
ATOM     43  C   UNL A   1      41.140  24.527  27.143  1.00  0.00     0.031 C 
ATOM     44  C   UNL A   1      43.881  29.001  30.128  1.00  0.00     0.029 A 
ATOM     45  C   UNL A   1      42.807  29.688  30.827  1.00  0.00     0.049 A 
ATOM     46  H   UNL A   1      41.096  30.448  29.781  1.00  0.00     0.167 HD
ATOM     47  C   UNL A   1      43.375  23.751  28.160  1.00  0.00     0.031 A 
ATOM     48  C   UNL A   1      42.608  29.671  32.178  1.00  0.00     0.031 A 
ATOM     49  C   UNL A   1      44.299  24.250  29.167  1.00  0.00     0.049 A 
ATOM     50  C   UNL A   1      43.201  28.446  32.846  1.00  0.00     0.074 A 
ATOM     51  C   UNL A   1      45.429  25.049  29.097  1.00  0.00     0.029 A 
ATOM     52  N   UNL A   1      43.929  24.207  30.505  1.00  0.00    -0.354 N 
ATOM     53  N   UNL A   1      43.604  27.388  32.198  1.00  0.00    -0.248 NA
ATOM     54  C   UNL A   1      43.336  28.291  34.294  1.00  0.00     0.031 C 
ATOM     55  C   UNL A   1      45.676  25.570  30.392  1.00  0.00     0.029 A 
ATOM     56  C   UNL A   1      44.719  25.060  31.251  1.00  0.00     0.049 A 
ATOM     57  H   UNL A   1      43.206  23.647  30.870  1.00  0.00     0.167 HD
ATOM     58  C   UNL A   1      44.029  26.435  33.085  1.00  0.00     0.074 A 
ATOM     59  C   UNL A   1      43.853  27.052  34.387  1.00  0.00     0.031 C 
ATOM     60  C   UNL A   1      44.480  25.213  32.679  1.00  0.00     0.031 A 
BRANCH  47  61
ATOM     61  C   UNL A   1      43.725  22.741  27.099  1.00  0.00    -0.014 A 
ATOM     62  C   UNL A   1      42.854  21.663  26.847  1.00  0.00     0.010 A 
ATOM     63  C   UNL A   1      44.933  22.765  26.375  1.00  0.00     0.010 A 
ATOM     64  C   UNL A   1      43.214  20.607  25.998  1.00  0.00     0.020 A 
ATOM     65  C   UNL A   1      45.322  21.696  25.554  1.00  0.00     0.020 A 
ATOM     66  C   UNL A   1      44.462  20.615  25.379  1.00  0.00     0.054 A 
BRANCH  66  67
ATOM     67  S   UNL A   1      44.955  19.183  24.383  1.00  0.00     0.124 S 
ATOM     68  O   UNL A   1      44.203  18.092  24.997  1.00  0.00    -0.237 OA
ATOM     69  O   UNL A   1      44.521  19.570  23.044  1.00  0.00    -0.237 OA
ATOM     70  O   UNL A   1      46.403  19.112  24.573  1.00  0.00    -0.744 OA
ENDBRANCH  66  67
ENDBRANCH  47  61
BRANCH  48  71
ATOM     71  C   UNL A   1      41.384  30.387  32.630  1.00  0.00    -0.014 A 
ATOM     72  C   UNL A   1      40.222  29.615  32.843  1.00  0.00     0.010 A 
ATOM     73  C   UNL A   1      41.477  31.653  33.230  1.00  0.00     0.010 A 
ATOM     74  C   UNL A   1      39.255  30.021  33.767  1.00  0.00     0.020 A 
ATOM     75  C   UNL A   1      40.506  32.065  34.157  1.00  0.00     0.020 A 
ATOM     76  C   UNL A   1      39.439  31.216  34.463  1.00  0.00     0.054 A 
BRANCH  76  77
ATOM     77  S   UNL A   1      38.372  31.534  35.902  1.00  0.00     0.124 S 
ATOM     78  O   UNL A   1      39.111  32.570  36.617  1.00  0.00    -0.237 OA
ATOM     79  O   UNL A   1      37.127  31.974  35.271  1.00  0.00    -0.237 OA
ATOM     80  O   UNL A   1      38.305  30.235  36.564  1.00  0.00    -0.744 OA
ENDBRANCH  76  77
ENDBRANCH  48  71
BRANCH  60  81
ATOM     81  C   UNL A   1      44.809  24.052  33.580  1.00  0.00    -0.014 A 
ATOM     82  C   UNL A   1      43.896  23.041  33.918  1.00  0.00     0.010 A 
ATOM     83  C   UNL A   1      46.151  23.880  33.999  1.00  0.00     0.010 A 
ATOM     84  C   UNL A   1      44.293  21.934  34.684  1.00  0.00     0.020 A 
ATOM     85  C   UNL A   1      46.564  22.761  34.727  1.00  0.00     0.020 A 
ATOM     86  C   UNL A   1      45.624  21.803  35.085  1.00  0.00     0.054 A 
BRANCH  86  87
ATOM     87  S   UNL A   1      46.147  20.335  36.008  1.00  0.00     0.124 S 
ATOM     88  O   UNL A   1      45.418  19.272  35.321  1.00  0.00    -0.237 OA
ATOM     89  O   UNL A   1      47.596  20.324  35.818  1.00  0.00    -0.237 OA
ATOM     90  O   UNL A   1      45.708  20.616  37.373  1.00  0.00    -0.744 OA
ENDBRANCH  86  87
ENDBRANCH  60  81
ENDBRANCH  34  35
ENDBRANCH  26  29
ENDBRANCH  24  25
ENDBRANCH   1  24
TORSDOF 16
ENDMDL
MODEL 2
REMARK VINA RESULT:     -12.0      1.474      2.019
REMARK SMILES Cc1ccc(CNc2ccc(C(=O)NCCCNC(=O)c3ccc(-c4c5nc(c(-c6ccc(S(=O)(=O)[O-])cc6)c6ccc([nH]6)c(-c6ccc(S(=O)(=O)[O-])cc6)c6nc(c(-c7ccc(S(=O)(=O)[O-])cc7)c7ccc4[nH]7)C=C6)C=C5)cc3)cc2Br)cc1
REMARK SMILES IDX 16 1 15 2 14 3 12 4 13 5 11 7 8 8 9 9 82 10 10 11 81 12
REMARK SMILES IDX 83 13 7 14 6 16 5 17 1 18 2 19 3 20 85 21 4 22 84 23 17 24
REMARK SMILES IDX 18 25 19 26 20 28 21 29 22 30 80 31 23 32 79 33 24 34 25 35
REMARK SMILES IDX 26 36 73 37 27 38 78 39 72 40 74 41 28 42 77 43 71 44 70 45
REMARK SMILES IDX 29 47 59 48 40 49 58 50 41 51 44 52 57 53 75 54 42 55 43 56
REMARK SMILES IDX 56 58 76 59 45 60 30 61 31 62 39 63 32 64 38 65 33 66 34 67
REMARK SMILES IDX 35 68 36 69 37 70 60 71 61 72 69 73 62 74 68 75 63 76 64 77
REMARK SMILES IDX 65 78 66 79 67 80 46 81 47 82 55 83 48 84 54 85 49 86 50 87
REMARK SMILES IDX 51 88 52 89 53 90
REMARK H PARENT 14 6 7 15 18 27 74 46 44 57
REMARK Flexibility Score: inf
ROOT
ATOM      1  C   UNL A   1      32.854  30.645  27.274  1.00  0.00     0.042 C 
ENDROOT
BRANCH   1   2
ATOM      2  C   UNL A   1      32.798  29.340  26.479  1.00  0.00     0.118 C 
BRANCH   2   3
ATOM      3  N   UNL A   1      32.096  29.497  25.211  1.00  0.00    -0.352 N 
ATOM      4  C   UNL A   1      31.515  28.609  24.339  1.00  0.00     0.251 C 
ATOM      5  O   UNL A   1      30.885  29.081  23.389  1.00  0.00    -0.269 OA
ATOM      6  H   UNL A   1      32.024  30.434  24.918  1.00  0.00     0.163 HD
BRANCH   4   7
ATOM      7  C   UNL A   1      31.584  27.118  24.462  1.00  0.00     0.041 A 
ATOM      8  C   UNL A   1      31.913  24.291  24.705  1.00  0.00     0.049 A 
ATOM      9  C   UNL A   1      30.649  24.872  24.612  1.00  0.00     0.028 A 
ATOM     10  C   UNL A   1      33.018  25.158  24.726  1.00  0.00     0.041 A 
ATOM     11  C   UNL A   1      30.491  26.256  24.489  1.00  0.00     0.016 A 
ATOM     12  C   UNL A   1      32.859  26.545  24.604  1.00  0.00     0.031 A 
ATOM     13  Br  UNL A   1      34.787  24.472  24.874  1.00  0.00    -0.049 Br
BRANCH   8  14
ATOM     14  N   UNL A   1      32.061  22.911  24.720  1.00  0.00    -0.380 N 
ATOM     15  H   UNL A   1      32.177  22.443  25.579  1.00  0.00     0.160 HD
BRANCH  14  16
ATOM     16  C   UNL A   1      32.048  22.147  23.482  1.00  0.00     0.148 C 
BRANCH  16  17
ATOM     17  C   UNL A   1      32.649  20.785  23.730  1.00  0.00    -0.029 A 
ATOM     18  C   UNL A   1      34.384  16.884  24.344  1.00  0.00     0.044 C 
ATOM     19  C   UNL A   1      33.773  18.240  24.154  1.00  0.00    -0.051 A 
ATOM     20  C   UNL A   1      32.715  18.403  23.253  1.00  0.00     0.004 A 
ATOM     21  C   UNL A   1      34.254  19.353  24.852  1.00  0.00     0.004 A 
ATOM     22  C   UNL A   1      32.154  19.662  23.050  1.00  0.00     0.006 A 
ATOM     23  C   UNL A   1      33.696  20.616  24.643  1.00  0.00     0.006 A 
ENDBRANCH  16  17
ENDBRANCH  14  16
ENDBRANCH   8  14
ENDBRANCH   4   7
ENDBRANCH   2   3
ENDBRANCH   1   2
BRANCH   1  24
ATOM     24  C   UNL A   1      34.256  31.213  27.401  1.00  0.00     0.118 C 
BRANCH  24  25
ATOM     25  N   UNL A   1      34.456  31.966  28.638  1.00  0.00    -0.352 N 
ATOM     26  C   UNL A   1      35.320  31.652  29.671  1.00  0.00     0.251 C 
ATOM     27  H   UNL A   1      33.918  32.782  28.746  1.00  0.00     0.163 HD
ATOM     28  O   UNL A   1      35.345  32.256  30.728  1.00  0.00    -0.269 OA
BRANCH  26  29
ATOM     29  C   UNL A   1      36.297  30.586  29.384  1.00  0.00     0.039 A 
ATOM     30  C   UNL A   1      36.529  29.650  30.397  1.00  0.00     0.014 A 
ATOM     31  C   UNL A   1      37.183  30.755  28.322  1.00  0.00     0.014 A 
ATOM     32  C   UNL A   1      37.748  28.982  30.432  1.00  0.00     0.010 A 
ATOM     33  C   UNL A   1      38.427  30.163  28.415  1.00  0.00     0.010 A 
ATOM     34  C   UNL A   1      38.724  29.311  29.491  1.00  0.00    -0.014 A 
BRANCH  34  35
ATOM     35  C   UNL A   1      40.109  28.866  29.591  1.00  0.00     0.031 A 
ATOM     36  C   UNL A   1      40.480  27.525  29.085  1.00  0.00     0.074 A 
ATOM     37  C   UNL A   1      41.059  29.678  30.108  1.00  0.00     0.049 A 
ATOM     38  N   UNL A   1      41.479  26.831  29.519  1.00  0.00    -0.248 NA
ATOM     39  C   UNL A   1      39.699  26.834  28.061  1.00  0.00     0.031 C 
ATOM     40  C   UNL A   1      42.505  29.477  30.046  1.00  0.00     0.029 A 
ATOM     41  N   UNL A   1      40.907  30.748  30.995  1.00  0.00    -0.354 N 
ATOM     42  C   UNL A   1      41.643  25.771  28.656  1.00  0.00     0.074 A 
ATOM     43  C   UNL A   1      40.472  25.775  27.811  1.00  0.00     0.031 C 
ATOM     44  C   UNL A   1      43.074  30.149  31.058  1.00  0.00     0.029 A 
ATOM     45  C   UNL A   1      42.000  30.688  31.876  1.00  0.00     0.049 A 
ATOM     46  H   UNL A   1      40.180  31.411  31.001  1.00  0.00     0.167 HD
ATOM     47  C   UNL A   1      42.813  25.077  28.628  1.00  0.00     0.031 A 
ATOM     48  C   UNL A   1      41.884  30.533  33.227  1.00  0.00     0.031 A 
ATOM     49  C   UNL A   1      43.759  25.550  29.626  1.00  0.00     0.049 A 
ATOM     50  C   UNL A   1      42.599  29.299  33.743  1.00  0.00     0.074 A 
ATOM     51  C   UNL A   1      44.825  26.433  29.572  1.00  0.00     0.029 A 
ATOM     52  N   UNL A   1      43.475  25.357  30.972  1.00  0.00    -0.354 N 
ATOM     53  N   UNL A   1      43.034  28.337  32.976  1.00  0.00    -0.248 NA
ATOM     54  C   UNL A   1      42.832  29.023  35.160  1.00  0.00     0.031 C 
ATOM     55  C   UNL A   1      45.113  26.851  30.896  1.00  0.00     0.029 A 
ATOM     56  C   UNL A   1      44.248  26.195  31.753  1.00  0.00     0.049 A 
ATOM     57  H   UNL A   1      42.815  24.714  31.320  1.00  0.00     0.167 HD
ATOM     58  C   UNL A   1      43.576  27.341  33.744  1.00  0.00     0.074 A 
ATOM     59  C   UNL A   1      43.438  27.822  35.106  1.00  0.00     0.031 C 
ATOM     60  C   UNL A   1      44.085  26.199  33.199  1.00  0.00     0.031 A 
BRANCH  47  61
ATOM     61  C   UNL A   1      43.166  24.197  27.457  1.00  0.00    -0.014 A 
ATOM     62  C   UNL A   1      42.870  22.821  27.504  1.00  0.00     0.010 A 
ATOM     63  C   UNL A   1      43.858  24.661  26.322  1.00  0.00     0.010 A 
ATOM     64  C   UNL A   1      43.332  21.934  26.523  1.00  0.00     0.020 A 
ATOM     65  C   UNL A   1      44.361  23.778  25.353  1.00  0.00     0.020 A 
ATOM     66  C   UNL A   1      44.103  22.414  25.466  1.00  0.00     0.054 A 
BRANCH  66  67
ATOM     67  S   UNL A   1      44.791  21.233  24.275  1.00  0.00     0.124 S 
ATOM     68  O   UNL A   1      46.205  21.197  24.641  1.00  0.00    -0.237 OA
ATOM     69  O   UNL A   1      44.035  20.019  24.567  1.00  0.00    -0.237 OA
ATOM     70  O   UNL A   1      44.509  21.847  22.978  1.00  0.00    -0.744 OA
ENDBRANCH  66  67
ENDBRANCH  47  61
BRANCH  48  71
ATOM     71  C   UNL A   1      40.643  31.111  33.811  1.00  0.00    -0.014 A 
ATOM     72  C   UNL A   1      39.604  30.216  34.144  1.00  0.00     0.010 A 
ATOM     73  C   UNL A   1      40.658  32.385  34.403  1.00  0.00     0.010 A 
ATOM     74  C   UNL A   1      38.702  30.520  35.167  1.00  0.00     0.020 A 
ATOM     75  C   UNL A   1      39.752  32.693  35.430  1.00  0.00     0.020 A 
ATOM     76  C   UNL A   1      38.824  31.733  35.845  1.00  0.00     0.054 A 
BRANCH  76  77
ATOM     77  S   UNL A   1      37.889  31.942  37.391  1.00  0.00     0.124 S 
ATOM     78  O   UNL A   1      37.396  30.592  37.643  1.00  0.00    -0.237 OA
ATOM     79  O   UNL A   1      38.922  32.415  38.314  1.00  0.00    -0.237 OA
ATOM     80  O   UNL A   1      36.875  32.930  37.039  1.00  0.00    -0.744 OA
ENDBRANCH  76  77
ENDBRANCH  48  71
BRANCH  60  81
ATOM     81  C   UNL A   1      44.547  24.988  33.966  1.00  0.00    -0.014 A 
ATOM     82  C   UNL A   1      43.698  24.181  34.740  1.00  0.00     0.010 A 
ATOM     83  C   UNL A   1      45.880  24.542  33.789  1.00  0.00     0.010 A 
ATOM     84  C   UNL A   1      44.172  23.010  35.351  1.00  0.00     0.020 A 
ATOM     85  C   UNL A   1      46.350  23.358  34.361  1.00  0.00     0.020 A 
ATOM     86  C   UNL A   1      45.495  22.608  35.160  1.00  0.00     0.054 A 
BRANCH  86  87
ATOM     87  S   UNL A   1      46.081  21.057  35.890  1.00  0.00     0.124 S 
ATOM     88  O   UNL A   1      45.662  21.203  37.282  1.00  0.00    -0.237 OA
ATOM     89  O   UNL A   1      45.363  20.040  35.124  1.00  0.00    -0.237 OA
ATOM     90  O   UNL A   1      47.524  21.096  35.662  1.00  0.00    -0.744 OA
ENDBRANCH  86  87
ENDBRANCH  60  81
ENDBRANCH  34  35
ENDBRANCH  26  29
ENDBRANCH  24  25
ENDBRANCH   1  24
TORSDOF 16
ENDMDL
MODEL 3
REMARK VINA RESULT:     -11.8      4.261      7.079
REMARK SMILES Cc1ccc(CNc2ccc(C(=O)NCCCNC(=O)c3ccc(-c4c5nc(c(-c6ccc(S(=O)(=O)[O-])cc6)c6ccc([nH]6)c(-c6ccc(S(=O)(=O)[O-])cc6)c6nc(c(-c7ccc(S(=O)(=O)[O-])cc7)c7ccc4[nH]7)C=C6)C=C5)cc3)cc2Br)cc1
REMARK SMILES IDX 16 1 15 2 14 3 12 4 13 5 11 7 8 8 9 9 82 10 10 11 81 12
REMARK SMILES IDX 83 13 7 14 6 16 5 17 1 18 2 19 3 20 85 21 4 22 84 23 17 24
REMARK SMILES IDX 18 25 19 26 20 28 21 29 22 30 80 31 23 32 79 33 24 34 25 35
REMARK SMILES IDX 26 36 73 37 27 38 78 39 72 40 74 41 28 42 77 43 71 44 70 45
REMARK SMILES IDX 29 47 59 48 40 49 58 50 41 51 44 52 57 53 75 54 42 55 43 56
REMARK SMILES IDX 56 58 76 59 45 60 30 61 31 62 39 63 32 64 38 65 33 66 34 67
REMARK SMILES IDX 35 68 36 69 37 70 60 71 61 72 69 73 62 74 68 75 63 76 64 77
REMARK SMILES IDX 65 78 66 79 67 80 46 81 47 82 55 83 48 84 54 85 49 86 50 87
REMARK SMILES IDX 51 88 52 89 53 90
REMARK H PARENT 14 6 7 15 18 27 74 46 44 57
REMARK Flexibility Score: inf
ROOT
ATOM      1  C   UNL A   1      38.176  33.153  30.996  1.00  0.00     0.042 C 
ENDROOT
BRANCH   1   2
ATOM      2  C   UNL A   1      39.448  33.671  30.324  1.00  0.00     0.118 C 
BRANCH   2   3
ATOM      3  N   UNL A   1      40.355  34.306  31.274  1.00  0.00    -0.352 N 
ATOM      4  C   UNL A   1      41.712  34.516  31.285  1.00  0.00     0.251 C 
ATOM      5  O   UNL A   1      42.168  35.203  32.203  1.00  0.00    -0.269 OA
ATOM      6  H   UNL A   1      39.900  34.656  32.074  1.00  0.00     0.163 HD
BRANCH   4   7
ATOM      7  C   UNL A   1      42.670  33.981  30.267  1.00  0.00     0.041 A 
ATOM      8  C   UNL A   1      44.423  33.093  28.195  1.00  0.00     0.049 A 
ATOM      9  C   UNL A   1      44.467  32.539  29.473  1.00  0.00     0.028 A 
ATOM     10  C   UNL A   1      43.516  34.143  27.980  1.00  0.00     0.041 A 
ATOM     11  C   UNL A   1      43.604  32.972  30.485  1.00  0.00     0.016 A 
ATOM     12  C   UNL A   1      42.652  34.579  28.995  1.00  0.00     0.031 A 
ATOM     13  Br  UNL A   1      43.391  34.988  26.279  1.00  0.00    -0.049 Br
BRANCH   8  14
ATOM     14  N   UNL A   1      45.210  32.582  27.171  1.00  0.00    -0.380 N 
ATOM     15  H   UNL A   1      45.162  32.983  26.273  1.00  0.00     0.160 HD
BRANCH  14  16
ATOM     16  C   UNL A   1      46.106  31.461  27.409  1.00  0.00     0.148 C 
BRANCH  16  17
ATOM     17  C   UNL A   1      45.461  30.192  26.906  1.00  0.00    -0.029 A 
ATOM     18  C   UNL A   1      43.649  26.522  25.548  1.00  0.00     0.044 C 
ATOM     19  C   UNL A   1      44.274  27.807  25.997  1.00  0.00    -0.051 A 
ATOM     20  C   UNL A   1      45.635  27.840  26.322  1.00  0.00     0.004 A 
ATOM     21  C   UNL A   1      43.516  28.977  26.116  1.00  0.00     0.004 A 
ATOM     22  C   UNL A   1      46.224  29.022  26.764  1.00  0.00     0.006 A 
ATOM     23  C   UNL A   1      44.104  30.161  26.566  1.00  0.00     0.006 A 
ENDBRANCH  16  17
ENDBRANCH  14  16
ENDBRANCH   8  14
ENDBRANCH   4   7
ENDBRANCH   2   3
ENDBRANCH   1   2
BRANCH   1  24
ATOM     24  C   UNL A   1      37.773  31.764  30.532  1.00  0.00     0.118 C 
BRANCH  24  25
ATOM     25  N   UNL A   1      36.569  31.767  29.706  1.00  0.00    -0.352 N 
ATOM     26  C   UNL A   1      36.299  30.945  28.626  1.00  0.00     0.251 C 
ATOM     27  H   UNL A   1      35.875  32.425  29.942  1.00  0.00     0.163 HD
ATOM     28  O   UNL A   1      35.328  31.086  27.905  1.00  0.00    -0.269 OA
BRANCH  26  29
ATOM     29  C   UNL A   1      37.217  29.806  28.449  1.00  0.00     0.039 A 
ATOM     30  C   UNL A   1      37.354  28.929  29.531  1.00  0.00     0.014 A 
ATOM     31  C   UNL A   1      38.151  29.850  27.416  1.00  0.00     0.014 A 
ATOM     32  C   UNL A   1      38.527  28.194  29.660  1.00  0.00     0.010 A 
ATOM     33  C   UNL A   1      39.351  29.192  27.599  1.00  0.00     0.010 A 
ATOM     34  C   UNL A   1      39.555  28.400  28.739  1.00  0.00    -0.014 A 
BRANCH  34  35
ATOM     35  C   UNL A   1      40.906  27.881  28.925  1.00  0.00     0.031 A 
ATOM     36  C   UNL A   1      41.216  26.494  28.508  1.00  0.00     0.074 A 
ATOM     37  C   UNL A   1      41.881  28.664  29.440  1.00  0.00     0.049 A 
ATOM     38  N   UNL A   1      42.152  25.769  29.023  1.00  0.00    -0.248 NA
ATOM     39  C   UNL A   1      40.437  25.794  27.488  1.00  0.00     0.031 C 
ATOM     40  C   UNL A   1      43.314  28.375  29.454  1.00  0.00     0.029 A 
ATOM     41  N   UNL A   1      41.757  29.788  30.261  1.00  0.00    -0.354 N 
ATOM     42  C   UNL A   1      42.287  24.655  28.225  1.00  0.00     0.074 A 
ATOM     43  C   UNL A   1      41.155  24.679  27.329  1.00  0.00     0.031 C 
ATOM     44  C   UNL A   1      43.879  29.069  30.453  1.00  0.00     0.029 A 
ATOM     45  C   UNL A   1      42.807  29.713  31.192  1.00  0.00     0.049 A 
ATOM     46  H   UNL A   1      41.072  30.492  30.199  1.00  0.00     0.167 HD
ATOM     47  C   UNL A   1      43.413  23.893  28.286  1.00  0.00     0.031 A 
ATOM     48  C   UNL A   1      42.626  29.641  32.544  1.00  0.00     0.031 A 
ATOM     49  C   UNL A   1      44.344  24.364  29.300  1.00  0.00     0.049 A 
ATOM     50  C   UNL A   1      43.242  28.398  33.155  1.00  0.00     0.074 A 
ATOM     51  C   UNL A   1      45.462  25.180  29.247  1.00  0.00     0.029 A 
ATOM     52  N   UNL A   1      43.992  24.264  30.640  1.00  0.00    -0.354 N 
ATOM     53  N   UNL A   1      43.650  27.371  32.461  1.00  0.00    -0.248 NA
ATOM     54  C   UNL A   1      43.399  28.188  34.594  1.00  0.00     0.031 C 
ATOM     55  C   UNL A   1      45.720  25.653  30.559  1.00  0.00     0.029 A 
ATOM     56  C   UNL A   1      44.781  25.097  31.409  1.00  0.00     0.049 A 
ATOM     57  H   UNL A   1      43.281  23.681  30.992  1.00  0.00     0.167 HD
ATOM     58  C   UNL A   1      44.098  26.390  33.304  1.00  0.00     0.074 A 
ATOM     59  C   UNL A   1      43.932  26.953  34.632  1.00  0.00     0.031 C 
ATOM     60  C   UNL A   1      44.559  25.191  32.844  1.00  0.00     0.031 A 
BRANCH  47  61
ATOM     61  C   UNL A   1      43.761  22.930  27.181  1.00  0.00    -0.014 A 
ATOM     62  C   UNL A   1      42.845  21.924  26.818  1.00  0.00     0.010 A 
ATOM     63  C   UNL A   1      45.005  22.926  26.522  1.00  0.00     0.010 A 
ATOM     64  C   UNL A   1      43.190  20.902  25.923  1.00  0.00     0.020 A 
ATOM     65  C   UNL A   1      45.377  21.887  25.655  1.00  0.00     0.020 A 
ATOM     66  C   UNL A   1      44.467  20.872  25.369  1.00  0.00     0.054 A 
BRANCH  66  67
ATOM     67  S   UNL A   1      44.931  19.476  24.309  1.00  0.00     0.124 S 
ATOM     68  O   UNL A   1      44.136  18.380  24.858  1.00  0.00    -0.237 OA
ATOM     69  O   UNL A   1      44.530  19.943  22.985  1.00  0.00    -0.237 OA
ATOM     70  O   UNL A   1      46.373  19.350  24.516  1.00  0.00    -0.744 OA
ENDBRANCH  66  67
ENDBRANCH  47  61
BRANCH  48  71
ATOM     71  C   UNL A   1      41.399  30.322  33.039  1.00  0.00    -0.014 A 
ATOM     72  C   UNL A   1      40.275  29.515  33.318  1.00  0.00     0.010 A 
ATOM     73  C   UNL A   1      41.475  31.602  33.614  1.00  0.00     0.010 A 
ATOM     74  C   UNL A   1      39.337  29.904  34.277  1.00  0.00     0.020 A 
ATOM     75  C   UNL A   1      40.532  31.996  34.577  1.00  0.00     0.020 A 
ATOM     76  C   UNL A   1      39.510  31.117  34.945  1.00  0.00     0.054 A 
BRANCH  76  77
ATOM     77  S   UNL A   1      38.499  31.424  36.426  1.00  0.00     0.124 S 
ATOM     78  O   UNL A   1      38.172  30.072  36.868  1.00  0.00    -0.237 OA
ATOM     79  O   UNL A   1      39.428  32.158  37.286  1.00  0.00    -0.237 OA
ATOM     80  O   UNL A   1      37.381  32.209  35.912  1.00  0.00    -0.744 OA
ENDBRANCH  76  77
ENDBRANCH  48  71
BRANCH  60  81
ATOM     81  C   UNL A   1      44.915  24.000  33.694  1.00  0.00    -0.014 A 
ATOM     82  C   UNL A   1      44.013  22.975  34.021  1.00  0.00     0.010 A 
ATOM     83  C   UNL A   1      46.268  23.817  34.071  1.00  0.00     0.010 A 
ATOM     84  C   UNL A   1      44.433  21.843  34.736  1.00  0.00     0.020 A 
ATOM     85  C   UNL A   1      46.703  22.674  34.747  1.00  0.00     0.020 A 
ATOM     86  C   UNL A   1      45.774  21.702  35.097  1.00  0.00     0.054 A 
BRANCH  86  87
ATOM     87  S   UNL A   1      46.325  20.204  35.953  1.00  0.00     0.124 S 
ATOM     88  O   UNL A   1      47.235  19.615  34.974  1.00  0.00    -0.237 OA
ATOM     89  O   UNL A   1      46.960  20.728  37.161  1.00  0.00    -0.237 OA
ATOM     90  O   UNL A   1      45.085  19.465  36.181  1.00  0.00    -0.744 OA
ENDBRANCH  86  87
ENDBRANCH  60  81
ENDBRANCH  34  35
ENDBRANCH  26  29
ENDBRANCH  24  25
ENDBRANCH   1  24
TORSDOF 16
ENDMDL
