MODEL 1
REMARK VINA RESULT:     -10.2      0.000      0.000
REMARK SMILES O=C(NCCCNC(=O)c1ccc(-c2cccc(F)c2)o1)c1ccc(-c2c3nc(c(-c4ccc(S(=O)(=O)[O-])cc4)c4ccc([nH]4)c(-c4ccc(S(=O)(=O)[O-])cc4)c4nc(c(-c5ccc(S(=O)(=O)[O-])cc5)c5ccc2[nH]5)C=C4)C=C3)cc1
REMARK SMILES IDX 4 1 3 2 1 3 2 4 22 6 23 7 81 8 24 9 80 10 25 11 26 12 27 13
REMARK SMILES IDX 74 14 28 15 79 16 73 17 75 18 29 19 78 20 72 21 71 22 30 24
REMARK SMILES IDX 60 25 41 26 59 27 42 28 45 29 58 30 76 31 43 32 44 33 57 35
REMARK SMILES IDX 77 36 46 37 31 38 32 39 40 40 33 41 39 42 34 43 35 44 36 45
REMARK SMILES IDX 37 46 38 47 61 48 62 49 70 50 63 51 69 52 64 53 65 54 66 55
REMARK SMILES IDX 67 56 68 57 47 58 48 59 56 60 49 61 55 62 50 63 51 64 52 65
REMARK SMILES IDX 53 66 54 67 5 68 6 69 7 70 8 71 9 73 10 74 11 75 21 76 12 77
REMARK SMILES IDX 13 78 14 79 15 80 20 81 16 82 18 83 17 84 19 85
REMARK H PARENT 3 5 75 23 45 34 7 72
REMARK Flexibility Score: inf
ROOT
ATOM      1  C   UNL A   1      40.611  21.366  27.225  1.00  0.00     0.118 C 
ENDROOT
BRANCH   1   2
ATOM      2  N   UNL A   1      39.523  21.687  26.313  1.00  0.00    -0.352 N 
ATOM      3  O   UNL A   1      37.761  22.803  25.493  1.00  0.00    -0.269 OA
ATOM      4  C   UNL A   1      38.782  22.835  26.177  1.00  0.00     0.251 C 
ATOM      5  H   UNL A   1      39.280  20.964  25.692  1.00  0.00     0.163 HD
BRANCH   4   6
ATOM      6  C   UNL A   1      39.182  24.096  26.841  1.00  0.00     0.039 A 
ATOM      7  C   UNL A   1      38.876  24.345  28.183  1.00  0.00     0.014 A 
ATOM      8  C   UNL A   1      39.960  25.012  26.125  1.00  0.00     0.014 A 
ATOM      9  C   UNL A   1      39.264  25.549  28.776  1.00  0.00     0.010 A 
ATOM     10  C   UNL A   1      40.387  26.196  26.731  1.00  0.00     0.010 A 
ATOM     11  C   UNL A   1      40.024  26.484  28.056  1.00  0.00    -0.014 A 
BRANCH  11  12
ATOM     12  C   UNL A   1      40.466  27.744  28.703  1.00  0.00     0.031 A 
ATOM     13  C   UNL A   1      41.866  27.887  29.232  1.00  0.00     0.074 A 
ATOM     14  C   UNL A   1      39.600  28.768  28.822  1.00  0.00     0.049 A 
ATOM     15  N   UNL A   1      42.414  28.906  29.844  1.00  0.00    -0.248 NA
ATOM     16  C   UNL A   1      42.762  26.734  29.058  1.00  0.00     0.031 C 
ATOM     17  C   UNL A   1      38.210  28.755  28.366  1.00  0.00     0.029 A 
ATOM     18  N   UNL A   1      39.765  30.019  29.362  1.00  0.00    -0.354 N 
ATOM     19  C   UNL A   1      43.708  28.510  30.154  1.00  0.00     0.074 A 
ATOM     20  C   UNL A   1      43.864  27.156  29.664  1.00  0.00     0.031 C 
ATOM     21  C   UNL A   1      37.654  29.951  28.622  1.00  0.00     0.029 A 
ATOM     22  C   UNL A   1      38.639  30.801  29.288  1.00  0.00     0.049 A 
ATOM     23  H   UNL A   1      40.609  30.327  29.764  1.00  0.00     0.167 HD
ATOM     24  C   UNL A   1      44.682  29.208  30.787  1.00  0.00     0.031 A 
ATOM     25  C   UNL A   1      38.413  32.059  29.714  1.00  0.00     0.031 A 
ATOM     26  C   UNL A   1      44.544  30.558  31.264  1.00  0.00     0.049 A 
ATOM     27  C   UNL A   1      39.511  32.822  30.392  1.00  0.00     0.074 A 
ATOM     28  C   UNL A   1      45.487  31.350  31.896  1.00  0.00     0.029 A 
ATOM     29  N   UNL A   1      43.389  31.316  31.158  1.00  0.00    -0.354 N 
ATOM     30  N   UNL A   1      40.734  32.435  30.659  1.00  0.00    -0.248 NA
ATOM     31  C   UNL A   1      39.198  34.191  30.828  1.00  0.00     0.031 C 
ATOM     32  C   UNL A   1      44.896  32.586  32.187  1.00  0.00     0.029 A 
ATOM     33  C   UNL A   1      43.592  32.566  31.720  1.00  0.00     0.049 A 
ATOM     34  H   UNL A   1      42.549  31.013  30.745  1.00  0.00     0.167 HD
ATOM     35  C   UNL A   1      41.340  33.511  31.295  1.00  0.00     0.074 A 
ATOM     36  C   UNL A   1      40.353  34.571  31.361  1.00  0.00     0.031 C 
ATOM     37  C   UNL A   1      42.599  33.608  31.783  1.00  0.00     0.031 A 
BRANCH  24  38
ATOM     38  C   UNL A   1      45.982  28.493  31.021  1.00  0.00    -0.014 A 
ATOM     39  C   UNL A   1      46.223  27.815  32.228  1.00  0.00     0.010 A 
ATOM     40  C   UNL A   1      46.977  28.515  30.027  1.00  0.00     0.010 A 
ATOM     41  C   UNL A   1      47.461  27.208  32.458  1.00  0.00     0.020 A 
ATOM     42  C   UNL A   1      48.210  27.899  30.249  1.00  0.00     0.020 A 
ATOM     43  C   UNL A   1      48.452  27.270  31.473  1.00  0.00     0.054 A 
BRANCH  43  44
ATOM     44  S   UNL A   1      50.067  26.503  31.790  1.00  0.00     0.124 S 
ATOM     45  O   UNL A   1      50.069  26.408  33.248  1.00  0.00    -0.237 OA
ATOM     46  O   UNL A   1      49.973  25.230  31.080  1.00  0.00    -0.237 OA
ATOM     47  O   UNL A   1      51.015  27.459  31.224  1.00  0.00    -0.744 OA
ENDBRANCH  43  44
ENDBRANCH  24  38
BRANCH  25  48
ATOM     48  C   UNL A   1      37.076  32.662  29.494  1.00  0.00    -0.014 A 
ATOM     49  C   UNL A   1      36.130  32.680  30.532  1.00  0.00     0.010 A 
ATOM     50  C   UNL A   1      36.781  33.298  28.275  1.00  0.00     0.010 A 
ATOM     51  C   UNL A   1      34.911  33.342  30.362  1.00  0.00     0.020 A 
ATOM     52  C   UNL A   1      35.568  33.972  28.106  1.00  0.00     0.020 A 
ATOM     53  C   UNL A   1      34.642  33.990  29.152  1.00  0.00     0.054 A 
BRANCH  53  54
ATOM     54  S   UNL A   1      33.110  34.952  28.982  1.00  0.00     0.124 S 
ATOM     55  O   UNL A   1      32.370  34.171  27.997  1.00  0.00    -0.237 OA
ATOM     56  O   UNL A   1      32.566  34.940  30.338  1.00  0.00    -0.237 OA
ATOM     57  O   UNL A   1      33.586  36.256  28.525  1.00  0.00    -0.744 OA
ENDBRANCH  53  54
ENDBRANCH  25  48
BRANCH  37  58
ATOM     58  C   UNL A   1      42.987  34.906  32.431  1.00  0.00    -0.014 A 
ATOM     59  C   UNL A   1      43.582  35.930  31.674  1.00  0.00     0.010 A 
ATOM     60  C   UNL A   1      42.705  35.123  33.791  1.00  0.00     0.010 A 
ATOM     61  C   UNL A   1      43.904  37.151  32.273  1.00  0.00     0.020 A 
ATOM     62  C   UNL A   1      43.017  36.346  34.390  1.00  0.00     0.020 A 
ATOM     63  C   UNL A   1      43.624  37.350  33.628  1.00  0.00     0.054 A 
BRANCH  63  64
ATOM     64  S   UNL A   1      43.994  38.958  34.385  1.00  0.00     0.124 S 
ATOM     65  O   UNL A   1      45.341  39.222  33.889  1.00  0.00    -0.237 OA
ATOM     66  O   UNL A   1      42.946  39.824  33.847  1.00  0.00    -0.237 OA
ATOM     67  O   UNL A   1      43.896  38.691  35.818  1.00  0.00    -0.744 OA
ENDBRANCH  63  64
ENDBRANCH  37  58
ENDBRANCH  11  12
ENDBRANCH   4   6
ENDBRANCH   1   2
BRANCH   1  68
ATOM     68  C   UNL A   1      41.869  20.902  26.490  1.00  0.00     0.042 C 
BRANCH  68  69
ATOM     69  C   UNL A   1      42.820  22.028  26.084  1.00  0.00     0.118 C 
BRANCH  69  70
ATOM     70  N   UNL A   1      43.380  21.817  24.759  1.00  0.00    -0.349 N 
ATOM     71  C   UNL A   1      44.219  22.617  24.019  1.00  0.00     0.287 C 
ATOM     72  H   UNL A   1      43.119  20.972  24.327  1.00  0.00     0.163 HD
ATOM     73  O   UNL A   1      44.330  22.347  22.822  1.00  0.00    -0.266 OA
BRANCH  71  74
ATOM     74  C   UNL A   1      44.939  23.695  24.660  1.00  0.00     0.192 A 
ATOM     75  C   UNL A   1      46.265  23.857  25.019  1.00  0.00     0.057 A 
ATOM     76  O   UNL A   1      44.257  24.851  24.932  1.00  0.00    -0.451 OA
ATOM     77  C   UNL A   1      46.392  25.169  25.538  1.00  0.00     0.052 A 
ATOM     78  C   UNL A   1      45.139  25.740  25.471  1.00  0.00     0.135 A 
BRANCH  78  79
ATOM     79  C   UNL A   1      44.600  27.048  25.808  1.00  0.00     0.020 A 
ATOM     80  C   UNL A   1      45.377  27.975  26.521  1.00  0.00     0.012 A 
ATOM     81  C   UNL A   1      43.297  27.403  25.436  1.00  0.00     0.051 A 
ATOM     82  C   UNL A   1      44.867  29.235  26.850  1.00  0.00     0.004 A 
ATOM     83  C   UNL A   1      42.794  28.654  25.778  1.00  0.00     0.123 A 
ATOM     84  C   UNL A   1      43.567  29.572  26.479  1.00  0.00     0.039 A 
ATOM     85  F   UNL A   1      41.544  28.981  25.428  1.00  0.00    -0.207 F 
ENDBRANCH  78  79
ENDBRANCH  71  74
ENDBRANCH  69  70
ENDBRANCH  68  69
ENDBRANCH   1  68
TORSDOF 14
ENDMDL
MODEL 2
REMARK VINA RESULT:     -10.0      3.179     11.057
REMARK SMILES O=C(NCCCNC(=O)c1ccc(-c2cccc(F)c2)o1)c1ccc(-c2c3nc(c(-c4ccc(S(=O)(=O)[O-])cc4)c4ccc([nH]4)c(-c4ccc(S(=O)(=O)[O-])cc4)c4nc(c(-c5ccc(S(=O)(=O)[O-])cc5)c5ccc2[nH]5)C=C4)C=C3)cc1
REMARK SMILES IDX 4 1 3 2 1 3 2 4 22 6 23 7 81 8 24 9 80 10 25 11 26 12 27 13
REMARK SMILES IDX 74 14 28 15 79 16 73 17 75 18 29 19 78 20 72 21 71 22 30 24
REMARK SMILES IDX 60 25 41 26 59 27 42 28 45 29 58 30 76 31 43 32 44 33 57 35
REMARK SMILES IDX 77 36 46 37 31 38 32 39 40 40 33 41 39 42 34 43 35 44 36 45
REMARK SMILES IDX 37 46 38 47 61 48 62 49 70 50 63 51 69 52 64 53 65 54 66 55
REMARK SMILES IDX 67 56 68 57 47 58 48 59 56 60 49 61 55 62 50 63 51 64 52 65
REMARK SMILES IDX 53 66 54 67 5 68 6 69 7 70 8 71 9 73 10 74 11 75 21 76 12 77
REMARK SMILES IDX 13 78 14 79 15 80 20 81 16 82 18 83 17 84 19 85
REMARK H PARENT 3 5 75 23 45 34 7 72
REMARK Flexibility Score: inf
ROOT
ATOM      1  C   UNL A   1      34.910  32.934  28.261  1.00  0.00     0.118 C 
ENDROOT
BRANCH   1   2
ATOM      2  N   UNL A   1      34.148  31.752  27.885  1.00  0.00    -0.352 N 
ATOM      3  O   UNL A   1      33.770  29.682  27.115  1.00  0.00    -0.269 OA
ATOM      4  C   UNL A   1      34.559  30.466  27.640  1.00  0.00     0.251 C 
ATOM      5  H   UNL A   1      33.179  31.901  27.791  1.00  0.00     0.163 HD
BRANCH   4   6
ATOM      6  C   UNL A   1      35.924  30.012  27.988  1.00  0.00     0.039 A 
ATOM      7  C   UNL A   1      37.002  30.202  27.118  1.00  0.00     0.014 A 
ATOM      8  C   UNL A   1      36.144  29.461  29.255  1.00  0.00     0.014 A 
ATOM      9  C   UNL A   1      38.277  29.755  27.476  1.00  0.00     0.010 A 
ATOM     10  C   UNL A   1      37.427  29.056  29.632  1.00  0.00     0.010 A 
ATOM     11  C   UNL A   1      38.501  29.180  28.736  1.00  0.00    -0.014 A 
BRANCH  11  12
ATOM     12  C   UNL A   1      39.863  28.742  29.127  1.00  0.00     0.031 A 
ATOM     13  C   UNL A   1      40.761  29.644  29.926  1.00  0.00     0.074 A 
ATOM     14  C   UNL A   1      40.302  27.525  28.753  1.00  0.00     0.049 A 
ATOM     15  N   UNL A   1      41.987  29.433  30.334  1.00  0.00    -0.248 NA
ATOM     16  C   UNL A   1      40.215  30.954  30.310  1.00  0.00     0.031 C 
ATOM     17  C   UNL A   1      39.538  26.558  27.963  1.00  0.00     0.029 A 
ATOM     18  N   UNL A   1      41.497  26.894  28.992  1.00  0.00    -0.354 N 
ATOM     19  C   UNL A   1      42.370  30.591  30.998  1.00  0.00     0.074 A 
ATOM     20  C   UNL A   1      41.247  31.504  30.936  1.00  0.00     0.031 C 
ATOM     21  C   UNL A   1      40.273  25.446  27.804  1.00  0.00     0.029 A 
ATOM     22  C   UNL A   1      41.569  25.634  28.451  1.00  0.00     0.049 A 
ATOM     23  H   UNL A   1      42.232  27.304  29.503  1.00  0.00     0.167 HD
ATOM     24  C   UNL A   1      43.548  30.872  31.605  1.00  0.00     0.031 A 
ATOM     25  C   UNL A   1      42.566  24.729  28.465  1.00  0.00     0.031 A 
ATOM     26  C   UNL A   1      44.664  29.969  31.686  1.00  0.00     0.049 A 
ATOM     27  C   UNL A   1      43.853  25.050  29.162  1.00  0.00     0.074 A 
ATOM     28  C   UNL A   1      45.888  30.163  32.303  1.00  0.00     0.029 A 
ATOM     29  N   UNL A   1      44.691  28.698  31.134  1.00  0.00    -0.354 N 
ATOM     30  N   UNL A   1      44.189  26.146  29.799  1.00  0.00    -0.248 NA
ATOM     31  C   UNL A   1      44.898  24.016  29.141  1.00  0.00     0.031 C 
ATOM     32  C   UNL A   1      46.663  29.012  32.110  1.00  0.00     0.029 A 
ATOM     33  C   UNL A   1      45.913  28.098  31.388  1.00  0.00     0.049 A 
ATOM     34  H   UNL A   1      43.951  28.283  30.634  1.00  0.00     0.167 HD
ATOM     35  C   UNL A   1      45.484  25.935  30.256  1.00  0.00     0.074 A 
ATOM     36  C   UNL A   1      45.867  24.602  29.835  1.00  0.00     0.031 C 
ATOM     37  C   UNL A   1      46.282  26.773  30.958  1.00  0.00     0.031 A 
BRANCH  24  38
ATOM     38  C   UNL A   1      43.687  32.240  32.208  1.00  0.00    -0.014 A 
ATOM     39  C   UNL A   1      43.266  32.492  33.526  1.00  0.00     0.010 A 
ATOM     40  C   UNL A   1      44.230  33.288  31.442  1.00  0.00     0.010 A 
ATOM     41  C   UNL A   1      43.342  33.784  34.053  1.00  0.00     0.020 A 
ATOM     42  C   UNL A   1      44.318  34.578  31.970  1.00  0.00     0.020 A 
ATOM     43  C   UNL A   1      43.851  34.821  33.265  1.00  0.00     0.054 A 
BRANCH  43  44
ATOM     44  S   UNL A   1      43.921  36.502  33.948  1.00  0.00     0.124 S 
ATOM     45  O   UNL A   1      45.362  36.734  34.019  1.00  0.00    -0.237 OA
ATOM     46  O   UNL A   1      43.207  37.295  32.951  1.00  0.00    -0.237 OA
ATOM     47  O   UNL A   1      43.244  36.374  35.237  1.00  0.00    -0.744 OA
ENDBRANCH  43  44
ENDBRANCH  24  38
BRANCH  25  48
ATOM     48  C   UNL A   1      42.360  23.424  27.788  1.00  0.00    -0.014 A 
ATOM     49  C   UNL A   1      42.949  23.178  26.536  1.00  0.00     0.010 A 
ATOM     50  C   UNL A   1      41.651  22.397  28.436  1.00  0.00     0.010 A 
ATOM     51  C   UNL A   1      42.846  21.914  25.947  1.00  0.00     0.020 A 
ATOM     52  C   UNL A   1      41.558  21.129  27.856  1.00  0.00     0.020 A 
ATOM     53  C   UNL A   1      42.157  20.897  26.615  1.00  0.00     0.054 A 
BRANCH  53  54
ATOM     54  S   UNL A   1      42.133  19.226  25.902  1.00  0.00     0.124 S 
ATOM     55  O   UNL A   1      42.987  19.385  24.730  1.00  0.00    -0.237 OA
ATOM     56  O   UNL A   1      42.683  18.405  26.979  1.00  0.00    -0.237 OA
ATOM     57  O   UNL A   1      40.716  19.002  25.625  1.00  0.00    -0.744 OA
ENDBRANCH  53  54
ENDBRANCH  25  48
BRANCH  37  58
ATOM     58  C   UNL A   1      47.652  26.277  31.320  1.00  0.00    -0.014 A 
ATOM     59  C   UNL A   1      48.733  26.466  30.441  1.00  0.00     0.010 A 
ATOM     60  C   UNL A   1      47.870  25.666  32.567  1.00  0.00     0.010 A 
ATOM     61  C   UNL A   1      50.014  26.038  30.800  1.00  0.00     0.020 A 
ATOM     62  C   UNL A   1      49.152  25.246  32.932  1.00  0.00     0.020 A 
ATOM     63  C   UNL A   1      50.214  25.426  32.041  1.00  0.00     0.054 A 
BRANCH  63  64
ATOM     64  S   UNL A   1      51.891  24.924  32.521  1.00  0.00     0.124 S 
ATOM     65  O   UNL A   1      51.969  25.407  33.897  1.00  0.00    -0.237 OA
ATOM     66  O   UNL A   1      51.857  23.471  32.367  1.00  0.00    -0.237 OA
ATOM     67  O   UNL A   1      52.744  25.623  31.563  1.00  0.00    -0.744 OA
ENDBRANCH  63  64
ENDBRANCH  37  58
ENDBRANCH  11  12
ENDBRANCH   4   6
ENDBRANCH   1   2
BRANCH   1  68
ATOM     68  C   UNL A   1      35.326  32.914  29.733  1.00  0.00     0.042 C 
BRANCH  68  69
ATOM     69  C   UNL A   1      34.936  34.164  30.521  1.00  0.00     0.118 C 
BRANCH  69  70
ATOM     70  N   UNL A   1      33.930  33.880  31.531  1.00  0.00    -0.349 N 
ATOM     71  C   UNL A   1      34.068  33.331  32.785  1.00  0.00     0.287 C 
ATOM     72  H   UNL A   1      33.008  34.118  31.279  1.00  0.00     0.163 HD
ATOM     73  O   UNL A   1      33.039  32.941  33.337  1.00  0.00    -0.266 OA
BRANCH  71  74
ATOM     74  C   UNL A   1      35.374  33.262  33.401  1.00  0.00     0.192 A 
ATOM     75  C   UNL A   1      36.039  34.084  34.293  1.00  0.00     0.057 A 
ATOM     76  O   UNL A   1      36.140  32.153  33.159  1.00  0.00    -0.451 OA
ATOM     77  C   UNL A   1      37.266  33.448  34.603  1.00  0.00     0.052 A 
ATOM     78  C   UNL A   1      37.289  32.272  33.884  1.00  0.00     0.135 A 
BRANCH  78  79
ATOM     79  C   UNL A   1      38.229  31.168  33.774  1.00  0.00     0.020 A 
ATOM     80  C   UNL A   1      39.524  31.280  34.309  1.00  0.00     0.012 A 
ATOM     81  C   UNL A   1      37.865  29.979  33.130  1.00  0.00     0.051 A 
ATOM     82  C   UNL A   1      40.434  30.224  34.208  1.00  0.00     0.004 A 
ATOM     83  C   UNL A   1      38.783  28.938  33.024  1.00  0.00     0.123 A 
ATOM     84  C   UNL A   1      40.061  29.049  33.558  1.00  0.00     0.039 A 
ATOM     85  F   UNL A   1      38.430  27.809  32.396  1.00  0.00    -0.207 F 
ENDBRANCH  78  79
ENDBRANCH  71  74
ENDBRANCH  69  70
ENDBRANCH  68  69
ENDBRANCH   1  68
TORSDOF 14
ENDMDL
MODEL 3
REMARK VINA RESULT:     -10.0      3.603     10.352
REMARK SMILES O=C(NCCCNC(=O)c1ccc(-c2cccc(F)c2)o1)c1ccc(-c2c3nc(c(-c4ccc(S(=O)(=O)[O-])cc4)c4ccc([nH]4)c(-c4ccc(S(=O)(=O)[O-])cc4)c4nc(c(-c5ccc(S(=O)(=O)[O-])cc5)c5ccc2[nH]5)C=C4)C=C3)cc1
REMARK SMILES IDX 4 1 3 2 1 3 2 4 22 6 23 7 81 8 24 9 80 10 25 11 26 12 27 13
REMARK SMILES IDX 74 14 28 15 79 16 73 17 75 18 29 19 78 20 72 21 71 22 30 24
REMARK SMILES IDX 60 25 41 26 59 27 42 28 45 29 58 30 76 31 43 32 44 33 57 35
REMARK SMILES IDX 77 36 46 37 31 38 32 39 40 40 33 41 39 42 34 43 35 44 36 45
REMARK SMILES IDX 37 46 38 47 61 48 62 49 70 50 63 51 69 52 64 53 65 54 66 55
REMARK SMILES IDX 67 56 68 57 47 58 48 59 56 60 49 61 55 62 50 63 51 64 52 65
REMARK SMILES IDX 53 66 54 67 5 68 6 69 7 70 8 71 9 73 10 74 11 75 21 76 12 77
REMARK SMILES IDX 13 78 14 79 15 80 20 81 16 82 18 83 17 84 19 85
REMARK H PARENT 3 5 75 23 45 34 7 72
REMARK Flexibility Score: inf
ROOT
ATOM      1  C   UNL A   1      33.783  28.380  26.406  1.00  0.00     0.118 C 
ENDROOT
BRANCH   1   2
ATOM      2  N   UNL A   1      33.616  29.721  26.946  1.00  0.00    -0.352 N 
ATOM      3  O   UNL A   1      33.969  31.477  28.292  1.00  0.00    -0.269 OA
ATOM      4  C   UNL A   1      34.420  30.452  27.785  1.00  0.00     0.251 C 
ATOM      5  H   UNL A   1      32.792  30.178  26.662  1.00  0.00     0.163 HD
BRANCH   4   6
ATOM      6  C   UNL A   1      35.804  30.026  28.093  1.00  0.00     0.039 A 
ATOM      7  C   UNL A   1      36.835  30.159  27.158  1.00  0.00     0.014 A 
ATOM      8  C   UNL A   1      36.091  29.566  29.382  1.00  0.00     0.014 A 
ATOM      9  C   UNL A   1      38.129  29.740  27.480  1.00  0.00     0.010 A 
ATOM     10  C   UNL A   1      37.394  29.191  29.720  1.00  0.00     0.010 A 
ATOM     11  C   UNL A   1      38.420  29.255  28.764  1.00  0.00    -0.014 A 
BRANCH  11  12
ATOM     12  C   UNL A   1      39.804  28.849  29.113  1.00  0.00     0.031 A 
ATOM     13  C   UNL A   1      40.713  29.782  29.862  1.00  0.00     0.074 A 
ATOM     14  C   UNL A   1      40.250  27.633  28.747  1.00  0.00     0.049 A 
ATOM     15  N   UNL A   1      41.956  29.601  30.229  1.00  0.00    -0.248 NA
ATOM     16  C   UNL A   1      40.157  31.089  30.240  1.00  0.00     0.031 C 
ATOM     17  C   UNL A   1      39.477  26.637  28.003  1.00  0.00     0.029 A 
ATOM     18  N   UNL A   1      41.465  27.028  28.955  1.00  0.00    -0.354 N 
ATOM     19  C   UNL A   1      42.342  30.778  30.857  1.00  0.00     0.074 A 
ATOM     20  C   UNL A   1      41.200  31.669  30.818  1.00  0.00     0.031 C 
ATOM     21  C   UNL A   1      40.226  25.535  27.838  1.00  0.00     0.029 A 
ATOM     22  C   UNL A   1      41.541  25.758  28.435  1.00  0.00     0.049 A 
ATOM     23  H   UNL A   1      42.209  27.460  29.430  1.00  0.00     0.167 HD
ATOM     24  C   UNL A   1      43.535  31.092  31.416  1.00  0.00     0.031 A 
ATOM     25  C   UNL A   1      42.554  24.871  28.430  1.00  0.00     0.031 A 
ATOM     26  C   UNL A   1      44.669  30.209  31.474  1.00  0.00     0.049 A 
ATOM     27  C   UNL A   1      43.859  25.229  29.074  1.00  0.00     0.074 A 
ATOM     28  C   UNL A   1      45.911  30.437  32.042  1.00  0.00     0.029 A 
ATOM     29  N   UNL A   1      44.699  28.929  30.946  1.00  0.00    -0.354 N 
ATOM     30  N   UNL A   1      44.197  26.342  29.678  1.00  0.00    -0.248 NA
ATOM     31  C   UNL A   1      44.921  24.213  29.035  1.00  0.00     0.031 C 
ATOM     32  C   UNL A   1      46.699  29.296  31.844  1.00  0.00     0.029 A 
ATOM     33  C   UNL A   1      45.940  28.355  31.167  1.00  0.00     0.049 A 
ATOM     34  H   UNL A   1      43.950  28.491  30.481  1.00  0.00     0.167 HD
ATOM     35  C   UNL A   1      45.511  26.163  30.092  1.00  0.00     0.074 A 
ATOM     36  C   UNL A   1      45.903  24.829  29.682  1.00  0.00     0.031 C 
ATOM     37  C   UNL A   1      46.318  27.029  30.749  1.00  0.00     0.031 A 
BRANCH  24  38
ATOM     38  C   UNL A   1      43.670  32.473  31.988  1.00  0.00    -0.014 A 
ATOM     39  C   UNL A   1      43.370  32.726  33.337  1.00  0.00     0.010 A 
ATOM     40  C   UNL A   1      44.088  33.532  31.160  1.00  0.00     0.010 A 
ATOM     41  C   UNL A   1      43.439  34.028  33.841  1.00  0.00     0.020 A 
ATOM     42  C   UNL A   1      44.169  34.832  31.664  1.00  0.00     0.020 A 
ATOM     43  C   UNL A   1      43.820  35.074  32.995  1.00  0.00     0.054 A 
BRANCH  43  44
ATOM     44  S   UNL A   1      43.881  36.767  33.650  1.00  0.00     0.124 S 
ATOM     45  O   UNL A   1      45.020  36.691  34.562  1.00  0.00    -0.237 OA
ATOM     46  O   UNL A   1      44.090  37.577  32.454  1.00  0.00    -0.237 OA
ATOM     47  O   UNL A   1      42.577  36.931  34.289  1.00  0.00    -0.744 OA
ENDBRANCH  43  44
ENDBRANCH  24  38
BRANCH  25  48
ATOM     48  C   UNL A   1      42.347  23.550  27.786  1.00  0.00    -0.014 A 
ATOM     49  C   UNL A   1      42.877  23.297  26.509  1.00  0.00     0.010 A 
ATOM     50  C   UNL A   1      41.700  22.517  28.487  1.00  0.00     0.010 A 
ATOM     51  C   UNL A   1      42.777  22.021  25.947  1.00  0.00     0.020 A 
ATOM     52  C   UNL A   1      41.610  21.237  27.932  1.00  0.00     0.020 A 
ATOM     53  C   UNL A   1      42.150  20.998  26.666  1.00  0.00     0.054 A 
BRANCH  53  54
ATOM     54  S   UNL A   1      42.134  19.315  25.983  1.00  0.00     0.124 S 
ATOM     55  O   UNL A   1      40.711  19.099  25.745  1.00  0.00    -0.237 OA
ATOM     56  O   UNL A   1      42.964  19.442  24.787  1.00  0.00    -0.237 OA
ATOM     57  O   UNL A   1      42.723  18.516  27.054  1.00  0.00    -0.744 OA
ENDBRANCH  53  54
ENDBRANCH  25  48
BRANCH  37  58
ATOM     58  C   UNL A   1      47.709  26.564  31.070  1.00  0.00    -0.014 A 
ATOM     59  C   UNL A   1      48.771  26.832  30.189  1.00  0.00     0.010 A 
ATOM     60  C   UNL A   1      47.964  25.902  32.284  1.00  0.00     0.010 A 
ATOM     61  C   UNL A   1      50.071  26.432  30.512  1.00  0.00     0.020 A 
ATOM     62  C   UNL A   1      49.264  25.510  32.614  1.00  0.00     0.020 A 
ATOM     63  C   UNL A   1      50.308  25.769  31.720  1.00  0.00     0.054 A 
BRANCH  63  64
ATOM     64  S   UNL A   1      52.008  25.303  32.156  1.00  0.00     0.124 S 
ATOM     65  O   UNL A   1      51.886  23.860  32.343  1.00  0.00    -0.237 OA
ATOM     66  O   UNL A   1      52.775  25.723  30.985  1.00  0.00    -0.237 OA
ATOM     67  O   UNL A   1      52.271  26.072  33.371  1.00  0.00    -0.744 OA
ENDBRANCH  63  64
ENDBRANCH  37  58
ENDBRANCH  11  12
ENDBRANCH   4   6
ENDBRANCH   1   2
BRANCH   1  68
ATOM     68  C   UNL A   1      33.647  28.344  24.883  1.00  0.00     0.042 C 
BRANCH  68  69
ATOM     69  C   UNL A   1      32.487  27.492  24.367  1.00  0.00     0.118 C 
BRANCH  69  70
ATOM     70  N   UNL A   1      32.664  27.115  22.975  1.00  0.00    -0.349 N 
ATOM     71  C   UNL A   1      33.221  25.979  22.433  1.00  0.00     0.287 C 
ATOM     72  H   UNL A   1      32.335  27.772  22.320  1.00  0.00     0.163 HD
ATOM     73  O   UNL A   1      33.503  26.017  21.234  1.00  0.00    -0.266 OA
BRANCH  71  74
ATOM     74  C   UNL A   1      33.421  24.810  23.258  1.00  0.00     0.192 A 
ATOM     75  C   UNL A   1      32.562  23.834  23.732  1.00  0.00     0.057 A 
ATOM     76  O   UNL A   1      34.702  24.495  23.627  1.00  0.00    -0.451 OA
ATOM     77  C   UNL A   1      33.356  22.887  24.424  1.00  0.00     0.052 A 
ATOM     78  C   UNL A   1      34.658  23.333  24.339  1.00  0.00     0.135 A 
BRANCH  78  79
ATOM     79  C   UNL A   1      35.939  22.821  24.802  1.00  0.00     0.020 A 
ATOM     80  C   UNL A   1      36.815  23.647  25.526  1.00  0.00     0.012 A 
ATOM     81  C   UNL A   1      36.324  21.503  24.529  1.00  0.00     0.051 A 
ATOM     82  C   UNL A   1      38.047  23.164  25.974  1.00  0.00     0.004 A 
ATOM     83  C   UNL A   1      37.558  21.035  24.970  1.00  0.00     0.123 A 
ATOM     84  C   UNL A   1      38.421  21.852  25.690  1.00  0.00     0.039 A 
ATOM     85  F   UNL A   1      37.924  19.777  24.695  1.00  0.00    -0.207 F 
ENDBRANCH  78  79
ENDBRANCH  71  74
ENDBRANCH  69  70
ENDBRANCH  68  69
ENDBRANCH   1  68
TORSDOF 14
ENDMDL
