MODEL 1
REMARK VINA RESULT:     -11.8      0.000      0.000
REMARK SMILES CCC(C)(C)[C@@H]1CCc2c(sc(=O)n2CCCC(=O)NCCCNC(=O)c2ccc(-c3c4nc(c(-c5ccc(S(=O)(=O)[O-])cc5)c5ccc([nH]5)c(-c5ccc(S(=O)(=O)[O-])cc5)c5nc(c(-c6ccc(S(=O)(=O)[O-])cc6)c6ccc3[nH]6)C=C5)C=C4)cc2)C1
REMARK SMILES IDX 21 1 20 2 18 3 19 4 17 6 16 7 15 8 14 9 6 10 7 11 87 12 8 13
REMARK SMILES IDX 10 14 9 15 11 16 12 17 13 18 3 19 4 20 5 21 2 22 1 23 22 24
REMARK SMILES IDX 23 25 24 26 25 27 26 29 27 30 28 31 86 32 29 33 85 34 30 35
REMARK SMILES IDX 31 36 32 37 79 38 33 39 84 40 78 41 80 42 34 43 83 44 77 45
REMARK SMILES IDX 76 46 35 48 65 49 46 50 64 51 47 52 50 53 63 54 81 55 48 56
REMARK SMILES IDX 49 57 62 59 82 60 51 61 36 62 37 63 45 64 38 65 44 66 39 67
REMARK SMILES IDX 40 68 41 69 42 70 43 71 66 72 67 73 75 74 68 75 74 76 69 77
REMARK SMILES IDX 70 78 71 79 72 80 73 81 52 82 53 83 61 84 54 85 60 86 55 87
REMARK SMILES IDX 56 88 57 89 58 90 59 91
REMARK H PARENT 20 5 24 28 80 47 50 58
REMARK Flexibility Score: inf
ROOT
ATOM      1  C   UNL A   1      38.116  22.022  25.843  1.00  0.00     0.117 C 
ENDROOT
BRANCH   1   2
ATOM      2  N   UNL A   1      37.676  22.244  24.477  1.00  0.00    -0.356 N 
ATOM      3  C   UNL A   1      36.621  22.905  23.941  1.00  0.00     0.220 C 
ATOM      4  O   UNL A   1      36.584  22.965  22.708  1.00  0.00    -0.275 OA
ATOM      5  H   UNL A   1      38.264  21.831  23.805  1.00  0.00     0.163 HD
BRANCH   3   6
ATOM      6  C   UNL A   1      35.566  23.635  24.751  1.00  0.00     0.102 C 
BRANCH   6   7
ATOM      7  C   UNL A   1      34.278  22.937  25.179  1.00  0.00     0.032 C 
BRANCH   7   8
ATOM      8  C   UNL A   1      33.039  22.897  24.291  1.00  0.00     0.127 C 
BRANCH   8   9
ATOM      9  N   UNL A   1      32.613  24.025  23.449  1.00  0.00    -0.303 N 
ATOM     10  C   UNL A   1      31.114  27.698  25.111  1.00  0.00     0.000 C 
ATOM     11  C   UNL A   1      30.639  26.369  25.753  1.00  0.00     0.011 C 
ATOM     12  C   UNL A   1      31.195  27.480  23.575  1.00  0.00     0.053 C 
ATOM     13  C   UNL A   1      31.547  25.169  25.465  1.00  0.00     0.055 C 
ATOM     14  C   UNL A   1      31.777  26.157  23.196  1.00  0.00     0.030 A 
ATOM     15  C   UNL A   1      31.966  25.122  24.027  1.00  0.00     0.035 A 
ATOM     16  S   UNL A   1      32.371  25.832  21.611  1.00  0.00    -0.079 S 
ATOM     17  C   UNL A   1      32.949  24.235  22.115  1.00  0.00     0.307 A 
ATOM     18  O   UNL A   1      33.575  23.535  21.335  1.00  0.00    -0.257 OA
BRANCH  10  19
ATOM     19  C   UNL A   1      32.382  28.388  25.773  1.00  0.00    -0.032 C 
ATOM     20  C   UNL A   1      33.292  29.128  24.773  1.00  0.00     0.011 C 
ATOM     21  C   UNL A   1      33.272  27.348  26.502  1.00  0.00     0.011 C 
BRANCH  19  22
ATOM     22  C   UNL A   1      31.933  29.392  26.887  1.00  0.00     0.003 C 
ATOM     23  C   UNL A   1      31.749  30.847  26.484  1.00  0.00     0.004 C 
ENDBRANCH  19  22
ENDBRANCH  10  19
ENDBRANCH   8   9
ENDBRANCH   7   8
ENDBRANCH   6   7
ENDBRANCH   3   6
ENDBRANCH   1   2
BRANCH   1  24
ATOM     24  C   UNL A   1      39.046  23.141  26.333  1.00  0.00     0.042 C 
BRANCH  24  25
ATOM     25  C   UNL A   1      40.203  22.635  27.161  1.00  0.00     0.118 C 
BRANCH  25  26
ATOM     26  N   UNL A   1      41.385  22.272  26.375  1.00  0.00    -0.352 N 
ATOM     27  C   UNL A   1      42.265  23.144  25.747  1.00  0.00     0.251 C 
ATOM     28  H   UNL A   1      41.576  21.310  26.284  1.00  0.00     0.163 HD
ATOM     29  O   UNL A   1      43.002  22.760  24.849  1.00  0.00    -0.269 OA
BRANCH  27  30
ATOM     30  C   UNL A   1      42.277  24.549  26.199  1.00  0.00     0.039 A 
ATOM     31  C   UNL A   1      41.561  25.561  25.558  1.00  0.00     0.014 A 
ATOM     32  C   UNL A   1      42.964  24.806  27.379  1.00  0.00     0.014 A 
ATOM     33  C   UNL A   1      41.480  26.808  26.179  1.00  0.00     0.010 A 
ATOM     34  C   UNL A   1      42.655  25.918  28.105  1.00  0.00     0.010 A 
ATOM     35  C   UNL A   1      42.009  26.964  27.472  1.00  0.00    -0.014 A 
BRANCH  35  36
ATOM     36  C   UNL A   1      41.821  28.178  28.253  1.00  0.00     0.031 A 
ATOM     37  C   UNL A   1      42.882  29.192  28.032  1.00  0.00     0.074 A 
ATOM     38  C   UNL A   1      40.677  28.445  28.926  1.00  0.00     0.049 A 
ATOM     39  N   UNL A   1      43.838  29.497  28.842  1.00  0.00    -0.248 NA
ATOM     40  C   UNL A   1      43.026  29.793  26.693  1.00  0.00     0.031 C 
ATOM     41  C   UNL A   1      39.422  27.681  28.958  1.00  0.00     0.029 A 
ATOM     42  N   UNL A   1      40.354  29.543  29.654  1.00  0.00    -0.354 N 
ATOM     43  C   UNL A   1      44.546  30.519  28.226  1.00  0.00     0.074 A 
ATOM     44  C   UNL A   1      44.151  30.498  26.840  1.00  0.00     0.031 C 
ATOM     45  C   UNL A   1      38.424  28.460  29.434  1.00  0.00     0.029 A 
ATOM     46  C   UNL A   1      38.995  29.707  29.907  1.00  0.00     0.049 A 
ATOM     47  H   UNL A   1      41.031  30.179  29.979  1.00  0.00     0.167 HD
ATOM     48  C   UNL A   1      45.182  31.472  28.963  1.00  0.00     0.031 A 
ATOM     49  C   UNL A   1      38.388  30.803  30.439  1.00  0.00     0.031 A 
ATOM     50  C   UNL A   1      45.254  31.094  30.355  1.00  0.00     0.049 A 
ATOM     51  C   UNL A   1      39.451  31.570  31.141  1.00  0.00     0.074 A 
ATOM     52  C   UNL A   1      45.780  30.011  31.031  1.00  0.00     0.029 A 
ATOM     53  N   UNL A   1      44.325  31.658  31.201  1.00  0.00    -0.354 N 
ATOM     54  N   UNL A   1      40.084  31.110  32.188  1.00  0.00    -0.248 NA
ATOM     55  C   UNL A   1      40.166  32.581  30.376  1.00  0.00     0.031 C 
ATOM     56  C   UNL A   1      44.793  29.683  32.008  1.00  0.00     0.029 A 
ATOM     57  C   UNL A   1      43.784  30.646  31.953  1.00  0.00     0.049 A 
ATOM     58  H   UNL A   1      44.094  32.613  31.257  1.00  0.00     0.167 HD
ATOM     59  C   UNL A   1      41.418  31.423  31.961  1.00  0.00     0.074 A 
ATOM     60  C   UNL A   1      41.397  32.390  30.861  1.00  0.00     0.031 C 
ATOM     61  C   UNL A   1      42.429  30.655  32.469  1.00  0.00     0.031 A 
BRANCH  48  62
ATOM     62  C   UNL A   1      45.357  32.903  28.521  1.00  0.00    -0.014 A 
ATOM     63  C   UNL A   1      46.642  33.479  28.599  1.00  0.00     0.010 A 
ATOM     64  C   UNL A   1      44.277  33.778  28.288  1.00  0.00     0.010 A 
ATOM     65  C   UNL A   1      46.825  34.864  28.513  1.00  0.00     0.020 A 
ATOM     66  C   UNL A   1      44.453  35.156  28.159  1.00  0.00     0.020 A 
ATOM     67  C   UNL A   1      45.724  35.694  28.301  1.00  0.00     0.054 A 
BRANCH  67  68
ATOM     68  S   UNL A   1      45.964  37.485  28.262  1.00  0.00     0.124 S 
ATOM     69  O   UNL A   1      45.836  37.776  26.837  1.00  0.00    -0.237 OA
ATOM     70  O   UNL A   1      44.871  37.959  29.108  1.00  0.00    -0.237 OA
ATOM     71  O   UNL A   1      47.301  37.664  28.823  1.00  0.00    -0.744 OA
ENDBRANCH  67  68
ENDBRANCH  48  62
BRANCH  49  72
ATOM     72  C   UNL A   1      37.072  31.394  30.061  1.00  0.00    -0.014 A 
ATOM     73  C   UNL A   1      36.151  31.834  31.034  1.00  0.00     0.010 A 
ATOM     74  C   UNL A   1      36.837  31.794  28.729  1.00  0.00     0.010 A 
ATOM     75  C   UNL A   1      35.081  32.690  30.697  1.00  0.00     0.020 A 
ATOM     76  C   UNL A   1      35.774  32.641  28.385  1.00  0.00     0.020 A 
ATOM     77  C   UNL A   1      34.914  33.108  29.374  1.00  0.00     0.054 A 
BRANCH  77  78
ATOM     78  S   UNL A   1      33.657  34.361  28.970  1.00  0.00     0.124 S 
ATOM     79  O   UNL A   1      34.461  35.439  28.399  1.00  0.00    -0.237 OA
ATOM     80  O   UNL A   1      32.791  33.654  28.031  1.00  0.00    -0.237 OA
ATOM     81  O   UNL A   1      33.044  34.664  30.263  1.00  0.00    -0.744 OA
ENDBRANCH  77  78
ENDBRANCH  49  72
BRANCH  61  82
ATOM     82  C   UNL A   1      42.109  29.597  33.503  1.00  0.00    -0.014 A 
ATOM     83  C   UNL A   1      41.590  28.318  33.211  1.00  0.00     0.010 A 
ATOM     84  C   UNL A   1      42.518  29.862  34.821  1.00  0.00     0.010 A 
ATOM     85  C   UNL A   1      41.463  27.347  34.222  1.00  0.00     0.020 A 
ATOM     86  C   UNL A   1      42.414  28.898  35.825  1.00  0.00     0.020 A 
ATOM     87  C   UNL A   1      41.875  27.648  35.526  1.00  0.00     0.054 A 
BRANCH  87  88
ATOM     88  S   UNL A   1      41.731  26.395  36.831  1.00  0.00     0.124 S 
ATOM     89  O   UNL A   1      40.406  26.665  37.385  1.00  0.00    -0.237 OA
ATOM     90  O   UNL A   1      41.865  25.140  36.097  1.00  0.00    -0.237 OA
ATOM     91  O   UNL A   1      42.846  26.698  37.730  1.00  0.00    -0.744 OA
ENDBRANCH  87  88
ENDBRANCH  61  82
ENDBRANCH  35  36
ENDBRANCH  27  30
ENDBRANCH  25  26
ENDBRANCH  24  25
ENDBRANCH   1  24
TORSDOF 18
ENDMDL
MODEL 2
REMARK VINA RESULT:     -11.4      4.025     11.061
REMARK SMILES CCC(C)(C)[C@@H]1CCc2c(sc(=O)n2CCCC(=O)NCCCNC(=O)c2ccc(-c3c4nc(c(-c5ccc(S(=O)(=O)[O-])cc5)c5ccc([nH]5)c(-c5ccc(S(=O)(=O)[O-])cc5)c5nc(c(-c6ccc(S(=O)(=O)[O-])cc6)c6ccc3[nH]6)C=C5)C=C4)cc2)C1
REMARK SMILES IDX 21 1 20 2 18 3 19 4 17 6 16 7 15 8 14 9 6 10 7 11 87 12 8 13
REMARK SMILES IDX 10 14 9 15 11 16 12 17 13 18 3 19 4 20 5 21 2 22 1 23 22 24
REMARK SMILES IDX 23 25 24 26 25 27 26 29 27 30 28 31 86 32 29 33 85 34 30 35
REMARK SMILES IDX 31 36 32 37 79 38 33 39 84 40 78 41 80 42 34 43 83 44 77 45
REMARK SMILES IDX 76 46 35 48 65 49 46 50 64 51 47 52 50 53 63 54 81 55 48 56
REMARK SMILES IDX 49 57 62 59 82 60 51 61 36 62 37 63 45 64 38 65 44 66 39 67
REMARK SMILES IDX 40 68 41 69 42 70 43 71 66 72 67 73 75 74 68 75 74 76 69 77
REMARK SMILES IDX 70 78 71 79 72 80 73 81 52 82 53 83 61 84 54 85 60 86 55 87
REMARK SMILES IDX 56 88 57 89 58 90 59 91
REMARK H PARENT 20 5 24 28 80 47 50 58
REMARK Flexibility Score: inf
ROOT
ATOM      1  C   UNL A   1      39.102  34.442  33.499  1.00  0.00     0.117 C 
ENDROOT
BRANCH   1   2
ATOM      2  N   UNL A   1      38.640  34.306  34.869  1.00  0.00    -0.356 N 
ATOM      3  C   UNL A   1      37.488  33.845  35.416  1.00  0.00     0.220 C 
ATOM      4  O   UNL A   1      37.451  33.797  36.650  1.00  0.00    -0.275 OA
ATOM      5  H   UNL A   1      39.297  34.611  35.535  1.00  0.00     0.163 HD
BRANCH   3   6
ATOM      6  C   UNL A   1      36.314  33.310  34.617  1.00  0.00     0.102 C 
BRANCH   6   7
ATOM      7  C   UNL A   1      35.365  34.254  33.884  1.00  0.00     0.032 C 
BRANCH   7   8
ATOM      8  C   UNL A   1      34.398  33.767  32.810  1.00  0.00     0.127 C 
BRANCH   8   9
ATOM      9  N   UNL A   1      34.554  34.082  31.382  1.00  0.00    -0.303 N 
ATOM     10  C   UNL A   1      37.393  32.048  28.871  1.00  0.00     0.000 C 
ATOM     11  C   UNL A   1      37.850  32.453  30.297  1.00  0.00     0.011 C 
ATOM     12  C   UNL A   1      36.499  33.192  28.319  1.00  0.00     0.053 C 
ATOM     13  C   UNL A   1      36.702  32.711  31.278  1.00  0.00     0.055 C 
ATOM     14  C   UNL A   1      35.553  33.746  29.334  1.00  0.00     0.030 A 
ATOM     15  C   UNL A   1      35.610  33.525  30.654  1.00  0.00     0.035 A 
ATOM     16  S   UNL A   1      34.184  34.696  28.895  1.00  0.00    -0.079 S 
ATOM     17  C   UNL A   1      33.636  34.751  30.578  1.00  0.00     0.307 A 
ATOM     18  O   UNL A   1      32.574  35.283  30.860  1.00  0.00    -0.257 OA
BRANCH  10  19
ATOM     19  C   UNL A   1      36.807  30.581  28.708  1.00  0.00    -0.032 C 
ATOM     20  C   UNL A   1      36.528  29.861  30.041  1.00  0.00     0.011 C 
ATOM     21  C   UNL A   1      37.776  29.674  27.906  1.00  0.00     0.011 C 
BRANCH  19  22
ATOM     22  C   UNL A   1      35.489  30.614  27.865  1.00  0.00     0.003 C 
ATOM     23  C   UNL A   1      35.032  29.309  27.230  1.00  0.00     0.004 C 
ENDBRANCH  19  22
ENDBRANCH  10  19
ENDBRANCH   8   9
ENDBRANCH   7   8
ENDBRANCH   6   7
ENDBRANCH   3   6
ENDBRANCH   1   2
BRANCH   1  24
ATOM     24  C   UNL A   1      40.271  33.495  33.194  1.00  0.00     0.042 C 
BRANCH  24  25
ATOM     25  C   UNL A   1      41.489  34.206  32.655  1.00  0.00     0.118 C 
BRANCH  25  26
ATOM     26  N   UNL A   1      41.364  34.625  31.256  1.00  0.00    -0.352 N 
ATOM     27  C   UNL A   1      41.732  33.894  30.133  1.00  0.00     0.251 C 
ATOM     28  H   UNL A   1      40.979  35.517  31.095  1.00  0.00     0.163 HD
ATOM     29  O   UNL A   1      41.912  34.442  29.054  1.00  0.00    -0.269 OA
BRANCH  27  30
ATOM     30  C   UNL A   1      41.900  32.436  30.291  1.00  0.00     0.039 A 
ATOM     31  C   UNL A   1      40.831  31.539  30.269  1.00  0.00     0.014 A 
ATOM     32  C   UNL A   1      43.210  31.976  30.360  1.00  0.00     0.014 A 
ATOM     33  C   UNL A   1      41.115  30.174  30.226  1.00  0.00     0.010 A 
ATOM     34  C   UNL A   1      43.480  30.678  30.041  1.00  0.00     0.010 A 
ATOM     35  C   UNL A   1      42.450  29.757  30.082  1.00  0.00    -0.014 A 
BRANCH  35  36
ATOM     36  C   UNL A   1      42.816  28.365  29.864  1.00  0.00     0.031 A 
ATOM     37  C   UNL A   1      43.506  27.748  31.023  1.00  0.00     0.074 A 
ATOM     38  C   UNL A   1      42.363  27.646  28.810  1.00  0.00     0.049 A 
ATOM     39  N   UNL A   1      44.763  27.472  31.115  1.00  0.00    -0.248 NA
ATOM     40  C   UNL A   1      42.774  27.603  32.295  1.00  0.00     0.031 C 
ATOM     41  C   UNL A   1      41.405  28.037  27.766  1.00  0.00     0.029 A 
ATOM     42  N   UNL A   1      42.589  26.343  28.507  1.00  0.00    -0.354 N 
ATOM     43  C   UNL A   1      44.930  26.872  32.355  1.00  0.00     0.074 A 
ATOM     44  C   UNL A   1      43.745  27.185  33.112  1.00  0.00     0.031 C 
ATOM     45  C   UNL A   1      40.946  26.935  27.130  1.00  0.00     0.029 A 
ATOM     46  C   UNL A   1      41.702  25.785  27.591  1.00  0.00     0.049 A 
ATOM     47  H   UNL A   1      43.326  25.829  28.908  1.00  0.00     0.167 HD
ATOM     48  C   UNL A   1      45.902  25.937  32.554  1.00  0.00     0.031 A 
ATOM     49  C   UNL A   1      41.584  24.470  27.262  1.00  0.00     0.031 A 
ATOM     50  C   UNL A   1      46.836  25.913  31.454  1.00  0.00     0.049 A 
ATOM     51  C   UNL A   1      42.861  23.822  27.667  1.00  0.00     0.074 A 
ATOM     52  C   UNL A   1      47.659  26.857  30.870  1.00  0.00     0.029 A 
ATOM     53  N   UNL A   1      46.664  24.924  30.512  1.00  0.00    -0.354 N 
ATOM     54  N   UNL A   1      44.008  24.110  27.113  1.00  0.00    -0.248 NA
ATOM     55  C   UNL A   1      42.939  23.276  29.014  1.00  0.00     0.031 C 
ATOM     56  C   UNL A   1      47.514  26.643  29.467  1.00  0.00     0.029 A 
ATOM     57  C   UNL A   1      46.711  25.517  29.276  1.00  0.00     0.049 A 
ATOM     58  H   UNL A   1      46.532  23.965  30.693  1.00  0.00     0.167 HD
ATOM     59  C   UNL A   1      44.899  24.212  28.174  1.00  0.00     0.074 A 
ATOM     60  C   UNL A   1      44.196  23.619  29.315  1.00  0.00     0.031 C 
ATOM     61  C   UNL A   1      45.993  25.030  28.114  1.00  0.00     0.031 A 
BRANCH  48  62
ATOM     62  C   UNL A   1      45.773  24.778  33.509  1.00  0.00    -0.014 A 
ATOM     63  C   UNL A   1      46.851  24.496  34.374  1.00  0.00     0.010 A 
ATOM     64  C   UNL A   1      44.761  23.802  33.409  1.00  0.00     0.010 A 
ATOM     65  C   UNL A   1      46.940  23.274  35.050  1.00  0.00     0.020 A 
ATOM     66  C   UNL A   1      44.820  22.597  34.111  1.00  0.00     0.020 A 
ATOM     67  C   UNL A   1      45.925  22.329  34.907  1.00  0.00     0.054 A 
BRANCH  67  68
ATOM     68  S   UNL A   1      46.085  20.728  35.731  1.00  0.00     0.124 S 
ATOM     69  O   UNL A   1      47.423  20.311  35.323  1.00  0.00    -0.237 OA
ATOM     70  O   UNL A   1      45.933  21.091  37.138  1.00  0.00    -0.237 OA
ATOM     71  O   UNL A   1      44.985  19.945  35.173  1.00  0.00    -0.744 OA
ENDBRANCH  67  68
ENDBRANCH  48  62
BRANCH  49  72
ATOM     72  C   UNL A   1      40.335  23.704  26.984  1.00  0.00    -0.014 A 
ATOM     73  C   UNL A   1      39.103  24.353  26.759  1.00  0.00     0.010 A 
ATOM     74  C   UNL A   1      40.408  22.335  26.655  1.00  0.00     0.010 A 
ATOM     75  C   UNL A   1      38.016  23.676  26.168  1.00  0.00     0.020 A 
ATOM     76  C   UNL A   1      39.331  21.653  26.071  1.00  0.00     0.020 A 
ATOM     77  C   UNL A   1      38.146  22.333  25.804  1.00  0.00     0.054 A 
BRANCH  77  78
ATOM     78  S   UNL A   1      36.817  21.512  24.869  1.00  0.00     0.124 S 
ATOM     79  O   UNL A   1      37.331  20.154  24.718  1.00  0.00    -0.237 OA
ATOM     80  O   UNL A   1      35.666  21.658  25.755  1.00  0.00    -0.237 OA
ATOM     81  O   UNL A   1      36.740  22.286  23.630  1.00  0.00    -0.744 OA
ENDBRANCH  77  78
ENDBRANCH  49  72
BRANCH  61  82
ATOM     82  C   UNL A   1      46.389  25.641  26.787  1.00  0.00    -0.014 A 
ATOM     83  C   UNL A   1      45.949  26.895  26.316  1.00  0.00     0.010 A 
ATOM     84  C   UNL A   1      47.396  24.976  26.065  1.00  0.00     0.010 A 
ATOM     85  C   UNL A   1      46.487  27.448  25.139  1.00  0.00     0.020 A 
ATOM     86  C   UNL A   1      47.948  25.528  24.908  1.00  0.00     0.020 A 
ATOM     87  C   UNL A   1      47.482  26.756  24.441  1.00  0.00     0.054 A 
BRANCH  87  88
ATOM     88  S   UNL A   1      48.194  27.471  22.932  1.00  0.00     0.124 S 
ATOM     89  O   UNL A   1      47.121  28.341  22.457  1.00  0.00    -0.237 OA
ATOM     90  O   UNL A   1      49.388  28.152  23.423  1.00  0.00    -0.237 OA
ATOM     91  O   UNL A   1      48.461  26.307  22.086  1.00  0.00    -0.744 OA
ENDBRANCH  87  88
ENDBRANCH  61  82
ENDBRANCH  35  36
ENDBRANCH  27  30
ENDBRANCH  25  26
ENDBRANCH  24  25
ENDBRANCH   1  24
TORSDOF 18
ENDMDL
MODEL 3
REMARK VINA RESULT:     -11.4      2.846      9.395
REMARK SMILES CCC(C)(C)[C@@H]1CCc2c(sc(=O)n2CCCC(=O)NCCCNC(=O)c2ccc(-c3c4nc(c(-c5ccc(S(=O)(=O)[O-])cc5)c5ccc([nH]5)c(-c5ccc(S(=O)(=O)[O-])cc5)c5nc(c(-c6ccc(S(=O)(=O)[O-])cc6)c6ccc3[nH]6)C=C5)C=C4)cc2)C1
REMARK SMILES IDX 21 1 20 2 18 3 19 4 17 6 16 7 15 8 14 9 6 10 7 11 87 12 8 13
REMARK SMILES IDX 10 14 9 15 11 16 12 17 13 18 3 19 4 20 5 21 2 22 1 23 22 24
REMARK SMILES IDX 23 25 24 26 25 27 26 29 27 30 28 31 86 32 29 33 85 34 30 35
REMARK SMILES IDX 31 36 32 37 79 38 33 39 84 40 78 41 80 42 34 43 83 44 77 45
REMARK SMILES IDX 76 46 35 48 65 49 46 50 64 51 47 52 50 53 63 54 81 55 48 56
REMARK SMILES IDX 49 57 62 59 82 60 51 61 36 62 37 63 45 64 38 65 44 66 39 67
REMARK SMILES IDX 40 68 41 69 42 70 43 71 66 72 67 73 75 74 68 75 74 76 69 77
REMARK SMILES IDX 70 78 71 79 72 80 73 81 52 82 53 83 61 84 54 85 60 86 55 87
REMARK SMILES IDX 56 88 57 89 58 90 59 91
REMARK H PARENT 20 5 24 28 80 47 50 58
REMARK Flexibility Score: inf
ROOT
ATOM      1  C   UNL A   1      31.718  29.064  25.449  1.00  0.00     0.117 C 
ENDROOT
BRANCH   1   2
ATOM      2  N   UNL A   1      30.876  29.887  24.599  1.00  0.00    -0.356 N 
ATOM      3  C   UNL A   1      30.147  29.624  23.486  1.00  0.00     0.220 C 
ATOM      4  O   UNL A   1      29.469  30.558  23.045  1.00  0.00    -0.275 OA
ATOM      5  H   UNL A   1      30.824  30.826  24.889  1.00  0.00     0.163 HD
BRANCH   3   6
ATOM      6  C   UNL A   1      30.046  28.259  22.830  1.00  0.00     0.102 C 
BRANCH   6   7
ATOM      7  C   UNL A   1      29.868  26.995  23.667  1.00  0.00     0.032 C 
BRANCH   7   8
ATOM      8  C   UNL A   1      31.038  26.087  24.030  1.00  0.00     0.127 C 
BRANCH   8   9
ATOM      9  N   UNL A   1      30.884  24.847  24.806  1.00  0.00    -0.303 N 
ATOM     10  C   UNL A   1      33.305  21.366  24.081  1.00  0.00     0.000 C 
ATOM     11  C   UNL A   1      32.771  22.143  22.850  1.00  0.00     0.011 C 
ATOM     12  C   UNL A   1      32.186  21.362  25.160  1.00  0.00     0.053 C 
ATOM     13  C   UNL A   1      32.357  23.588  23.146  1.00  0.00     0.055 C 
ATOM     14  C   UNL A   1      31.484  22.675  25.286  1.00  0.00     0.030 A 
ATOM     15  C   UNL A   1      31.565  23.690  24.414  1.00  0.00     0.035 A 
ATOM     16  S   UNL A   1      30.524  23.077  26.660  1.00  0.00    -0.079 S 
ATOM     17  C   UNL A   1      30.264  24.716  26.045  1.00  0.00     0.307 A 
ATOM     18  O   UNL A   1      29.657  25.535  26.717  1.00  0.00    -0.257 OA
BRANCH  10  19
ATOM     19  C   UNL A   1      34.752  21.767  24.596  1.00  0.00    -0.032 C 
ATOM     20  C   UNL A   1      35.589  22.558  23.572  1.00  0.00     0.011 C 
ATOM     21  C   UNL A   1      35.582  20.514  24.978  1.00  0.00     0.011 C 
BRANCH  19  22
ATOM     22  C   UNL A   1      34.646  22.603  25.915  1.00  0.00     0.003 C 
ATOM     23  C   UNL A   1      34.956  24.090  25.828  1.00  0.00     0.004 C 
ENDBRANCH  19  22
ENDBRANCH  10  19
ENDBRANCH   8   9
ENDBRANCH   7   8
ENDBRANCH   6   7
ENDBRANCH   3   6
ENDBRANCH   1   2
BRANCH   1  24
ATOM     24  C   UNL A   1      33.198  29.457  25.338  1.00  0.00     0.042 C 
BRANCH  24  25
ATOM     25  C   UNL A   1      33.826  29.795  26.669  1.00  0.00     0.118 C 
BRANCH  25  26
ATOM     26  N   UNL A   1      33.970  31.233  26.913  1.00  0.00    -0.352 N 
ATOM     27  C   UNL A   1      34.842  31.841  27.807  1.00  0.00     0.251 C 
ATOM     28  H   UNL A   1      33.388  31.829  26.388  1.00  0.00     0.163 HD
ATOM     29  O   UNL A   1      34.657  32.989  28.189  1.00  0.00    -0.269 OA
BRANCH  27  30
ATOM     30  C   UNL A   1      35.996  31.053  28.281  1.00  0.00     0.039 A 
ATOM     31  C   UNL A   1      36.212  29.723  27.914  1.00  0.00     0.014 A 
ATOM     32  C   UNL A   1      36.934  31.739  29.042  1.00  0.00     0.014 A 
ATOM     33  C   UNL A   1      37.431  29.135  28.253  1.00  0.00     0.010 A 
ATOM     34  C   UNL A   1      38.208  31.260  29.125  1.00  0.00     0.010 A 
ATOM     35  C   UNL A   1      38.435  29.927  28.835  1.00  0.00    -0.014 A 
BRANCH  35  36
ATOM     36  C   UNL A   1      39.785  29.434  29.067  1.00  0.00     0.031 A 
ATOM     37  C   UNL A   1      40.066  29.133  30.492  1.00  0.00     0.074 A 
ATOM     38  C   UNL A   1      40.613  29.067  28.061  1.00  0.00     0.049 A 
ATOM     39  N   UNL A   1      40.792  29.829  31.300  1.00  0.00    -0.248 NA
ATOM     40  C   UNL A   1      39.306  28.059  31.158  1.00  0.00     0.031 C 
ATOM     41  C   UNL A   1      40.342  29.001  26.618  1.00  0.00     0.029 A 
ATOM     42  N   UNL A   1      41.868  28.559  28.133  1.00  0.00    -0.354 N 
ATOM     43  C   UNL A   1      40.797  29.136  32.502  1.00  0.00     0.074 A 
ATOM     44  C   UNL A   1      39.703  28.201  32.426  1.00  0.00     0.031 C 
ATOM     45  C   UNL A   1      41.287  28.246  26.009  1.00  0.00     0.029 A 
ATOM     46  C   UNL A   1      42.320  27.929  26.977  1.00  0.00     0.049 A 
ATOM     47  H   UNL A   1      42.421  28.630  28.945  1.00  0.00     0.167 HD
ATOM     48  C   UNL A   1      41.870  29.195  33.339  1.00  0.00     0.031 A 
ATOM     49  C   UNL A   1      43.446  27.178  26.841  1.00  0.00     0.031 A 
ATOM     50  C   UNL A   1      42.777  30.250  32.952  1.00  0.00     0.049 A 
ATOM     51  C   UNL A   1      44.337  27.551  27.972  1.00  0.00     0.074 A 
ATOM     52  C   UNL A   1      42.648  31.614  32.782  1.00  0.00     0.029 A 
ATOM     53  N   UNL A   1      43.891  29.879  32.232  1.00  0.00    -0.354 N 
ATOM     54  N   UNL A   1      44.854  28.743  28.103  1.00  0.00    -0.248 NA
ATOM     55  C   UNL A   1      44.213  26.787  29.205  1.00  0.00     0.031 C 
ATOM     56  C   UNL A   1      43.366  31.896  31.581  1.00  0.00     0.029 A 
ATOM     57  C   UNL A   1      43.984  30.720  31.153  1.00  0.00     0.049 A 
ATOM     58  H   UNL A   1      44.508  29.144  32.454  1.00  0.00     0.167 HD
ATOM     59  C   UNL A   1      44.700  29.050  29.449  1.00  0.00     0.074 A 
ATOM     60  C   UNL A   1      44.361  27.777  30.090  1.00  0.00     0.031 C 
ATOM     61  C   UNL A   1      44.560  30.342  29.877  1.00  0.00     0.031 A 
BRANCH  48  62
ATOM     62  C   UNL A   1      42.308  28.060  34.229  1.00  0.00    -0.014 A 
ATOM     63  C   UNL A   1      42.263  28.244  35.626  1.00  0.00     0.010 A 
ATOM     64  C   UNL A   1      43.009  26.932  33.755  1.00  0.00     0.010 A 
ATOM     65  C   UNL A   1      42.937  27.380  36.496  1.00  0.00     0.020 A 
ATOM     66  C   UNL A   1      43.650  26.041  34.616  1.00  0.00     0.020 A 
ATOM     67  C   UNL A   1      43.633  26.286  35.982  1.00  0.00     0.054 A 
BRANCH  67  68
ATOM     68  S   UNL A   1      44.557  25.217  37.110  1.00  0.00     0.124 S 
ATOM     69  O   UNL A   1      44.029  25.620  38.409  1.00  0.00    -0.237 OA
ATOM     70  O   UNL A   1      44.172  23.884  36.652  1.00  0.00    -0.237 OA
ATOM     71  O   UNL A   1      45.951  25.578  36.858  1.00  0.00    -0.744 OA
ENDBRANCH  67  68
ENDBRANCH  48  62
BRANCH  49  72
ATOM     72  C   UNL A   1      43.625  25.930  26.042  1.00  0.00    -0.014 A 
ATOM     73  C   UNL A   1      44.835  25.642  25.379  1.00  0.00     0.010 A 
ATOM     74  C   UNL A   1      42.695  24.877  26.166  1.00  0.00     0.010 A 
ATOM     75  C   UNL A   1      45.128  24.341  24.921  1.00  0.00     0.020 A 
ATOM     76  C   UNL A   1      42.977  23.581  25.710  1.00  0.00     0.020 A 
ATOM     77  C   UNL A   1      44.204  23.311  25.112  1.00  0.00     0.054 A 
BRANCH  77  78
ATOM     78  S   UNL A   1      44.656  21.596  24.699  1.00  0.00     0.124 S 
ATOM     79  O   UNL A   1      45.974  21.462  25.314  1.00  0.00    -0.237 OA
ATOM     80  O   UNL A   1      43.586  20.824  25.324  1.00  0.00    -0.237 OA
ATOM     81  O   UNL A   1      44.651  21.581  23.236  1.00  0.00    -0.744 OA
ENDBRANCH  77  78
ENDBRANCH  49  72
BRANCH  61  82
ATOM     82  C   UNL A   1      44.832  31.476  28.912  1.00  0.00    -0.014 A 
ATOM     83  C   UNL A   1      45.971  32.307  28.947  1.00  0.00     0.010 A 
ATOM     84  C   UNL A   1      43.963  31.587  27.812  1.00  0.00     0.010 A 
ATOM     85  C   UNL A   1      46.212  33.238  27.920  1.00  0.00     0.020 A 
ATOM     86  C   UNL A   1      44.206  32.494  26.780  1.00  0.00     0.020 A 
ATOM     87  C   UNL A   1      45.322  33.326  26.843  1.00  0.00     0.054 A 
BRANCH  87  88
ATOM     88  S   UNL A   1      45.635  34.513  25.506  1.00  0.00     0.124 S 
ATOM     89  O   UNL A   1      45.183  35.774  26.088  1.00  0.00    -0.237 OA
ATOM     90  O   UNL A   1      47.075  34.395  25.294  1.00  0.00    -0.237 OA
ATOM     91  O   UNL A   1      44.814  34.017  24.400  1.00  0.00    -0.744 OA
ENDBRANCH  87  88
ENDBRANCH  61  82
ENDBRANCH  35  36
ENDBRANCH  27  30
ENDBRANCH  25  26
ENDBRANCH  24  25
ENDBRANCH   1  24
TORSDOF 18
ENDMDL
