MODEL 1
REMARK VINA RESULT:     -11.5      0.000      0.000
REMARK SMILES O=C(NCCCNC(=O)[C@@H]1CCCC[C@@H]1C(=O)Nc1cccc(C(F)(F)F)c1)c1ccc(-c2c3nc(c(-c4ccc(S(=O)(=O)[O-])cc4)c4ccc([nH]4)c(-c4ccc(S(=O)(=O)[O-])cc4)c4nc(c(-c5ccc(S(=O)(=O)[O-])cc5)c5ccc2[nH]5)C=C4)C=C3)cc1
REMARK SMILES IDX 5 1 4 2 3 3 1 4 2 5 29 7 30 8 88 9 31 10 87 11 32 12 33 13
REMARK SMILES IDX 34 14 81 15 35 16 86 17 80 18 82 19 36 20 85 21 79 22 78 23
REMARK SMILES IDX 37 25 67 26 48 27 66 28 49 29 52 30 65 31 83 32 50 33 51 34
REMARK SMILES IDX 64 36 84 37 53 38 38 39 39 40 47 41 40 42 46 43 41 44 42 45
REMARK SMILES IDX 43 46 44 47 45 48 68 49 69 50 77 51 70 52 76 53 71 54 72 55
REMARK SMILES IDX 73 56 74 57 75 58 54 59 55 60 63 61 56 62 62 63 57 64 58 65
REMARK SMILES IDX 59 66 60 67 61 68 6 69 7 70 8 71 9 73 10 74 11 75 15 76
REMARK SMILES IDX 12 77 14 78 13 79 16 80 17 81 18 82 19 84 20 85 28 86 21 87
REMARK SMILES IDX 23 88 22 89 24 90 25 91 26 92 27 93
REMARK H PARENT 3 6 82 24 52 35 7 72 18 83
REMARK Flexibility Score: inf
ROOT
ATOM      1  C   UNL A   1      34.081  28.693  25.806  1.00  0.00     0.042 C 
ENDROOT
BRANCH   1   2
ATOM      2  C   UNL A   1      33.818  28.795  27.302  1.00  0.00     0.118 C 
BRANCH   2   3
ATOM      3  N   UNL A   1      33.698  30.177  27.746  1.00  0.00    -0.352 N 
ATOM      4  O   UNL A   1      34.227  31.977  29.003  1.00  0.00    -0.269 OA
ATOM      5  C   UNL A   1      34.581  30.916  28.492  1.00  0.00     0.251 C 
ATOM      6  H   UNL A   1      32.874  30.644  27.474  1.00  0.00     0.163 HD
BRANCH   5   7
ATOM      7  C   UNL A   1      35.954  30.412  28.673  1.00  0.00     0.039 A 
ATOM      8  C   UNL A   1      36.889  30.585  27.648  1.00  0.00     0.014 A 
ATOM      9  C   UNL A   1      36.311  29.771  29.860  1.00  0.00     0.014 A 
ATOM     10  C   UNL A   1      38.138  29.997  27.751  1.00  0.00     0.010 A 
ATOM     11  C   UNL A   1      37.610  29.280  30.008  1.00  0.00     0.010 A 
ATOM     12  C   UNL A   1      38.528  29.386  28.952  1.00  0.00    -0.014 A 
BRANCH  12  13
ATOM     13  C   UNL A   1      39.953  29.024  29.128  1.00  0.00     0.031 A 
ATOM     14  C   UNL A   1      40.486  27.692  28.693  1.00  0.00     0.074 A 
ATOM     15  C   UNL A   1      40.759  29.943  29.698  1.00  0.00     0.049 A 
ATOM     16  N   UNL A   1      41.705  27.229  28.802  1.00  0.00    -0.248 NA
ATOM     17  C   UNL A   1      39.543  26.754  28.063  1.00  0.00     0.031 C 
ATOM     18  C   UNL A   1      40.329  31.267  30.166  1.00  0.00     0.029 A 
ATOM     19  N   UNL A   1      42.100  29.919  29.976  1.00  0.00    -0.354 N 
ATOM     20  C   UNL A   1      41.674  25.941  28.284  1.00  0.00     0.074 A 
ATOM     21  C   UNL A   1      40.313  25.690  27.862  1.00  0.00     0.031 C 
ATOM     22  C   UNL A   1      41.388  31.937  30.636  1.00  0.00     0.029 A 
ATOM     23  C   UNL A   1      42.552  31.065  30.586  1.00  0.00     0.049 A 
ATOM     24  H   UNL A   1      42.682  29.154  29.760  1.00  0.00     0.167 HD
ATOM     25  C   UNL A   1      42.693  25.056  28.183  1.00  0.00     0.031 A 
ATOM     26  C   UNL A   1      43.759  31.368  31.096  1.00  0.00     0.031 A 
ATOM     27  C   UNL A   1      44.043  25.333  28.605  1.00  0.00     0.049 A 
ATOM     28  C   UNL A   1      44.851  30.344  31.005  1.00  0.00     0.074 A 
ATOM     29  C   UNL A   1      45.160  24.524  28.483  1.00  0.00     0.029 A 
ATOM     30  N   UNL A   1      44.456  26.491  29.245  1.00  0.00    -0.354 N 
ATOM     31  N   UNL A   1      44.821  29.162  30.438  1.00  0.00    -0.248 NA
ATOM     32  C   UNL A   1      46.135  30.688  31.625  1.00  0.00     0.031 C 
ATOM     33  C   UNL A   1      46.231  25.161  29.117  1.00  0.00     0.029 A 
ATOM     34  C   UNL A   1      45.799  26.397  29.571  1.00  0.00     0.049 A 
ATOM     35  H   UNL A   1      43.881  27.267  29.438  1.00  0.00     0.167 HD
ATOM     36  C   UNL A   1      46.086  28.622  30.630  1.00  0.00     0.074 A 
ATOM     37  C   UNL A   1      46.866  29.623  31.329  1.00  0.00     0.031 C 
ATOM     38  C   UNL A   1      46.555  27.403  30.271  1.00  0.00     0.031 A 
BRANCH  25  39
ATOM     39  C   UNL A   1      42.405  23.687  27.627  1.00  0.00    -0.014 A 
ATOM     40  C   UNL A   1      42.483  23.424  26.248  1.00  0.00     0.010 A 
ATOM     41  C   UNL A   1      42.178  22.618  28.515  1.00  0.00     0.010 A 
ATOM     42  C   UNL A   1      42.335  22.117  25.770  1.00  0.00     0.020 A 
ATOM     43  C   UNL A   1      42.053  21.308  28.044  1.00  0.00     0.020 A 
ATOM     44  C   UNL A   1      42.130  21.067  26.671  1.00  0.00     0.054 A 
BRANCH  44  45
ATOM     45  S   UNL A   1      42.025  19.375  26.026  1.00  0.00     0.124 S 
ATOM     46  O   UNL A   1      42.863  19.455  24.831  1.00  0.00    -0.237 OA
ATOM     47  O   UNL A   1      42.572  18.580  27.124  1.00  0.00    -0.237 OA
ATOM     48  O   UNL A   1      40.599  19.185  25.773  1.00  0.00    -0.744 OA
ENDBRANCH  44  45
ENDBRANCH  25  39
BRANCH  26  49
ATOM     49  C   UNL A   1      43.968  32.661  31.802  1.00  0.00    -0.014 A 
ATOM     50  C   UNL A   1      44.363  33.813  31.102  1.00  0.00     0.010 A 
ATOM     51  C   UNL A   1      43.784  32.738  33.196  1.00  0.00     0.010 A 
ATOM     52  C   UNL A   1      44.611  35.005  31.787  1.00  0.00     0.020 A 
ATOM     53  C   UNL A   1      43.992  33.937  33.880  1.00  0.00     0.020 A 
ATOM     54  C   UNL A   1      44.428  35.058  33.173  1.00  0.00     0.054 A 
BRANCH  54  55
ATOM     55  S   UNL A   1      44.754  36.614  34.042  1.00  0.00     0.124 S 
ATOM     56  O   UNL A   1      45.895  36.256  34.881  1.00  0.00    -0.237 OA
ATOM     57  O   UNL A   1      45.040  37.536  32.945  1.00  0.00    -0.237 OA
ATOM     58  O   UNL A   1      43.508  36.875  34.757  1.00  0.00    -0.744 OA
ENDBRANCH  54  55
ENDBRANCH  26  49
BRANCH  38  59
ATOM     59  C   UNL A   1      47.983  27.091  30.623  1.00  0.00    -0.014 A 
ATOM     60  C   UNL A   1      48.295  26.304  31.746  1.00  0.00     0.010 A 
ATOM     61  C   UNL A   1      49.023  27.545  29.791  1.00  0.00     0.010 A 
ATOM     62  C   UNL A   1      49.623  25.997  32.044  1.00  0.00     0.020 A 
ATOM     63  C   UNL A   1      50.351  27.212  30.068  1.00  0.00     0.020 A 
ATOM     64  C   UNL A   1      50.642  26.448  31.199  1.00  0.00     0.054 A 
BRANCH  64  65
ATOM     65  S   UNL A   1      52.354  25.983  31.578  1.00  0.00     0.124 S 
ATOM     66  O   UNL A   1      52.184  24.660  32.171  1.00  0.00    -0.237 OA
ATOM     67  O   UNL A   1      52.988  26.007  30.262  1.00  0.00    -0.237 OA
ATOM     68  O   UNL A   1      52.801  27.026  32.499  1.00  0.00    -0.744 OA
ENDBRANCH  64  65
ENDBRANCH  38  59
ENDBRANCH  12  13
ENDBRANCH   5   7
ENDBRANCH   2   3
ENDBRANCH   1   2
BRANCH   1  69
ATOM     69  C   UNL A   1      32.827  28.409  24.999  1.00  0.00     0.117 C 
BRANCH  69  70
ATOM     70  N   UNL A   1      33.096  27.438  23.955  1.00  0.00    -0.356 N 
ATOM     71  C   UNL A   1      33.033  26.085  23.962  1.00  0.00     0.223 C 
ATOM     72  H   UNL A   1      33.370  27.829  23.095  1.00  0.00     0.163 HD
ATOM     73  O   UNL A   1      33.312  25.514  22.909  1.00  0.00    -0.275 OA
BRANCH  71  74
ATOM     74  C   UNL A   1      32.571  25.363  25.214  1.00  0.00     0.091 C 
ATOM     75  C   UNL A   1      33.675  24.665  26.003  1.00  0.00     0.014 C 
ATOM     76  C   UNL A   1      31.325  24.524  24.942  1.00  0.00     0.091 C 
ATOM     77  C   UNL A   1      33.172  23.744  27.128  1.00  0.00     0.001 C 
ATOM     78  C   UNL A   1      30.796  23.961  26.261  1.00  0.00     0.014 C 
ATOM     79  C   UNL A   1      31.820  23.058  26.915  1.00  0.00     0.001 C 
BRANCH  76  80
ATOM     80  C   UNL A   1      31.123  23.545  23.768  1.00  0.00     0.228 C 
ATOM     81  O   UNL A   1      30.132  23.755  23.042  1.00  0.00    -0.274 OA
ATOM     82  N   UNL A   1      31.865  22.476  23.392  1.00  0.00    -0.326 N 
ATOM     83  H   UNL A   1      31.496  22.015  22.604  1.00  0.00     0.169 HD
BRANCH  82  84
ATOM     84  C   UNL A   1      33.035  21.883  23.866  1.00  0.00     0.041 A 
ATOM     85  C   UNL A   1      32.919  20.670  24.549  1.00  0.00     0.026 A 
ATOM     86  C   UNL A   1      34.279  22.501  23.796  1.00  0.00     0.039 A 
ATOM     87  C   UNL A   1      34.053  20.002  25.011  1.00  0.00     0.003 A 
ATOM     88  C   UNL A   1      35.439  21.830  24.233  1.00  0.00     0.058 A 
ATOM     89  C   UNL A   1      35.313  20.567  24.830  1.00  0.00     0.013 A 
BRANCH  88  90
ATOM     90  C   UNL A   1      36.809  22.395  23.955  1.00  0.00     0.416 C 
ATOM     91  F   UNL A   1      36.953  23.680  24.381  1.00  0.00    -0.166 F 
ATOM     92  F   UNL A   1      37.788  21.680  24.577  1.00  0.00    -0.166 F 
ATOM     93  F   UNL A   1      37.139  22.399  22.633  1.00  0.00    -0.166 F 
ENDBRANCH  88  90
ENDBRANCH  82  84
ENDBRANCH  76  80
ENDBRANCH  71  74
ENDBRANCH  69  70
ENDBRANCH   1  69
TORSDOF 16
ENDMDL
MODEL 2
REMARK VINA RESULT:     -11.5      3.677      9.042
REMARK SMILES O=C(NCCCNC(=O)[C@@H]1CCCC[C@@H]1C(=O)Nc1cccc(C(F)(F)F)c1)c1ccc(-c2c3nc(c(-c4ccc(S(=O)(=O)[O-])cc4)c4ccc([nH]4)c(-c4ccc(S(=O)(=O)[O-])cc4)c4nc(c(-c5ccc(S(=O)(=O)[O-])cc5)c5ccc2[nH]5)C=C4)C=C3)cc1
REMARK SMILES IDX 5 1 4 2 3 3 1 4 2 5 29 7 30 8 88 9 31 10 87 11 32 12 33 13
REMARK SMILES IDX 34 14 81 15 35 16 86 17 80 18 82 19 36 20 85 21 79 22 78 23
REMARK SMILES IDX 37 25 67 26 48 27 66 28 49 29 52 30 65 31 83 32 50 33 51 34
REMARK SMILES IDX 64 36 84 37 53 38 38 39 39 40 47 41 40 42 46 43 41 44 42 45
REMARK SMILES IDX 43 46 44 47 45 48 68 49 69 50 77 51 70 52 76 53 71 54 72 55
REMARK SMILES IDX 73 56 74 57 75 58 54 59 55 60 63 61 56 62 62 63 57 64 58 65
REMARK SMILES IDX 59 66 60 67 61 68 6 69 7 70 8 71 9 73 10 74 11 75 15 76
REMARK SMILES IDX 12 77 14 78 13 79 16 80 17 81 18 82 19 84 20 85 28 86 21 87
REMARK SMILES IDX 23 88 22 89 24 90 25 91 26 92 27 93
REMARK H PARENT 3 6 82 24 52 35 7 72 18 83
REMARK Flexibility Score: inf
ROOT
ATOM      1  C   UNL A   1      37.808  20.896  24.696  1.00  0.00     0.042 C 
ENDROOT
BRANCH   1   2
ATOM      2  C   UNL A   1      38.708  20.994  25.920  1.00  0.00     0.118 C 
BRANCH   2   3
ATOM      3  N   UNL A   1      39.640  19.877  26.008  1.00  0.00    -0.352 N 
ATOM      4  O   UNL A   1      41.671  18.894  25.922  1.00  0.00    -0.269 OA
ATOM      5  C   UNL A   1      41.007  19.911  26.118  1.00  0.00     0.251 C 
ATOM      6  H   UNL A   1      39.235  18.980  25.987  1.00  0.00     0.163 HD
BRANCH   5   7
ATOM      7  C   UNL A   1      41.661  21.184  26.468  1.00  0.00     0.039 A 
ATOM      8  C   UNL A   1      41.976  22.095  25.456  1.00  0.00     0.014 A 
ATOM      9  C   UNL A   1      41.958  21.472  27.801  1.00  0.00     0.014 A 
ATOM     10  C   UNL A   1      42.712  23.229  25.755  1.00  0.00     0.010 A 
ATOM     11  C   UNL A   1      42.598  22.672  28.115  1.00  0.00     0.010 A 
ATOM     12  C   UNL A   1      42.982  23.555  27.093  1.00  0.00    -0.014 A 
BRANCH  12  13
ATOM     13  C   UNL A   1      43.515  24.903  27.396  1.00  0.00     0.031 A 
ATOM     14  C   UNL A   1      42.627  26.010  27.879  1.00  0.00     0.074 A 
ATOM     15  C   UNL A   1      44.837  25.099  27.219  1.00  0.00     0.049 A 
ATOM     16  N   UNL A   1      42.950  27.245  28.164  1.00  0.00    -0.248 NA
ATOM     17  C   UNL A   1      41.198  25.707  28.062  1.00  0.00     0.031 C 
ATOM     18  C   UNL A   1      45.784  24.082  26.741  1.00  0.00     0.029 A 
ATOM     19  N   UNL A   1      45.621  26.202  27.425  1.00  0.00    -0.354 N 
ATOM     20  C   UNL A   1      41.769  27.875  28.531  1.00  0.00     0.074 A 
ATOM     21  C   UNL A   1      40.715  26.888  28.431  1.00  0.00     0.031 C 
ATOM     22  C   UNL A   1      47.019  24.598  26.727  1.00  0.00     0.029 A 
ATOM     23  C   UNL A   1      46.944  26.001  27.107  1.00  0.00     0.049 A 
ATOM     24  H   UNL A   1      45.271  27.057  27.768  1.00  0.00     0.167 HD
ATOM     25  C   UNL A   1      41.591  29.163  28.909  1.00  0.00     0.031 A 
ATOM     26  C   UNL A   1      47.978  26.860  27.076  1.00  0.00     0.031 A 
ATOM     27  C   UNL A   1      42.658  30.127  29.008  1.00  0.00     0.049 A 
ATOM     28  C   UNL A   1      47.732  28.289  27.458  1.00  0.00     0.074 A 
ATOM     29  C   UNL A   1      42.588  31.439  29.445  1.00  0.00     0.029 A 
ATOM     30  N   UNL A   1      43.977  29.895  28.649  1.00  0.00    -0.354 N 
ATOM     31  N   UNL A   1      46.621  28.845  27.881  1.00  0.00    -0.248 NA
ATOM     32  C   UNL A   1      48.870  29.208  27.354  1.00  0.00     0.031 C 
ATOM     33  C   UNL A   1      43.847  32.021  29.278  1.00  0.00     0.029 A 
ATOM     34  C   UNL A   1      44.719  31.053  28.805  1.00  0.00     0.049 A 
ATOM     35  H   UNL A   1      44.333  29.033  28.332  1.00  0.00     0.167 HD
ATOM     36  C   UNL A   1      46.931  30.181  28.098  1.00  0.00     0.074 A 
ATOM     37  C   UNL A   1      48.340  30.339  27.798  1.00  0.00     0.031 C 
ATOM     38  C   UNL A   1      46.120  31.189  28.497  1.00  0.00     0.031 A 
BRANCH  25  39
ATOM     39  C   UNL A   1      40.195  29.637  29.216  1.00  0.00    -0.014 A 
ATOM     40  C   UNL A   1      39.819  30.019  30.515  1.00  0.00     0.010 A 
ATOM     41  C   UNL A   1      39.284  29.823  28.158  1.00  0.00     0.010 A 
ATOM     42  C   UNL A   1      38.557  30.575  30.750  1.00  0.00     0.020 A 
ATOM     43  C   UNL A   1      38.031  30.399  28.384  1.00  0.00     0.020 A 
ATOM     44  C   UNL A   1      37.674  30.769  29.682  1.00  0.00     0.054 A 
BRANCH  44  45
ATOM     45  S   UNL A   1      36.078  31.568  30.007  1.00  0.00     0.124 S 
ATOM     46  O   UNL A   1      36.426  32.984  29.924  1.00  0.00    -0.237 OA
ATOM     47  O   UNL A   1      35.241  31.061  28.921  1.00  0.00    -0.237 OA
ATOM     48  O   UNL A   1      35.716  31.094  31.341  1.00  0.00    -0.744 OA
ENDBRANCH  44  45
ENDBRANCH  25  39
BRANCH  26  49
ATOM     49  C   UNL A   1      49.311  26.406  26.595  1.00  0.00    -0.014 A 
ATOM     50  C   UNL A   1      50.183  25.699  27.440  1.00  0.00     0.010 A 
ATOM     51  C   UNL A   1      49.721  26.698  25.280  1.00  0.00     0.010 A 
ATOM     52  C   UNL A   1      51.454  25.329  26.992  1.00  0.00     0.020 A 
ATOM     53  C   UNL A   1      50.974  26.298  24.815  1.00  0.00     0.020 A 
ATOM     54  C   UNL A   1      51.843  25.636  25.683  1.00  0.00     0.054 A 
BRANCH  54  55
ATOM     55  S   UNL A   1      53.496  25.147  25.123  1.00  0.00     0.124 S 
ATOM     56  O   UNL A   1      53.471  23.703  25.339  1.00  0.00    -0.237 OA
ATOM     57  O   UNL A   1      53.497  25.578  23.727  1.00  0.00    -0.237 OA
ATOM     58  O   UNL A   1      54.390  25.898  26.000  1.00  0.00    -0.744 OA
ENDBRANCH  54  55
ENDBRANCH  26  49
BRANCH  38  59
ATOM     59  C   UNL A   1      46.742  32.551  28.640  1.00  0.00    -0.014 A 
ATOM     60  C   UNL A   1      47.357  32.940  29.844  1.00  0.00     0.010 A 
ATOM     61  C   UNL A   1      46.760  33.430  27.543  1.00  0.00     0.010 A 
ATOM     62  C   UNL A   1      47.957  34.195  29.954  1.00  0.00     0.020 A 
ATOM     63  C   UNL A   1      47.388  34.673  27.639  1.00  0.00     0.020 A 
ATOM     64  C   UNL A   1      47.973  35.052  28.848  1.00  0.00     0.054 A 
BRANCH  64  65
ATOM     65  S   UNL A   1      48.813  36.652  29.002  1.00  0.00     0.124 S 
ATOM     66  O   UNL A   1      48.940  36.790  30.450  1.00  0.00    -0.237 OA
ATOM     67  O   UNL A   1      50.062  36.426  28.279  1.00  0.00    -0.237 OA
ATOM     68  O   UNL A   1      47.891  37.590  28.366  1.00  0.00    -0.744 OA
ENDBRANCH  64  65
ENDBRANCH  38  59
ENDBRANCH  12  13
ENDBRANCH   5   7
ENDBRANCH   2   3
ENDBRANCH   1   2
BRANCH   1  69
ATOM     69  C   UNL A   1      36.400  20.433  25.028  1.00  0.00     0.117 C 
BRANCH  69  70
ATOM     70  N   UNL A   1      35.808  21.276  26.049  1.00  0.00    -0.356 N 
ATOM     71  C   UNL A   1      35.049  22.393  25.949  1.00  0.00     0.223 C 
ATOM     72  H   UNL A   1      35.989  20.987  26.972  1.00  0.00     0.163 HD
ATOM     73  O   UNL A   1      34.673  22.901  27.004  1.00  0.00    -0.275 OA
BRANCH  71  74
ATOM     74  C   UNL A   1      34.655  22.912  24.579  1.00  0.00     0.091 C 
ATOM     75  C   UNL A   1      34.651  24.431  24.438  1.00  0.00     0.014 C 
ATOM     76  C   UNL A   1      33.412  22.198  24.053  1.00  0.00     0.091 C 
ATOM     77  C   UNL A   1      34.026  24.950  23.132  1.00  0.00     0.001 C 
ATOM     78  C   UNL A   1      33.159  22.623  22.607  1.00  0.00     0.014 C 
ATOM     79  C   UNL A   1      32.903  24.112  22.515  1.00  0.00     0.001 C 
BRANCH  76  80
ATOM     80  C   UNL A   1      32.101  21.959  24.828  1.00  0.00     0.228 C 
ATOM     81  O   UNL A   1      31.777  20.769  25.006  1.00  0.00    -0.274 OA
ATOM     82  N   UNL A   1      31.231  22.852  25.358  1.00  0.00    -0.326 N 
ATOM     83  H   UNL A   1      30.460  22.421  25.794  1.00  0.00     0.169 HD
BRANCH  82  84
ATOM     84  C   UNL A   1      31.181  24.245  25.429  1.00  0.00     0.041 A 
ATOM     85  C   UNL A   1      31.854  24.867  26.483  1.00  0.00     0.026 A 
ATOM     86  C   UNL A   1      30.397  25.017  24.579  1.00  0.00     0.039 A 
ATOM     87  C   UNL A   1      31.880  26.258  26.588  1.00  0.00     0.003 A 
ATOM     88  C   UNL A   1      30.432  26.425  24.654  1.00  0.00     0.058 A 
ATOM     89  C   UNL A   1      31.193  27.036  25.660  1.00  0.00     0.013 A 
BRANCH  88  90
ATOM     90  C   UNL A   1      29.766  27.270  23.597  1.00  0.00     0.416 C 
ATOM     91  F   UNL A   1      28.428  27.041  23.494  1.00  0.00    -0.166 F 
ATOM     92  F   UNL A   1      29.901  28.602  23.854  1.00  0.00    -0.166 F 
ATOM     93  F   UNL A   1      30.276  27.082  22.347  1.00  0.00    -0.166 F 
ENDBRANCH  88  90
ENDBRANCH  82  84
ENDBRANCH  76  80
ENDBRANCH  71  74
ENDBRANCH  69  70
ENDBRANCH   1  69
TORSDOF 16
ENDMDL
MODEL 3
REMARK VINA RESULT:     -11.5      3.497      9.420
REMARK SMILES O=C(NCCCNC(=O)[C@@H]1CCCC[C@@H]1C(=O)Nc1cccc(C(F)(F)F)c1)c1ccc(-c2c3nc(c(-c4ccc(S(=O)(=O)[O-])cc4)c4ccc([nH]4)c(-c4ccc(S(=O)(=O)[O-])cc4)c4nc(c(-c5ccc(S(=O)(=O)[O-])cc5)c5ccc2[nH]5)C=C4)C=C3)cc1
REMARK SMILES IDX 5 1 4 2 3 3 1 4 2 5 29 7 30 8 88 9 31 10 87 11 32 12 33 13
REMARK SMILES IDX 34 14 81 15 35 16 86 17 80 18 82 19 36 20 85 21 79 22 78 23
REMARK SMILES IDX 37 25 67 26 48 27 66 28 49 29 52 30 65 31 83 32 50 33 51 34
REMARK SMILES IDX 64 36 84 37 53 38 38 39 39 40 47 41 40 42 46 43 41 44 42 45
REMARK SMILES IDX 43 46 44 47 45 48 68 49 69 50 77 51 70 52 76 53 71 54 72 55
REMARK SMILES IDX 73 56 74 57 75 58 54 59 55 60 63 61 56 62 62 63 57 64 58 65
REMARK SMILES IDX 59 66 60 67 61 68 6 69 7 70 8 71 9 73 10 74 11 75 15 76
REMARK SMILES IDX 12 77 14 78 13 79 16 80 17 81 18 82 19 84 20 85 28 86 21 87
REMARK SMILES IDX 23 88 22 89 24 90 25 91 26 92 27 93
REMARK H PARENT 3 6 82 24 52 35 7 72 18 83
REMARK Flexibility Score: inf
ROOT
ATOM      1  C   UNL A   1      35.770  23.597  25.799  1.00  0.00     0.042 C 
ENDROOT
BRANCH   1   2
ATOM      2  C   UNL A   1      37.101  23.679  25.064  1.00  0.00     0.118 C 
BRANCH   2   3
ATOM      3  N   UNL A   1      38.024  22.632  25.480  1.00  0.00    -0.352 N 
ATOM      4  O   UNL A   1      40.006  21.814  26.188  1.00  0.00    -0.269 OA
ATOM      5  C   UNL A   1      39.223  22.760  26.135  1.00  0.00     0.251 C 
ATOM      6  H   UNL A   1      37.752  21.710  25.265  1.00  0.00     0.163 HD
BRANCH   5   7
ATOM      7  C   UNL A   1      39.554  24.050  26.767  1.00  0.00     0.039 A 
ATOM      8  C   UNL A   1      39.172  24.284  28.091  1.00  0.00     0.014 A 
ATOM      9  C   UNL A   1      40.244  25.024  26.044  1.00  0.00     0.014 A 
ATOM     10  C   UNL A   1      39.355  25.538  28.648  1.00  0.00     0.010 A 
ATOM     11  C   UNL A   1      40.531  26.249  26.648  1.00  0.00     0.010 A 
ATOM     12  C   UNL A   1      40.084  26.514  27.952  1.00  0.00    -0.014 A 
BRANCH  12  13
ATOM     13  C   UNL A   1      40.505  27.732  28.681  1.00  0.00     0.031 A 
ATOM     14  C   UNL A   1      39.565  28.878  28.908  1.00  0.00     0.074 A 
ATOM     15  C   UNL A   1      41.774  27.774  29.135  1.00  0.00     0.049 A 
ATOM     16  N   UNL A   1      39.800  30.015  29.511  1.00  0.00    -0.248 NA
ATOM     17  C   UNL A   1      38.192  28.744  28.395  1.00  0.00     0.031 C 
ATOM     18  C   UNL A   1      42.770  26.709  28.952  1.00  0.00     0.029 A 
ATOM     19  N   UNL A   1      42.448  28.731  29.846  1.00  0.00    -0.354 N 
ATOM     20  C   UNL A   1      38.622  30.744  29.427  1.00  0.00     0.074 A 
ATOM     21  C   UNL A   1      37.668  29.923  28.711  1.00  0.00     0.031 C 
ATOM     22  C   UNL A   1      43.908  27.057  29.566  1.00  0.00     0.029 A 
ATOM     23  C   UNL A   1      43.756  28.399  30.108  1.00  0.00     0.049 A 
ATOM     24  H   UNL A   1      42.034  29.575  30.141  1.00  0.00     0.167 HD
ATOM     25  C   UNL A   1      38.372  31.987  29.902  1.00  0.00     0.031 A 
ATOM     26  C   UNL A   1      44.744  29.111  30.678  1.00  0.00     0.031 A 
ATOM     27  C   UNL A   1      39.337  32.782  30.619  1.00  0.00     0.049 A 
ATOM     28  C   UNL A   1      44.440  30.503  31.150  1.00  0.00     0.074 A 
ATOM     29  C   UNL A   1      39.158  34.028  31.197  1.00  0.00     0.029 A 
ATOM     30  N   UNL A   1      40.658  32.426  30.837  1.00  0.00    -0.354 N 
ATOM     31  N   UNL A   1      43.295  31.142  31.134  1.00  0.00    -0.248 NA
ATOM     32  C   UNL A   1      45.557  31.269  31.712  1.00  0.00     0.031 C 
ATOM     33  C   UNL A   1      40.391  34.456  31.698  1.00  0.00     0.029 A 
ATOM     34  C   UNL A   1      41.321  33.449  31.495  1.00  0.00     0.049 A 
ATOM     35  H   UNL A   1      41.066  31.571  30.566  1.00  0.00     0.167 HD
ATOM     36  C   UNL A   1      43.555  32.389  31.688  1.00  0.00     0.074 A 
ATOM     37  C   UNL A   1      44.954  32.396  32.064  1.00  0.00     0.031 C 
ATOM     38  C   UNL A   1      42.715  33.437  31.857  1.00  0.00     0.031 A 
BRANCH  25  39
ATOM     39  C   UNL A   1      37.020  32.598  29.645  1.00  0.00    -0.014 A 
ATOM     40  C   UNL A   1      36.017  32.601  30.630  1.00  0.00     0.010 A 
ATOM     41  C   UNL A   1      36.798  33.293  28.440  1.00  0.00     0.010 A 
ATOM     42  C   UNL A   1      34.816  33.285  30.412  1.00  0.00     0.020 A 
ATOM     43  C   UNL A   1      35.609  33.996  28.228  1.00  0.00     0.020 A 
ATOM     44  C   UNL A   1      34.624  33.986  29.216  1.00  0.00     0.054 A 
BRANCH  44  45
ATOM     45  S   UNL A   1      33.090  34.930  28.998  1.00  0.00     0.124 S 
ATOM     46  O   UNL A   1      33.597  36.246  28.614  1.00  0.00    -0.237 OA
ATOM     47  O   UNL A   1      32.406  34.188  27.943  1.00  0.00    -0.237 OA
ATOM     48  O   UNL A   1      32.454  34.869  30.312  1.00  0.00    -0.744 OA
ENDBRANCH  44  45
ENDBRANCH  25  39
BRANCH  26  49
ATOM     49  C   UNL A   1      46.119  28.550  30.757  1.00  0.00    -0.014 A 
ATOM     50  C   UNL A   1      47.037  28.732  29.709  1.00  0.00     0.010 A 
ATOM     51  C   UNL A   1      46.512  27.810  31.889  1.00  0.00     0.010 A 
ATOM     52  C   UNL A   1      48.306  28.150  29.773  1.00  0.00     0.020 A 
ATOM     53  C   UNL A   1      47.792  27.260  31.975  1.00  0.00     0.020 A 
ATOM     54  C   UNL A   1      48.673  27.413  30.905  1.00  0.00     0.054 A 
BRANCH  54  55
ATOM     55  S   UNL A   1      50.323  26.668  30.967  1.00  0.00     0.124 S 
ATOM     56  O   UNL A   1      51.081  27.541  30.076  1.00  0.00    -0.237 OA
ATOM     57  O   UNL A   1      50.661  26.764  32.385  1.00  0.00    -0.237 OA
ATOM     58  O   UNL A   1      50.104  25.310  30.477  1.00  0.00    -0.744 OA
ENDBRANCH  54  55
ENDBRANCH  26  49
BRANCH  38  59
ATOM     59  C   UNL A   1      43.288  34.677  32.487  1.00  0.00    -0.014 A 
ATOM     60  C   UNL A   1      43.805  35.716  31.693  1.00  0.00     0.010 A 
ATOM     61  C   UNL A   1      43.260  34.827  33.885  1.00  0.00     0.010 A 
ATOM     62  C   UNL A   1      44.307  36.874  32.290  1.00  0.00     0.020 A 
ATOM     63  C   UNL A   1      43.731  35.997  34.483  1.00  0.00     0.020 A 
ATOM     64  C   UNL A   1      44.261  37.009  33.681  1.00  0.00     0.054 A 
BRANCH  64  65
ATOM     65  S   UNL A   1      44.865  38.550  34.424  1.00  0.00     0.124 S 
ATOM     66  O   UNL A   1      46.017  38.861  33.583  1.00  0.00    -0.237 OA
ATOM     67  O   UNL A   1      43.718  39.443  34.278  1.00  0.00    -0.237 OA
ATOM     68  O   UNL A   1      45.182  38.170  35.799  1.00  0.00    -0.744 OA
ENDBRANCH  64  65
ENDBRANCH  38  59
ENDBRANCH  12  13
ENDBRANCH   5   7
ENDBRANCH   2   3
ENDBRANCH   1   2
BRANCH   1  69
ATOM     69  C   UNL A   1      34.971  24.886  25.730  1.00  0.00     0.117 C 
BRANCH  69  70
ATOM     70  N   UNL A   1      33.572  24.611  25.465  1.00  0.00    -0.356 N 
ATOM     71  C   UNL A   1      32.497  25.435  25.420  1.00  0.00     0.223 C 
ATOM     72  H   UNL A   1      33.368  23.665  25.288  1.00  0.00     0.163 HD
ATOM     73  O   UNL A   1      31.414  24.915  25.157  1.00  0.00    -0.275 OA
BRANCH  71  74
ATOM     74  C   UNL A   1      32.687  26.927  25.623  1.00  0.00     0.091 C 
ATOM     75  C   UNL A   1      31.453  27.675  26.117  1.00  0.00     0.014 C 
ATOM     76  C   UNL A   1      33.412  27.559  24.438  1.00  0.00     0.091 C 
ATOM     77  C   UNL A   1      31.583  29.208  26.092  1.00  0.00     0.001 C 
ATOM     78  C   UNL A   1      33.737  29.017  24.763  1.00  0.00     0.014 C 
ATOM     79  C   UNL A   1      32.473  29.814  25.005  1.00  0.00     0.001 C 
BRANCH  76  80
ATOM     80  C   UNL A   1      33.072  27.358  22.948  1.00  0.00     0.228 C 
ATOM     81  O   UNL A   1      33.989  26.915  22.230  1.00  0.00    -0.274 OA
ATOM     82  N   UNL A   1      31.913  27.586  22.283  1.00  0.00    -0.326 N 
ATOM     83  H   UNL A   1      31.979  27.380  21.322  1.00  0.00     0.169 HD
BRANCH  82  84
ATOM     84  C   UNL A   1      30.648  28.044  22.652  1.00  0.00     0.041 A 
ATOM     85  C   UNL A   1      29.703  27.096  23.049  1.00  0.00     0.026 A 
ATOM     86  C   UNL A   1      30.259  29.373  22.522  1.00  0.00     0.039 A 
ATOM     87  C   UNL A   1      28.433  27.491  23.471  1.00  0.00     0.003 A 
ATOM     88  C   UNL A   1      28.990  29.795  22.969  1.00  0.00     0.058 A 
ATOM     89  C   UNL A   1      28.086  28.839  23.456  1.00  0.00     0.013 A 
BRANCH  88  90
ATOM     90  C   UNL A   1      28.644  31.261  23.042  1.00  0.00     0.416 C 
ATOM     91  F   UNL A   1      29.257  31.904  24.072  1.00  0.00    -0.166 F 
ATOM     92  F   UNL A   1      29.012  31.925  21.911  1.00  0.00    -0.166 F 
ATOM     93  F   UNL A   1      27.311  31.499  23.192  1.00  0.00    -0.166 F 
ENDBRANCH  88  90
ENDBRANCH  82  84
ENDBRANCH  76  80
ENDBRANCH  71  74
ENDBRANCH  69  70
ENDBRANCH   1  69
TORSDOF 16
ENDMDL
