MODEL 1
REMARK VINA RESULT:     -12.1      0.000      0.000
REMARK SMILES O=C(NCCCNC(=O)c1cn(-c2ccccc2)c2c1N=C(O)C[C@@H]2c1cccs1)c1ccc(-c2c3nc(c(-c4ccc(S(=O)(=O)[O-])cc4)c4ccc([nH]4)c(-c4ccc(S(=O)(=O)[O-])cc4)c4nc(c(-c5ccc(S(=O)(=O)[O-])cc5)c5ccc2[nH]5)C=C4)C=C3)cc1
REMARK SMILES IDX 4 1 3 2 1 3 2 4 31 6 32 7 90 8 33 9 89 10 34 11 35 12 36 13
REMARK SMILES IDX 83 14 37 15 88 16 82 17 84 18 38 19 87 20 81 21 80 22 39 24
REMARK SMILES IDX 69 25 50 26 68 27 51 28 54 29 67 30 85 31 52 32 53 33 66 35
REMARK SMILES IDX 86 36 55 37 40 38 41 39 49 40 42 41 48 42 43 43 44 44 45 45
REMARK SMILES IDX 46 46 47 47 70 48 71 49 79 50 72 51 78 52 73 53 74 54 75 55
REMARK SMILES IDX 76 56 77 57 56 58 57 59 65 60 58 61 64 62 59 63 60 64 61 65
REMARK SMILES IDX 62 66 63 67 5 68 6 69 7 70 8 71 9 73 10 74 11 75 20 76 12 77
REMARK SMILES IDX 19 78 21 79 25 80 22 81 24 82 13 83 14 84 18 85 15 86 17 87
REMARK SMILES IDX 16 88 26 89 27 90 30 91 28 92 29 93 23 94
REMARK H PARENT 3 5 84 23 54 34 7 72 23 95
REMARK Flexibility Score: inf
ROOT
ATOM      1  C   UNL A   1      37.847  32.804  34.480  1.00  0.00     0.118 C 
ENDROOT
BRANCH   1   2
ATOM      2  N   UNL A   1      37.941  31.629  35.322  1.00  0.00    -0.352 N 
ATOM      3  O   UNL A   1      38.690  29.919  36.492  1.00  0.00    -0.269 OA
ATOM      4  C   UNL A   1      38.861  30.631  35.497  1.00  0.00     0.251 C 
ATOM      5  H   UNL A   1      37.155  31.522  35.906  1.00  0.00     0.163 HD
BRANCH   4   6
ATOM      6  C   UNL A   1      39.991  30.308  34.578  1.00  0.00     0.039 A 
ATOM      7  C   UNL A   1      41.320  30.706  34.731  1.00  0.00     0.014 A 
ATOM      8  C   UNL A   1      39.653  29.545  33.440  1.00  0.00     0.014 A 
ATOM      9  C   UNL A   1      42.268  30.392  33.752  1.00  0.00     0.010 A 
ATOM     10  C   UNL A   1      40.596  29.226  32.464  1.00  0.00     0.010 A 
ATOM     11  C   UNL A   1      41.906  29.665  32.611  1.00  0.00    -0.014 A 
BRANCH  11  12
ATOM     12  C   UNL A   1      42.959  29.246  31.683  1.00  0.00     0.031 A 
ATOM     13  C   UNL A   1      43.256  30.211  30.587  1.00  0.00     0.074 A 
ATOM     14  C   UNL A   1      43.756  28.168  31.826  1.00  0.00     0.049 A 
ATOM     15  N   UNL A   1      43.043  30.064  29.320  1.00  0.00    -0.248 NA
ATOM     16  C   UNL A   1      43.783  31.533  30.959  1.00  0.00     0.031 C 
ATOM     17  C   UNL A   1      43.872  27.273  32.977  1.00  0.00     0.029 A 
ATOM     18  N   UNL A   1      44.718  27.702  30.973  1.00  0.00    -0.354 N 
ATOM     19  C   UNL A   1      43.569  31.198  28.704  1.00  0.00     0.074 A 
ATOM     20  C   UNL A   1      43.892  32.121  29.767  1.00  0.00     0.031 C 
ATOM     21  C   UNL A   1      44.984  26.512  32.839  1.00  0.00     0.029 A 
ATOM     22  C   UNL A   1      45.576  26.763  31.534  1.00  0.00     0.049 A 
ATOM     23  H   UNL A   1      44.797  28.006  30.039  1.00  0.00     0.167 HD
ATOM     24  C   UNL A   1      43.879  31.229  27.377  1.00  0.00     0.031 A 
ATOM     25  C   UNL A   1      46.713  26.265  30.984  1.00  0.00     0.031 A 
ATOM     26  C   UNL A   1      43.335  30.105  26.666  1.00  0.00     0.049 A 
ATOM     27  C   UNL A   1      46.640  26.479  29.520  1.00  0.00     0.074 A 
ATOM     28  C   UNL A   1      42.068  29.609  26.435  1.00  0.00     0.029 A 
ATOM     29  N   UNL A   1      44.205  29.093  26.336  1.00  0.00    -0.354 N 
ATOM     30  N   UNL A   1      45.808  25.854  28.736  1.00  0.00    -0.248 NA
ATOM     31  C   UNL A   1      47.250  27.672  28.954  1.00  0.00     0.031 C 
ATOM     32  C   UNL A   1      42.222  28.192  26.437  1.00  0.00     0.029 A 
ATOM     33  C   UNL A   1      43.577  27.909  26.622  1.00  0.00     0.049 A 
ATOM     34  H   UNL A   1      45.110  29.199  25.964  1.00  0.00     0.167 HD
ATOM     35  C   UNL A   1      45.467  26.783  27.767  1.00  0.00     0.074 A 
ATOM     36  C   UNL A   1      46.470  27.837  27.884  1.00  0.00     0.031 C 
ATOM     37  C   UNL A   1      44.250  26.741  27.147  1.00  0.00     0.031 A 
BRANCH  24  38
ATOM     38  C   UNL A   1      44.971  32.081  26.775  1.00  0.00    -0.014 A 
ATOM     39  C   UNL A   1      46.316  31.774  27.073  1.00  0.00     0.010 A 
ATOM     40  C   UNL A   1      44.718  33.327  26.168  1.00  0.00     0.010 A 
ATOM     41  C   UNL A   1      47.344  32.697  26.843  1.00  0.00     0.020 A 
ATOM     42  C   UNL A   1      45.742  34.237  25.891  1.00  0.00     0.020 A 
ATOM     43  C   UNL A   1      47.044  33.932  26.267  1.00  0.00     0.054 A 
BRANCH  43  44
ATOM     44  S   UNL A   1      48.359  35.164  26.082  1.00  0.00     0.124 S 
ATOM     45  O   UNL A   1      48.974  35.145  27.405  1.00  0.00    -0.237 OA
ATOM     46  O   UNL A   1      49.162  34.599  25.000  1.00  0.00    -0.237 OA
ATOM     47  O   UNL A   1      47.636  36.386  25.742  1.00  0.00    -0.744 OA
ENDBRANCH  43  44
ENDBRANCH  24  38
BRANCH  25  48
ATOM     48  C   UNL A   1      47.967  25.840  31.653  1.00  0.00    -0.014 A 
ATOM     49  C   UNL A   1      47.962  25.404  32.994  1.00  0.00     0.010 A 
ATOM     50  C   UNL A   1      49.121  25.582  30.888  1.00  0.00     0.010 A 
ATOM     51  C   UNL A   1      49.038  24.672  33.523  1.00  0.00     0.020 A 
ATOM     52  C   UNL A   1      50.202  24.862  31.410  1.00  0.00     0.020 A 
ATOM     53  C   UNL A   1      50.144  24.385  32.717  1.00  0.00     0.054 A 
BRANCH  53  54
ATOM     54  S   UNL A   1      51.439  23.270  33.339  1.00  0.00     0.124 S 
ATOM     55  O   UNL A   1      52.637  24.099  33.240  1.00  0.00    -0.237 OA
ATOM     56  O   UNL A   1      50.984  22.978  34.695  1.00  0.00    -0.237 OA
ATOM     57  O   UNL A   1      51.390  22.138  32.416  1.00  0.00    -0.744 OA
ENDBRANCH  53  54
ENDBRANCH  25  48
BRANCH  37  58
ATOM     58  C   UNL A   1      43.428  25.478  27.244  1.00  0.00    -0.014 A 
ATOM     59  C   UNL A   1      42.444  25.254  28.225  1.00  0.00     0.010 A 
ATOM     60  C   UNL A   1      43.567  24.536  26.207  1.00  0.00     0.010 A 
ATOM     61  C   UNL A   1      41.641  24.104  28.185  1.00  0.00     0.020 A 
ATOM     62  C   UNL A   1      42.756  23.400  26.149  1.00  0.00     0.020 A 
ATOM     63  C   UNL A   1      41.801  23.185  27.144  1.00  0.00     0.054 A 
BRANCH  63  64
ATOM     64  S   UNL A   1      40.721  21.729  27.067  1.00  0.00     0.124 S 
ATOM     65  O   UNL A   1      39.424  22.313  26.738  1.00  0.00    -0.237 OA
ATOM     66  O   UNL A   1      41.333  20.923  26.012  1.00  0.00    -0.237 OA
ATOM     67  O   UNL A   1      40.817  21.153  28.407  1.00  0.00    -0.744 OA
ENDBRANCH  63  64
ENDBRANCH  37  58
ENDBRANCH  11  12
ENDBRANCH   4   6
ENDBRANCH   1   2
BRANCH   1  68
ATOM     68  C   UNL A   1      36.984  33.932  35.034  1.00  0.00     0.042 C 
BRANCH  68  69
ATOM     69  C   UNL A   1      36.018  34.566  34.036  1.00  0.00     0.118 C 
BRANCH  69  70
ATOM     70  N   UNL A   1      34.674  34.004  34.081  1.00  0.00    -0.352 N 
ATOM     71  C   UNL A   1      34.040  33.208  33.157  1.00  0.00     0.255 C 
ATOM     72  H   UNL A   1      34.147  34.226  34.883  1.00  0.00     0.163 HD
ATOM     73  O   UNL A   1      32.856  32.907  33.354  1.00  0.00    -0.269 OA
BRANCH  71  74
ATOM     74  C   UNL A   1      34.739  32.801  31.952  1.00  0.00     0.084 A 
ATOM     75  C   UNL A   1      35.702  31.805  31.897  1.00  0.00     0.107 A 
ATOM     76  C   UNL A   1      34.625  33.272  30.626  1.00  0.00     0.101 A 
ATOM     77  N   UNL A   1      36.123  31.633  30.588  1.00  0.00    -0.317 N 
ATOM     78  C   UNL A   1      35.359  32.471  29.791  1.00  0.00     0.058 A 
ATOM     79  N   UNL A   1      33.757  34.273  30.207  1.00  0.00    -0.215 NA
ATOM     80  C   UNL A   1      35.176  32.409  28.309  1.00  0.00     0.088 C 
ATOM     81  C   UNL A   1      33.588  34.344  28.933  1.00  0.00     0.187 C 
ATOM     82  C   UNL A   1      34.278  33.572  27.837  1.00  0.00     0.112 C 
BRANCH  77  83
ATOM     83  C   UNL A   1      37.108  30.698  30.177  1.00  0.00     0.045 A 
ATOM     84  C   UNL A   1      36.977  29.343  30.500  1.00  0.00     0.026 A 
ATOM     85  C   UNL A   1      38.220  31.141  29.449  1.00  0.00     0.026 A 
ATOM     86  C   UNL A   1      37.967  28.439  30.113  1.00  0.00     0.002 A 
ATOM     87  C   UNL A   1      39.220  30.235  29.093  1.00  0.00     0.002 A 
ATOM     88  C   UNL A   1      39.094  28.886  29.423  1.00  0.00     0.000 A 
ENDBRANCH  77  83
BRANCH  80  89
ATOM     89  C   UNL A   1      34.613  31.097  27.764  1.00  0.00     0.014 A 
ATOM     90  C   UNL A   1      35.337  29.943  27.502  1.00  0.00     0.016 A 
ATOM     91  S   UNL A   1      32.967  30.888  27.313  1.00  0.00    -0.148 S 
ATOM     92  C   UNL A   1      34.536  28.896  26.962  1.00  0.00     0.012 A 
ATOM     93  C   UNL A   1      33.217  29.267  26.844  1.00  0.00     0.065 A 
ENDBRANCH  80  89
BRANCH  81  94
ATOM     94  O   UNL A   1      32.700  35.253  28.473  1.00  0.00    -0.496 OA
ATOM     95  H   UNL A   1      31.784  35.124  28.613  1.00  0.00     0.294 HD
ENDBRANCH  81  94
ENDBRANCH  71  74
ENDBRANCH  69  70
ENDBRANCH  68  69
ENDBRANCH   1  68
TORSDOF 16
ENDMDL
MODEL 2
REMARK VINA RESULT:     -11.7      4.104      9.925
REMARK SMILES O=C(NCCCNC(=O)c1cn(-c2ccccc2)c2c1N=C(O)C[C@@H]2c1cccs1)c1ccc(-c2c3nc(c(-c4ccc(S(=O)(=O)[O-])cc4)c4ccc([nH]4)c(-c4ccc(S(=O)(=O)[O-])cc4)c4nc(c(-c5ccc(S(=O)(=O)[O-])cc5)c5ccc2[nH]5)C=C4)C=C3)cc1
REMARK SMILES IDX 4 1 3 2 1 3 2 4 31 6 32 7 90 8 33 9 89 10 34 11 35 12 36 13
REMARK SMILES IDX 83 14 37 15 88 16 82 17 84 18 38 19 87 20 81 21 80 22 39 24
REMARK SMILES IDX 69 25 50 26 68 27 51 28 54 29 67 30 85 31 52 32 53 33 66 35
REMARK SMILES IDX 86 36 55 37 40 38 41 39 49 40 42 41 48 42 43 43 44 44 45 45
REMARK SMILES IDX 46 46 47 47 70 48 71 49 79 50 72 51 78 52 73 53 74 54 75 55
REMARK SMILES IDX 76 56 77 57 56 58 57 59 65 60 58 61 64 62 59 63 60 64 61 65
REMARK SMILES IDX 62 66 63 67 5 68 6 69 7 70 8 71 9 73 10 74 11 75 20 76 12 77
REMARK SMILES IDX 19 78 21 79 25 80 22 81 24 82 13 83 14 84 18 85 15 86 17 87
REMARK SMILES IDX 16 88 26 89 27 90 30 91 28 92 29 93 23 94
REMARK H PARENT 3 5 84 23 54 34 7 72 23 95
REMARK Flexibility Score: inf
ROOT
ATOM      1  C   UNL A   1      38.006  21.729  25.781  1.00  0.00     0.118 C 
ENDROOT
BRANCH   1   2
ATOM      2  N   UNL A   1      39.438  21.534  25.682  1.00  0.00    -0.352 N 
ATOM      3  O   UNL A   1      41.608  21.555  26.066  1.00  0.00    -0.269 OA
ATOM      4  C   UNL A   1      40.541  22.166  26.189  1.00  0.00     0.251 C 
ATOM      5  H   UNL A   1      39.674  20.764  25.115  1.00  0.00     0.163 HD
BRANCH   4   6
ATOM      6  C   UNL A   1      40.567  23.523  26.810  1.00  0.00     0.039 A 
ATOM      7  C   UNL A   1      39.674  24.564  26.555  1.00  0.00     0.014 A 
ATOM      8  C   UNL A   1      41.618  23.756  27.722  1.00  0.00     0.014 A 
ATOM      9  C   UNL A   1      39.857  25.814  27.157  1.00  0.00     0.010 A 
ATOM     10  C   UNL A   1      41.802  24.999  28.327  1.00  0.00     0.010 A 
ATOM     11  C   UNL A   1      40.928  26.038  28.032  1.00  0.00    -0.014 A 
BRANCH  11  12
ATOM     12  C   UNL A   1      41.000  27.319  28.739  1.00  0.00     0.031 A 
ATOM     13  C   UNL A   1      42.039  28.261  28.234  1.00  0.00     0.074 A 
ATOM     14  C   UNL A   1      40.133  27.756  29.674  1.00  0.00     0.049 A 
ATOM     15  N   UNL A   1      43.111  28.659  28.839  1.00  0.00    -0.248 NA
ATOM     16  C   UNL A   1      41.903  28.761  26.858  1.00  0.00     0.031 C 
ATOM     17  C   UNL A   1      38.864  27.154  30.084  1.00  0.00     0.029 A 
ATOM     18  N   UNL A   1      40.175  28.914  30.399  1.00  0.00    -0.354 N 
ATOM     19  C   UNL A   1      43.704  29.598  27.997  1.00  0.00     0.074 A 
ATOM     20  C   UNL A   1      42.991  29.524  26.744  1.00  0.00     0.031 C 
ATOM     21  C   UNL A   1      38.164  28.050  30.820  1.00  0.00     0.029 A 
ATOM     22  C   UNL A   1      38.988  29.227  31.050  1.00  0.00     0.049 A 
ATOM     23  H   UNL A   1      40.980  29.480  30.455  1.00  0.00     0.167 HD
ATOM     24  C   UNL A   1      44.617  30.505  28.446  1.00  0.00     0.031 A 
ATOM     25  C   UNL A   1      38.690  30.386  31.691  1.00  0.00     0.031 A 
ATOM     26  C   UNL A   1      45.096  30.187  29.763  1.00  0.00     0.049 A 
ATOM     27  C   UNL A   1      39.965  31.059  32.028  1.00  0.00     0.074 A 
ATOM     28  C   UNL A   1      45.761  29.121  30.336  1.00  0.00     0.029 A 
ATOM     29  N   UNL A   1      44.591  30.923  30.808  1.00  0.00    -0.354 N 
ATOM     30  N   UNL A   1      40.810  30.612  32.914  1.00  0.00    -0.248 NA
ATOM     31  C   UNL A   1      40.495  32.056  31.113  1.00  0.00     0.031 C 
ATOM     32  C   UNL A   1      45.222  29.014  31.651  1.00  0.00     0.029 A 
ATOM     33  C   UNL A   1      44.296  30.046  31.818  1.00  0.00     0.049 A 
ATOM     34  H   UNL A   1      44.464  31.900  30.826  1.00  0.00     0.167 HD
ATOM     35  C   UNL A   1      42.059  30.937  32.410  1.00  0.00     0.074 A 
ATOM     36  C   UNL A   1      41.799  31.923  31.366  1.00  0.00     0.031 C 
ATOM     37  C   UNL A   1      43.157  30.177  32.700  1.00  0.00     0.031 A 
BRANCH  24  38
ATOM     38  C   UNL A   1      44.821  31.878  27.852  1.00  0.00    -0.014 A 
ATOM     39  C   UNL A   1      46.110  32.242  27.405  1.00  0.00     0.010 A 
ATOM     40  C   UNL A   1      43.872  32.911  27.978  1.00  0.00     0.010 A 
ATOM     41  C   UNL A   1      46.450  33.579  27.169  1.00  0.00     0.020 A 
ATOM     42  C   UNL A   1      44.188  34.244  27.699  1.00  0.00     0.020 A 
ATOM     43  C   UNL A   1      45.486  34.574  27.334  1.00  0.00     0.054 A 
BRANCH  43  44
ATOM     44  S   UNL A   1      45.965  36.310  27.140  1.00  0.00     0.124 S 
ATOM     45  O   UNL A   1      46.690  36.280  25.873  1.00  0.00    -0.237 OA
ATOM     46  O   UNL A   1      44.672  36.988  27.116  1.00  0.00    -0.237 OA
ATOM     47  O   UNL A   1      46.780  36.573  28.324  1.00  0.00    -0.744 OA
ENDBRANCH  43  44
ENDBRANCH  24  38
BRANCH  25  48
ATOM     48  C   UNL A   1      37.381  31.075  31.817  1.00  0.00    -0.014 A 
ATOM     49  C   UNL A   1      36.944  31.578  33.060  1.00  0.00     0.010 A 
ATOM     50  C   UNL A   1      36.696  31.500  30.663  1.00  0.00     0.010 A 
ATOM     51  C   UNL A   1      35.910  32.528  33.133  1.00  0.00     0.020 A 
ATOM     52  C   UNL A   1      35.658  32.438  30.729  1.00  0.00     0.020 A 
ATOM     53  C   UNL A   1      35.290  32.970  31.962  1.00  0.00     0.054 A 
BRANCH  53  54
ATOM     54  S   UNL A   1      34.097  34.340  32.043  1.00  0.00     0.124 S 
ATOM     55  O   UNL A   1      34.922  35.443  32.526  1.00  0.00    -0.237 OA
ATOM     56  O   UNL A   1      33.644  34.449  30.658  1.00  0.00    -0.237 OA
ATOM     57  O   UNL A   1      33.087  33.861  32.984  1.00  0.00    -0.744 OA
ENDBRANCH  53  54
ENDBRANCH  25  48
BRANCH  37  58
ATOM     58  C   UNL A   1      43.086  29.210  33.858  1.00  0.00    -0.014 A 
ATOM     59  C   UNL A   1      43.403  29.550  35.186  1.00  0.00     0.010 A 
ATOM     60  C   UNL A   1      42.541  27.938  33.603  1.00  0.00     0.010 A 
ATOM     61  C   UNL A   1      43.206  28.630  36.227  1.00  0.00     0.020 A 
ATOM     62  C   UNL A   1      42.321  27.026  34.638  1.00  0.00     0.020 A 
ATOM     63  C   UNL A   1      42.663  27.374  35.946  1.00  0.00     0.054 A 
BRANCH  63  64
ATOM     64  S   UNL A   1      42.358  26.211  37.305  1.00  0.00     0.124 S 
ATOM     65  O   UNL A   1      40.941  26.420  37.590  1.00  0.00    -0.237 OA
ATOM     66  O   UNL A   1      42.694  24.918  36.711  1.00  0.00    -0.237 OA
ATOM     67  O   UNL A   1      43.272  26.656  38.356  1.00  0.00    -0.744 OA
ENDBRANCH  63  64
ENDBRANCH  37  58
ENDBRANCH  11  12
ENDBRANCH   4   6
ENDBRANCH   1   2
BRANCH   1  68
ATOM     68  C   UNL A   1      37.323  22.188  24.498  1.00  0.00     0.042 C 
BRANCH  68  69
ATOM     69  C   UNL A   1      35.814  22.392  24.597  1.00  0.00     0.118 C 
BRANCH  69  70
ATOM     70  N   UNL A   1      35.199  21.692  25.718  1.00  0.00    -0.352 N 
ATOM     71  C   UNL A   1      34.103  22.054  26.465  1.00  0.00     0.255 C 
ATOM     72  H   UNL A   1      35.627  20.844  25.975  1.00  0.00     0.163 HD
ATOM     73  O   UNL A   1      33.794  21.351  27.435  1.00  0.00    -0.269 OA
BRANCH  71  74
ATOM     74  C   UNL A   1      33.383  23.274  26.149  1.00  0.00     0.084 A 
ATOM     75  C   UNL A   1      33.594  24.497  26.769  1.00  0.00     0.107 A 
ATOM     76  C   UNL A   1      32.367  23.517  25.201  1.00  0.00     0.101 A 
ATOM     77  N   UNL A   1      32.783  25.460  26.191  1.00  0.00    -0.317 N 
ATOM     78  C   UNL A   1      32.110  24.862  25.138  1.00  0.00     0.058 A 
ATOM     79  N   UNL A   1      31.842  22.567  24.334  1.00  0.00    -0.215 NA
ATOM     80  C   UNL A   1      31.403  25.532  24.004  1.00  0.00     0.088 C 
ATOM     81  C   UNL A   1      31.154  23.047  23.357  1.00  0.00     0.187 C 
ATOM     82  C   UNL A   1      30.751  24.474  23.088  1.00  0.00     0.112 C 
BRANCH  77  83
ATOM     83  C   UNL A   1      32.742  26.821  26.591  1.00  0.00     0.045 A 
ATOM     84  C   UNL A   1      31.581  27.357  27.159  1.00  0.00     0.026 A 
ATOM     85  C   UNL A   1      33.871  27.630  26.408  1.00  0.00     0.026 A 
ATOM     86  C   UNL A   1      31.546  28.705  27.523  1.00  0.00     0.002 A 
ATOM     87  C   UNL A   1      33.816  28.983  26.745  1.00  0.00     0.002 A 
ATOM     88  C   UNL A   1      32.656  29.520  27.303  1.00  0.00     0.000 A 
ENDBRANCH  77  83
BRANCH  80  89
ATOM     89  C   UNL A   1      32.257  26.467  23.150  1.00  0.00     0.014 A 
ATOM     90  C   UNL A   1      33.322  26.094  22.343  1.00  0.00     0.016 A 
ATOM     91  S   UNL A   1      32.058  28.176  23.129  1.00  0.00    -0.148 S 
ATOM     92  C   UNL A   1      33.945  27.201  21.700  1.00  0.00     0.012 A 
ATOM     93  C   UNL A   1      33.330  28.391  22.012  1.00  0.00     0.065 A 
ENDBRANCH  80  89
BRANCH  81  94
ATOM     94  O   UNL A   1      30.679  22.173  22.443  1.00  0.00    -0.496 OA
ATOM     95  H   UNL A   1      30.401  21.320  22.712  1.00  0.00     0.294 HD
ENDBRANCH  81  94
ENDBRANCH  71  74
ENDBRANCH  69  70
ENDBRANCH  68  69
ENDBRANCH   1  68
TORSDOF 16
ENDMDL
MODEL 3
REMARK VINA RESULT:     -11.6      3.146      8.666
REMARK SMILES O=C(NCCCNC(=O)c1cn(-c2ccccc2)c2c1N=C(O)C[C@@H]2c1cccs1)c1ccc(-c2c3nc(c(-c4ccc(S(=O)(=O)[O-])cc4)c4ccc([nH]4)c(-c4ccc(S(=O)(=O)[O-])cc4)c4nc(c(-c5ccc(S(=O)(=O)[O-])cc5)c5ccc2[nH]5)C=C4)C=C3)cc1
REMARK SMILES IDX 4 1 3 2 1 3 2 4 31 6 32 7 90 8 33 9 89 10 34 11 35 12 36 13
REMARK SMILES IDX 83 14 37 15 88 16 82 17 84 18 38 19 87 20 81 21 80 22 39 24
REMARK SMILES IDX 69 25 50 26 68 27 51 28 54 29 67 30 85 31 52 32 53 33 66 35
REMARK SMILES IDX 86 36 55 37 40 38 41 39 49 40 42 41 48 42 43 43 44 44 45 45
REMARK SMILES IDX 46 46 47 47 70 48 71 49 79 50 72 51 78 52 73 53 74 54 75 55
REMARK SMILES IDX 76 56 77 57 56 58 57 59 65 60 58 61 64 62 59 63 60 64 61 65
REMARK SMILES IDX 62 66 63 67 5 68 6 69 7 70 8 71 9 73 10 74 11 75 20 76 12 77
REMARK SMILES IDX 19 78 21 79 25 80 22 81 24 82 13 83 14 84 18 85 15 86 17 87
REMARK SMILES IDX 16 88 26 89 27 90 30 91 28 92 29 93 23 94
REMARK H PARENT 3 5 84 23 54 34 7 72 23 95
REMARK Flexibility Score: inf
ROOT
ATOM      1  C   UNL A   1      34.896  34.211  29.301  1.00  0.00     0.118 C 
ENDROOT
BRANCH   1   2
ATOM      2  N   UNL A   1      34.245  33.170  28.530  1.00  0.00    -0.352 N 
ATOM      3  O   UNL A   1      33.577  31.223  27.745  1.00  0.00    -0.269 OA
ATOM      4  C   UNL A   1      34.505  31.854  28.263  1.00  0.00     0.251 C 
ATOM      5  H   UNL A   1      33.419  33.486  28.095  1.00  0.00     0.163 HD
BRANCH   4   6
ATOM      6  C   UNL A   1      35.802  31.152  28.489  1.00  0.00     0.039 A 
ATOM      7  C   UNL A   1      35.975  29.783  28.692  1.00  0.00     0.014 A 
ATOM      8  C   UNL A   1      36.945  31.978  28.518  1.00  0.00     0.014 A 
ATOM      9  C   UNL A   1      37.246  29.265  28.964  1.00  0.00     0.010 A 
ATOM     10  C   UNL A   1      38.214  31.466  28.785  1.00  0.00     0.010 A 
ATOM     11  C   UNL A   1      38.365  30.106  29.025  1.00  0.00    -0.014 A 
BRANCH  11  12
ATOM     12  C   UNL A   1      39.690  29.500  29.180  1.00  0.00     0.031 A 
ATOM     13  C   UNL A   1      40.083  29.191  30.583  1.00  0.00     0.074 A 
ATOM     14  C   UNL A   1      40.487  29.077  28.179  1.00  0.00     0.049 A 
ATOM     15  N   UNL A   1      41.018  29.743  31.286  1.00  0.00    -0.248 NA
ATOM     16  C   UNL A   1      39.285  28.198  31.318  1.00  0.00     0.031 C 
ATOM     17  C   UNL A   1      40.174  28.973  26.753  1.00  0.00     0.029 A 
ATOM     18  N   UNL A   1      41.747  28.552  28.258  1.00  0.00    -0.354 N 
ATOM     19  C   UNL A   1      41.052  29.052  32.496  1.00  0.00     0.074 A 
ATOM     20  C   UNL A   1      39.884  28.204  32.509  1.00  0.00     0.031 C 
ATOM     21  C   UNL A   1      41.126  28.229  26.142  1.00  0.00     0.029 A 
ATOM     22  C   UNL A   1      42.182  27.926  27.096  1.00  0.00     0.049 A 
ATOM     23  H   UNL A   1      42.300  28.612  29.071  1.00  0.00     0.167 HD
ATOM     24  C   UNL A   1      42.136  29.083  33.322  1.00  0.00     0.031 A 
ATOM     25  C   UNL A   1      43.304  27.177  26.943  1.00  0.00     0.031 A 
ATOM     26  C   UNL A   1      43.070  30.111  32.955  1.00  0.00     0.049 A 
ATOM     27  C   UNL A   1      44.240  27.534  28.035  1.00  0.00     0.074 A 
ATOM     28  C   UNL A   1      43.023  31.486  32.842  1.00  0.00     0.029 A 
ATOM     29  N   UNL A   1      44.208  29.716  32.294  1.00  0.00    -0.354 N 
ATOM     30  N   UNL A   1      44.841  28.686  28.127  1.00  0.00    -0.248 NA
ATOM     31  C   UNL A   1      44.238  26.736  29.250  1.00  0.00     0.031 C 
ATOM     32  C   UNL A   1      43.861  31.794  31.732  1.00  0.00     0.029 A 
ATOM     33  C   UNL A   1      44.406  30.596  31.263  1.00  0.00     0.049 A 
ATOM     34  H   UNL A   1      44.776  28.944  32.519  1.00  0.00     0.167 HD
ATOM     35  C   UNL A   1      44.913  28.942  29.486  1.00  0.00     0.074 A 
ATOM     36  C   UNL A   1      44.635  27.660  30.127  1.00  0.00     0.031 C 
ATOM     37  C   UNL A   1      44.922  30.222  29.964  1.00  0.00     0.031 A 
BRANCH  24  38
ATOM     38  C   UNL A   1      42.536  27.959  34.249  1.00  0.00    -0.014 A 
ATOM     39  C   UNL A   1      42.567  28.202  35.639  1.00  0.00     0.010 A 
ATOM     40  C   UNL A   1      43.151  26.777  33.791  1.00  0.00     0.010 A 
ATOM     41  C   UNL A   1      43.242  27.343  36.515  1.00  0.00     0.020 A 
ATOM     42  C   UNL A   1      43.787  25.888  34.663  1.00  0.00     0.020 A 
ATOM     43  C   UNL A   1      43.862  26.197  36.015  1.00  0.00     0.054 A 
BRANCH  43  44
ATOM     44  S   UNL A   1      44.831  25.156  37.136  1.00  0.00     0.124 S 
ATOM     45  O   UNL A   1      44.537  23.819  36.630  1.00  0.00    -0.237 OA
ATOM     46  O   UNL A   1      46.191  25.636  36.907  1.00  0.00    -0.237 OA
ATOM     47  O   UNL A   1      44.279  25.465  38.452  1.00  0.00    -0.744 OA
ENDBRANCH  43  44
ENDBRANCH  24  38
BRANCH  25  48
ATOM     48  C   UNL A   1      43.530  25.999  26.070  1.00  0.00    -0.014 A 
ATOM     49  C   UNL A   1      44.793  25.757  25.492  1.00  0.00     0.010 A 
ATOM     50  C   UNL A   1      42.588  24.952  26.042  1.00  0.00     0.010 A 
ATOM     51  C   UNL A   1      45.123  24.492  24.975  1.00  0.00     0.020 A 
ATOM     52  C   UNL A   1      42.906  23.693  25.520  1.00  0.00     0.020 A 
ATOM     53  C   UNL A   1      44.183  23.459  25.015  1.00  0.00     0.054 A 
BRANCH  53  54
ATOM     54  S   UNL A   1      44.679  21.778  24.533  1.00  0.00     0.124 S 
ATOM     55  O   UNL A   1      44.600  21.836  23.076  1.00  0.00    -0.237 OA
ATOM     56  O   UNL A   1      46.025  21.671  25.089  1.00  0.00    -0.237 OA
ATOM     57  O   UNL A   1      43.678  20.927  25.175  1.00  0.00    -0.744 OA
ENDBRANCH  53  54
ENDBRANCH  25  48
BRANCH  37  58
ATOM     58  C   UNL A   1      45.228  31.352  29.010  1.00  0.00    -0.014 A 
ATOM     59  C   UNL A   1      46.506  31.917  28.846  1.00  0.00     0.010 A 
ATOM     60  C   UNL A   1      44.198  31.762  28.144  1.00  0.00     0.010 A 
ATOM     61  C   UNL A   1      46.739  32.888  27.860  1.00  0.00     0.020 A 
ATOM     62  C   UNL A   1      44.428  32.711  27.145  1.00  0.00     0.020 A 
ATOM     63  C   UNL A   1      45.697  33.277  27.013  1.00  0.00     0.054 A 
BRANCH  63  64
ATOM     64  S   UNL A   1      46.020  34.490  25.703  1.00  0.00     0.124 S 
ATOM     65  O   UNL A   1      45.092  34.079  24.653  1.00  0.00    -0.237 OA
ATOM     66  O   UNL A   1      45.710  35.763  26.352  1.00  0.00    -0.237 OA
ATOM     67  O   UNL A   1      47.435  34.295  25.389  1.00  0.00    -0.744 OA
ENDBRANCH  63  64
ENDBRANCH  37  58
ENDBRANCH  11  12
ENDBRANCH   4   6
ENDBRANCH   1   2
BRANCH   1  68
ATOM     68  C   UNL A   1      34.465  34.302  30.760  1.00  0.00     0.042 C 
BRANCH  68  69
ATOM     69  C   UNL A   1      35.426  33.673  31.766  1.00  0.00     0.118 C 
BRANCH  69  70
ATOM     70  N   UNL A   1      35.299  32.225  31.874  1.00  0.00    -0.352 N 
ATOM     71  C   UNL A   1      36.262  31.295  32.182  1.00  0.00     0.255 C 
ATOM     72  H   UNL A   1      34.399  31.864  31.702  1.00  0.00     0.163 HD
ATOM     73  O   UNL A   1      35.958  30.096  32.138  1.00  0.00    -0.269 OA
BRANCH  71  74
ATOM     74  C   UNL A   1      37.616  31.726  32.478  1.00  0.00     0.084 A 
ATOM     75  C   UNL A   1      38.369  32.569  31.675  1.00  0.00     0.107 A 
ATOM     76  C   UNL A   1      38.451  31.429  33.576  1.00  0.00     0.101 A 
ATOM     77  N   UNL A   1      39.590  32.823  32.277  1.00  0.00    -0.317 N 
ATOM     78  C   UNL A   1      39.582  32.201  33.516  1.00  0.00     0.058 A 
ATOM     79  N   UNL A   1      38.099  30.619  34.649  1.00  0.00    -0.215 NA
ATOM     80  C   UNL A   1      40.491  32.454  34.674  1.00  0.00     0.088 C 
ATOM     81  C   UNL A   1      38.869  30.717  35.677  1.00  0.00     0.187 C 
ATOM     82  C   UNL A   1      40.149  31.496  35.835  1.00  0.00     0.112 C 
BRANCH  77  83
ATOM     83  C   UNL A   1      40.606  33.643  31.721  1.00  0.00     0.045 A 
ATOM     84  C   UNL A   1      40.961  33.515  30.374  1.00  0.00     0.026 A 
ATOM     85  C   UNL A   1      41.259  34.581  32.532  1.00  0.00     0.026 A 
ATOM     86  C   UNL A   1      41.981  34.309  29.847  1.00  0.00     0.002 A 
ATOM     87  C   UNL A   1      42.298  35.348  32.006  1.00  0.00     0.002 A 
ATOM     88  C   UNL A   1      42.659  35.214  30.665  1.00  0.00     0.000 A 
ENDBRANCH  77  83
BRANCH  80  89
ATOM     89  C   UNL A   1      40.507  33.887  35.205  1.00  0.00     0.014 A 
ATOM     90  C   UNL A   1      39.436  34.769  35.211  1.00  0.00     0.016 A 
ATOM     91  S   UNL A   1      41.919  34.655  35.817  1.00  0.00    -0.148 S 
ATOM     92  C   UNL A   1      39.774  36.048  35.737  1.00  0.00     0.012 A 
ATOM     93  C   UNL A   1      41.087  36.109  36.140  1.00  0.00     0.065 A 
ENDBRANCH  80  89
BRANCH  81  94
ATOM     94  O   UNL A   1      38.533  30.005  36.775  1.00  0.00    -0.496 OA
ATOM     95  H   UNL A   1      38.728  29.090  36.817  1.00  0.00     0.294 HD
ENDBRANCH  81  94
ENDBRANCH  71  74
ENDBRANCH  69  70
ENDBRANCH  68  69
ENDBRANCH   1  68
TORSDOF 16
ENDMDL
