MODEL 1
REMARK VINA RESULT:     -12.6      0.000      0.000
REMARK SMILES Cc1nsc(N(C)S(=O)(=O)c2cn[nH]c2C)c1C(=O)NCCCNC(=O)c1ccc(-c2c3nc(c(-c4ccc(S(=O)(=O)[O-])cc4)c4ccc([nH]4)c(-c4ccc(S(=O)(=O)[O-])cc4)c4nc(c(-c5ccc(S(=O)(=O)[O-])cc5)c5ccc2[nH]5)C=C4)C=C3)cc1
REMARK SMILES IDX 22 1 21 2 20 3 18 4 19 5 17 7 1 8 2 9 3 10 4 11 5 12 6 13
REMARK SMILES IDX 7 14 8 15 9 16 10 17 11 18 12 19 15 20 13 21 14 22 16 23
REMARK SMILES IDX 23 25 24 26 25 27 26 29 27 30 28 31 86 32 29 33 85 34 30 35
REMARK SMILES IDX 31 36 32 37 79 38 33 39 84 40 78 41 80 42 34 43 83 44 77 45
REMARK SMILES IDX 76 46 35 48 65 49 46 50 64 51 47 52 50 53 63 54 81 55 48 56
REMARK SMILES IDX 49 57 62 59 82 60 51 61 36 62 37 63 45 64 38 65 44 66 39 67
REMARK SMILES IDX 40 68 41 69 42 70 43 71 66 72 67 73 75 74 68 75 74 76 69 77
REMARK SMILES IDX 70 78 71 79 72 80 73 81 52 82 53 83 61 84 54 85 60 86 55 87
REMARK SMILES IDX 56 88 57 89 58 90 59 91
REMARK H PARENT 20 6 14 24 24 28 80 47 50 58
REMARK Flexibility Score: inf
ROOT
ATOM      1  C   UNL A   1      35.575  22.346  26.044  1.00  0.00     0.042 C 
ENDROOT
BRANCH   1   2
ATOM      2  C   UNL A   1      34.830  23.253  27.044  1.00  0.00     0.118 C 
BRANCH   2   3
ATOM      3  N   UNL A   1      33.446  22.839  27.210  1.00  0.00    -0.352 N 
ATOM      4  C   UNL A   1      32.316  23.393  26.645  1.00  0.00     0.256 C 
ATOM      5  O   UNL A   1      31.412  23.715  27.408  1.00  0.00    -0.269 OA
ATOM      6  H   UNL A   1      33.297  22.066  27.801  1.00  0.00     0.163 HD
BRANCH   4   7
ATOM      7  C   UNL A   1      32.206  23.547  25.198  1.00  0.00     0.098 A 
ATOM      8  C   UNL A   1      32.392  20.977  24.521  1.00  0.00     0.069 C 
ATOM      9  C   UNL A   1      32.184  22.428  24.252  1.00  0.00     0.066 A 
ATOM     10  N   UNL A   1      31.988  22.729  22.974  1.00  0.00    -0.195 NA
ATOM     11  S   UNL A   1      31.931  24.348  22.815  1.00  0.00    -0.017 S 
ATOM     12  C   UNL A   1      32.306  24.751  24.468  1.00  0.00     0.138 A 
BRANCH  12  13
ATOM     13  N   UNL A   1      32.574  26.174  24.792  1.00  0.00    -0.258 N 
ATOM     14  C   UNL A   1      33.719  26.444  25.698  1.00  0.00     0.165 C 
BRANCH  13  15
ATOM     15  S   UNL A   1      31.257  27.250  24.973  1.00  0.00     0.268 S 
ATOM     16  O   UNL A   1      30.047  26.447  24.959  1.00  0.00    -0.201 OA
ATOM     17  O   UNL A   1      31.597  28.179  26.024  1.00  0.00    -0.201 OA
BRANCH  15  18
ATOM     18  C   UNL A   1      31.011  28.341  23.639  1.00  0.00     0.128 A 
ATOM     19  C   UNL A   1      29.818  28.634  22.956  1.00  0.00     0.157 A 
ATOM     20  C   UNL A   1      31.988  28.965  22.873  1.00  0.00     0.053 A 
ATOM     21  N   UNL A   1      29.997  29.420  21.891  1.00  0.00    -0.183 NA
ATOM     22  N   UNL A   1      31.333  29.540  21.816  1.00  0.00    -0.281 N 
ATOM     23  C   UNL A   1      33.467  29.019  22.951  1.00  0.00     0.067 C 
ATOM     24  H   UNL A   1      31.794  29.996  21.075  1.00  0.00     0.190 HD
ENDBRANCH  15  18
ENDBRANCH  13  15
ENDBRANCH  12  13
ENDBRANCH   4   7
ENDBRANCH   2   3
ENDBRANCH   1   2
BRANCH   1  25
ATOM     25  C   UNL A   1      37.001  22.780  25.749  1.00  0.00     0.118 C 
BRANCH  25  26
ATOM     26  N   UNL A   1      37.998  21.813  26.199  1.00  0.00    -0.352 N 
ATOM     27  C   UNL A   1      39.300  22.064  26.592  1.00  0.00     0.251 C 
ATOM     28  H   UNL A   1      37.710  20.872  26.224  1.00  0.00     0.163 HD
ATOM     29  O   UNL A   1      40.128  21.159  26.605  1.00  0.00    -0.269 OA
BRANCH  27  30
ATOM     30  C   UNL A   1      39.679  23.440  26.965  1.00  0.00     0.039 A 
ATOM     31  C   UNL A   1      38.758  24.490  26.892  1.00  0.00     0.014 A 
ATOM     32  C   UNL A   1      40.963  23.662  27.448  1.00  0.00     0.014 A 
ATOM     33  C   UNL A   1      39.114  25.742  27.399  1.00  0.00     0.010 A 
ATOM     34  C   UNL A   1      41.252  24.842  28.091  1.00  0.00     0.010 A 
ATOM     35  C   UNL A   1      40.358  25.909  28.025  1.00  0.00    -0.014 A 
BRANCH  35  36
ATOM     36  C   UNL A   1      40.720  27.174  28.665  1.00  0.00     0.031 A 
ATOM     37  C   UNL A   1      41.885  27.913  28.099  1.00  0.00     0.074 A 
ATOM     38  C   UNL A   1      39.923  27.786  29.568  1.00  0.00     0.049 A 
ATOM     39  N   UNL A   1      42.998  28.203  28.689  1.00  0.00    -0.248 NA
ATOM     40  C   UNL A   1      41.835  28.329  26.690  1.00  0.00     0.031 C 
ATOM     41  C   UNL A   1      38.592  27.375  30.032  1.00  0.00     0.029 A 
ATOM     42  N   UNL A   1      40.080  29.007  30.150  1.00  0.00    -0.354 N 
ATOM     43  C   UNL A   1      43.730  28.984  27.796  1.00  0.00     0.074 A 
ATOM     44  C   UNL A   1      43.026  28.915  26.538  1.00  0.00     0.031 C 
ATOM     45  C   UNL A   1      37.964  28.434  30.584  1.00  0.00     0.029 A 
ATOM     46  C   UNL A   1      38.910  29.528  30.684  1.00  0.00     0.049 A 
ATOM     47  H   UNL A   1      40.944  29.476  30.190  1.00  0.00     0.167 HD
ATOM     48  C   UNL A   1      44.762  29.780  28.199  1.00  0.00     0.031 A 
ATOM     49  C   UNL A   1      38.713  30.784  31.151  1.00  0.00     0.031 A 
ATOM     50  C   UNL A   1      45.138  29.523  29.564  1.00  0.00     0.049 A 
ATOM     51  C   UNL A   1      40.046  31.338  31.487  1.00  0.00     0.074 A 
ATOM     52  C   UNL A   1      45.610  28.425  30.255  1.00  0.00     0.029 A 
ATOM     53  N   UNL A   1      44.682  30.404  30.518  1.00  0.00    -0.354 N 
ATOM     54  N   UNL A   1      40.790  30.869  32.449  1.00  0.00    -0.248 NA
ATOM     55  C   UNL A   1      40.750  32.130  30.491  1.00  0.00     0.031 C 
ATOM     56  C   UNL A   1      44.968  28.493  31.527  1.00  0.00     0.029 A 
ATOM     57  C   UNL A   1      44.192  29.654  31.557  1.00  0.00     0.049 A 
ATOM     58  H   UNL A   1      44.702  31.388  30.464  1.00  0.00     0.167 HD
ATOM     59  C   UNL A   1      42.085  30.921  31.955  1.00  0.00     0.074 A 
ATOM     60  C   UNL A   1      42.012  31.823  30.808  1.00  0.00     0.031 C 
ATOM     61  C   UNL A   1      43.031  30.012  32.346  1.00  0.00     0.031 A 
BRANCH  48  62
ATOM     62  C   UNL A   1      45.222  31.030  27.488  1.00  0.00    -0.014 A 
ATOM     63  C   UNL A   1      46.596  31.193  27.208  1.00  0.00     0.010 A 
ATOM     64  C   UNL A   1      44.398  32.161  27.331  1.00  0.00     0.010 A 
ATOM     65  C   UNL A   1      47.127  32.444  26.860  1.00  0.00     0.020 A 
ATOM     66  C   UNL A   1      44.911  33.402  26.940  1.00  0.00     0.020 A 
ATOM     67  C   UNL A   1      46.280  33.545  26.747  1.00  0.00     0.054 A 
BRANCH  67  68
ATOM     68  S   UNL A   1      46.988  35.182  26.433  1.00  0.00     0.124 S 
ATOM     69  O   UNL A   1      47.818  34.928  25.259  1.00  0.00    -0.237 OA
ATOM     70  O   UNL A   1      45.798  35.998  26.204  1.00  0.00    -0.237 OA
ATOM     71  O   UNL A   1      47.716  35.482  27.663  1.00  0.00    -0.744 OA
ENDBRANCH  67  68
ENDBRANCH  48  62
BRANCH  49  72
ATOM     72  C   UNL A   1      37.464  31.579  31.116  1.00  0.00    -0.014 A 
ATOM     73  C   UNL A   1      36.349  31.220  31.893  1.00  0.00     0.010 A 
ATOM     74  C   UNL A   1      37.454  32.848  30.497  1.00  0.00     0.010 A 
ATOM     75  C   UNL A   1      35.288  32.121  32.089  1.00  0.00     0.020 A 
ATOM     76  C   UNL A   1      36.397  33.745  30.677  1.00  0.00     0.020 A 
ATOM     77  C   UNL A   1      35.329  33.386  31.494  1.00  0.00     0.054 A 
BRANCH  77  78
ATOM     78  S   UNL A   1      34.039  34.603  31.888  1.00  0.00     0.124 S 
ATOM     79  O   UNL A   1      33.385  34.794  30.597  1.00  0.00    -0.237 OA
ATOM     80  O   UNL A   1      33.251  33.910  32.902  1.00  0.00    -0.237 OA
ATOM     81  O   UNL A   1      34.793  35.760  32.372  1.00  0.00    -0.744 OA
ENDBRANCH  77  78
ENDBRANCH  49  72
BRANCH  61  82
ATOM     82  C   UNL A   1      42.721  29.111  33.523  1.00  0.00    -0.014 A 
ATOM     83  C   UNL A   1      42.025  27.890  33.400  1.00  0.00     0.010 A 
ATOM     84  C   UNL A   1      43.297  29.425  34.766  1.00  0.00     0.010 A 
ATOM     85  C   UNL A   1      41.885  27.027  34.496  1.00  0.00     0.020 A 
ATOM     86  C   UNL A   1      43.179  28.559  35.857  1.00  0.00     0.020 A 
ATOM     87  C   UNL A   1      42.465  27.368  35.720  1.00  0.00     0.054 A 
BRANCH  87  88
ATOM     88  S   UNL A   1      42.330  26.218  37.118  1.00  0.00     0.124 S 
ATOM     89  O   UNL A   1      42.624  24.929  36.497  1.00  0.00    -0.237 OA
ATOM     90  O   UNL A   1      43.343  26.714  38.047  1.00  0.00    -0.237 OA
ATOM     91  O   UNL A   1      40.951  26.385  37.574  1.00  0.00    -0.744 OA
ENDBRANCH  87  88
ENDBRANCH  61  82
ENDBRANCH  35  36
ENDBRANCH  27  30
ENDBRANCH  25  26
ENDBRANCH   1  25
TORSDOF 16
ENDMDL
MODEL 2
REMARK VINA RESULT:     -12.3      2.696      9.234
REMARK SMILES Cc1nsc(N(C)S(=O)(=O)c2cn[nH]c2C)c1C(=O)NCCCNC(=O)c1ccc(-c2c3nc(c(-c4ccc(S(=O)(=O)[O-])cc4)c4ccc([nH]4)c(-c4ccc(S(=O)(=O)[O-])cc4)c4nc(c(-c5ccc(S(=O)(=O)[O-])cc5)c5ccc2[nH]5)C=C4)C=C3)cc1
REMARK SMILES IDX 22 1 21 2 20 3 18 4 19 5 17 7 1 8 2 9 3 10 4 11 5 12 6 13
REMARK SMILES IDX 7 14 8 15 9 16 10 17 11 18 12 19 15 20 13 21 14 22 16 23
REMARK SMILES IDX 23 25 24 26 25 27 26 29 27 30 28 31 86 32 29 33 85 34 30 35
REMARK SMILES IDX 31 36 32 37 79 38 33 39 84 40 78 41 80 42 34 43 83 44 77 45
REMARK SMILES IDX 76 46 35 48 65 49 46 50 64 51 47 52 50 53 63 54 81 55 48 56
REMARK SMILES IDX 49 57 62 59 82 60 51 61 36 62 37 63 45 64 38 65 44 66 39 67
REMARK SMILES IDX 40 68 41 69 42 70 43 71 66 72 67 73 75 74 68 75 74 76 69 77
REMARK SMILES IDX 70 78 71 79 72 80 73 81 52 82 53 83 61 84 54 85 60 86 55 87
REMARK SMILES IDX 56 88 57 89 58 90 59 91
REMARK H PARENT 20 6 14 24 24 28 80 47 50 58
REMARK Flexibility Score: inf
ROOT
ATOM      1  C   UNL A   1      33.308  29.130  24.991  1.00  0.00     0.042 C 
ENDROOT
BRANCH   1   2
ATOM      2  C   UNL A   1      34.061  28.000  24.262  1.00  0.00     0.118 C 
BRANCH   2   3
ATOM      3  N   UNL A   1      33.621  27.872  22.881  1.00  0.00    -0.352 N 
ATOM      4  C   UNL A   1      32.720  26.971  22.352  1.00  0.00     0.256 C 
ATOM      5  O   UNL A   1      33.095  26.305  21.393  1.00  0.00    -0.269 OA
ATOM      6  H   UNL A   1      34.018  28.508  22.243  1.00  0.00     0.163 HD
BRANCH   4   7
ATOM      7  C   UNL A   1      31.373  26.855  22.902  1.00  0.00     0.098 A 
ATOM      8  C   UNL A   1      30.557  29.350  22.449  1.00  0.00     0.069 C 
ATOM      9  C   UNL A   1      30.383  27.936  22.882  1.00  0.00     0.066 A 
ATOM     10  N   UNL A   1      29.171  27.645  23.341  1.00  0.00    -0.195 NA
ATOM     11  S   UNL A   1      29.175  26.122  23.916  1.00  0.00    -0.017 S 
ATOM     12  C   UNL A   1      30.874  25.803  23.699  1.00  0.00     0.138 A 
BRANCH  12  13
ATOM     13  N   UNL A   1      31.427  24.557  24.285  1.00  0.00    -0.258 N 
ATOM     14  C   UNL A   1      31.170  23.300  23.535  1.00  0.00     0.165 C 
BRANCH  13  15
ATOM     15  S   UNL A   1      31.454  24.375  25.985  1.00  0.00     0.268 S 
ATOM     16  O   UNL A   1      31.666  25.696  26.550  1.00  0.00    -0.201 OA
ATOM     17  O   UNL A   1      30.356  23.510  26.347  1.00  0.00    -0.201 OA
BRANCH  15  18
ATOM     18  C   UNL A   1      32.803  23.468  26.607  1.00  0.00     0.128 A 
ATOM     19  C   UNL A   1      32.825  22.544  27.666  1.00  0.00     0.157 A 
ATOM     20  C   UNL A   1      34.147  23.649  26.303  1.00  0.00     0.053 A 
ATOM     21  N   UNL A   1      34.054  22.122  27.975  1.00  0.00    -0.183 NA
ATOM     22  N   UNL A   1      34.845  22.869  27.187  1.00  0.00    -0.281 N 
ATOM     23  C   UNL A   1      34.871  24.525  25.351  1.00  0.00     0.067 C 
ATOM     24  H   UNL A   1      35.828  22.856  27.240  1.00  0.00     0.190 HD
ENDBRANCH  15  18
ENDBRANCH  13  15
ENDBRANCH  12  13
ENDBRANCH   4   7
ENDBRANCH   2   3
ENDBRANCH   1   2
BRANCH   1  25
ATOM     25  C   UNL A   1      33.867  29.471  26.362  1.00  0.00     0.118 C 
BRANCH  25  26
ATOM     26  N   UNL A   1      33.842  30.901  26.652  1.00  0.00    -0.352 N 
ATOM     27  C   UNL A   1      34.606  31.589  27.576  1.00  0.00     0.251 C 
ATOM     28  H   UNL A   1      33.204  31.439  26.128  1.00  0.00     0.163 HD
ATOM     29  O   UNL A   1      34.253  32.695  27.971  1.00  0.00    -0.269 OA
BRANCH  27  30
ATOM     30  C   UNL A   1      35.832  30.957  28.098  1.00  0.00     0.039 A 
ATOM     31  C   UNL A   1      36.144  29.626  27.803  1.00  0.00     0.014 A 
ATOM     32  C   UNL A   1      36.707  31.736  28.847  1.00  0.00     0.014 A 
ATOM     33  C   UNL A   1      37.386  29.118  28.188  1.00  0.00     0.010 A 
ATOM     34  C   UNL A   1      37.985  31.286  29.081  1.00  0.00     0.010 A 
ATOM     35  C   UNL A   1      38.319  29.962  28.807  1.00  0.00    -0.014 A 
BRANCH  35  36
ATOM     36  C   UNL A   1      39.670  29.495  29.125  1.00  0.00     0.031 A 
ATOM     37  C   UNL A   1      40.018  29.353  30.568  1.00  0.00     0.074 A 
ATOM     38  C   UNL A   1      40.501  28.985  28.190  1.00  0.00     0.049 A 
ATOM     39  N   UNL A   1      40.932  29.986  31.226  1.00  0.00    -0.248 NA
ATOM     40  C   UNL A   1      39.215  28.441  31.397  1.00  0.00     0.031 C 
ATOM     41  C   UNL A   1      40.235  28.754  26.765  1.00  0.00     0.029 A 
ATOM     42  N   UNL A   1      41.725  28.415  28.362  1.00  0.00    -0.354 N 
ATOM     43  C   UNL A   1      40.947  29.444  32.509  1.00  0.00     0.074 A 
ATOM     44  C   UNL A   1      39.783  28.595  32.597  1.00  0.00     0.031 C 
ATOM     45  C   UNL A   1      41.126  27.865  26.280  1.00  0.00     0.029 A 
ATOM     46  C   UNL A   1      42.128  27.618  27.300  1.00  0.00     0.049 A 
ATOM     47  H   UNL A   1      42.276  28.557  29.166  1.00  0.00     0.167 HD
ATOM     48  C   UNL A   1      42.013  29.586  33.349  1.00  0.00     0.031 A 
ATOM     49  C   UNL A   1      43.193  26.783  27.261  1.00  0.00     0.031 A 
ATOM     50  C   UNL A   1      42.968  30.540  32.849  1.00  0.00     0.049 A 
ATOM     51  C   UNL A   1      44.141  27.238  28.306  1.00  0.00     0.074 A 
ATOM     52  C   UNL A   1      42.932  31.884  32.538  1.00  0.00     0.029 A 
ATOM     53  N   UNL A   1      44.094  30.039  32.237  1.00  0.00    -0.354 N 
ATOM     54  N   UNL A   1      44.766  28.381  28.251  1.00  0.00    -0.248 NA
ATOM     55  C   UNL A   1      44.079  26.630  29.626  1.00  0.00     0.031 C 
ATOM     56  C   UNL A   1      43.743  32.009  31.372  1.00  0.00     0.029 A 
ATOM     57  C   UNL A   1      44.272  30.750  31.078  1.00  0.00     0.049 A 
ATOM     58  H   UNL A   1      44.664  29.307  32.569  1.00  0.00     0.167 HD
ATOM     59  C   UNL A   1      44.779  28.842  29.559  1.00  0.00     0.074 A 
ATOM     60  C   UNL A   1      44.464  27.671  30.372  1.00  0.00     0.031 C 
ATOM     61  C   UNL A   1      44.764  30.182  29.839  1.00  0.00     0.031 A 
BRANCH  48  62
ATOM     62  C   UNL A   1      42.377  28.628  34.457  1.00  0.00    -0.014 A 
ATOM     63  C   UNL A   1      42.688  29.143  35.735  1.00  0.00     0.010 A 
ATOM     64  C   UNL A   1      42.689  27.275  34.220  1.00  0.00     0.010 A 
ATOM     65  C   UNL A   1      43.344  28.362  36.698  1.00  0.00     0.020 A 
ATOM     66  C   UNL A   1      43.302  26.475  35.189  1.00  0.00     0.020 A 
ATOM     67  C   UNL A   1      43.663  27.036  36.408  1.00  0.00     0.054 A 
BRANCH  67  68
ATOM     68  S   UNL A   1      44.629  26.074  37.600  1.00  0.00     0.124 S 
ATOM     69  O   UNL A   1      45.984  26.551  37.341  1.00  0.00    -0.237 OA
ATOM     70  O   UNL A   1      44.046  26.482  38.876  1.00  0.00    -0.237 OA
ATOM     71  O   UNL A   1      44.368  24.690  37.216  1.00  0.00    -0.744 OA
ENDBRANCH  67  68
ENDBRANCH  48  62
BRANCH  49  72
ATOM     72  C   UNL A   1      43.320  25.508  26.518  1.00  0.00    -0.014 A 
ATOM     73  C   UNL A   1      44.142  25.405  25.383  1.00  0.00     0.010 A 
ATOM     74  C   UNL A   1      42.818  24.313  27.078  1.00  0.00     0.010 A 
ATOM     75  C   UNL A   1      44.494  24.149  24.861  1.00  0.00     0.020 A 
ATOM     76  C   UNL A   1      43.154  23.060  26.556  1.00  0.00     0.020 A 
ATOM     77  C   UNL A   1      44.013  22.983  25.464  1.00  0.00     0.054 A 
BRANCH  77  78
ATOM     78  S   UNL A   1      44.607  21.366  24.889  1.00  0.00     0.124 S 
ATOM     79  O   UNL A   1      43.573  20.460  25.382  1.00  0.00    -0.237 OA
ATOM     80  O   UNL A   1      44.655  21.543  23.441  1.00  0.00    -0.237 OA
ATOM     81  O   UNL A   1      45.909  21.225  25.540  1.00  0.00    -0.744 OA
ENDBRANCH  77  78
ENDBRANCH  49  72
BRANCH  61  82
ATOM     82  C   UNL A   1      44.999  31.158  28.705  1.00  0.00    -0.014 A 
ATOM     83  C   UNL A   1      43.958  31.706  27.929  1.00  0.00     0.010 A 
ATOM     84  C   UNL A   1      46.299  31.665  28.529  1.00  0.00     0.010 A 
ATOM     85  C   UNL A   1      44.215  32.709  26.984  1.00  0.00     0.020 A 
ATOM     86  C   UNL A   1      46.558  32.680  27.602  1.00  0.00     0.020 A 
ATOM     87  C   UNL A   1      45.517  33.190  26.827  1.00  0.00     0.054 A 
BRANCH  87  88
ATOM     88  S   UNL A   1      45.832  34.531  25.644  1.00  0.00     0.124 S 
ATOM     89  O   UNL A   1      47.271  34.420  25.416  1.00  0.00    -0.237 OA
ATOM     90  O   UNL A   1      44.986  34.171  24.509  1.00  0.00    -0.237 OA
ATOM     91  O   UNL A   1      45.411  35.734  26.361  1.00  0.00    -0.744 OA
ENDBRANCH  87  88
ENDBRANCH  61  82
ENDBRANCH  35  36
ENDBRANCH  27  30
ENDBRANCH  25  26
ENDBRANCH   1  25
TORSDOF 16
ENDMDL
MODEL 3
REMARK VINA RESULT:     -12.3      2.829      9.256
REMARK SMILES Cc1nsc(N(C)S(=O)(=O)c2cn[nH]c2C)c1C(=O)NCCCNC(=O)c1ccc(-c2c3nc(c(-c4ccc(S(=O)(=O)[O-])cc4)c4ccc([nH]4)c(-c4ccc(S(=O)(=O)[O-])cc4)c4nc(c(-c5ccc(S(=O)(=O)[O-])cc5)c5ccc2[nH]5)C=C4)C=C3)cc1
REMARK SMILES IDX 22 1 21 2 20 3 18 4 19 5 17 7 1 8 2 9 3 10 4 11 5 12 6 13
REMARK SMILES IDX 7 14 8 15 9 16 10 17 11 18 12 19 15 20 13 21 14 22 16 23
REMARK SMILES IDX 23 25 24 26 25 27 26 29 27 30 28 31 86 32 29 33 85 34 30 35
REMARK SMILES IDX 31 36 32 37 79 38 33 39 84 40 78 41 80 42 34 43 83 44 77 45
REMARK SMILES IDX 76 46 35 48 65 49 46 50 64 51 47 52 50 53 63 54 81 55 48 56
REMARK SMILES IDX 49 57 62 59 82 60 51 61 36 62 37 63 45 64 38 65 44 66 39 67
REMARK SMILES IDX 40 68 41 69 42 70 43 71 66 72 67 73 75 74 68 75 74 76 69 77
REMARK SMILES IDX 70 78 71 79 72 80 73 81 52 82 53 83 61 84 54 85 60 86 55 87
REMARK SMILES IDX 56 88 57 89 58 90 59 91
REMARK H PARENT 20 6 14 24 24 28 80 47 50 58
REMARK Flexibility Score: inf
ROOT
ATOM      1  C   UNL A   1      32.532  28.704  26.051  1.00  0.00     0.042 C 
ENDROOT
BRANCH   1   2
ATOM      2  C   UNL A   1      31.429  28.141  26.969  1.00  0.00     0.118 C 
BRANCH   2   3
ATOM      3  N   UNL A   1      31.472  26.688  27.023  1.00  0.00    -0.352 N 
ATOM      4  C   UNL A   1      31.000  25.785  26.094  1.00  0.00     0.256 C 
ATOM      5  O   UNL A   1      30.229  24.920  26.497  1.00  0.00    -0.269 OA
ATOM      6  H   UNL A   1      31.890  26.301  27.826  1.00  0.00     0.163 HD
BRANCH   4   7
ATOM      7  C   UNL A   1      31.438  25.851  24.703  1.00  0.00     0.098 A 
ATOM      8  C   UNL A   1      29.300  27.071  23.685  1.00  0.00     0.069 C 
ATOM      9  C   UNL A   1      30.672  26.494  23.631  1.00  0.00     0.066 A 
ATOM     10  N   UNL A   1      31.248  26.550  22.436  1.00  0.00    -0.195 NA
ATOM     11  S   UNL A   1      32.665  25.752  22.494  1.00  0.00    -0.017 S 
ATOM     12  C   UNL A   1      32.524  25.159  24.126  1.00  0.00     0.138 A 
BRANCH  12  13
ATOM     13  N   UNL A   1      33.526  24.170  24.594  1.00  0.00    -0.258 N 
ATOM     14  C   UNL A   1      34.767  24.717  25.199  1.00  0.00     0.165 C 
BRANCH  13  15
ATOM     15  S   UNL A   1      33.748  22.724  23.707  1.00  0.00     0.268 S 
ATOM     16  O   UNL A   1      32.769  22.730  22.635  1.00  0.00    -0.201 OA
ATOM     17  O   UNL A   1      35.166  22.553  23.503  1.00  0.00    -0.201 OA
BRANCH  15  18
ATOM     18  C   UNL A   1      33.363  21.264  24.573  1.00  0.00     0.128 A 
ATOM     19  C   UNL A   1      32.528  20.205  24.177  1.00  0.00     0.157 A 
ATOM     20  C   UNL A   1      33.648  20.977  25.903  1.00  0.00     0.053 A 
ATOM     21  N   UNL A   1      32.342  19.292  25.133  1.00  0.00    -0.183 NA
ATOM     22  N   UNL A   1      32.967  19.825  26.197  1.00  0.00    -0.281 N 
ATOM     23  C   UNL A   1      34.404  21.686  26.962  1.00  0.00     0.067 C 
ATOM     24  H   UNL A   1      32.937  19.427  27.097  1.00  0.00     0.190 HD
ENDBRANCH  15  18
ENDBRANCH  13  15
ENDBRANCH  12  13
ENDBRANCH   4   7
ENDBRANCH   2   3
ENDBRANCH   1   2
BRANCH   1  25
ATOM     25  C   UNL A   1      33.757  29.218  26.788  1.00  0.00     0.118 C 
BRANCH  25  26
ATOM     26  N   UNL A   1      33.810  30.674  26.865  1.00  0.00    -0.352 N 
ATOM     27  C   UNL A   1      34.667  31.449  27.626  1.00  0.00     0.251 C 
ATOM     28  H   UNL A   1      33.159  31.162  26.310  1.00  0.00     0.163 HD
ATOM     29  O   UNL A   1      34.387  32.617  27.875  1.00  0.00    -0.269 OA
BRANCH  27  30
ATOM     30  C   UNL A   1      35.901  30.838  28.154  1.00  0.00     0.039 A 
ATOM     31  C   UNL A   1      36.155  29.471  28.001  1.00  0.00     0.014 A 
ATOM     32  C   UNL A   1      36.839  31.666  28.759  1.00  0.00     0.014 A 
ATOM     33  C   UNL A   1      37.402  28.966  28.378  1.00  0.00     0.010 A 
ATOM     34  C   UNL A   1      38.114  31.200  28.977  1.00  0.00     0.010 A 
ATOM     35  C   UNL A   1      38.393  29.842  28.844  1.00  0.00    -0.014 A 
BRANCH  35  36
ATOM     36  C   UNL A   1      39.744  29.366  29.143  1.00  0.00     0.031 A 
ATOM     37  C   UNL A   1      40.102  29.197  30.581  1.00  0.00     0.074 A 
ATOM     38  C   UNL A   1      40.568  28.872  28.194  1.00  0.00     0.049 A 
ATOM     39  N   UNL A   1      41.023  29.816  31.244  1.00  0.00    -0.248 NA
ATOM     40  C   UNL A   1      39.303  28.272  31.399  1.00  0.00     0.031 C 
ATOM     41  C   UNL A   1      40.291  28.668  26.766  1.00  0.00     0.029 A 
ATOM     42  N   UNL A   1      41.792  28.296  28.346  1.00  0.00    -0.354 N 
ATOM     43  C   UNL A   1      41.045  29.250  32.517  1.00  0.00     0.074 A 
ATOM     44  C   UNL A   1      39.880  28.403  32.597  1.00  0.00     0.031 C 
ATOM     45  C   UNL A   1      41.177  27.786  26.259  1.00  0.00     0.029 A 
ATOM     46  C   UNL A   1      42.186  27.518  27.267  1.00  0.00     0.049 A 
ATOM     47  H   UNL A   1      42.349  28.422  29.148  1.00  0.00     0.167 HD
ATOM     48  C   UNL A   1      42.117  29.374  33.352  1.00  0.00     0.031 A 
ATOM     49  C   UNL A   1      43.248  26.682  27.205  1.00  0.00     0.031 A 
ATOM     50  C   UNL A   1      43.071  30.336  32.863  1.00  0.00     0.049 A 
ATOM     51  C   UNL A   1      44.205  27.115  28.251  1.00  0.00     0.074 A 
ATOM     52  C   UNL A   1      43.036  31.686  32.577  1.00  0.00     0.029 A 
ATOM     53  N   UNL A   1      44.192  29.843  32.234  1.00  0.00    -0.354 N 
ATOM     54  N   UNL A   1      44.832  28.258  28.213  1.00  0.00    -0.248 NA
ATOM     55  C   UNL A   1      44.151  26.483  29.560  1.00  0.00     0.031 C 
ATOM     56  C   UNL A   1      43.840  31.830  31.408  1.00  0.00     0.029 A 
ATOM     57  C   UNL A   1      44.363  30.575  31.086  1.00  0.00     0.049 A 
ATOM     58  H   UNL A   1      44.763  29.105  32.548  1.00  0.00     0.167 HD
ATOM     59  C   UNL A   1      44.855  28.695  29.530  1.00  0.00     0.074 A 
ATOM     60  C   UNL A   1      44.544  27.509  30.323  1.00  0.00     0.031 C 
ATOM     61  C   UNL A   1      44.845  30.029  29.834  1.00  0.00     0.031 A 
BRANCH  48  62
ATOM     62  C   UNL A   1      42.488  28.396  34.440  1.00  0.00    -0.014 A 
ATOM     63  C   UNL A   1      42.711  28.876  35.748  1.00  0.00     0.010 A 
ATOM     64  C   UNL A   1      42.888  27.073  34.167  1.00  0.00     0.010 A 
ATOM     65  C   UNL A   1      43.368  28.096  36.711  1.00  0.00     0.020 A 
ATOM     66  C   UNL A   1      43.503  26.271  35.134  1.00  0.00     0.020 A 
ATOM     67  C   UNL A   1      43.776  26.803  36.388  1.00  0.00     0.054 A 
BRANCH  67  68
ATOM     68  S   UNL A   1      44.743  25.851  37.587  1.00  0.00     0.124 S 
ATOM     69  O   UNL A   1      44.425  24.478  37.205  1.00  0.00    -0.237 OA
ATOM     70  O   UNL A   1      46.108  26.288  37.306  1.00  0.00    -0.237 OA
ATOM     71  O   UNL A   1      44.210  26.282  38.877  1.00  0.00    -0.744 OA
ENDBRANCH  67  68
ENDBRANCH  48  62
BRANCH  49  72
ATOM     72  C   UNL A   1      43.368  25.421  26.438  1.00  0.00    -0.014 A 
ATOM     73  C   UNL A   1      44.309  25.283  25.404  1.00  0.00     0.010 A 
ATOM     74  C   UNL A   1      42.714  24.255  26.893  1.00  0.00     0.010 A 
ATOM     75  C   UNL A   1      44.626  24.016  24.883  1.00  0.00     0.020 A 
ATOM     76  C   UNL A   1      43.015  22.993  26.371  1.00  0.00     0.020 A 
ATOM     77  C   UNL A   1      43.989  22.877  25.384  1.00  0.00     0.054 A 
BRANCH  77  78
ATOM     78  S   UNL A   1      44.525  21.233  24.826  1.00  0.00     0.124 S 
ATOM     79  O   UNL A   1      43.487  20.364  25.375  1.00  0.00    -0.237 OA
ATOM     80  O   UNL A   1      44.528  21.378  23.374  1.00  0.00    -0.237 OA
ATOM     81  O   UNL A   1      45.845  21.075  25.436  1.00  0.00    -0.744 OA
ENDBRANCH  77  78
ENDBRANCH  49  72
BRANCH  61  82
ATOM     82  C   UNL A   1      45.075  31.025  28.717  1.00  0.00    -0.014 A 
ATOM     83  C   UNL A   1      44.061  31.435  27.826  1.00  0.00     0.010 A 
ATOM     84  C   UNL A   1      46.311  31.694  28.670  1.00  0.00     0.010 A 
ATOM     85  C   UNL A   1      44.289  32.462  26.899  1.00  0.00     0.020 A 
ATOM     86  C   UNL A   1      46.537  32.732  27.761  1.00  0.00     0.020 A 
ATOM     87  C   UNL A   1      45.528  33.104  26.873  1.00  0.00     0.054 A 
BRANCH  87  88
ATOM     88  S   UNL A   1      45.796  34.472  25.709  1.00  0.00     0.124 S 
ATOM     89  O   UNL A   1      45.437  35.642  26.507  1.00  0.00    -0.237 OA
ATOM     90  O   UNL A   1      47.213  34.347  25.379  1.00  0.00    -0.237 OA
ATOM     91  O   UNL A   1      44.884  34.173  24.605  1.00  0.00    -0.744 OA
ENDBRANCH  87  88
ENDBRANCH  61  82
ENDBRANCH  35  36
ENDBRANCH  27  30
ENDBRANCH  25  26
ENDBRANCH   1  25
TORSDOF 16
ENDMDL
