MODEL 1
REMARK VINA RESULT:     -13.3      0.000      0.000
REMARK SMILES Cc1cccc(NS(=O)(=O)c2ccc(Br)c(C(=O)NCCCNC(=O)c3ccc(-c4c5nc(c(-c6ccc(S(=O)(=O)[O-])cc6)c6ccc([nH]6)c(-c6ccc(S(=O)(=O)[O-])cc6)c6nc(c(-c7ccc(S(=O)(=O)[O-])cc7)c7ccc4[nH]7)C=C6)C=C5)cc3)c2)c1
REMARK SMILES IDX 21 1 20 2 19 3 17 4 18 5 16 7 11 8 12 9 86 10 13 11 14 12
REMARK SMILES IDX 15 13 8 14 9 15 10 16 7 17 6 19 1 20 2 21 3 22 87 23 4 24
REMARK SMILES IDX 5 25 22 26 23 27 24 28 25 30 26 31 27 32 85 33 28 34 84 35
REMARK SMILES IDX 29 36 30 37 31 38 78 39 32 40 83 41 77 42 79 43 33 44 82 45
REMARK SMILES IDX 76 46 75 47 34 49 64 50 45 51 63 52 46 53 49 54 62 55 80 56
REMARK SMILES IDX 47 57 48 58 61 60 81 61 50 62 35 63 36 64 44 65 37 66 43 67
REMARK SMILES IDX 38 68 39 69 40 70 41 71 42 72 65 73 66 74 74 75 67 76 73 77
REMARK SMILES IDX 68 78 69 79 70 80 71 81 72 82 51 83 52 84 60 85 53 86 59 87
REMARK SMILES IDX 54 88 55 89 56 90 57 91 58 92
REMARK H PARENT 19 6 7 18 23 29 79 48 49 59
REMARK Flexibility Score: inf
ROOT
ATOM      1  C   UNL A   1      33.137  30.026  27.332  1.00  0.00     0.042 C 
ENDROOT
BRANCH   1   2
ATOM      2  C   UNL A   1      32.342  29.819  26.054  1.00  0.00     0.118 C 
BRANCH   2   3
ATOM      3  N   UNL A   1      33.158  29.602  24.865  1.00  0.00    -0.352 N 
ATOM      4  C   UNL A   1      33.149  28.728  23.808  1.00  0.00     0.252 C 
ATOM      5  O   UNL A   1      33.965  28.938  22.906  1.00  0.00    -0.269 OA
ATOM      6  H   UNL A   1      33.902  30.244  24.806  1.00  0.00     0.163 HD
BRANCH   4   7
ATOM      7  C   UNL A   1      32.338  27.479  23.734  1.00  0.00     0.055 A 
ATOM      8  C   UNL A   1      32.378  25.040  23.759  1.00  0.00     0.088 A 
ATOM      9  C   UNL A   1      31.063  25.015  24.212  1.00  0.00     0.023 A 
ATOM     10  C   UNL A   1      33.049  26.265  23.646  1.00  0.00     0.037 A 
ATOM     11  C   UNL A   1      30.327  26.194  24.151  1.00  0.00     0.018 A 
ATOM     12  C   UNL A   1      30.948  27.386  23.748  1.00  0.00     0.030 A 
ATOM     13  Br  UNL A   1      29.894  28.406  22.509  1.00  0.00    -0.050 Br
BRANCH   8  14
ATOM     14  S   UNL A   1      33.164  23.540  23.233  1.00  0.00     0.261 S 
ATOM     15  O   UNL A   1      34.308  23.919  22.429  1.00  0.00    -0.201 OA
ATOM     16  O   UNL A   1      32.146  22.664  22.689  1.00  0.00    -0.201 OA
BRANCH  14  17
ATOM     17  N   UNL A   1      33.807  22.690  24.574  1.00  0.00    -0.280 N 
ATOM     18  H   UNL A   1      33.181  22.218  25.169  1.00  0.00     0.180 HD
BRANCH  17  19
ATOM     19  C   UNL A   1      35.210  22.627  24.878  1.00  0.00     0.049 A 
ATOM     20  C   UNL A   1      37.991  20.003  24.923  1.00  0.00     0.044 C 
ATOM     21  C   UNL A   1      37.259  21.308  25.052  1.00  0.00    -0.049 A 
ATOM     22  C   UNL A   1      37.936  22.440  25.516  1.00  0.00     0.003 A 
ATOM     23  C   UNL A   1      35.901  21.418  24.704  1.00  0.00     0.030 A 
ATOM     24  C   UNL A   1      37.240  23.626  25.742  1.00  0.00     0.002 A 
ATOM     25  C   UNL A   1      35.870  23.698  25.478  1.00  0.00     0.027 A 
ENDBRANCH  17  19
ENDBRANCH  14  17
ENDBRANCH   8  14
ENDBRANCH   4   7
ENDBRANCH   2   3
ENDBRANCH   1   2
BRANCH   1  26
ATOM     26  C   UNL A   1      34.633  29.907  27.073  1.00  0.00     0.118 C 
BRANCH  26  27
ATOM     27  N   UNL A   1      35.418  31.098  27.393  1.00  0.00    -0.352 N 
ATOM     28  C   UNL A   1      36.698  31.156  27.942  1.00  0.00     0.251 C 
ATOM     29  H   UNL A   1      34.993  31.963  27.197  1.00  0.00     0.163 HD
ATOM     30  O   UNL A   1      37.198  32.213  28.279  1.00  0.00    -0.269 OA
BRANCH  28  31
ATOM     31  C   UNL A   1      37.448  29.883  28.051  1.00  0.00     0.039 A 
ATOM     32  C   UNL A   1      37.315  29.123  29.217  1.00  0.00     0.014 A 
ATOM     33  C   UNL A   1      38.487  29.649  27.160  1.00  0.00     0.014 A 
ATOM     34  C   UNL A   1      38.358  28.282  29.605  1.00  0.00     0.010 A 
ATOM     35  C   UNL A   1      39.575  28.941  27.619  1.00  0.00     0.010 A 
ATOM     36  C   UNL A   1      39.533  28.285  28.861  1.00  0.00    -0.014 A 
BRANCH  36  37
ATOM     37  C   UNL A   1      40.804  27.699  29.279  1.00  0.00     0.031 A 
ATOM     38  C   UNL A   1      41.117  26.300  28.890  1.00  0.00     0.074 A 
ATOM     39  C   UNL A   1      41.780  28.480  29.798  1.00  0.00     0.049 A 
ATOM     40  N   UNL A   1      42.136  25.631  29.309  1.00  0.00    -0.248 NA
ATOM     41  C   UNL A   1      40.254  25.516  28.008  1.00  0.00     0.031 C 
ATOM     42  C   UNL A   1      43.216  28.194  29.799  1.00  0.00     0.029 A 
ATOM     43  N   UNL A   1      41.669  29.599  30.626  1.00  0.00    -0.354 N 
ATOM     44  C   UNL A   1      42.256  24.515  28.511  1.00  0.00     0.074 A 
ATOM     45  C   UNL A   1      41.011  24.440  27.787  1.00  0.00     0.031 C 
ATOM     46  C   UNL A   1      43.794  28.888  30.789  1.00  0.00     0.029 A 
ATOM     47  C   UNL A   1      42.722  29.493  31.556  1.00  0.00     0.049 A 
ATOM     48  H   UNL A   1      40.995  30.314  30.571  1.00  0.00     0.167 HD
ATOM     49  C   UNL A   1      43.454  23.868  28.451  1.00  0.00     0.031 A 
ATOM     50  C   UNL A   1      42.545  29.338  32.903  1.00  0.00     0.031 A 
ATOM     51  C   UNL A   1      44.390  24.371  29.459  1.00  0.00     0.049 A 
ATOM     52  C   UNL A   1      43.206  28.095  33.474  1.00  0.00     0.074 A 
ATOM     53  C   UNL A   1      45.537  25.147  29.424  1.00  0.00     0.029 A 
ATOM     54  N   UNL A   1      44.025  24.290  30.797  1.00  0.00    -0.354 N 
ATOM     55  N   UNL A   1      43.779  27.163  32.764  1.00  0.00    -0.248 NA
ATOM     56  C   UNL A   1      43.188  27.762  34.894  1.00  0.00     0.031 C 
ATOM     57  C   UNL A   1      45.851  25.538  30.759  1.00  0.00     0.029 A 
ATOM     58  C   UNL A   1      44.907  24.982  31.602  1.00  0.00     0.049 A 
ATOM     59  H   UNL A   1      43.237  23.801  31.127  1.00  0.00     0.167 HD
ATOM     60  C   UNL A   1      44.148  26.112  33.568  1.00  0.00     0.074 A 
ATOM     61  C   UNL A   1      43.755  26.544  34.899  1.00  0.00     0.031 C 
ATOM     62  C   UNL A   1      44.700  24.970  33.049  1.00  0.00     0.031 A 
BRANCH  49  63
ATOM     63  C   UNL A   1      43.855  22.932  27.326  1.00  0.00    -0.014 A 
ATOM     64  C   UNL A   1      42.933  21.975  26.851  1.00  0.00     0.010 A 
ATOM     65  C   UNL A   1      45.134  22.888  26.737  1.00  0.00     0.010 A 
ATOM     66  C   UNL A   1      43.291  20.986  25.918  1.00  0.00     0.020 A 
ATOM     67  C   UNL A   1      45.516  21.893  25.824  1.00  0.00     0.020 A 
ATOM     68  C   UNL A   1      44.593  20.937  25.427  1.00  0.00     0.054 A 
BRANCH  68  69
ATOM     69  S   UNL A   1      45.069  19.619  24.278  1.00  0.00     0.124 S 
ATOM     70  O   UNL A   1      46.527  19.699  24.296  1.00  0.00    -0.237 OA
ATOM     71  O   UNL A   1      44.493  18.433  24.905  1.00  0.00    -0.237 OA
ATOM     72  O   UNL A   1      44.446  20.017  23.018  1.00  0.00    -0.744 OA
ENDBRANCH  68  69
ENDBRANCH  49  63
BRANCH  50  73
ATOM     73  C   UNL A   1      41.288  29.946  33.422  1.00  0.00    -0.014 A 
ATOM     74  C   UNL A   1      41.312  31.327  33.711  1.00  0.00     0.010 A 
ATOM     75  C   UNL A   1      40.052  29.319  33.178  1.00  0.00     0.010 A 
ATOM     76  C   UNL A   1      40.161  32.100  33.551  1.00  0.00     0.020 A 
ATOM     77  C   UNL A   1      38.894  30.093  33.033  1.00  0.00     0.020 A 
ATOM     78  C   UNL A   1      38.980  31.485  33.138  1.00  0.00     0.054 A 
BRANCH  78  79
ATOM     79  S   UNL A   1      37.655  32.547  32.485  1.00  0.00     0.124 S 
ATOM     80  O   UNL A   1      38.363  33.785  32.179  1.00  0.00    -0.237 OA
ATOM     81  O   UNL A   1      37.204  31.771  31.332  1.00  0.00    -0.237 OA
ATOM     82  O   UNL A   1      36.705  32.618  33.592  1.00  0.00    -0.744 OA
ENDBRANCH  78  79
ENDBRANCH  50  73
BRANCH  62  83
ATOM     83  C   UNL A   1      45.071  23.695  33.796  1.00  0.00    -0.014 A 
ATOM     84  C   UNL A   1      44.200  22.637  34.083  1.00  0.00     0.010 A 
ATOM     85  C   UNL A   1      46.397  23.556  34.293  1.00  0.00     0.010 A 
ATOM     86  C   UNL A   1      44.640  21.480  34.755  1.00  0.00     0.020 A 
ATOM     87  C   UNL A   1      46.847  22.418  34.969  1.00  0.00     0.020 A 
ATOM     88  C   UNL A   1      45.963  21.375  35.187  1.00  0.00     0.054 A 
BRANCH  88  89
ATOM     89  S   UNL A   1      46.498  19.875  36.043  1.00  0.00     0.124 S 
ATOM     90  O   UNL A   1      45.789  19.976  37.316  1.00  0.00    -0.237 OA
ATOM     91  O   UNL A   1      46.030  18.821  35.145  1.00  0.00    -0.237 OA
ATOM     92  O   UNL A   1      47.950  20.016  36.125  1.00  0.00    -0.744 OA
ENDBRANCH  88  89
ENDBRANCH  62  83
ENDBRANCH  36  37
ENDBRANCH  28  31
ENDBRANCH  26  27
ENDBRANCH   1  26
TORSDOF 16
ENDMDL
MODEL 2
REMARK VINA RESULT:     -13.0      2.113      2.847
REMARK SMILES Cc1cccc(NS(=O)(=O)c2ccc(Br)c(C(=O)NCCCNC(=O)c3ccc(-c4c5nc(c(-c6ccc(S(=O)(=O)[O-])cc6)c6ccc([nH]6)c(-c6ccc(S(=O)(=O)[O-])cc6)c6nc(c(-c7ccc(S(=O)(=O)[O-])cc7)c7ccc4[nH]7)C=C6)C=C5)cc3)c2)c1
REMARK SMILES IDX 21 1 20 2 19 3 17 4 18 5 16 7 11 8 12 9 86 10 13 11 14 12
REMARK SMILES IDX 15 13 8 14 9 15 10 16 7 17 6 19 1 20 2 21 3 22 87 23 4 24
REMARK SMILES IDX 5 25 22 26 23 27 24 28 25 30 26 31 27 32 85 33 28 34 84 35
REMARK SMILES IDX 29 36 30 37 31 38 78 39 32 40 83 41 77 42 79 43 33 44 82 45
REMARK SMILES IDX 76 46 75 47 34 49 64 50 45 51 63 52 46 53 49 54 62 55 80 56
REMARK SMILES IDX 47 57 48 58 61 60 81 61 50 62 35 63 36 64 44 65 37 66 43 67
REMARK SMILES IDX 38 68 39 69 40 70 41 71 42 72 65 73 66 74 74 75 67 76 73 77
REMARK SMILES IDX 68 78 69 79 70 80 71 81 72 82 51 83 52 84 60 85 53 86 59 87
REMARK SMILES IDX 54 88 55 89 56 90 57 91 58 92
REMARK H PARENT 19 6 7 18 23 29 79 48 49 59
REMARK Flexibility Score: inf
ROOT
ATOM      1  C   UNL A   1      33.000  29.592  25.780  1.00  0.00     0.042 C 
ENDROOT
BRANCH   1   2
ATOM      2  C   UNL A   1      33.994  28.473  25.516  1.00  0.00     0.118 C 
BRANCH   2   3
ATOM      3  N   UNL A   1      33.838  27.821  24.221  1.00  0.00    -0.352 N 
ATOM      4  C   UNL A   1      33.567  26.550  23.783  1.00  0.00     0.252 C 
ATOM      5  O   UNL A   1      33.396  26.405  22.570  1.00  0.00    -0.269 OA
ATOM      6  H   UNL A   1      33.957  28.451  23.474  1.00  0.00     0.163 HD
BRANCH   4   7
ATOM      7  C   UNL A   1      33.607  25.324  24.630  1.00  0.00     0.055 A 
ATOM      8  C   UNL A   1      34.981  23.492  25.471  1.00  0.00     0.088 A 
ATOM      9  C   UNL A   1      34.144  23.360  26.574  1.00  0.00     0.023 A 
ATOM     10  C   UNL A   1      34.785  24.551  24.575  1.00  0.00     0.037 A 
ATOM     11  C   UNL A   1      32.914  24.011  26.545  1.00  0.00     0.018 A 
ATOM     12  C   UNL A   1      32.600  24.862  25.475  1.00  0.00     0.030 A 
ATOM     13  Br  UNL A   1      30.814  24.618  24.815  1.00  0.00    -0.050 Br
BRANCH   8  14
ATOM     14  S   UNL A   1      36.223  22.269  25.148  1.00  0.00     0.261 S 
ATOM     15  O   UNL A   1      37.334  22.547  26.035  1.00  0.00    -0.201 OA
ATOM     16  O   UNL A   1      36.430  22.203  23.716  1.00  0.00    -0.201 OA
BRANCH  14  17
ATOM     17  N   UNL A   1      35.666  20.709  25.587  1.00  0.00    -0.280 N 
ATOM     18  H   UNL A   1      36.100  20.257  26.346  1.00  0.00     0.180 HD
BRANCH  17  19
ATOM     19  C   UNL A   1      34.602  20.023  24.908  1.00  0.00     0.049 A 
ATOM     20  C   UNL A   1      33.968  16.580  23.370  1.00  0.00     0.044 C 
ATOM     21  C   UNL A   1      33.772  17.999  23.819  1.00  0.00    -0.049 A 
ATOM     22  C   UNL A   1      32.575  18.660  23.528  1.00  0.00     0.003 A 
ATOM     23  C   UNL A   1      34.770  18.680  24.539  1.00  0.00     0.030 A 
ATOM     24  C   UNL A   1      32.427  20.010  23.843  1.00  0.00     0.002 A 
ATOM     25  C   UNL A   1      33.462  20.700  24.479  1.00  0.00     0.027 A 
ENDBRANCH  17  19
ENDBRANCH  14  17
ENDBRANCH   8  14
ENDBRANCH   4   7
ENDBRANCH   2   3
ENDBRANCH   1   2
BRANCH   1  26
ATOM     26  C   UNL A   1      33.004  29.995  27.248  1.00  0.00     0.118 C 
BRANCH  26  27
ATOM     27  N   UNL A   1      33.583  31.307  27.533  1.00  0.00    -0.352 N 
ATOM     28  C   UNL A   1      34.827  31.587  28.095  1.00  0.00     0.251 C 
ATOM     29  H   UNL A   1      33.029  32.085  27.300  1.00  0.00     0.163 HD
ATOM     30  O   UNL A   1      35.147  32.722  28.399  1.00  0.00    -0.269 OA
BRANCH  28  31
ATOM     31  C   UNL A   1      35.769  30.456  28.260  1.00  0.00     0.039 A 
ATOM     32  C   UNL A   1      35.915  29.883  29.528  1.00  0.00     0.014 A 
ATOM     33  C   UNL A   1      36.697  30.214  27.256  1.00  0.00     0.014 A 
ATOM     34  C   UNL A   1      37.117  29.257  29.858  1.00  0.00     0.010 A 
ATOM     35  C   UNL A   1      37.933  29.735  27.629  1.00  0.00     0.010 A 
ATOM     36  C   UNL A   1      38.163  29.289  28.941  1.00  0.00    -0.014 A 
BRANCH  36  37
ATOM     37  C   UNL A   1      39.553  28.946  29.228  1.00  0.00     0.031 A 
ATOM     38  C   UNL A   1      40.038  27.577  28.917  1.00  0.00     0.074 A 
ATOM     39  C   UNL A   1      40.447  29.913  29.542  1.00  0.00     0.049 A 
ATOM     40  N   UNL A   1      41.196  27.114  29.246  1.00  0.00    -0.248 NA
ATOM     41  C   UNL A   1      39.212  26.586  28.230  1.00  0.00     0.031 C 
ATOM     42  C   UNL A   1      41.899  29.847  29.370  1.00  0.00     0.029 A 
ATOM     43  N   UNL A   1      40.259  31.082  30.283  1.00  0.00    -0.354 N 
ATOM     44  C   UNL A   1      41.396  25.953  28.534  1.00  0.00     0.074 A 
ATOM     45  C   UNL A   1      40.100  25.619  27.996  1.00  0.00     0.031 C 
ATOM     46  C   UNL A   1      42.474  30.717  30.211  1.00  0.00     0.029 A 
ATOM     47  C   UNL A   1      41.420  31.231  31.066  1.00  0.00     0.049 A 
ATOM     48  H   UNL A   1      39.477  31.679  30.262  1.00  0.00     0.167 HD
ATOM     49  C   UNL A   1      42.666  25.489  28.364  1.00  0.00     0.031 A 
ATOM     50  C   UNL A   1      41.437  31.191  32.432  1.00  0.00     0.031 A 
ATOM     51  C   UNL A   1      43.625  26.228  29.189  1.00  0.00     0.049 A 
ATOM     52  C   UNL A   1      42.355  30.126  33.007  1.00  0.00     0.074 A 
ATOM     53  C   UNL A   1      44.618  27.159  28.933  1.00  0.00     0.029 A 
ATOM     54  N   UNL A   1      43.444  26.231  30.566  1.00  0.00    -0.354 N 
ATOM     55  N   UNL A   1      42.980  29.222  32.304  1.00  0.00    -0.248 NA
ATOM     56  C   UNL A   1      42.565  29.943  34.439  1.00  0.00     0.031 C 
ATOM     57  C   UNL A   1      45.026  27.727  30.176  1.00  0.00     0.029 A 
ATOM     58  C   UNL A   1      44.295  27.127  31.184  1.00  0.00     0.049 A 
ATOM     59  H   UNL A   1      42.793  25.666  31.041  1.00  0.00     0.167 HD
ATOM     60  C   UNL A   1      43.610  28.326  33.135  1.00  0.00     0.074 A 
ATOM     61  C   UNL A   1      43.319  28.829  34.467  1.00  0.00     0.031 C 
ATOM     62  C   UNL A   1      44.271  27.233  32.641  1.00  0.00     0.031 A 
BRANCH  49  63
ATOM     63  C   UNL A   1      43.073  24.513  27.275  1.00  0.00    -0.014 A 
ATOM     64  C   UNL A   1      43.087  23.128  27.549  1.00  0.00     0.010 A 
ATOM     65  C   UNL A   1      43.516  24.883  25.991  1.00  0.00     0.010 A 
ATOM     66  C   UNL A   1      43.593  22.188  26.635  1.00  0.00     0.020 A 
ATOM     67  C   UNL A   1      44.048  23.961  25.076  1.00  0.00     0.020 A 
ATOM     68  C   UNL A   1      44.095  22.616  25.409  1.00  0.00     0.054 A 
BRANCH  68  69
ATOM     69  S   UNL A   1      44.810  21.409  24.262  1.00  0.00     0.124 S 
ATOM     70  O   UNL A   1      44.498  21.991  22.959  1.00  0.00    -0.237 OA
ATOM     71  O   UNL A   1      46.221  21.417  24.638  1.00  0.00    -0.237 OA
ATOM     72  O   UNL A   1      44.095  20.172  24.571  1.00  0.00    -0.744 OA
ENDBRANCH  68  69
ENDBRANCH  49  63
BRANCH  50  73
ATOM     73  C   UNL A   1      40.171  31.655  33.066  1.00  0.00    -0.014 A 
ATOM     74  C   UNL A   1      39.956  33.048  33.130  1.00  0.00     0.010 A 
ATOM     75  C   UNL A   1      39.067  30.786  33.146  1.00  0.00     0.010 A 
ATOM     76  C   UNL A   1      38.661  33.564  33.060  1.00  0.00     0.020 A 
ATOM     77  C   UNL A   1      37.767  31.304  33.092  1.00  0.00     0.020 A 
ATOM     78  C   UNL A   1      37.582  32.684  32.964  1.00  0.00     0.054 A 
BRANCH  78  79
ATOM     79  S   UNL A   1      35.988  33.357  32.402  1.00  0.00     0.124 S 
ATOM     80  O   UNL A   1      35.184  32.154  32.220  1.00  0.00    -0.237 OA
ATOM     81  O   UNL A   1      35.617  34.204  33.534  1.00  0.00    -0.237 OA
ATOM     82  O   UNL A   1      36.338  34.076  31.181  1.00  0.00    -0.744 OA
ENDBRANCH  78  79
ENDBRANCH  50  73
BRANCH  62  83
ATOM     83  C   UNL A   1      44.933  26.111  33.433  1.00  0.00    -0.014 A 
ATOM     84  C   UNL A   1      46.313  25.928  33.586  1.00  0.00     0.010 A 
ATOM     85  C   UNL A   1      44.107  25.129  34.045  1.00  0.00     0.010 A 
ATOM     86  C   UNL A   1      46.836  24.877  34.364  1.00  0.00     0.020 A 
ATOM     87  C   UNL A   1      44.611  24.075  34.813  1.00  0.00     0.020 A 
ATOM     88  C   UNL A   1      45.981  23.961  34.978  1.00  0.00     0.054 A 
BRANCH  88  89
ATOM     89  S   UNL A   1      46.683  22.625  35.973  1.00  0.00     0.124 S 
ATOM     90  O   UNL A   1      45.501  21.834  36.305  1.00  0.00    -0.237 OA
ATOM     91  O   UNL A   1      47.616  21.999  35.040  1.00  0.00    -0.237 OA
ATOM     92  O   UNL A   1      47.307  23.315  37.100  1.00  0.00    -0.744 OA
ENDBRANCH  88  89
ENDBRANCH  62  83
ENDBRANCH  36  37
ENDBRANCH  28  31
ENDBRANCH  26  27
ENDBRANCH   1  26
TORSDOF 16
ENDMDL
MODEL 3
REMARK VINA RESULT:     -13.0      2.014      2.647
REMARK SMILES Cc1cccc(NS(=O)(=O)c2ccc(Br)c(C(=O)NCCCNC(=O)c3ccc(-c4c5nc(c(-c6ccc(S(=O)(=O)[O-])cc6)c6ccc([nH]6)c(-c6ccc(S(=O)(=O)[O-])cc6)c6nc(c(-c7ccc(S(=O)(=O)[O-])cc7)c7ccc4[nH]7)C=C6)C=C5)cc3)c2)c1
REMARK SMILES IDX 21 1 20 2 19 3 17 4 18 5 16 7 11 8 12 9 86 10 13 11 14 12
REMARK SMILES IDX 15 13 8 14 9 15 10 16 7 17 6 19 1 20 2 21 3 22 87 23 4 24
REMARK SMILES IDX 5 25 22 26 23 27 24 28 25 30 26 31 27 32 85 33 28 34 84 35
REMARK SMILES IDX 29 36 30 37 31 38 78 39 32 40 83 41 77 42 79 43 33 44 82 45
REMARK SMILES IDX 76 46 75 47 34 49 64 50 45 51 63 52 46 53 49 54 62 55 80 56
REMARK SMILES IDX 47 57 48 58 61 60 81 61 50 62 35 63 36 64 44 65 37 66 43 67
REMARK SMILES IDX 38 68 39 69 40 70 41 71 42 72 65 73 66 74 74 75 67 76 73 77
REMARK SMILES IDX 68 78 69 79 70 80 71 81 72 82 51 83 52 84 60 85 53 86 59 87
REMARK SMILES IDX 54 88 55 89 56 90 57 91 58 92
REMARK H PARENT 19 6 7 18 23 29 79 48 49 59
REMARK Flexibility Score: inf
ROOT
ATOM      1  C   UNL A   1      32.135  29.808  26.088  1.00  0.00     0.042 C 
ENDROOT
BRANCH   1   2
ATOM      2  C   UNL A   1      32.241  29.161  24.716  1.00  0.00     0.118 C 
BRANCH   2   3
ATOM      3  N   UNL A   1      30.959  28.897  24.074  1.00  0.00    -0.352 N 
ATOM      4  C   UNL A   1      30.236  27.781  23.739  1.00  0.00     0.252 C 
ATOM      5  O   UNL A   1      29.101  27.968  23.292  1.00  0.00    -0.269 OA
ATOM      6  H   UNL A   1      30.497  29.727  23.817  1.00  0.00     0.163 HD
BRANCH   4   7
ATOM      7  C   UNL A   1      30.762  26.386  23.736  1.00  0.00     0.055 A 
ATOM      8  C   UNL A   1      30.696  24.199  24.816  1.00  0.00     0.088 A 
ATOM      9  C   UNL A   1      31.105  23.593  23.633  1.00  0.00     0.023 A 
ATOM     10  C   UNL A   1      30.403  25.570  24.828  1.00  0.00     0.037 A 
ATOM     11  C   UNL A   1      31.600  24.407  22.618  1.00  0.00     0.018 A 
ATOM     12  C   UNL A   1      31.570  25.802  22.763  1.00  0.00     0.030 A 
ATOM     13  Br  UNL A   1      33.201  26.654  22.216  1.00  0.00    -0.050 Br
BRANCH   8  14
ATOM     14  S   UNL A   1      30.644  23.263  26.321  1.00  0.00     0.261 S 
ATOM     15  O   UNL A   1      30.378  21.886  25.956  1.00  0.00    -0.201 OA
ATOM     16  O   UNL A   1      29.775  23.953  27.252  1.00  0.00    -0.201 OA
BRANCH  14  17
ATOM     17  N   UNL A   1      32.180  23.247  27.079  1.00  0.00    -0.280 N 
ATOM     18  H   UNL A   1      32.214  23.212  28.062  1.00  0.00     0.180 HD
BRANCH  17  19
ATOM     19  C   UNL A   1      33.424  23.281  26.359  1.00  0.00     0.049 A 
ATOM     20  C   UNL A   1      36.094  20.809  25.184  1.00  0.00     0.044 C 
ATOM     21  C   UNL A   1      35.343  22.085  25.434  1.00  0.00    -0.049 A 
ATOM     22  C   UNL A   1      35.883  23.302  25.010  1.00  0.00     0.003 A 
ATOM     23  C   UNL A   1      34.094  22.080  26.081  1.00  0.00     0.030 A 
ATOM     24  C   UNL A   1      35.248  24.500  25.334  1.00  0.00     0.002 A 
ATOM     25  C   UNL A   1      34.052  24.488  26.056  1.00  0.00     0.027 A 
ENDBRANCH  17  19
ENDBRANCH  14  17
ENDBRANCH   8  14
ENDBRANCH   4   7
ENDBRANCH   2   3
ENDBRANCH   1   2
BRANCH   1  26
ATOM     26  C   UNL A   1      33.487  29.832  26.789  1.00  0.00     0.118 C 
BRANCH  26  27
ATOM     27  N   UNL A   1      34.031  31.164  27.049  1.00  0.00    -0.352 N 
ATOM     28  C   UNL A   1      35.210  31.490  27.715  1.00  0.00     0.251 C 
ATOM     29  H   UNL A   1      33.500  31.922  26.713  1.00  0.00     0.163 HD
ATOM     30  O   UNL A   1      35.494  32.644  27.980  1.00  0.00    -0.269 OA
BRANCH  28  31
ATOM     31  C   UNL A   1      36.134  30.379  28.045  1.00  0.00     0.039 A 
ATOM     32  C   UNL A   1      36.047  29.785  29.308  1.00  0.00     0.014 A 
ATOM     33  C   UNL A   1      37.246  30.182  27.238  1.00  0.00     0.014 A 
ATOM     34  C   UNL A   1      37.179  29.183  29.857  1.00  0.00     0.010 A 
ATOM     35  C   UNL A   1      38.399  29.726  27.837  1.00  0.00     0.010 A 
ATOM     36  C   UNL A   1      38.381  29.260  29.163  1.00  0.00    -0.014 A 
BRANCH  36  37
ATOM     37  C   UNL A   1      39.698  28.946  29.711  1.00  0.00     0.031 A 
ATOM     38  C   UNL A   1      40.323  27.639  29.384  1.00  0.00     0.074 A 
ATOM     39  C   UNL A   1      40.443  29.911  30.300  1.00  0.00     0.049 A 
ATOM     40  N   UNL A   1      41.412  27.192  29.913  1.00  0.00    -0.248 NA
ATOM     41  C   UNL A   1      39.725  26.692  28.445  1.00  0.00     0.031 C 
ATOM     42  C   UNL A   1      41.900  29.923  30.441  1.00  0.00     0.029 A 
ATOM     43  N   UNL A   1      40.030  30.987  31.089  1.00  0.00    -0.354 N 
ATOM     44  C   UNL A   1      41.830  26.121  29.155  1.00  0.00     0.074 A 
ATOM     45  C   UNL A   1      40.702  25.792  28.320  1.00  0.00     0.031 C 
ATOM     46  C   UNL A   1      42.228  30.724  31.465  1.00  0.00     0.029 A 
ATOM     47  C   UNL A   1      40.988  31.101  32.115  1.00  0.00     0.049 A 
ATOM     48  H   UNL A   1      39.233  31.550  30.955  1.00  0.00     0.167 HD
ATOM     49  C   UNL A   1      43.135  25.731  29.222  1.00  0.00     0.031 A 
ATOM     50  C   UNL A   1      40.717  30.918  33.442  1.00  0.00     0.031 A 
ATOM     51  C   UNL A   1      43.849  26.418  30.300  1.00  0.00     0.049 A 
ATOM     52  C   UNL A   1      41.558  29.837  34.100  1.00  0.00     0.074 A 
ATOM     53  C   UNL A   1      44.813  27.410  30.354  1.00  0.00     0.029 A 
ATOM     54  N   UNL A   1      43.382  26.269  31.599  1.00  0.00    -0.354 N 
ATOM     55  N   UNL A   1      42.374  29.039  33.468  1.00  0.00    -0.248 NA
ATOM     56  C   UNL A   1      41.472  29.514  35.520  1.00  0.00     0.031 C 
ATOM     57  C   UNL A   1      44.913  27.862  31.703  1.00  0.00     0.029 A 
ATOM     58  C   UNL A   1      44.025  27.129  32.468  1.00  0.00     0.049 A 
ATOM     59  H   UNL A   1      42.681  25.631  31.867  1.00  0.00     0.167 HD
ATOM     60  C   UNL A   1      42.868  28.088  34.328  1.00  0.00     0.074 A 
ATOM     61  C   UNL A   1      42.271  28.436  35.606  1.00  0.00     0.031 C 
ATOM     62  C   UNL A   1      43.687  27.080  33.889  1.00  0.00     0.031 A 
BRANCH  49  63
ATOM     63  C   UNL A   1      43.823  24.891  28.160  1.00  0.00    -0.014 A 
ATOM     64  C   UNL A   1      44.526  25.527  27.114  1.00  0.00     0.010 A 
ATOM     65  C   UNL A   1      43.766  23.486  28.087  1.00  0.00     0.010 A 
ATOM     66  C   UNL A   1      45.056  24.814  26.025  1.00  0.00     0.020 A 
ATOM     67  C   UNL A   1      44.267  22.761  26.995  1.00  0.00     0.020 A 
ATOM     68  C   UNL A   1      44.901  23.433  25.961  1.00  0.00     0.054 A 
BRANCH  68  69
ATOM     69  S   UNL A   1      45.525  22.526  24.521  1.00  0.00     0.124 S 
ATOM     70  O   UNL A   1      46.117  23.589  23.714  1.00  0.00    -0.237 OA
ATOM     71  O   UNL A   1      46.468  21.590  25.125  1.00  0.00    -0.237 OA
ATOM     72  O   UNL A   1      44.326  21.916  23.950  1.00  0.00    -0.744 OA
ENDBRANCH  68  69
ENDBRANCH  49  63
BRANCH  50  73
ATOM     73  C   UNL A   1      39.320  31.260  33.828  1.00  0.00    -0.014 A 
ATOM     74  C   UNL A   1      39.030  32.622  34.056  1.00  0.00     0.010 A 
ATOM     75  C   UNL A   1      38.269  30.379  33.512  1.00  0.00     0.010 A 
ATOM     76  C   UNL A   1      37.762  33.130  33.767  1.00  0.00     0.020 A 
ATOM     77  C   UNL A   1      36.993  30.887  33.236  1.00  0.00     0.020 A 
ATOM     78  C   UNL A   1      36.777  32.267  33.286  1.00  0.00     0.054 A 
BRANCH  78  79
ATOM     79  S   UNL A   1      35.324  33.007  32.479  1.00  0.00     0.124 S 
ATOM     80  O   UNL A   1      34.376  33.126  33.582  1.00  0.00    -0.237 OA
ATOM     81  O   UNL A   1      35.878  34.264  31.981  1.00  0.00    -0.237 OA
ATOM     82  O   UNL A   1      34.978  32.032  31.450  1.00  0.00    -0.744 OA
ENDBRANCH  78  79
ENDBRANCH  50  73
BRANCH  62  83
ATOM     83  C   UNL A   1      44.235  25.910  34.696  1.00  0.00    -0.014 A 
ATOM     84  C   UNL A   1      43.554  24.715  34.962  1.00  0.00     0.010 A 
ATOM     85  C   UNL A   1      45.528  26.028  35.277  1.00  0.00     0.010 A 
ATOM     86  C   UNL A   1      44.153  23.672  35.694  1.00  0.00     0.020 A 
ATOM     87  C   UNL A   1      46.132  25.005  36.014  1.00  0.00     0.020 A 
ATOM     88  C   UNL A   1      45.441  23.822  36.210  1.00  0.00     0.054 A 
BRANCH  88  89
ATOM     89  S   UNL A   1      46.185  22.463  37.143  1.00  0.00     0.124 S 
ATOM     90  O   UNL A   1      45.630  21.289  36.474  1.00  0.00    -0.237 OA
ATOM     91  O   UNL A   1      47.613  22.687  36.935  1.00  0.00    -0.237 OA
ATOM     92  O   UNL A   1      45.719  22.678  38.511  1.00  0.00    -0.744 OA
ENDBRANCH  88  89
ENDBRANCH  62  83
ENDBRANCH  36  37
ENDBRANCH  28  31
ENDBRANCH  26  27
ENDBRANCH   1  26
TORSDOF 16
ENDMDL
