MODEL 1
REMARK VINA RESULT:     -11.8      0.000      0.000
REMARK SMILES C[C@@H]1[NH2+]CC[C@@H]1C(=O)Nc1ccccc1CC(=O)NCCCNC(=O)c1ccc(-c2c3nc(c(-c4ccc(S(=O)(=O)[O-])cc4)c4ccc([nH]4)c(-c4ccc(S(=O)(=O)[O-])cc4)c4nc(c(-c5ccc(S(=O)(=O)[O-])cc5)c5ccc2[nH]5)C=C4)C=C3)cc1
REMARK SMILES IDX 21 1 20 2 19 3 17 4 18 5 16 7 15 8 10 9 11 10 12 11 14 12
REMARK SMILES IDX 13 13 9 14 7 15 8 16 6 18 1 19 2 20 3 21 4 22 5 25 22 26
REMARK SMILES IDX 23 27 24 28 25 30 26 31 27 32 85 33 28 34 84 35 29 36 30 37
REMARK SMILES IDX 31 38 78 39 32 40 83 41 77 42 79 43 33 44 82 45 76 46 75 47
REMARK SMILES IDX 34 49 64 50 45 51 63 52 46 53 49 54 62 55 80 56 47 57 48 58
REMARK SMILES IDX 61 60 81 61 50 62 35 63 36 64 44 65 37 66 43 67 38 68 39 69
REMARK SMILES IDX 40 70 41 71 42 72 65 73 66 74 74 75 67 76 73 77 68 78 69 79
REMARK SMILES IDX 70 80 71 81 72 82 51 83 52 84 60 85 53 86 59 87 54 88 55 89
REMARK SMILES IDX 56 90 57 91 58 92
REMARK H PARENT 19 6 9 17 3 23 3 24 23 29 79 48 49 59
REMARK Flexibility Score: inf
ROOT
ATOM      1  C   UNL A   1      39.701  22.322  26.685  1.00  0.00     0.042 C 
ENDROOT
BRANCH   1   2
ATOM      2  C   UNL A   1      38.260  22.759  26.450  1.00  0.00     0.117 C 
BRANCH   2   3
ATOM      3  N   UNL A   1      38.031  23.048  25.052  1.00  0.00    -0.356 N 
ATOM      4  C   UNL A   1      36.884  22.841  24.346  1.00  0.00     0.224 C 
ATOM      5  O   UNL A   1      36.949  22.797  23.116  1.00  0.00    -0.275 OA
ATOM      6  H   UNL A   1      38.787  23.438  24.556  1.00  0.00     0.163 HD
BRANCH   4   7
ATOM      7  C   UNL A   1      35.556  22.787  25.074  1.00  0.00     0.137 C 
BRANCH   7   8
ATOM      8  C   UNL A   1      34.387  22.157  24.356  1.00  0.00    -0.015 A 
ATOM      9  C   UNL A   1      33.675  22.748  23.293  1.00  0.00     0.044 A 
ATOM     10  C   UNL A   1      32.527  22.103  22.792  1.00  0.00     0.026 A 
ATOM     11  C   UNL A   1      32.134  20.848  23.244  1.00  0.00     0.002 A 
ATOM     12  C   UNL A   1      33.968  20.881  24.804  1.00  0.00     0.006 A 
ATOM     13  C   UNL A   1      32.866  20.228  24.245  1.00  0.00     0.000 A 
BRANCH   9  14
ATOM     14  N   UNL A   1      33.883  24.006  22.712  1.00  0.00    -0.325 N 
ATOM     15  C   UNL A   1      33.162  25.101  22.392  1.00  0.00     0.233 C 
ATOM     16  O   UNL A   1      33.497  25.597  21.300  1.00  0.00    -0.274 OA
ATOM     17  H   UNL A   1      34.829  24.126  22.466  1.00  0.00     0.169 HD
BRANCH  15  18
ATOM     18  C   UNL A   1      32.345  25.973  23.366  1.00  0.00     0.142 C 
ATOM     19  C   UNL A   1      33.808  26.228  25.597  1.00  0.00     0.076 C 
ATOM     20  C   UNL A   1      32.476  26.205  24.876  1.00  0.00     0.192 C 
ATOM     21  N   UNL A   1      31.443  25.399  25.555  1.00  0.00    -0.343 N 
ATOM     22  C   UNL A   1      30.708  24.667  24.530  1.00  0.00     0.261 C 
ATOM     23  H   UNL A   1      30.807  26.011  26.068  1.00  0.00     0.346 HD
ATOM     24  H   UNL A   1      31.872  24.754  26.217  1.00  0.00     0.346 HD
ATOM     25  C   UNL A   1      30.870  25.517  23.288  1.00  0.00     0.081 C 
ENDBRANCH  15  18
ENDBRANCH   9  14
ENDBRANCH   7   8
ENDBRANCH   4   7
ENDBRANCH   2   3
ENDBRANCH   1   2
BRANCH   1  26
ATOM     26  C   UNL A   1      40.579  23.457  27.186  1.00  0.00     0.118 C 
BRANCH  26  27
ATOM     27  N   UNL A   1      41.161  24.217  26.095  1.00  0.00    -0.352 N 
ATOM     28  C   UNL A   1      41.357  25.572  26.006  1.00  0.00     0.251 C 
ATOM     29  H   UNL A   1      41.452  23.692  25.316  1.00  0.00     0.163 HD
ATOM     30  O   UNL A   1      41.671  26.073  24.938  1.00  0.00    -0.269 OA
BRANCH  28  31
ATOM     31  C   UNL A   1      41.165  26.410  27.208  1.00  0.00     0.039 A 
ATOM     32  C   UNL A   1      40.062  26.160  28.025  1.00  0.00     0.014 A 
ATOM     33  C   UNL A   1      42.054  27.446  27.514  1.00  0.00     0.014 A 
ATOM     34  C   UNL A   1      39.856  26.946  29.156  1.00  0.00     0.010 A 
ATOM     35  C   UNL A   1      41.897  28.167  28.691  1.00  0.00     0.010 A 
ATOM     36  C   UNL A   1      40.777  27.950  29.502  1.00  0.00    -0.014 A 
BRANCH  36  37
ATOM     37  C   UNL A   1      40.535  28.819  30.677  1.00  0.00     0.031 A 
ATOM     38  C   UNL A   1      41.384  28.664  31.911  1.00  0.00     0.074 A 
ATOM     39  C   UNL A   1      39.552  29.738  30.633  1.00  0.00     0.049 A 
ATOM     40  N   UNL A   1      41.356  29.355  33.022  1.00  0.00    -0.248 NA
ATOM     41  C   UNL A   1      42.378  27.576  31.910  1.00  0.00     0.031 C 
ATOM     42  C   UNL A   1      38.634  29.942  29.509  1.00  0.00     0.029 A 
ATOM     43  N   UNL A   1      39.169  30.682  31.549  1.00  0.00    -0.354 N 
ATOM     44  C   UNL A   1      42.312  28.778  33.850  1.00  0.00     0.074 A 
ATOM     45  C   UNL A   1      42.858  27.643  33.143  1.00  0.00     0.031 C 
ATOM     46  C   UNL A   1      37.825  30.978  29.785  1.00  0.00     0.029 A 
ATOM     47  C   UNL A   1      38.146  31.489  31.114  1.00  0.00     0.049 A 
ATOM     48  H   UNL A   1      39.588  30.773  32.436  1.00  0.00     0.167 HD
ATOM     49  C   UNL A   1      42.722  29.175  35.077  1.00  0.00     0.031 A 
ATOM     50  C   UNL A   1      37.542  32.532  31.715  1.00  0.00     0.031 A 
ATOM     51  C   UNL A   1      42.186  30.317  35.768  1.00  0.00     0.049 A 
ATOM     52  C   UNL A   1      38.026  32.965  33.072  1.00  0.00     0.074 A 
ATOM     53  C   UNL A   1      42.563  30.842  36.990  1.00  0.00     0.029 A 
ATOM     54  N   UNL A   1      41.153  31.113  35.291  1.00  0.00    -0.354 N 
ATOM     55  N   UNL A   1      38.981  32.451  33.810  1.00  0.00    -0.248 NA
ATOM     56  C   UNL A   1      37.363  34.132  33.667  1.00  0.00     0.031 C 
ATOM     57  C   UNL A   1      41.725  31.924  37.277  1.00  0.00     0.029 A 
ATOM     58  C   UNL A   1      40.868  32.113  36.204  1.00  0.00     0.049 A 
ATOM     59  H   UNL A   1      40.693  30.984  34.430  1.00  0.00     0.167 HD
ATOM     60  C   UNL A   1      39.052  33.249  34.946  1.00  0.00     0.074 A 
ATOM     61  C   UNL A   1      38.059  34.292  34.784  1.00  0.00     0.031 C 
ATOM     62  C   UNL A   1      39.866  33.133  36.026  1.00  0.00     0.031 A 
BRANCH  49  63
ATOM     63  C   UNL A   1      43.802  28.363  35.748  1.00  0.00    -0.014 A 
ATOM     64  C   UNL A   1      45.163  28.669  35.562  1.00  0.00     0.010 A 
ATOM     65  C   UNL A   1      43.452  27.298  36.595  1.00  0.00     0.010 A 
ATOM     66  C   UNL A   1      46.154  27.896  36.174  1.00  0.00     0.020 A 
ATOM     67  C   UNL A   1      44.438  26.542  37.236  1.00  0.00     0.020 A 
ATOM     68  C   UNL A   1      45.784  26.835  37.007  1.00  0.00     0.054 A 
BRANCH  68  69
ATOM     69  S   UNL A   1      47.090  25.865  37.808  1.00  0.00     0.124 S 
ATOM     70  O   UNL A   1      46.321  24.816  38.475  1.00  0.00    -0.237 OA
ATOM     71  O   UNL A   1      47.901  25.425  36.676  1.00  0.00    -0.237 OA
ATOM     72  O   UNL A   1      47.738  26.824  38.699  1.00  0.00    -0.744 OA
ENDBRANCH  68  69
ENDBRANCH  49  63
BRANCH  50  73
ATOM     73  C   UNL A   1      36.439  33.252  31.023  1.00  0.00    -0.014 A 
ATOM     74  C   UNL A   1      35.147  33.288  31.575  1.00  0.00     0.010 A 
ATOM     75  C   UNL A   1      36.682  33.921  29.808  1.00  0.00     0.010 A 
ATOM     76  C   UNL A   1      34.112  33.960  30.916  1.00  0.00     0.020 A 
ATOM     77  C   UNL A   1      35.658  34.618  29.162  1.00  0.00     0.020 A 
ATOM     78  C   UNL A   1      34.375  34.622  29.714  1.00  0.00     0.054 A 
BRANCH  78  79
ATOM     79  S   UNL A   1      33.030  35.528  28.900  1.00  0.00     0.124 S 
ATOM     80  O   UNL A   1      32.391  34.478  28.113  1.00  0.00    -0.237 OA
ATOM     81  O   UNL A   1      32.257  36.031  30.034  1.00  0.00    -0.237 OA
ATOM     82  O   UNL A   1      33.727  36.555  28.128  1.00  0.00    -0.744 OA
ENDBRANCH  78  79
ENDBRANCH  50  73
BRANCH  62  83
ATOM     83  C   UNL A   1      39.731  34.180  37.099  1.00  0.00    -0.014 A 
ATOM     84  C   UNL A   1      40.319  35.450  36.958  1.00  0.00     0.010 A 
ATOM     85  C   UNL A   1      38.981  33.896  38.254  1.00  0.00     0.010 A 
ATOM     86  C   UNL A   1      40.206  36.396  37.980  1.00  0.00     0.020 A 
ATOM     87  C   UNL A   1      38.837  34.850  39.263  1.00  0.00     0.020 A 
ATOM     88  C   UNL A   1      39.471  36.088  39.129  1.00  0.00     0.054 A 
BRANCH  88  89
ATOM     89  S   UNL A   1      39.332  37.335  40.438  1.00  0.00     0.124 S 
ATOM     90  O   UNL A   1      38.354  38.258  39.873  1.00  0.00    -0.237 OA
ATOM     91  O   UNL A   1      38.870  36.550  41.580  1.00  0.00    -0.237 OA
ATOM     92  O   UNL A   1      40.689  37.862  40.560  1.00  0.00    -0.744 OA
ENDBRANCH  88  89
ENDBRANCH  62  83
ENDBRANCH  36  37
ENDBRANCH  28  31
ENDBRANCH  26  27
ENDBRANCH   1  26
TORSDOF 16
ENDMDL
MODEL 2
REMARK VINA RESULT:     -11.8      4.749      9.784
REMARK SMILES C[C@@H]1[NH2+]CC[C@@H]1C(=O)Nc1ccccc1CC(=O)NCCCNC(=O)c1ccc(-c2c3nc(c(-c4ccc(S(=O)(=O)[O-])cc4)c4ccc([nH]4)c(-c4ccc(S(=O)(=O)[O-])cc4)c4nc(c(-c5ccc(S(=O)(=O)[O-])cc5)c5ccc2[nH]5)C=C4)C=C3)cc1
REMARK SMILES IDX 21 1 20 2 19 3 17 4 18 5 16 7 15 8 10 9 11 10 12 11 14 12
REMARK SMILES IDX 13 13 9 14 7 15 8 16 6 18 1 19 2 20 3 21 4 22 5 25 22 26
REMARK SMILES IDX 23 27 24 28 25 30 26 31 27 32 85 33 28 34 84 35 29 36 30 37
REMARK SMILES IDX 31 38 78 39 32 40 83 41 77 42 79 43 33 44 82 45 76 46 75 47
REMARK SMILES IDX 34 49 64 50 45 51 63 52 46 53 49 54 62 55 80 56 47 57 48 58
REMARK SMILES IDX 61 60 81 61 50 62 35 63 36 64 44 65 37 66 43 67 38 68 39 69
REMARK SMILES IDX 40 70 41 71 42 72 65 73 66 74 74 75 67 76 73 77 68 78 69 79
REMARK SMILES IDX 70 80 71 81 72 82 51 83 52 84 60 85 53 86 59 87 54 88 55 89
REMARK SMILES IDX 56 90 57 91 58 92
REMARK H PARENT 19 6 9 17 3 23 3 24 23 29 79 48 49 59
REMARK Flexibility Score: inf
ROOT
ATOM      1  C   UNL A   1      33.194  27.084  26.497  1.00  0.00     0.042 C 
ENDROOT
BRANCH   1   2
ATOM      2  C   UNL A   1      33.316  25.982  25.451  1.00  0.00     0.117 C 
BRANCH   2   3
ATOM      3  N   UNL A   1      32.382  24.912  25.719  1.00  0.00    -0.356 N 
ATOM      4  C   UNL A   1      32.677  23.649  26.141  1.00  0.00     0.224 C 
ATOM      5  O   UNL A   1      31.835  22.764  25.982  1.00  0.00    -0.275 OA
ATOM      6  H   UNL A   1      31.429  25.117  25.583  1.00  0.00     0.163 HD
BRANCH   4   7
ATOM      7  C   UNL A   1      33.968  23.393  26.892  1.00  0.00     0.137 C 
BRANCH   7   8
ATOM      8  C   UNL A   1      35.095  22.724  26.142  1.00  0.00    -0.015 A 
ATOM      9  C   UNL A   1      35.087  21.390  25.689  1.00  0.00     0.044 A 
ATOM     10  C   UNL A   1      36.254  20.854  25.107  1.00  0.00     0.026 A 
ATOM     11  C   UNL A   1      37.381  21.634  24.873  1.00  0.00     0.002 A 
ATOM     12  C   UNL A   1      36.254  23.499  25.897  1.00  0.00     0.006 A 
ATOM     13  C   UNL A   1      37.376  22.965  25.256  1.00  0.00     0.000 A 
BRANCH   9  14
ATOM     14  N   UNL A   1      34.075  20.433  25.847  1.00  0.00    -0.325 N 
ATOM     15  C   UNL A   1      33.364  19.582  25.078  1.00  0.00     0.233 C 
ATOM     16  O   UNL A   1      32.167  19.514  25.416  1.00  0.00    -0.274 OA
ATOM     17  H   UNL A   1      33.807  20.360  26.792  1.00  0.00     0.169 HD
BRANCH  15  18
ATOM     18  C   UNL A   1      33.934  18.456  24.193  1.00  0.00     0.142 C 
ATOM     19  C   UNL A   1      32.215  18.115  22.165  1.00  0.00     0.076 C 
ATOM     20  C   UNL A   1      33.287  17.595  23.102  1.00  0.00     0.192 C 
ATOM     21  N   UNL A   1      32.983  16.273  23.682  1.00  0.00    -0.343 N 
ATOM     22  C   UNL A   1      33.390  16.299  25.082  1.00  0.00     0.261 C 
ATOM     23  H   UNL A   1      33.500  15.548  23.183  1.00  0.00     0.346 HD
ATOM     24  H   UNL A   1      31.987  16.068  23.603  1.00  0.00     0.346 HD
ATOM     25  C   UNL A   1      34.479  17.349  25.125  1.00  0.00     0.081 C 
ENDBRANCH  15  18
ENDBRANCH   9  14
ENDBRANCH   7   8
ENDBRANCH   4   7
ENDBRANCH   2   3
ENDBRANCH   1   2
BRANCH   1  26
ATOM     26  C   UNL A   1      34.328  28.092  26.416  1.00  0.00     0.118 C 
BRANCH  26  27
ATOM     27  N   UNL A   1      33.943  29.388  26.945  1.00  0.00    -0.352 N 
ATOM     28  C   UNL A   1      34.629  30.193  27.818  1.00  0.00     0.251 C 
ATOM     29  H   UNL A   1      33.075  29.734  26.638  1.00  0.00     0.163 HD
ATOM     30  O   UNL A   1      34.074  31.158  28.321  1.00  0.00    -0.269 OA
BRANCH  28  31
ATOM     31  C   UNL A   1      36.031  29.867  28.152  1.00  0.00     0.039 A 
ATOM     32  C   UNL A   1      36.310  29.340  29.412  1.00  0.00     0.014 A 
ATOM     33  C   UNL A   1      37.062  30.101  27.236  1.00  0.00     0.014 A 
ATOM     34  C   UNL A   1      37.627  29.037  29.751  1.00  0.00     0.010 A 
ATOM     35  C   UNL A   1      38.360  29.712  27.542  1.00  0.00     0.010 A 
ATOM     36  C   UNL A   1      38.660  29.213  28.816  1.00  0.00    -0.014 A 
BRANCH  36  37
ATOM     37  C   UNL A   1      40.067  28.938  29.189  1.00  0.00     0.031 A 
ATOM     38  C   UNL A   1      40.693  27.616  28.830  1.00  0.00     0.074 A 
ATOM     39  C   UNL A   1      40.774  29.873  29.853  1.00  0.00     0.049 A 
ATOM     40  N   UNL A   1      41.919  27.203  29.031  1.00  0.00    -0.248 NA
ATOM     41  C   UNL A   1      39.826  26.616  28.184  1.00  0.00     0.031 C 
ATOM     42  C   UNL A   1      40.254  31.168  30.298  1.00  0.00     0.029 A 
ATOM     43  N   UNL A   1      42.082  29.883  30.258  1.00  0.00    -0.354 N 
ATOM     44  C   UNL A   1      41.961  25.900  28.551  1.00  0.00     0.074 A 
ATOM     45  C   UNL A   1      40.628  25.565  28.108  1.00  0.00     0.031 C 
ATOM     46  C   UNL A   1      41.248  31.865  30.873  1.00  0.00     0.029 A 
ATOM     47  C   UNL A   1      42.462  31.056  30.865  1.00  0.00     0.049 A 
ATOM     48  H   UNL A   1      42.694  29.122  30.126  1.00  0.00     0.167 HD
ATOM     49  C   UNL A   1      43.024  25.065  28.458  1.00  0.00     0.031 A 
ATOM     50  C   UNL A   1      43.658  31.439  31.351  1.00  0.00     0.031 A 
ATOM     51  C   UNL A   1      44.352  25.412  28.885  1.00  0.00     0.049 A 
ATOM     52  C   UNL A   1      44.826  30.501  31.221  1.00  0.00     0.074 A 
ATOM     53  C   UNL A   1      45.512  24.665  28.788  1.00  0.00     0.029 A 
ATOM     54  N   UNL A   1      44.697  26.612  29.490  1.00  0.00    -0.354 N 
ATOM     55  N   UNL A   1      44.864  29.298  30.699  1.00  0.00    -0.248 NA
ATOM     56  C   UNL A   1      46.118  30.982  31.728  1.00  0.00     0.031 C 
ATOM     57  C   UNL A   1      46.548  25.392  29.382  1.00  0.00     0.029 A 
ATOM     58  C   UNL A   1      46.048  26.618  29.791  1.00  0.00     0.049 A 
ATOM     59  H   UNL A   1      44.072  27.350  29.678  1.00  0.00     0.167 HD
ATOM     60  C   UNL A   1      46.190  28.888  30.790  1.00  0.00     0.074 A 
ATOM     61  C   UNL A   1      46.922  29.982  31.397  1.00  0.00     0.031 C 
ATOM     62  C   UNL A   1      46.753  27.714  30.406  1.00  0.00     0.031 A 
BRANCH  49  63
ATOM     63  C   UNL A   1      42.784  23.696  27.872  1.00  0.00    -0.014 A 
ATOM     64  C   UNL A   1      42.272  22.647  28.660  1.00  0.00     0.010 A 
ATOM     65  C   UNL A   1      43.047  23.460  26.512  1.00  0.00     0.010 A 
ATOM     66  C   UNL A   1      42.073  21.378  28.110  1.00  0.00     0.020 A 
ATOM     67  C   UNL A   1      42.818  22.201  25.948  1.00  0.00     0.020 A 
ATOM     68  C   UNL A   1      42.349  21.163  26.756  1.00  0.00     0.054 A 
BRANCH  68  69
ATOM     69  S   UNL A   1      42.057  19.513  26.061  1.00  0.00     0.124 S 
ATOM     70  O   UNL A   1      42.490  18.646  27.155  1.00  0.00    -0.237 OA
ATOM     71  O   UNL A   1      40.620  19.526  25.801  1.00  0.00    -0.237 OA
ATOM     72  O   UNL A   1      42.903  19.483  24.871  1.00  0.00    -0.744 OA
ENDBRANCH  68  69
ENDBRANCH  49  63
BRANCH  50  73
ATOM     73  C   UNL A   1      43.812  32.782  31.973  1.00  0.00    -0.014 A 
ATOM     74  C   UNL A   1      43.582  32.968  33.347  1.00  0.00     0.010 A 
ATOM     75  C   UNL A   1      44.205  33.885  31.191  1.00  0.00     0.010 A 
ATOM     76  C   UNL A   1      43.720  34.234  33.925  1.00  0.00     0.020 A 
ATOM     77  C   UNL A   1      44.373  35.145  31.770  1.00  0.00     0.020 A 
ATOM     78  C   UNL A   1      44.117  35.315  33.132  1.00  0.00     0.054 A 
BRANCH  78  79
ATOM     79  S   UNL A   1      44.337  36.938  33.911  1.00  0.00     0.124 S 
ATOM     80  O   UNL A   1      43.342  37.747  33.212  1.00  0.00    -0.237 OA
ATOM     81  O   UNL A   1      44.051  36.656  35.315  1.00  0.00    -0.237 OA
ATOM     82  O   UNL A   1      45.730  37.270  33.622  1.00  0.00    -0.744 OA
ENDBRANCH  78  79
ENDBRANCH  50  73
BRANCH  62  83
ATOM     83  C   UNL A   1      48.238  27.571  30.606  1.00  0.00    -0.014 A 
ATOM     84  C   UNL A   1      49.152  27.992  29.623  1.00  0.00     0.010 A 
ATOM     85  C   UNL A   1      48.726  27.029  31.809  1.00  0.00     0.010 A 
ATOM     86  C   UNL A   1      50.524  27.821  29.818  1.00  0.00     0.020 A 
ATOM     87  C   UNL A   1      50.098  26.888  32.021  1.00  0.00     0.020 A 
ATOM     88  C   UNL A   1      50.989  27.265  31.013  1.00  0.00     0.054 A 
BRANCH  88  89
ATOM     89  S   UNL A   1      52.775  27.061  31.246  1.00  0.00     0.124 S 
ATOM     90  O   UNL A   1      53.155  28.351  31.812  1.00  0.00    -0.237 OA
ATOM     91  O   UNL A   1      52.852  25.925  32.162  1.00  0.00    -0.237 OA
ATOM     92  O   UNL A   1      53.273  26.800  29.897  1.00  0.00    -0.744 OA
ENDBRANCH  88  89
ENDBRANCH  62  83
ENDBRANCH  36  37
ENDBRANCH  28  31
ENDBRANCH  26  27
ENDBRANCH   1  26
TORSDOF 16
ENDMDL
MODEL 3
REMARK VINA RESULT:     -11.7      6.390     12.218
REMARK SMILES C[C@@H]1[NH2+]CC[C@@H]1C(=O)Nc1ccccc1CC(=O)NCCCNC(=O)c1ccc(-c2c3nc(c(-c4ccc(S(=O)(=O)[O-])cc4)c4ccc([nH]4)c(-c4ccc(S(=O)(=O)[O-])cc4)c4nc(c(-c5ccc(S(=O)(=O)[O-])cc5)c5ccc2[nH]5)C=C4)C=C3)cc1
REMARK SMILES IDX 21 1 20 2 19 3 17 4 18 5 16 7 15 8 10 9 11 10 12 11 14 12
REMARK SMILES IDX 13 13 9 14 7 15 8 16 6 18 1 19 2 20 3 21 4 22 5 25 22 26
REMARK SMILES IDX 23 27 24 28 25 30 26 31 27 32 85 33 28 34 84 35 29 36 30 37
REMARK SMILES IDX 31 38 78 39 32 40 83 41 77 42 79 43 33 44 82 45 76 46 75 47
REMARK SMILES IDX 34 49 64 50 45 51 63 52 46 53 49 54 62 55 80 56 47 57 48 58
REMARK SMILES IDX 61 60 81 61 50 62 35 63 36 64 44 65 37 66 43 67 38 68 39 69
REMARK SMILES IDX 40 70 41 71 42 72 65 73 66 74 74 75 67 76 73 77 68 78 69 79
REMARK SMILES IDX 70 80 71 81 72 82 51 83 52 84 60 85 53 86 59 87 54 88 55 89
REMARK SMILES IDX 56 90 57 91 58 92
REMARK H PARENT 19 6 9 17 3 23 3 24 23 29 79 48 49 59
REMARK Flexibility Score: inf
ROOT
ATOM      1  C   UNL A   1      34.735  32.287  28.410  1.00  0.00     0.042 C 
ENDROOT
BRANCH   1   2
ATOM      2  C   UNL A   1      33.697  31.517  27.601  1.00  0.00     0.117 C 
BRANCH   2   3
ATOM      3  N   UNL A   1      34.301  30.387  26.933  1.00  0.00    -0.356 N 
ATOM      4  C   UNL A   1      33.834  29.106  26.899  1.00  0.00     0.224 C 
ATOM      5  O   UNL A   1      34.619  28.202  26.607  1.00  0.00    -0.275 OA
ATOM      6  H   UNL A   1      35.140  30.560  26.449  1.00  0.00     0.163 HD
BRANCH   4   7
ATOM      7  C   UNL A   1      32.357  28.842  27.102  1.00  0.00     0.137 C 
BRANCH   7   8
ATOM      8  C   UNL A   1      31.562  28.348  25.917  1.00  0.00    -0.015 A 
ATOM      9  C   UNL A   1      31.063  27.039  25.765  1.00  0.00     0.044 A 
ATOM     10  C   UNL A   1      30.440  26.678  24.554  1.00  0.00     0.026 A 
ATOM     11  C   UNL A   1      30.209  27.604  23.542  1.00  0.00     0.002 A 
ATOM     12  C   UNL A   1      31.319  29.274  24.874  1.00  0.00     0.006 A 
ATOM     13  C   UNL A   1      30.638  28.911  23.709  1.00  0.00     0.000 A 
BRANCH   9  14
ATOM     14  N   UNL A   1      31.209  25.955  26.641  1.00  0.00    -0.325 N 
ATOM     15  C   UNL A   1      31.729  24.710  26.626  1.00  0.00     0.233 C 
ATOM     16  O   UNL A   1      31.026  23.887  27.240  1.00  0.00    -0.274 OA
ATOM     17  H   UNL A   1      30.820  26.162  27.522  1.00  0.00     0.169 HD
BRANCH  15  18
ATOM     18  C   UNL A   1      33.195  24.336  26.331  1.00  0.00     0.142 C 
ATOM     19  C   UNL A   1      33.944  25.756  24.184  1.00  0.00     0.076 C 
ATOM     20  C   UNL A   1      34.066  24.545  25.086  1.00  0.00     0.192 C 
ATOM     21  N   UNL A   1      34.140  23.263  24.359  1.00  0.00    -0.343 N 
ATOM     22  C   UNL A   1      33.332  22.293  25.088  1.00  0.00     0.261 C 
ATOM     23  H   UNL A   1      35.108  22.945  24.314  1.00  0.00     0.346 HD
ATOM     24  H   UNL A   1      33.794  23.373  23.406  1.00  0.00     0.346 HD
ATOM     25  C   UNL A   1      33.341  22.808  26.511  1.00  0.00     0.081 C 
ENDBRANCH  15  18
ENDBRANCH   9  14
ENDBRANCH   7   8
ENDBRANCH   4   7
ENDBRANCH   2   3
ENDBRANCH   1   2
BRANCH   1  26
ATOM     26  C   UNL A   1      35.905  31.415  28.835  1.00  0.00     0.118 C 
BRANCH  26  27
ATOM     27  N   UNL A   1      35.780  30.970  30.211  1.00  0.00    -0.352 N 
ATOM     28  C   UNL A   1      36.602  30.129  30.916  1.00  0.00     0.251 C 
ATOM     29  H   UNL A   1      35.001  31.317  30.703  1.00  0.00     0.163 HD
ATOM     30  O   UNL A   1      36.245  29.695  32.000  1.00  0.00    -0.269 OA
BRANCH  28  31
ATOM     31  C   UNL A   1      37.908  29.746  30.340  1.00  0.00     0.039 A 
ATOM     32  C   UNL A   1      38.916  29.318  31.203  1.00  0.00     0.014 A 
ATOM     33  C   UNL A   1      38.140  29.828  28.963  1.00  0.00     0.014 A 
ATOM     34  C   UNL A   1      40.158  28.963  30.682  1.00  0.00     0.010 A 
ATOM     35  C   UNL A   1      39.348  29.387  28.437  1.00  0.00     0.010 A 
ATOM     36  C   UNL A   1      40.380  28.987  29.294  1.00  0.00    -0.014 A 
BRANCH  36  37
ATOM     37  C   UNL A   1      41.714  28.657  28.741  1.00  0.00     0.031 A 
ATOM     38  C   UNL A   1      42.774  29.723  28.654  1.00  0.00     0.074 A 
ATOM     39  C   UNL A   1      41.965  27.404  28.314  1.00  0.00     0.049 A 
ATOM     40  N   UNL A   1      44.012  29.621  28.241  1.00  0.00    -0.248 NA
ATOM     41  C   UNL A   1      42.390  31.086  29.058  1.00  0.00     0.031 C 
ATOM     42  C   UNL A   1      40.997  26.304  28.303  1.00  0.00     0.029 A 
ATOM     43  N   UNL A   1      43.112  26.841  27.821  1.00  0.00    -0.354 N 
ATOM     44  C   UNL A   1      44.543  30.903  28.323  1.00  0.00     0.074 A 
ATOM     45  C   UNL A   1      43.481  31.777  28.762  1.00  0.00     0.031 C 
ATOM     46  C   UNL A   1      41.606  25.188  27.870  1.00  0.00     0.029 A 
ATOM     47  C   UNL A   1      42.994  25.501  27.544  1.00  0.00     0.049 A 
ATOM     48  H   UNL A   1      43.944  27.350  27.678  1.00  0.00     0.167 HD
ATOM     49  C   UNL A   1      45.812  31.312  28.084  1.00  0.00     0.031 A 
ATOM     50  C   UNL A   1      43.905  24.620  27.089  1.00  0.00     0.031 A 
ATOM     51  C   UNL A   1      46.869  30.432  27.664  1.00  0.00     0.049 A 
ATOM     52  C   UNL A   1      45.312  25.095  26.846  1.00  0.00     0.074 A 
ATOM     53  C   UNL A   1      48.202  30.728  27.445  1.00  0.00     0.029 A 
ATOM     54  N   UNL A   1      46.710  29.079  27.399  1.00  0.00    -0.354 N 
ATOM     55  N   UNL A   1      45.815  26.297  26.999  1.00  0.00    -0.248 NA
ATOM     56  C   UNL A   1      46.278  24.087  26.391  1.00  0.00     0.031 C 
ATOM     57  C   UNL A   1      48.838  29.566  26.999  1.00  0.00     0.029 A 
ATOM     58  C   UNL A   1      47.916  28.531  27.000  1.00  0.00     0.049 A 
ATOM     59  H   UNL A   1      45.863  28.583  27.484  1.00  0.00     0.167 HD
ATOM     60  C   UNL A   1      47.164  26.184  26.683  1.00  0.00     0.074 A 
ATOM     61  C   UNL A   1      47.400  24.793  26.354  1.00  0.00     0.031 C 
ATOM     62  C   UNL A   1      48.124  27.144  26.667  1.00  0.00     0.031 A 
BRANCH  49  63
ATOM     63  C   UNL A   1      46.119  32.776  28.272  1.00  0.00    -0.014 A 
ATOM     64  C   UNL A   1      45.998  33.687  27.206  1.00  0.00     0.010 A 
ATOM     65  C   UNL A   1      46.506  33.254  29.536  1.00  0.00     0.010 A 
ATOM     66  C   UNL A   1      46.303  35.039  27.389  1.00  0.00     0.020 A 
ATOM     67  C   UNL A   1      46.781  34.611  29.733  1.00  0.00     0.020 A 
ATOM     68  C   UNL A   1      46.695  35.491  28.653  1.00  0.00     0.054 A 
BRANCH  68  69
ATOM     69  S   UNL A   1      47.062  37.255  28.869  1.00  0.00     0.124 S 
ATOM     70  O   UNL A   1      47.234  37.698  27.487  1.00  0.00    -0.237 OA
ATOM     71  O   UNL A   1      45.864  37.750  29.542  1.00  0.00    -0.237 OA
ATOM     72  O   UNL A   1      48.276  37.260  29.681  1.00  0.00    -0.744 OA
ENDBRANCH  68  69
ENDBRANCH  49  63
BRANCH  50  73
ATOM     73  C   UNL A   1      43.520  23.200  26.866  1.00  0.00    -0.014 A 
ATOM     74  C   UNL A   1      42.916  22.451  27.891  1.00  0.00     0.010 A 
ATOM     75  C   UNL A   1      43.745  22.592  25.617  1.00  0.00     0.010 A 
ATOM     76  C   UNL A   1      42.564  21.114  27.679  1.00  0.00     0.020 A 
ATOM     77  C   UNL A   1      43.367  21.265  25.392  1.00  0.00     0.020 A 
ATOM     78  C   UNL A   1      42.790  20.530  26.430  1.00  0.00     0.054 A 
BRANCH  78  79
ATOM     79  S   UNL A   1      42.282  18.810  26.161  1.00  0.00     0.124 S 
ATOM     80  O   UNL A   1      42.545  18.209  27.465  1.00  0.00    -0.237 OA
ATOM     81  O   UNL A   1      40.873  18.950  25.801  1.00  0.00    -0.237 OA
ATOM     82  O   UNL A   1      43.152  18.361  25.076  1.00  0.00    -0.744 OA
ENDBRANCH  78  79
ENDBRANCH  50  73
BRANCH  62  83
ATOM     83  C   UNL A   1      49.520  26.709  26.310  1.00  0.00    -0.014 A 
ATOM     84  C   UNL A   1      50.389  26.176  27.279  1.00  0.00     0.010 A 
ATOM     85  C   UNL A   1      49.958  26.811  24.977  1.00  0.00     0.010 A 
ATOM     86  C   UNL A   1      51.691  25.806  26.931  1.00  0.00     0.020 A 
ATOM     87  C   UNL A   1      51.247  26.412  24.619  1.00  0.00     0.020 A 
ATOM     88  C   UNL A   1      52.113  25.933  25.604  1.00  0.00     0.054 A 
BRANCH  88  89
ATOM     89  S   UNL A   1      53.804  25.439  25.175  1.00  0.00     0.124 S 
ATOM     90  O   UNL A   1      53.743  23.989  25.327  1.00  0.00    -0.237 OA
ATOM     91  O   UNL A   1      53.941  25.922  23.803  1.00  0.00    -0.237 OA
ATOM     92  O   UNL A   1      54.629  26.135  26.159  1.00  0.00    -0.744 OA
ENDBRANCH  88  89
ENDBRANCH  62  83
ENDBRANCH  36  37
ENDBRANCH  28  31
ENDBRANCH  26  27
ENDBRANCH   1  26
TORSDOF 16
ENDMDL
