MODEL 1
REMARK VINA RESULT:     -11.2      0.000      0.000
REMARK SMILES CC[C@@H](C)NC(=O)Cn1cccc1C(=O)NCCCNC(=O)c1ccc(-c2c3nc(c(-c4ccc(S(=O)(=O)[O-])cc4)c4ccc([nH]4)c(-c4ccc(S(=O)(=O)[O-])cc4)c4nc(c(-c5ccc(S(=O)(=O)[O-])cc5)c5ccc2[nH]5)C=C4)C=C3)cc1
REMARK SMILES IDX 17 1 16 2 14 3 15 4 13 6 9 7 10 8 11 9 12 10 8 11 6 12 5 13
REMARK SMILES IDX 7 15 3 16 4 17 2 18 1 19 18 20 19 21 20 22 21 23 22 25 23 26
REMARK SMILES IDX 24 27 82 28 25 29 81 30 26 31 27 32 28 33 75 34 29 35 80 36
REMARK SMILES IDX 74 37 76 38 30 39 79 40 73 41 72 42 31 44 61 45 42 46 60 47
REMARK SMILES IDX 43 48 46 49 59 50 77 51 44 52 45 53 58 55 78 56 47 57 32 58
REMARK SMILES IDX 33 59 41 60 34 61 40 62 35 63 36 64 37 65 38 66 39 67 62 68
REMARK SMILES IDX 63 69 71 70 64 71 70 72 65 73 66 74 67 75 68 76 69 77 48 78
REMARK SMILES IDX 49 79 57 80 50 81 56 82 51 83 52 84 53 85 54 86 55 87
REMARK H PARENT 16 5 5 14 20 24 76 43 46 54
REMARK Flexibility Score: inf
ROOT
ATOM      1  C   UNL A   1      33.802  28.604  24.730  1.00  0.00     0.118 C 
ENDROOT
BRANCH   1   2
ATOM      2  N   UNL A   1      32.687  29.519  24.589  1.00  0.00    -0.351 N 
ATOM      3  C   UNL A   1      31.325  29.373  24.586  1.00  0.00     0.267 C 
ATOM      4  O   UNL A   1      30.691  30.421  24.769  1.00  0.00    -0.268 OA
ATOM      5  H   UNL A   1      32.971  30.454  24.470  1.00  0.00     0.163 HD
BRANCH   3   6
ATOM      6  C   UNL A   1      30.627  28.101  24.473  1.00  0.00     0.107 A 
ATOM      7  N   UNL A   1      29.629  27.671  23.614  1.00  0.00    -0.334 N 
ATOM      8  C   UNL A   1      29.268  26.373  23.922  1.00  0.00     0.087 A 
ATOM      9  C   UNL A   1      29.899  26.013  25.084  1.00  0.00     0.020 A 
ATOM     10  C   UNL A   1      30.732  27.092  25.434  1.00  0.00     0.033 A 
BRANCH   7  11
ATOM     11  C   UNL A   1      28.938  28.411  22.575  1.00  0.00     0.222 C 
BRANCH  11  12
ATOM     12  C   UNL A   1      27.754  29.221  23.069  1.00  0.00     0.240 C 
ATOM     13  N   UNL A   1      27.878  30.572  23.198  1.00  0.00    -0.352 N 
ATOM     14  H   UNL A   1      27.383  30.996  23.937  1.00  0.00     0.163 HD
ATOM     15  O   UNL A   1      26.691  28.719  23.430  1.00  0.00    -0.273 OA
BRANCH  13  16
ATOM     16  C   UNL A   1      28.669  31.448  22.350  1.00  0.00     0.078 C 
ATOM     17  C   UNL A   1      28.725  32.840  22.967  1.00  0.00     0.031 C 
BRANCH  16  18
ATOM     18  C   UNL A   1      28.043  31.422  20.948  1.00  0.00     0.021 C 
ATOM     19  C   UNL A   1      27.769  32.805  20.392  1.00  0.00     0.006 C 
ENDBRANCH  16  18
ENDBRANCH  13  16
ENDBRANCH  11  12
ENDBRANCH   7  11
ENDBRANCH   3   6
ENDBRANCH   1   2
BRANCH   1  20
ATOM     20  C   UNL A   1      34.378  28.555  26.152  1.00  0.00     0.042 C 
BRANCH  20  21
ATOM     21  C   UNL A   1      33.401  28.960  27.252  1.00  0.00     0.118 C 
BRANCH  21  22
ATOM     22  N   UNL A   1      33.503  30.385  27.510  1.00  0.00    -0.352 N 
ATOM     23  C   UNL A   1      34.401  31.067  28.284  1.00  0.00     0.251 C 
ATOM     24  H   UNL A   1      32.825  30.942  27.062  1.00  0.00     0.163 HD
ATOM     25  O   UNL A   1      34.061  32.166  28.722  1.00  0.00    -0.269 OA
BRANCH  23  26
ATOM     26  C   UNL A   1      35.741  30.528  28.609  1.00  0.00     0.039 A 
ATOM     27  C   UNL A   1      36.729  30.628  27.620  1.00  0.00     0.014 A 
ATOM     28  C   UNL A   1      36.016  29.834  29.794  1.00  0.00     0.014 A 
ATOM     29  C   UNL A   1      37.987  30.075  27.830  1.00  0.00     0.010 A 
ATOM     30  C   UNL A   1      37.284  29.298  30.019  1.00  0.00     0.010 A 
ATOM     31  C   UNL A   1      38.271  29.423  29.038  1.00  0.00    -0.014 A 
BRANCH  31  32
ATOM     32  C   UNL A   1      39.669  29.004  29.289  1.00  0.00     0.031 A 
ATOM     33  C   UNL A   1      40.532  30.165  29.778  1.00  0.00     0.074 A 
ATOM     34  C   UNL A   1      40.023  27.726  28.967  1.00  0.00     0.049 A 
ATOM     35  N   UNL A   1      41.754  30.467  29.468  1.00  0.00    -0.248 NA
ATOM     36  C   UNL A   1      39.910  31.209  30.632  1.00  0.00     0.031 C 
ATOM     37  C   UNL A   1      39.073  26.684  28.525  1.00  0.00     0.029 A 
ATOM     38  N   UNL A   1      41.223  27.043  28.930  1.00  0.00    -0.354 N 
ATOM     39  C   UNL A   1      42.097  31.635  30.184  1.00  0.00     0.074 A 
ATOM     40  C   UNL A   1      40.887  32.104  30.794  1.00  0.00     0.031 C 
ATOM     41  C   UNL A   1      39.725  25.545  28.207  1.00  0.00     0.029 A 
ATOM     42  C   UNL A   1      41.151  25.730  28.403  1.00  0.00     0.049 A 
ATOM     43  H   UNL A   1      42.066  27.440  29.245  1.00  0.00     0.167 HD
ATOM     44  C   UNL A   1      43.380  32.075  30.335  1.00  0.00     0.031 A 
ATOM     45  C   UNL A   1      42.162  24.865  28.083  1.00  0.00     0.031 A 
ATOM     46  C   UNL A   1      44.286  31.203  29.664  1.00  0.00     0.049 A 
ATOM     47  C   UNL A   1      43.424  25.534  28.447  1.00  0.00     0.074 A 
ATOM     48  C   UNL A   1      44.573  30.954  28.348  1.00  0.00     0.029 A 
ATOM     49  N   UNL A   1      44.825  30.201  30.434  1.00  0.00    -0.354 N 
ATOM     50  N   UNL A   1      43.873  25.702  29.653  1.00  0.00    -0.248 NA
ATOM     51  C   UNL A   1      44.240  26.121  27.372  1.00  0.00     0.031 C 
ATOM     52  C   UNL A   1      44.879  29.573  28.327  1.00  0.00     0.029 A 
ATOM     53  C   UNL A   1      44.890  29.086  29.639  1.00  0.00     0.049 A 
ATOM     54  H   UNL A   1      45.111  30.271  31.374  1.00  0.00     0.167 HD
ATOM     55  C   UNL A   1      44.797  26.705  29.489  1.00  0.00     0.074 A 
ATOM     56  C   UNL A   1      45.204  26.675  28.103  1.00  0.00     0.031 C 
ATOM     57  C   UNL A   1      44.745  27.802  30.286  1.00  0.00     0.031 A 
BRANCH  44  58
ATOM     58  C   UNL A   1      43.985  33.080  31.283  1.00  0.00    -0.014 A 
ATOM     59  C   UNL A   1      43.833  32.824  32.672  1.00  0.00     0.010 A 
ATOM     60  C   UNL A   1      44.377  34.372  30.906  1.00  0.00     0.010 A 
ATOM     61  C   UNL A   1      43.914  33.842  33.623  1.00  0.00     0.020 A 
ATOM     62  C   UNL A   1      44.504  35.393  31.865  1.00  0.00     0.020 A 
ATOM     63  C   UNL A   1      44.214  35.133  33.206  1.00  0.00     0.054 A 
BRANCH  63  64
ATOM     64  S   UNL A   1      44.141  36.471  34.427  1.00  0.00     0.124 S 
ATOM     65  O   UNL A   1      43.701  35.768  35.626  1.00  0.00    -0.237 OA
ATOM     66  O   UNL A   1      45.522  36.950  34.455  1.00  0.00    -0.237 OA
ATOM     67  O   UNL A   1      43.179  37.408  33.851  1.00  0.00    -0.744 OA
ENDBRANCH  63  64
ENDBRANCH  44  58
BRANCH  45  68
ATOM     68  C   UNL A   1      42.295  23.549  27.349  1.00  0.00    -0.014 A 
ATOM     69  C   UNL A   1      43.487  22.961  26.910  1.00  0.00     0.010 A 
ATOM     70  C   UNL A   1      41.117  22.782  27.122  1.00  0.00     0.010 A 
ATOM     71  C   UNL A   1      43.513  21.633  26.418  1.00  0.00     0.020 A 
ATOM     72  C   UNL A   1      41.129  21.459  26.678  1.00  0.00     0.020 A 
ATOM     73  C   UNL A   1      42.339  20.877  26.349  1.00  0.00     0.054 A 
BRANCH  73  74
ATOM     74  S   UNL A   1      42.375  19.107  25.953  1.00  0.00     0.124 S 
ATOM     75  O   UNL A   1      40.976  18.822  25.658  1.00  0.00    -0.237 OA
ATOM     76  O   UNL A   1      43.287  19.046  24.813  1.00  0.00    -0.237 OA
ATOM     77  O   UNL A   1      42.893  18.499  27.179  1.00  0.00    -0.744 OA
ENDBRANCH  73  74
ENDBRANCH  45  68
BRANCH  57  78
ATOM     78  C   UNL A   1      44.096  27.583  31.642  1.00  0.00    -0.014 A 
ATOM     79  C   UNL A   1      44.788  26.876  32.641  1.00  0.00     0.010 A 
ATOM     80  C   UNL A   1      42.775  27.985  31.926  1.00  0.00     0.010 A 
ATOM     81  C   UNL A   1      44.187  26.578  33.872  1.00  0.00     0.020 A 
ATOM     82  C   UNL A   1      42.164  27.694  33.158  1.00  0.00     0.020 A 
ATOM     83  C   UNL A   1      42.875  26.988  34.126  1.00  0.00     0.054 A 
BRANCH  83  84
ATOM     84  S   UNL A   1      42.123  26.563  35.724  1.00  0.00     0.124 S 
ATOM     85  O   UNL A   1      40.912  25.844  35.330  1.00  0.00    -0.237 OA
ATOM     86  O   UNL A   1      43.152  25.752  36.355  1.00  0.00    -0.237 OA
ATOM     87  O   UNL A   1      41.882  27.865  36.355  1.00  0.00    -0.744 OA
ENDBRANCH  83  84
ENDBRANCH  57  78
ENDBRANCH  31  32
ENDBRANCH  23  26
ENDBRANCH  21  22
ENDBRANCH  20  21
ENDBRANCH   1  20
TORSDOF 17
ENDMDL
MODEL 2
REMARK VINA RESULT:     -10.8      2.110      3.678
REMARK SMILES CC[C@@H](C)NC(=O)Cn1cccc1C(=O)NCCCNC(=O)c1ccc(-c2c3nc(c(-c4ccc(S(=O)(=O)[O-])cc4)c4ccc([nH]4)c(-c4ccc(S(=O)(=O)[O-])cc4)c4nc(c(-c5ccc(S(=O)(=O)[O-])cc5)c5ccc2[nH]5)C=C4)C=C3)cc1
REMARK SMILES IDX 17 1 16 2 14 3 15 4 13 6 9 7 10 8 11 9 12 10 8 11 6 12 5 13
REMARK SMILES IDX 7 15 3 16 4 17 2 18 1 19 18 20 19 21 20 22 21 23 22 25 23 26
REMARK SMILES IDX 24 27 82 28 25 29 81 30 26 31 27 32 28 33 75 34 29 35 80 36
REMARK SMILES IDX 74 37 76 38 30 39 79 40 73 41 72 42 31 44 61 45 42 46 60 47
REMARK SMILES IDX 43 48 46 49 59 50 77 51 44 52 45 53 58 55 78 56 47 57 32 58
REMARK SMILES IDX 33 59 41 60 34 61 40 62 35 63 36 64 37 65 38 66 39 67 62 68
REMARK SMILES IDX 63 69 71 70 64 71 70 72 65 73 66 74 67 75 68 76 69 77 48 78
REMARK SMILES IDX 49 79 57 80 50 81 56 82 51 83 52 84 53 85 54 86 55 87
REMARK H PARENT 16 5 5 14 20 24 76 43 46 54
REMARK Flexibility Score: inf
ROOT
ATOM      1  C   UNL A   1      32.006  28.266  25.109  1.00  0.00     0.118 C 
ENDROOT
BRANCH   1   2
ATOM      2  N   UNL A   1      30.727  27.754  24.658  1.00  0.00    -0.351 N 
ATOM      3  C   UNL A   1      30.327  26.612  24.018  1.00  0.00     0.267 C 
ATOM      4  O   UNL A   1      29.114  26.375  24.090  1.00  0.00    -0.268 OA
ATOM      5  H   UNL A   1      29.979  28.362  24.856  1.00  0.00     0.163 HD
BRANCH   3   6
ATOM      6  C   UNL A   1      31.224  25.667  23.367  1.00  0.00     0.107 A 
ATOM      7  N   UNL A   1      31.555  24.356  23.666  1.00  0.00    -0.334 N 
ATOM      8  C   UNL A   1      32.483  23.884  22.757  1.00  0.00     0.087 A 
ATOM      9  C   UNL A   1      32.890  24.931  21.972  1.00  0.00     0.020 A 
ATOM     10  C   UNL A   1      32.117  26.042  22.361  1.00  0.00     0.033 A 
BRANCH   7  11
ATOM     11  C   UNL A   1      31.122  23.537  24.782  1.00  0.00     0.222 C 
BRANCH  11  12
ATOM     12  C   UNL A   1      31.615  24.017  26.135  1.00  0.00     0.240 C 
ATOM     13  N   UNL A   1      32.721  23.441  26.685  1.00  0.00    -0.352 N 
ATOM     14  H   UNL A   1      32.737  23.355  27.666  1.00  0.00     0.163 HD
ATOM     15  O   UNL A   1      31.031  24.864  26.809  1.00  0.00    -0.273 OA
BRANCH  13  16
ATOM     16  C   UNL A   1      33.879  22.940  25.964  1.00  0.00     0.078 C 
ATOM     17  C   UNL A   1      34.609  21.915  26.822  1.00  0.00     0.031 C 
BRANCH  16  18
ATOM     18  C   UNL A   1      34.742  24.149  25.581  1.00  0.00     0.021 C 
ATOM     19  C   UNL A   1      36.230  23.876  25.685  1.00  0.00     0.006 C 
ENDBRANCH  16  18
ENDBRANCH  13  16
ENDBRANCH  11  12
ENDBRANCH   7  11
ENDBRANCH   3   6
ENDBRANCH   1   2
BRANCH   1  20
ATOM     20  C   UNL A   1      32.298  27.969  26.587  1.00  0.00     0.042 C 
BRANCH  20  21
ATOM     21  C   UNL A   1      33.655  28.459  27.082  1.00  0.00     0.118 C 
BRANCH  21  22
ATOM     22  N   UNL A   1      33.641  29.903  27.232  1.00  0.00    -0.352 N 
ATOM     23  C   UNL A   1      34.438  30.705  28.002  1.00  0.00     0.251 C 
ATOM     24  H   UNL A   1      32.958  30.373  26.700  1.00  0.00     0.163 HD
ATOM     25  O   UNL A   1      33.995  31.806  28.329  1.00  0.00    -0.269 OA
BRANCH  23  26
ATOM     26  C   UNL A   1      35.787  30.291  28.451  1.00  0.00     0.039 A 
ATOM     27  C   UNL A   1      36.828  30.387  27.518  1.00  0.00     0.014 A 
ATOM     28  C   UNL A   1      36.029  29.713  29.702  1.00  0.00     0.014 A 
ATOM     29  C   UNL A   1      38.105  29.945  27.848  1.00  0.00     0.010 A 
ATOM     30  C   UNL A   1      37.312  29.289  30.046  1.00  0.00     0.010 A 
ATOM     31  C   UNL A   1      38.351  29.409  29.120  1.00  0.00    -0.014 A 
BRANCH  31  32
ATOM     32  C   UNL A   1      39.755  29.113  29.488  1.00  0.00     0.031 A 
ATOM     33  C   UNL A   1      40.438  30.314  30.138  1.00  0.00     0.074 A 
ATOM     34  C   UNL A   1      40.272  27.904  29.124  1.00  0.00     0.049 A 
ATOM     35  N   UNL A   1      41.646  30.758  29.978  1.00  0.00    -0.248 NA
ATOM     36  C   UNL A   1      39.628  31.225  30.987  1.00  0.00     0.031 C 
ATOM     37  C   UNL A   1      39.486  26.809  28.519  1.00  0.00     0.029 A 
ATOM     38  N   UNL A   1      41.536  27.348  29.169  1.00  0.00    -0.354 N 
ATOM     39  C   UNL A   1      41.791  31.899  30.798  1.00  0.00     0.074 A 
ATOM     40  C   UNL A   1      40.485  32.199  31.308  1.00  0.00     0.031 C 
ATOM     41  C   UNL A   1      40.283  25.767  28.199  1.00  0.00     0.029 A 
ATOM     42  C   UNL A   1      41.655  26.077  28.555  1.00  0.00     0.049 A 
ATOM     43  H   UNL A   1      42.298  27.802  29.596  1.00  0.00     0.167 HD
ATOM     44  C   UNL A   1      43.000  32.451  31.110  1.00  0.00     0.031 A 
ATOM     45  C   UNL A   1      42.778  25.343  28.288  1.00  0.00     0.031 A 
ATOM     46  C   UNL A   1      44.053  31.726  30.483  1.00  0.00     0.049 A 
ATOM     47  C   UNL A   1      43.921  26.105  28.823  1.00  0.00     0.074 A 
ATOM     48  C   UNL A   1      44.493  31.604  29.191  1.00  0.00     0.029 A 
ATOM     49  N   UNL A   1      44.619  30.728  31.240  1.00  0.00    -0.354 N 
ATOM     50  N   UNL A   1      44.230  26.227  30.077  1.00  0.00    -0.248 NA
ATOM     51  C   UNL A   1      44.770  26.848  27.879  1.00  0.00     0.031 C 
ATOM     52  C   UNL A   1      44.944  30.266  29.114  1.00  0.00     0.029 A 
ATOM     53  C   UNL A   1      44.879  29.687  30.386  1.00  0.00     0.049 A 
ATOM     54  H   UNL A   1      44.803  30.755  32.207  1.00  0.00     0.167 HD
ATOM     55  C   UNL A   1      45.054  27.326  30.076  1.00  0.00     0.074 A 
ATOM     56  C   UNL A   1      45.594  27.439  28.740  1.00  0.00     0.031 C 
ATOM     57  C   UNL A   1      44.808  28.350  30.931  1.00  0.00     0.031 A 
BRANCH  44  58
ATOM     58  C   UNL A   1      43.400  33.438  32.179  1.00  0.00    -0.014 A 
ATOM     59  C   UNL A   1      43.089  33.091  33.521  1.00  0.00     0.010 A 
ATOM     60  C   UNL A   1      43.738  34.773  31.922  1.00  0.00     0.010 A 
ATOM     61  C   UNL A   1      42.969  34.054  34.524  1.00  0.00     0.020 A 
ATOM     62  C   UNL A   1      43.663  35.742  32.938  1.00  0.00     0.020 A 
ATOM     63  C   UNL A   1      43.222  35.385  34.213  1.00  0.00     0.054 A 
BRANCH  63  64
ATOM     64  S   UNL A   1      42.891  36.641  35.478  1.00  0.00     0.124 S 
ATOM     65  O   UNL A   1      42.794  35.837  36.691  1.00  0.00    -0.237 OA
ATOM     66  O   UNL A   1      44.072  37.499  35.390  1.00  0.00    -0.237 OA
ATOM     67  O   UNL A   1      41.648  37.262  35.027  1.00  0.00    -0.744 OA
ENDBRANCH  63  64
ENDBRANCH  44  58
BRANCH  45  68
ATOM     68  C   UNL A   1      43.122  24.105  27.488  1.00  0.00    -0.014 A 
ATOM     69  C   UNL A   1      42.310  23.483  26.533  1.00  0.00     0.010 A 
ATOM     70  C   UNL A   1      44.414  23.531  27.658  1.00  0.00     0.010 A 
ATOM     71  C   UNL A   1      42.814  22.454  25.700  1.00  0.00     0.020 A 
ATOM     72  C   UNL A   1      44.939  22.547  26.820  1.00  0.00     0.020 A 
ATOM     73  C   UNL A   1      44.140  22.026  25.820  1.00  0.00     0.054 A 
BRANCH  73  74
ATOM     74  S   UNL A   1      44.880  20.887  24.617  1.00  0.00     0.124 S 
ATOM     75  O   UNL A   1      46.230  20.712  25.140  1.00  0.00    -0.237 OA
ATOM     76  O   UNL A   1      44.012  19.715  24.700  1.00  0.00    -0.237 OA
ATOM     77  O   UNL A   1      44.788  21.625  23.357  1.00  0.00    -0.744 OA
ENDBRANCH  73  74
ENDBRANCH  45  68
BRANCH  57  78
ATOM     78  C   UNL A   1      44.057  27.967  32.195  1.00  0.00    -0.014 A 
ATOM     79  C   UNL A   1      42.666  28.156  32.264  1.00  0.00     0.010 A 
ATOM     80  C   UNL A   1      44.710  27.504  33.356  1.00  0.00     0.010 A 
ATOM     81  C   UNL A   1      41.953  27.897  33.444  1.00  0.00     0.020 A 
ATOM     82  C   UNL A   1      44.005  27.240  34.543  1.00  0.00     0.020 A 
ATOM     83  C   UNL A   1      42.626  27.441  34.580  1.00  0.00     0.054 A 
BRANCH  83  84
ATOM     84  S   UNL A   1      41.672  27.139  36.096  1.00  0.00     0.124 S 
ATOM     85  O   UNL A   1      42.717  26.918  37.097  1.00  0.00    -0.237 OA
ATOM     86  O   UNL A   1      40.915  28.371  36.247  1.00  0.00    -0.237 OA
ATOM     87  O   UNL A   1      40.873  25.951  35.777  1.00  0.00    -0.744 OA
ENDBRANCH  83  84
ENDBRANCH  57  78
ENDBRANCH  31  32
ENDBRANCH  23  26
ENDBRANCH  21  22
ENDBRANCH  20  21
ENDBRANCH   1  20
TORSDOF 17
ENDMDL
MODEL 3
REMARK VINA RESULT:     -10.8      4.365      9.031
REMARK SMILES CC[C@@H](C)NC(=O)Cn1cccc1C(=O)NCCCNC(=O)c1ccc(-c2c3nc(c(-c4ccc(S(=O)(=O)[O-])cc4)c4ccc([nH]4)c(-c4ccc(S(=O)(=O)[O-])cc4)c4nc(c(-c5ccc(S(=O)(=O)[O-])cc5)c5ccc2[nH]5)C=C4)C=C3)cc1
REMARK SMILES IDX 17 1 16 2 14 3 15 4 13 6 9 7 10 8 11 9 12 10 8 11 6 12 5 13
REMARK SMILES IDX 7 15 3 16 4 17 2 18 1 19 18 20 19 21 20 22 21 23 22 25 23 26
REMARK SMILES IDX 24 27 82 28 25 29 81 30 26 31 27 32 28 33 75 34 29 35 80 36
REMARK SMILES IDX 74 37 76 38 30 39 79 40 73 41 72 42 31 44 61 45 42 46 60 47
REMARK SMILES IDX 43 48 46 49 59 50 77 51 44 52 45 53 58 55 78 56 47 57 32 58
REMARK SMILES IDX 33 59 41 60 34 61 40 62 35 63 36 64 37 65 38 66 39 67 62 68
REMARK SMILES IDX 63 69 71 70 64 71 70 72 65 73 66 74 67 75 68 76 69 77 48 78
REMARK SMILES IDX 49 79 57 80 50 81 56 82 51 83 52 84 53 85 54 86 55 87
REMARK H PARENT 16 5 5 14 20 24 76 43 46 54
REMARK Flexibility Score: inf
ROOT
ATOM      1  C   UNL A   1      35.293  22.726  26.574  1.00  0.00     0.118 C 
ENDROOT
BRANCH   1   2
ATOM      2  N   UNL A   1      33.971  23.178  26.960  1.00  0.00    -0.351 N 
ATOM      3  C   UNL A   1      32.843  23.534  26.270  1.00  0.00     0.267 C 
ATOM      4  O   UNL A   1      31.806  23.552  26.946  1.00  0.00    -0.268 OA
ATOM      5  H   UNL A   1      33.858  23.245  27.936  1.00  0.00     0.163 HD
BRANCH   3   6
ATOM      6  C   UNL A   1      32.792  23.791  24.838  1.00  0.00     0.107 A 
ATOM      7  N   UNL A   1      33.278  24.838  24.072  1.00  0.00    -0.334 N 
ATOM      8  C   UNL A   1      32.953  24.642  22.744  1.00  0.00     0.087 A 
ATOM      9  C   UNL A   1      32.110  23.565  22.659  1.00  0.00     0.020 A 
ATOM     10  C   UNL A   1      31.999  23.045  23.963  1.00  0.00     0.033 A 
BRANCH   7  11
ATOM     11  C   UNL A   1      33.959  26.044  24.503  1.00  0.00     0.222 C 
BRANCH  11  12
ATOM     12  C   UNL A   1      33.184  27.323  24.247  1.00  0.00     0.240 C 
ATOM     13  N   UNL A   1      32.619  27.983  25.298  1.00  0.00    -0.352 N 
ATOM     14  H   UNL A   1      31.765  28.442  25.128  1.00  0.00     0.163 HD
ATOM     15  O   UNL A   1      32.973  27.776  23.123  1.00  0.00    -0.273 OA
BRANCH  13  16
ATOM     16  C   UNL A   1      33.156  28.073  26.645  1.00  0.00     0.078 C 
ATOM     17  C   UNL A   1      32.038  28.430  27.616  1.00  0.00     0.031 C 
BRANCH  16  18
ATOM     18  C   UNL A   1      34.298  29.098  26.619  1.00  0.00     0.021 C 
ATOM     19  C   UNL A   1      34.013  30.330  27.457  1.00  0.00     0.006 C 
ENDBRANCH  16  18
ENDBRANCH  13  16
ENDBRANCH  11  12
ENDBRANCH   7  11
ENDBRANCH   3   6
ENDBRANCH   1   2
BRANCH   1  20
ATOM     20  C   UNL A   1      36.180  23.844  26.006  1.00  0.00     0.042 C 
BRANCH  20  21
ATOM     21  C   UNL A   1      37.193  23.387  24.960  1.00  0.00     0.118 C 
BRANCH  21  22
ATOM     22  N   UNL A   1      38.130  22.448  25.549  1.00  0.00    -0.352 N 
ATOM     23  C   UNL A   1      39.339  22.682  26.144  1.00  0.00     0.251 C 
ATOM     24  H   UNL A   1      37.854  21.502  25.514  1.00  0.00     0.163 HD
ATOM     25  O   UNL A   1      40.153  21.760  26.169  1.00  0.00    -0.269 OA
BRANCH  23  26
ATOM     26  C   UNL A   1      39.691  23.991  26.740  1.00  0.00     0.039 A 
ATOM     27  C   UNL A   1      39.240  24.243  28.043  1.00  0.00     0.014 A 
ATOM     28  C   UNL A   1      40.340  25.004  26.023  1.00  0.00     0.014 A 
ATOM     29  C   UNL A   1      39.471  25.480  28.635  1.00  0.00     0.010 A 
ATOM     30  C   UNL A   1      40.593  26.239  26.621  1.00  0.00     0.010 A 
ATOM     31  C   UNL A   1      40.162  26.475  27.930  1.00  0.00    -0.014 A 
BRANCH  31  32
ATOM     32  C   UNL A   1      40.536  27.709  28.658  1.00  0.00     0.031 A 
ATOM     33  C   UNL A   1      41.859  27.552  29.402  1.00  0.00     0.074 A 
ATOM     34  C   UNL A   1      39.647  28.745  28.662  1.00  0.00     0.049 A 
ATOM     35  N   UNL A   1      42.194  27.974  30.581  1.00  0.00    -0.248 NA
ATOM     36  C   UNL A   1      42.918  26.696  28.807  1.00  0.00     0.031 C 
ATOM     37  C   UNL A   1      38.401  28.779  27.868  1.00  0.00     0.029 A 
ATOM     38  N   UNL A   1      39.589  29.956  29.323  1.00  0.00    -0.354 N 
ATOM     39  C   UNL A   1      43.526  27.570  30.815  1.00  0.00     0.074 A 
ATOM     40  C   UNL A   1      43.878  26.694  29.735  1.00  0.00     0.031 C 
ATOM     41  C   UNL A   1      37.692  29.896  28.136  1.00  0.00     0.029 A 
ATOM     42  C   UNL A   1      38.395  30.692  29.126  1.00  0.00     0.049 A 
ATOM     43  H   UNL A   1      40.323  30.284  29.891  1.00  0.00     0.167 HD
ATOM     44  C   UNL A   1      44.302  28.079  31.815  1.00  0.00     0.031 A 
ATOM     45  C   UNL A   1      37.960  31.827  29.752  1.00  0.00     0.031 A 
ATOM     46  C   UNL A   1      43.570  29.041  32.570  1.00  0.00     0.049 A 
ATOM     47  C   UNL A   1      39.022  32.228  30.691  1.00  0.00     0.074 A 
ATOM     48  C   UNL A   1      42.539  28.968  33.468  1.00  0.00     0.029 A 
ATOM     49  N   UNL A   1      43.713  30.346  32.162  1.00  0.00    -0.354 N 
ATOM     50  N   UNL A   1      40.155  32.772  30.368  1.00  0.00    -0.248 NA
ATOM     51  C   UNL A   1      38.833  31.947  32.123  1.00  0.00     0.031 C 
ATOM     52  C   UNL A   1      41.796  30.146  33.225  1.00  0.00     0.029 A 
ATOM     53  C   UNL A   1      42.480  30.934  32.292  1.00  0.00     0.049 A 
ATOM     54  H   UNL A   1      44.538  30.776  31.842  1.00  0.00     0.167 HD
ATOM     55  C   UNL A   1      40.921  32.553  31.486  1.00  0.00     0.074 A 
ATOM     56  C   UNL A   1      40.006  32.370  32.589  1.00  0.00     0.031 C 
ATOM     57  C   UNL A   1      42.148  31.987  31.359  1.00  0.00     0.031 A 
BRANCH  44  58
ATOM     58  C   UNL A   1      45.793  28.028  32.047  1.00  0.00    -0.014 A 
ATOM     59  C   UNL A   1      46.619  28.560  31.022  1.00  0.00     0.010 A 
ATOM     60  C   UNL A   1      46.405  27.218  33.013  1.00  0.00     0.010 A 
ATOM     61  C   UNL A   1      47.954  28.178  30.878  1.00  0.00     0.020 A 
ATOM     62  C   UNL A   1      47.761  26.865  32.899  1.00  0.00     0.020 A 
ATOM     63  C   UNL A   1      48.507  27.300  31.802  1.00  0.00     0.054 A 
BRANCH  63  64
ATOM     64  S   UNL A   1      50.183  26.677  31.500  1.00  0.00     0.124 S 
ATOM     65  O   UNL A   1      49.973  25.234  31.471  1.00  0.00    -0.237 OA
ATOM     66  O   UNL A   1      50.521  27.285  30.214  1.00  0.00    -0.237 OA
ATOM     67  O   UNL A   1      50.946  27.185  32.638  1.00  0.00    -0.744 OA
ENDBRANCH  63  64
ENDBRANCH  44  58
BRANCH  45  68
ATOM     68  C   UNL A   1      36.674  32.622  29.826  1.00  0.00    -0.014 A 
ATOM     69  C   UNL A   1      35.796  32.680  30.915  1.00  0.00     0.010 A 
ATOM     70  C   UNL A   1      36.329  33.449  28.719  1.00  0.00     0.010 A 
ATOM     71  C   UNL A   1      34.733  33.616  30.951  1.00  0.00     0.020 A 
ATOM     72  C   UNL A   1      35.312  34.403  28.754  1.00  0.00     0.020 A 
ATOM     73  C   UNL A   1      34.528  34.502  29.888  1.00  0.00     0.054 A 
BRANCH  73  74
ATOM     74  S   UNL A   1      33.333  35.861  30.007  1.00  0.00     0.124 S 
ATOM     75  O   UNL A   1      33.613  36.631  28.801  1.00  0.00    -0.237 OA
ATOM     76  O   UNL A   1      32.048  35.167  30.031  1.00  0.00    -0.237 OA
ATOM     77  O   UNL A   1      33.695  36.516  31.265  1.00  0.00    -0.744 OA
ENDBRANCH  73  74
ENDBRANCH  45  68
BRANCH  57  78
ATOM     78  C   UNL A   1      42.816  32.195  30.011  1.00  0.00    -0.014 A 
ATOM     79  C   UNL A   1      43.004  31.100  29.149  1.00  0.00     0.010 A 
ATOM     80  C   UNL A   1      43.346  33.438  29.608  1.00  0.00     0.010 A 
ATOM     81  C   UNL A   1      43.695  31.237  27.937  1.00  0.00     0.020 A 
ATOM     82  C   UNL A   1      44.038  33.586  28.394  1.00  0.00     0.020 A 
ATOM     83  C   UNL A   1      44.211  32.480  27.564  1.00  0.00     0.054 A 
BRANCH  83  84
ATOM     84  S   UNL A   1      45.120  32.613  25.997  1.00  0.00     0.124 S 
ATOM     85  O   UNL A   1      44.064  32.937  25.038  1.00  0.00    -0.237 OA
ATOM     86  O   UNL A   1      46.067  33.682  26.267  1.00  0.00    -0.237 OA
ATOM     87  O   UNL A   1      45.715  31.283  25.823  1.00  0.00    -0.744 OA
ENDBRANCH  83  84
ENDBRANCH  57  78
ENDBRANCH  31  32
ENDBRANCH  23  26
ENDBRANCH  21  22
ENDBRANCH  20  21
ENDBRANCH   1  20
TORSDOF 17
ENDMDL
