MODEL 1
REMARK VINA RESULT:     -11.8      0.000      0.000
REMARK SMILES NS(=O)(=O)c1ccc(N2N=C(C(=O)NCCCNC(=O)c3ccc(-c4c5nc(c(-c6ccc(S(=O)(=O)[O-])cc6)c6ccc([nH]6)c(-c6ccc(S(=O)(=O)[O-])cc6)c6nc(c(-c7ccc(S(=O)(=O)[O-])cc7)c7ccc4[nH]7)C=C6)C=C5)cc3)C[C@H]2c2ccco2)cc1
REMARK SMILES IDX 16 1 15 2 14 3 12 4 13 5 11 7 9 8 10 9 82 10 81 11 8 12 5 13
REMARK SMILES IDX 6 14 89 15 7 16 88 17 2 18 3 19 4 20 1 21 83 24 84 25 87 26
REMARK SMILES IDX 85 27 86 28 17 29 18 30 19 31 20 33 21 34 22 35 80 36 23 37
REMARK SMILES IDX 79 38 24 39 25 40 26 41 73 42 27 43 78 44 72 45 74 46 28 47
REMARK SMILES IDX 77 48 71 49 70 50 29 52 59 53 40 54 58 55 41 56 44 57 57 58
REMARK SMILES IDX 75 59 42 60 43 61 56 63 76 64 45 65 30 66 31 67 39 68 32 69
REMARK SMILES IDX 38 70 33 71 34 72 35 73 36 74 37 75 60 76 61 77 69 78 62 79
REMARK SMILES IDX 68 80 63 81 64 82 65 83 66 84 67 85 46 86 47 87 55 88 48 89
REMARK SMILES IDX 54 90 49 91 50 92 51 93 52 94 53 95
REMARK H PARENT 14 6 1 22 1 23 18 32 74 51 44 62
REMARK Flexibility Score: inf
ROOT
ATOM      1  C   UNL A   1      32.914  27.577  26.788  1.00  0.00     0.042 C 
ENDROOT
BRANCH   1   2
ATOM      2  C   UNL A   1      31.734  27.386  25.847  1.00  0.00     0.118 C 
BRANCH   2   3
ATOM      3  N   UNL A   1      30.776  26.432  26.379  1.00  0.00    -0.351 N 
ATOM      4  C   UNL A   1      30.561  25.086  26.220  1.00  0.00     0.267 C 
ATOM      5  O   UNL A   1      29.578  24.600  26.776  1.00  0.00    -0.268 OA
ATOM      6  H   UNL A   1      30.130  26.847  26.996  1.00  0.00     0.163 HD
BRANCH   4   7
ATOM      7  C   UNL A   1      31.489  24.161  25.451  1.00  0.00     0.128 C 
ATOM      8  N   UNL A   1      32.487  22.358  24.921  1.00  0.00    -0.254 N 
ATOM      9  N   UNL A   1      31.442  22.873  25.618  1.00  0.00    -0.171 NA
ATOM     10  C   UNL A   1      33.179  23.328  24.069  1.00  0.00     0.180 C 
ATOM     11  C   UNL A   1      32.531  24.645  24.502  1.00  0.00     0.099 C 
BRANCH   8  12
ATOM     12  C   UNL A   1      32.644  20.988  24.790  1.00  0.00     0.060 A 
ATOM     13  C   UNL A   1      33.093  18.233  24.549  1.00  0.00     0.082 A 
ATOM     14  C   UNL A   1      32.582  18.947  23.463  1.00  0.00     0.024 A 
ATOM     15  C   UNL A   1      33.335  18.866  25.767  1.00  0.00     0.024 A 
ATOM     16  C   UNL A   1      32.353  20.321  23.592  1.00  0.00     0.029 A 
ATOM     17  C   UNL A   1      33.108  20.236  25.878  1.00  0.00     0.029 A 
BRANCH  13  18
ATOM     18  S   UNL A   1      33.425  16.505  24.413  1.00  0.00     0.238 S 
ATOM     19  O   UNL A   1      33.859  16.192  23.071  1.00  0.00    -0.207 OA
ATOM     20  O   UNL A   1      32.383  15.764  25.084  1.00  0.00    -0.207 OA
BRANCH  18  21
ATOM     21  N   UNL A   1      34.792  16.348  25.379  1.00  0.00    -0.225 NA
ATOM     22  H   UNL A   1      35.159  17.274  25.603  1.00  0.00     0.137 HD
ATOM     23  H   UNL A   1      35.503  15.814  24.878  1.00  0.00     0.137 HD
ENDBRANCH  18  21
ENDBRANCH  13  18
ENDBRANCH   8  12
BRANCH  10  24
ATOM     24  C   UNL A   1      34.680  23.371  24.154  1.00  0.00     0.128 A 
ATOM     25  C   UNL A   1      35.682  22.850  23.356  1.00  0.00     0.048 A 
ATOM     26  O   UNL A   1      35.247  24.028  25.212  1.00  0.00    -0.467 OA
ATOM     27  C   UNL A   1      36.911  23.193  23.968  1.00  0.00     0.042 A 
ATOM     28  C   UNL A   1      36.593  23.926  25.084  1.00  0.00     0.195 A 
ENDBRANCH  10  24
ENDBRANCH   4   7
ENDBRANCH   2   3
ENDBRANCH   1   2
BRANCH   1  29
ATOM     29  C   UNL A   1      33.924  28.591  26.269  1.00  0.00     0.118 C 
BRANCH  29  30
ATOM     30  N   UNL A   1      33.757  29.898  26.898  1.00  0.00    -0.352 N 
ATOM     31  C   UNL A   1      34.527  30.537  27.837  1.00  0.00     0.251 C 
ATOM     32  H   UNL A   1      32.965  30.401  26.600  1.00  0.00     0.163 HD
ATOM     33  O   UNL A   1      34.072  31.518  28.420  1.00  0.00    -0.269 OA
BRANCH  31  34
ATOM     34  C   UNL A   1      35.885  30.047  28.151  1.00  0.00     0.039 A 
ATOM     35  C   UNL A   1      36.874  30.105  27.166  1.00  0.00     0.014 A 
ATOM     36  C   UNL A   1      36.178  29.503  29.405  1.00  0.00     0.014 A 
ATOM     37  C   UNL A   1      38.171  29.679  27.462  1.00  0.00     0.010 A 
ATOM     38  C   UNL A   1      37.488  29.169  29.727  1.00  0.00     0.010 A 
ATOM     39  C   UNL A   1      38.498  29.245  28.758  1.00  0.00    -0.014 A 
BRANCH  39  40
ATOM     40  C   UNL A   1      39.885  28.858  29.120  1.00  0.00     0.031 A 
ATOM     41  C   UNL A   1      40.795  29.855  29.787  1.00  0.00     0.074 A 
ATOM     42  C   UNL A   1      40.345  27.637  28.783  1.00  0.00     0.049 A 
ATOM     43  N   UNL A   1      42.058  29.732  30.106  1.00  0.00    -0.248 NA
ATOM     44  C   UNL A   1      40.220  31.171  30.116  1.00  0.00     0.031 C 
ATOM     45  C   UNL A   1      39.573  26.599  28.096  1.00  0.00     0.029 A 
ATOM     46  N   UNL A   1      41.578  27.063  28.966  1.00  0.00    -0.354 N 
ATOM     47  C   UNL A   1      42.432  30.955  30.653  1.00  0.00     0.074 A 
ATOM     48  C   UNL A   1      41.278  31.824  30.574  1.00  0.00     0.031 C 
ATOM     49  C   UNL A   1      40.340  25.508  27.942  1.00  0.00     0.029 A 
ATOM     50  C   UNL A   1      41.671  25.783  28.474  1.00  0.00     0.049 A 
ATOM     51  H   UNL A   1      42.327  27.526  29.409  1.00  0.00     0.167 HD
ATOM     52  C   UNL A   1      43.620  31.315  31.191  1.00  0.00     0.031 A 
ATOM     53  C   UNL A   1      42.712  24.928  28.445  1.00  0.00     0.031 A 
ATOM     54  C   UNL A   1      44.760  30.441  31.282  1.00  0.00     0.049 A 
ATOM     55  C   UNL A   1      44.025  25.357  29.041  1.00  0.00     0.074 A 
ATOM     56  C   UNL A   1      45.992  30.693  31.859  1.00  0.00     0.029 A 
ATOM     57  N   UNL A   1      44.807  29.148  30.784  1.00  0.00    -0.354 N 
ATOM     58  N   UNL A   1      44.338  26.497  29.608  1.00  0.00    -0.248 NA
ATOM     59  C   UNL A   1      45.121  24.379  29.003  1.00  0.00     0.031 C 
ATOM     60  C   UNL A   1      46.803  29.572  31.664  1.00  0.00     0.029 A 
ATOM     61  C   UNL A   1      46.054  28.597  31.021  1.00  0.00     0.049 A 
ATOM     62  H   UNL A   1      44.063  28.689  30.330  1.00  0.00     0.167 HD
ATOM     63  C   UNL A   1      45.660  26.362  30.022  1.00  0.00     0.074 A 
ATOM     64  C   UNL A   1      46.079  25.025  29.653  1.00  0.00     0.031 C 
ATOM     65  C   UNL A   1      46.453  27.263  30.651  1.00  0.00     0.031 A 
BRANCH  52  66
ATOM     66  C   UNL A   1      43.749  32.717  31.729  1.00  0.00    -0.014 A 
ATOM     67  C   UNL A   1      43.704  32.971  33.112  1.00  0.00     0.010 A 
ATOM     68  C   UNL A   1      43.972  33.788  30.845  1.00  0.00     0.010 A 
ATOM     69  C   UNL A   1      43.843  34.273  33.599  1.00  0.00     0.020 A 
ATOM     70  C   UNL A   1      44.142  35.089  31.329  1.00  0.00     0.020 A 
ATOM     71  C   UNL A   1      44.062  35.324  32.704  1.00  0.00     0.054 A 
BRANCH  71  72
ATOM     72  S   UNL A   1      44.275  36.999  33.368  1.00  0.00     0.124 S 
ATOM     73  O   UNL A   1      42.913  37.339  33.770  1.00  0.00    -0.237 OA
ATOM     74  O   UNL A   1      45.218  36.789  34.464  1.00  0.00    -0.237 OA
ATOM     75  O   UNL A   1      44.799  37.757  32.235  1.00  0.00    -0.744 OA
ENDBRANCH  71  72
ENDBRANCH  52  66
BRANCH  53  76
ATOM     76  C   UNL A   1      42.552  23.577  27.839  1.00  0.00    -0.014 A 
ATOM     77  C   UNL A   1      42.082  22.500  28.609  1.00  0.00     0.010 A 
ATOM     78  C   UNL A   1      42.869  23.362  26.485  1.00  0.00     0.010 A 
ATOM     79  C   UNL A   1      41.957  21.226  28.045  1.00  0.00     0.020 A 
ATOM     80  C   UNL A   1      42.717  22.098  25.909  1.00  0.00     0.020 A 
ATOM     81  C   UNL A   1      42.275  21.034  26.698  1.00  0.00     0.054 A 
BRANCH  81  82
ATOM     82  S   UNL A   1      42.067  19.382  25.976  1.00  0.00     0.124 S 
ATOM     83  O   UNL A   1      42.886  19.474  24.770  1.00  0.00    -0.237 OA
ATOM     84  O   UNL A   1      42.583  18.510  27.028  1.00  0.00    -0.237 OA
ATOM     85  O   UNL A   1      40.627  19.288  25.750  1.00  0.00    -0.744 OA
ENDBRANCH  81  82
ENDBRANCH  53  76
BRANCH  65  86
ATOM     86  C   UNL A   1      47.846  26.822  31.019  1.00  0.00    -0.014 A 
ATOM     87  C   UNL A   1      48.931  27.025  30.149  1.00  0.00     0.010 A 
ATOM     88  C   UNL A   1      48.076  26.248  32.283  1.00  0.00     0.010 A 
ATOM     89  C   UNL A   1      50.218  26.630  30.524  1.00  0.00     0.020 A 
ATOM     90  C   UNL A   1      49.366  25.880  32.672  1.00  0.00     0.020 A 
ATOM     91  C   UNL A   1      50.427  26.060  31.784  1.00  0.00     0.054 A 
BRANCH  91  92
ATOM     92  S   UNL A   1      52.114  25.598  32.262  1.00  0.00     0.124 S 
ATOM     93  O   UNL A   1      52.242  26.229  33.573  1.00  0.00    -0.237 OA
ATOM     94  O   UNL A   1      52.056  24.138  32.270  1.00  0.00    -0.237 OA
ATOM     95  O   UNL A   1      52.944  26.177  31.209  1.00  0.00    -0.744 OA
ENDBRANCH  91  92
ENDBRANCH  65  86
ENDBRANCH  39  40
ENDBRANCH  31  34
ENDBRANCH  29  30
ENDBRANCH   1  29
TORSDOF 17
ENDMDL
MODEL 2
REMARK VINA RESULT:     -11.8      3.450      9.798
REMARK SMILES NS(=O)(=O)c1ccc(N2N=C(C(=O)NCCCNC(=O)c3ccc(-c4c5nc(c(-c6ccc(S(=O)(=O)[O-])cc6)c6ccc([nH]6)c(-c6ccc(S(=O)(=O)[O-])cc6)c6nc(c(-c7ccc(S(=O)(=O)[O-])cc7)c7ccc4[nH]7)C=C6)C=C5)cc3)C[C@H]2c2ccco2)cc1
REMARK SMILES IDX 16 1 15 2 14 3 12 4 13 5 11 7 9 8 10 9 82 10 81 11 8 12 5 13
REMARK SMILES IDX 6 14 89 15 7 16 88 17 2 18 3 19 4 20 1 21 83 24 84 25 87 26
REMARK SMILES IDX 85 27 86 28 17 29 18 30 19 31 20 33 21 34 22 35 80 36 23 37
REMARK SMILES IDX 79 38 24 39 25 40 26 41 73 42 27 43 78 44 72 45 74 46 28 47
REMARK SMILES IDX 77 48 71 49 70 50 29 52 59 53 40 54 58 55 41 56 44 57 57 58
REMARK SMILES IDX 75 59 42 60 43 61 56 63 76 64 45 65 30 66 31 67 39 68 32 69
REMARK SMILES IDX 38 70 33 71 34 72 35 73 36 74 37 75 60 76 61 77 69 78 62 79
REMARK SMILES IDX 68 80 63 81 64 82 65 83 66 84 67 85 46 86 47 87 55 88 48 89
REMARK SMILES IDX 54 90 49 91 50 92 51 93 52 94 53 95
REMARK H PARENT 14 6 1 22 1 23 18 32 74 51 44 62
REMARK Flexibility Score: inf
ROOT
ATOM      1  C   UNL A   1      35.262  22.872  26.635  1.00  0.00     0.042 C 
ENDROOT
BRANCH   1   2
ATOM      2  C   UNL A   1      34.253  22.270  25.669  1.00  0.00     0.118 C 
BRANCH   2   3
ATOM      3  N   UNL A   1      34.495  22.705  24.304  1.00  0.00    -0.351 N 
ATOM      4  C   UNL A   1      34.066  23.756  23.533  1.00  0.00     0.267 C 
ATOM      5  O   UNL A   1      34.416  23.774  22.355  1.00  0.00    -0.268 OA
ATOM      6  H   UNL A   1      35.108  22.106  23.819  1.00  0.00     0.163 HD
BRANCH   4   7
ATOM      7  C   UNL A   1      33.238  24.915  24.060  1.00  0.00     0.128 C 
ATOM      8  N   UNL A   1      32.037  26.671  24.005  1.00  0.00    -0.254 N 
ATOM      9  N   UNL A   1      32.515  25.643  23.260  1.00  0.00    -0.171 NA
ATOM     10  C   UNL A   1      32.286  26.541  25.442  1.00  0.00     0.180 C 
ATOM     11  C   UNL A   1      33.221  25.330  25.491  1.00  0.00     0.099 C 
BRANCH   8  12
ATOM     12  C   UNL A   1      31.121  27.564  23.473  1.00  0.00     0.060 A 
ATOM     13  C   UNL A   1      29.318  29.465  22.479  1.00  0.00     0.082 A 
ATOM     14  C   UNL A   1      28.833  28.322  23.120  1.00  0.00     0.024 A 
ATOM     15  C   UNL A   1      30.686  29.645  22.283  1.00  0.00     0.024 A 
ATOM     16  C   UNL A   1      29.739  27.373  23.608  1.00  0.00     0.029 A 
ATOM     17  C   UNL A   1      31.575  28.694  22.780  1.00  0.00     0.029 A 
BRANCH  13  18
ATOM     18  S   UNL A   1      28.208  30.698  21.879  1.00  0.00     0.238 S 
ATOM     19  O   UNL A   1      27.193  30.970  22.871  1.00  0.00    -0.207 OA
ATOM     20  O   UNL A   1      27.888  30.423  20.498  1.00  0.00    -0.207 OA
BRANCH  18  21
ATOM     21  N   UNL A   1      29.195  32.058  21.858  1.00  0.00    -0.225 NA
ATOM     22  H   UNL A   1      30.164  31.778  22.015  1.00  0.00     0.137 HD
ATOM     23  H   UNL A   1      28.905  32.701  22.596  1.00  0.00     0.137 HD
ENDBRANCH  18  21
ENDBRANCH  13  18
ENDBRANCH   8  12
BRANCH  10  24
ATOM     24  C   UNL A   1      32.858  27.737  26.153  1.00  0.00     0.128 A 
ATOM     25  C   UNL A   1      34.155  28.156  26.393  1.00  0.00     0.048 A 
ATOM     26  O   UNL A   1      31.988  28.632  26.713  1.00  0.00    -0.467 OA
ATOM     27  C   UNL A   1      34.064  29.350  27.148  1.00  0.00     0.042 A 
ATOM     28  C   UNL A   1      32.724  29.607  27.300  1.00  0.00     0.195 A 
ENDBRANCH  10  24
ENDBRANCH   4   7
ENDBRANCH   2   3
ENDBRANCH   1   2
BRANCH   1  29
ATOM     29  C   UNL A   1      36.465  23.483  25.927  1.00  0.00     0.118 C 
BRANCH  29  30
ATOM     30  N   UNL A   1      37.631  22.608  25.981  1.00  0.00    -0.352 N 
ATOM     31  C   UNL A   1      38.940  22.891  26.287  1.00  0.00     0.251 C 
ATOM     32  H   UNL A   1      37.452  21.665  25.765  1.00  0.00     0.163 HD
ATOM     33  O   UNL A   1      39.809  22.064  26.026  1.00  0.00    -0.269 OA
BRANCH  31  34
ATOM     34  C   UNL A   1      39.300  24.179  26.915  1.00  0.00     0.039 A 
ATOM     35  C   UNL A   1      38.908  24.427  28.233  1.00  0.00     0.014 A 
ATOM     36  C   UNL A   1      39.999  25.154  26.198  1.00  0.00     0.014 A 
ATOM     37  C   UNL A   1      39.275  25.625  28.850  1.00  0.00     0.010 A 
ATOM     38  C   UNL A   1      40.443  26.303  26.842  1.00  0.00     0.010 A 
ATOM     39  C   UNL A   1      40.080  26.556  28.172  1.00  0.00    -0.014 A 
BRANCH  39  40
ATOM     40  C   UNL A   1      40.547  27.802  28.830  1.00  0.00     0.031 A 
ATOM     41  C   UNL A   1      41.925  27.864  29.434  1.00  0.00     0.074 A 
ATOM     42  C   UNL A   1      39.706  28.849  28.946  1.00  0.00     0.049 A 
ATOM     43  N   UNL A   1      42.481  28.832  30.119  1.00  0.00    -0.248 NA
ATOM     44  C   UNL A   1      42.782  26.677  29.272  1.00  0.00     0.031 C 
ATOM     45  C   UNL A   1      38.332  28.894  28.440  1.00  0.00     0.029 A 
ATOM     46  N   UNL A   1      39.881  30.076  29.535  1.00  0.00    -0.354 N 
ATOM     47  C   UNL A   1      43.739  28.363  30.483  1.00  0.00     0.074 A 
ATOM     48  C   UNL A   1      43.845  27.007  29.991  1.00  0.00     0.031 C 
ATOM     49  C   UNL A   1      37.800  30.096  28.715  1.00  0.00     0.029 A 
ATOM     50  C   UNL A   1      38.775  30.889  29.457  1.00  0.00     0.049 A 
ATOM     51  H   UNL A   1      40.720  30.349  29.973  1.00  0.00     0.167 HD
ATOM     52  C   UNL A   1      44.724  29.010  31.147  1.00  0.00     0.031 A 
ATOM     53  C   UNL A   1      38.563  32.131  29.936  1.00  0.00     0.031 A 
ATOM     54  C   UNL A   1      44.620  30.365  31.621  1.00  0.00     0.049 A 
ATOM     55  C   UNL A   1      39.672  32.823  30.681  1.00  0.00     0.074 A 
ATOM     56  C   UNL A   1      45.582  31.130  32.257  1.00  0.00     0.029 A 
ATOM     57  N   UNL A   1      43.488  31.158  31.508  1.00  0.00    -0.354 N 
ATOM     58  N   UNL A   1      40.876  32.385  30.961  1.00  0.00    -0.248 NA
ATOM     59  C   UNL A   1      39.396  34.184  31.164  1.00  0.00     0.031 C 
ATOM     60  C   UNL A   1      45.015  32.367  32.577  1.00  0.00     0.029 A 
ATOM     61  C   UNL A   1      43.720  32.396  32.083  1.00  0.00     0.049 A 
ATOM     62  H   UNL A   1      42.644  30.882  31.082  1.00  0.00     0.167 HD
ATOM     63  C   UNL A   1      41.512  33.427  31.627  1.00  0.00     0.074 A 
ATOM     64  C   UNL A   1      40.564  34.521  31.692  1.00  0.00     0.031 C 
ATOM     65  C   UNL A   1      42.767  33.475  32.136  1.00  0.00     0.031 A 
BRANCH  52  66
ATOM     66  C   UNL A   1      46.007  28.261  31.400  1.00  0.00    -0.014 A 
ATOM     67  C   UNL A   1      46.172  27.476  32.556  1.00  0.00     0.010 A 
ATOM     68  C   UNL A   1      47.040  28.298  30.446  1.00  0.00     0.010 A 
ATOM     69  C   UNL A   1      47.360  26.772  32.771  1.00  0.00     0.020 A 
ATOM     70  C   UNL A   1      48.218  27.570  30.642  1.00  0.00     0.020 A 
ATOM     71  C   UNL A   1      48.375  26.823  31.811  1.00  0.00     0.054 A 
BRANCH  71  72
ATOM     72  S   UNL A   1      49.891  25.869  32.101  1.00  0.00     0.124 S 
ATOM     73  O   UNL A   1      50.057  25.175  30.827  1.00  0.00    -0.237 OA
ATOM     74  O   UNL A   1      50.876  26.912  32.379  1.00  0.00    -0.237 OA
ATOM     75  O   UNL A   1      49.552  25.015  33.236  1.00  0.00    -0.744 OA
ENDBRANCH  71  72
ENDBRANCH  52  66
BRANCH  53  76
ATOM     76  C   UNL A   1      37.252  32.802  29.719  1.00  0.00    -0.014 A 
ATOM     77  C   UNL A   1      36.900  33.287  28.447  1.00  0.00     0.010 A 
ATOM     78  C   UNL A   1      36.346  32.958  30.784  1.00  0.00     0.010 A 
ATOM     79  C   UNL A   1      35.678  33.940  28.251  1.00  0.00     0.020 A 
ATOM     80  C   UNL A   1      35.112  33.582  30.586  1.00  0.00     0.020 A 
ATOM     81  C   UNL A   1      34.792  34.083  29.322  1.00  0.00     0.054 A 
BRANCH  81  82
ATOM     82  S   UNL A   1      33.196  34.897  29.036  1.00  0.00     0.124 S 
ATOM     83  O   UNL A   1      33.609  36.239  28.636  1.00  0.00    -0.237 OA
ATOM     84  O   UNL A   1      32.607  34.075  27.982  1.00  0.00    -0.237 OA
ATOM     85  O   UNL A   1      32.530  34.807  30.333  1.00  0.00    -0.744 OA
ENDBRANCH  81  82
ENDBRANCH  53  76
BRANCH  65  86
ATOM     86  C   UNL A   1      43.207  34.766  32.776  1.00  0.00    -0.014 A 
ATOM     87  C   UNL A   1      43.734  35.819  32.009  1.00  0.00     0.010 A 
ATOM     88  C   UNL A   1      43.035  34.943  34.161  1.00  0.00     0.010 A 
ATOM     89  C   UNL A   1      44.112  37.016  32.623  1.00  0.00     0.020 A 
ATOM     90  C   UNL A   1      43.383  36.150  34.772  1.00  0.00     0.020 A 
ATOM     91  C   UNL A   1      43.934  37.174  34.001  1.00  0.00     0.054 A 
BRANCH  91  92
ATOM     92  S   UNL A   1      44.391  38.753  34.764  1.00  0.00     0.124 S 
ATOM     93  O   UNL A   1      44.092  38.508  36.173  1.00  0.00    -0.237 OA
ATOM     94  O   UNL A   1      45.809  38.871  34.434  1.00  0.00    -0.237 OA
ATOM     95  O   UNL A   1      43.521  39.723  34.103  1.00  0.00    -0.744 OA
ENDBRANCH  91  92
ENDBRANCH  65  86
ENDBRANCH  39  40
ENDBRANCH  31  34
ENDBRANCH  29  30
ENDBRANCH   1  29
TORSDOF 17
ENDMDL
MODEL 3
REMARK VINA RESULT:     -11.4      3.667      9.673
REMARK SMILES NS(=O)(=O)c1ccc(N2N=C(C(=O)NCCCNC(=O)c3ccc(-c4c5nc(c(-c6ccc(S(=O)(=O)[O-])cc6)c6ccc([nH]6)c(-c6ccc(S(=O)(=O)[O-])cc6)c6nc(c(-c7ccc(S(=O)(=O)[O-])cc7)c7ccc4[nH]7)C=C6)C=C5)cc3)C[C@H]2c2ccco2)cc1
REMARK SMILES IDX 16 1 15 2 14 3 12 4 13 5 11 7 9 8 10 9 82 10 81 11 8 12 5 13
REMARK SMILES IDX 6 14 89 15 7 16 88 17 2 18 3 19 4 20 1 21 83 24 84 25 87 26
REMARK SMILES IDX 85 27 86 28 17 29 18 30 19 31 20 33 21 34 22 35 80 36 23 37
REMARK SMILES IDX 79 38 24 39 25 40 26 41 73 42 27 43 78 44 72 45 74 46 28 47
REMARK SMILES IDX 77 48 71 49 70 50 29 52 59 53 40 54 58 55 41 56 44 57 57 58
REMARK SMILES IDX 75 59 42 60 43 61 56 63 76 64 45 65 30 66 31 67 39 68 32 69
REMARK SMILES IDX 38 70 33 71 34 72 35 73 36 74 37 75 60 76 61 77 69 78 62 79
REMARK SMILES IDX 68 80 63 81 64 82 65 83 66 84 67 85 46 86 47 87 55 88 48 89
REMARK SMILES IDX 54 90 49 91 50 92 51 93 52 94 53 95
REMARK H PARENT 14 6 1 22 1 23 18 32 74 51 44 62
REMARK Flexibility Score: inf
ROOT
ATOM      1  C   UNL A   1      35.510  22.656  26.508  1.00  0.00     0.042 C 
ENDROOT
BRANCH   1   2
ATOM      2  C   UNL A   1      34.405  22.161  25.587  1.00  0.00     0.118 C 
BRANCH   2   3
ATOM      3  N   UNL A   1      34.606  22.613  24.220  1.00  0.00    -0.351 N 
ATOM      4  C   UNL A   1      34.133  23.657  23.467  1.00  0.00     0.267 C 
ATOM      5  O   UNL A   1      34.458  23.694  22.282  1.00  0.00    -0.268 OA
ATOM      6  H   UNL A   1      35.225  22.035  23.718  1.00  0.00     0.163 HD
BRANCH   4   7
ATOM      7  C   UNL A   1      33.286  24.790  24.021  1.00  0.00     0.128 C 
ATOM      8  N   UNL A   1      32.068  26.535  24.007  1.00  0.00    -0.254 N 
ATOM      9  N   UNL A   1      32.567  25.536  23.235  1.00  0.00    -0.171 NA
ATOM     10  C   UNL A   1      32.298  26.360  25.442  1.00  0.00     0.180 C 
ATOM     11  C   UNL A   1      33.245  25.158  25.464  1.00  0.00     0.099 C 
BRANCH   8  12
ATOM     12  C   UNL A   1      31.149  27.435  23.492  1.00  0.00     0.060 A 
ATOM     13  C   UNL A   1      29.347  29.352  22.528  1.00  0.00     0.082 A 
ATOM     14  C   UNL A   1      28.865  28.235  23.215  1.00  0.00     0.024 A 
ATOM     15  C   UNL A   1      30.710  29.497  22.272  1.00  0.00     0.024 A 
ATOM     16  C   UNL A   1      29.770  27.278  23.688  1.00  0.00     0.029 A 
ATOM     17  C   UNL A   1      31.597  28.539  22.755  1.00  0.00     0.029 A 
BRANCH  13  18
ATOM     18  S   UNL A   1      28.239  30.595  21.945  1.00  0.00     0.238 S 
ATOM     19  O   UNL A   1      27.201  30.826  22.923  1.00  0.00    -0.207 OA
ATOM     20  O   UNL A   1      27.952  30.363  20.549  1.00  0.00    -0.207 OA
BRANCH  18  21
ATOM     21  N   UNL A   1      29.215  31.963  21.991  1.00  0.00    -0.225 NA
ATOM     22  H   UNL A   1      28.668  32.781  21.719  1.00  0.00     0.137 HD
ATOM     23  H   UNL A   1      29.995  31.847  21.344  1.00  0.00     0.137 HD
ENDBRANCH  18  21
ENDBRANCH  13  18
ENDBRANCH   8  12
BRANCH  10  24
ATOM     24  C   UNL A   1      32.848  27.538  26.200  1.00  0.00     0.128 A 
ATOM     25  C   UNL A   1      32.247  28.584  26.877  1.00  0.00     0.048 A 
ATOM     26  O   UNL A   1      34.207  27.682  26.269  1.00  0.00    -0.467 OA
ATOM     27  C   UNL A   1      33.290  29.408  27.363  1.00  0.00     0.042 A 
ATOM     28  C   UNL A   1      34.464  28.806  26.982  1.00  0.00     0.195 A 
ENDBRANCH  10  24
ENDBRANCH   4   7
ENDBRANCH   2   3
ENDBRANCH   1   2
BRANCH   1  29
ATOM     29  C   UNL A   1      36.798  22.982  25.762  1.00  0.00     0.118 C 
BRANCH  29  30
ATOM     30  N   UNL A   1      37.825  21.969  25.981  1.00  0.00    -0.352 N 
ATOM     31  C   UNL A   1      39.156  22.106  26.292  1.00  0.00     0.251 C 
ATOM     32  H   UNL A   1      37.515  21.040  25.893  1.00  0.00     0.163 HD
ATOM     33  O   UNL A   1      39.901  21.137  26.181  1.00  0.00    -0.269 OA
BRANCH  31  34
ATOM     34  C   UNL A   1      39.688  23.408  26.745  1.00  0.00     0.039 A 
ATOM     35  C   UNL A   1      40.406  23.469  27.943  1.00  0.00     0.014 A 
ATOM     36  C   UNL A   1      39.457  24.573  26.008  1.00  0.00     0.014 A 
ATOM     37  C   UNL A   1      40.946  24.687  28.363  1.00  0.00     0.010 A 
ATOM     38  C   UNL A   1      40.074  25.762  26.379  1.00  0.00     0.010 A 
ATOM     39  C   UNL A   1      40.818  25.835  27.564  1.00  0.00    -0.014 A 
BRANCH  39  40
ATOM     40  C   UNL A   1      41.447  27.124  27.950  1.00  0.00     0.031 A 
ATOM     41  C   UNL A   1      42.939  27.297  27.842  1.00  0.00     0.074 A 
ATOM     42  C   UNL A   1      40.684  28.108  28.465  1.00  0.00     0.049 A 
ATOM     43  N   UNL A   1      43.678  28.314  28.206  1.00  0.00    -0.248 NA
ATOM     44  C   UNL A   1      43.704  26.172  27.277  1.00  0.00     0.031 C 
ATOM     45  C   UNL A   1      39.233  28.045  28.660  1.00  0.00     0.029 A 
ATOM     46  N   UNL A   1      41.023  29.355  28.926  1.00  0.00    -0.354 N 
ATOM     47  C   UNL A   1      44.990  27.945  27.932  1.00  0.00     0.074 A 
ATOM     48  C   UNL A   1      44.953  26.591  27.423  1.00  0.00     0.031 C 
ATOM     49  C   UNL A   1      38.806  29.210  29.173  1.00  0.00     0.029 A 
ATOM     50  C   UNL A   1      39.953  30.084  29.388  1.00  0.00     0.049 A 
ATOM     51  H   UNL A   1      41.947  29.696  28.927  1.00  0.00     0.167 HD
ATOM     52  C   UNL A   1      46.122  28.673  28.070  1.00  0.00     0.031 A 
ATOM     53  C   UNL A   1      39.901  31.316  29.934  1.00  0.00     0.031 A 
ATOM     54  C   UNL A   1      46.153  30.025  28.563  1.00  0.00     0.049 A 
ATOM     55  C   UNL A   1      41.175  32.100  30.087  1.00  0.00     0.074 A 
ATOM     56  C   UNL A   1      47.243  30.869  28.690  1.00  0.00     0.029 A 
ATOM     57  N   UNL A   1      45.046  30.732  29.007  1.00  0.00    -0.354 N 
ATOM     58  N   UNL A   1      42.398  31.755  29.764  1.00  0.00    -0.248 NA
ATOM     59  C   UNL A   1      41.059  33.445  30.668  1.00  0.00     0.031 C 
ATOM     60  C   UNL A   1      46.803  32.067  29.260  1.00  0.00     0.029 A 
ATOM     61  C   UNL A   1      45.428  31.993  29.429  1.00  0.00     0.049 A 
ATOM     62  H   UNL A   1      44.123  30.387  29.018  1.00  0.00     0.167 HD
ATOM     63  C   UNL A   1      43.195  32.853  30.075  1.00  0.00     0.074 A 
ATOM     64  C   UNL A   1      42.311  33.876  30.595  1.00  0.00     0.031 C 
ATOM     65  C   UNL A   1      44.535  33.001  29.940  1.00  0.00     0.031 A 
BRANCH  52  66
ATOM     66  C   UNL A   1      47.425  28.024  27.682  1.00  0.00    -0.014 A 
ATOM     67  C   UNL A   1      47.922  28.122  26.370  1.00  0.00     0.010 A 
ATOM     68  C   UNL A   1      48.190  27.353  28.654  1.00  0.00     0.010 A 
ATOM     69  C   UNL A   1      49.141  27.530  26.027  1.00  0.00     0.020 A 
ATOM     70  C   UNL A   1      49.425  26.785  28.323  1.00  0.00     0.020 A 
ATOM     71  C   UNL A   1      49.885  26.866  27.006  1.00  0.00     0.054 A 
BRANCH  71  72
ATOM     72  S   UNL A   1      51.480  26.140  26.540  1.00  0.00     0.124 S 
ATOM     73  O   UNL A   1      52.412  26.906  27.363  1.00  0.00    -0.237 OA
ATOM     74  O   UNL A   1      51.316  24.738  26.919  1.00  0.00    -0.237 OA
ATOM     75  O   UNL A   1      51.568  26.388  25.103  1.00  0.00    -0.744 OA
ENDBRANCH  71  72
ENDBRANCH  52  66
BRANCH  53  76
ATOM     76  C   UNL A   1      38.595  31.886  30.366  1.00  0.00    -0.014 A 
ATOM     77  C   UNL A   1      37.883  32.758  29.525  1.00  0.00     0.010 A 
ATOM     78  C   UNL A   1      38.055  31.556  31.623  1.00  0.00     0.010 A 
ATOM     79  C   UNL A   1      36.669  33.313  29.944  1.00  0.00     0.020 A 
ATOM     80  C   UNL A   1      36.827  32.084  32.033  1.00  0.00     0.020 A 
ATOM     81  C   UNL A   1      36.149  32.972  31.195  1.00  0.00     0.054 A 
BRANCH  81  82
ATOM     82  S   UNL A   1      34.553  33.671  31.701  1.00  0.00     0.124 S 
ATOM     83  O   UNL A   1      33.887  33.864  30.417  1.00  0.00    -0.237 OA
ATOM     84  O   UNL A   1      34.002  32.619  32.551  1.00  0.00    -0.237 OA
ATOM     85  O   UNL A   1      34.926  34.897  32.404  1.00  0.00    -0.744 OA
ENDBRANCH  81  82
ENDBRANCH  53  76
BRANCH  65  86
ATOM     86  C   UNL A   1      45.128  34.331  30.324  1.00  0.00    -0.014 A 
ATOM     87  C   UNL A   1      45.616  34.568  31.621  1.00  0.00     0.010 A 
ATOM     88  C   UNL A   1      45.249  35.339  29.349  1.00  0.00     0.010 A 
ATOM     89  C   UNL A   1      46.184  35.802  31.945  1.00  0.00     0.020 A 
ATOM     90  C   UNL A   1      45.845  36.563  29.663  1.00  0.00     0.020 A 
ATOM     91  C   UNL A   1      46.296  36.792  30.963  1.00  0.00     0.054 A 
BRANCH  91  92
ATOM     92  S   UNL A   1      47.078  38.368  31.399  1.00  0.00     0.124 S 
ATOM     93  O   UNL A   1      48.229  38.395  30.501  1.00  0.00    -0.237 OA
ATOM     94  O   UNL A   1      46.028  39.340  31.105  1.00  0.00    -0.237 OA
ATOM     95  O   UNL A   1      47.398  38.216  32.817  1.00  0.00    -0.744 OA
ENDBRANCH  91  92
ENDBRANCH  65  86
ENDBRANCH  39  40
ENDBRANCH  31  34
ENDBRANCH  29  30
ENDBRANCH   1  29
TORSDOF 17
ENDMDL
