MODEL 1
REMARK VINA RESULT:     -13.7      0.000      0.000
REMARK SMILES CC[NH2+][C@@]1(C(=O)NCCCNC(=O)c2ccc(-c3c4nc(c(-c5ccc(S(=O)(=O)[O-])cc5)c5ccc([nH]5)c(-c5ccc(S(=O)(=O)[O-])cc5)c5nc(c(-c6ccc(S(=O)(=O)[O-])cc6)c6ccc3[nH]6)C=C5)C=C4)cc2)CC[C@H]([NH+]2CCC(C(C)(C)C)CC2)C1
REMARK SMILES IDX 9 1 8 2 7 3 5 4 6 5 4 7 74 8 87 9 75 10 76 11 3 12 2 15 1 16
REMARK SMILES IDX 77 17 78 18 86 19 79 21 85 22 80 23 81 24 82 25 83 26 84 27
REMARK SMILES IDX 10 28 11 29 12 30 13 32 14 33 15 34 73 35 16 36 72 37 17 38
REMARK SMILES IDX 18 39 19 40 66 41 20 42 71 43 65 44 67 45 21 46 70 47 64 48
REMARK SMILES IDX 63 49 22 51 52 52 33 53 51 54 34 55 37 56 50 57 68 58 35 59
REMARK SMILES IDX 36 60 49 62 69 63 38 64 23 65 24 66 32 67 25 68 31 69 26 70
REMARK SMILES IDX 27 71 28 72 29 73 30 74 53 75 54 76 62 77 55 78 61 79 56 80
REMARK SMILES IDX 57 81 58 82 59 83 60 84 39 85 40 86 48 87 41 88 47 89 42 90
REMARK SMILES IDX 43 91 44 92 45 93 46 94
REMARK H PARENT 7 6 3 13 3 14 77 20 11 31 67 50 37 61
REMARK Flexibility Score: inf
ROOT
ATOM      1  C   UNL A   1      39.144  22.219  26.277  1.00  0.00     0.042 C 
ENDROOT
BRANCH   1   2
ATOM      2  C   UNL A   1      37.185  21.593  25.803  1.00  0.00     0.118 C 
BRANCH   2   3
ATOM      3  N   UNL A   1      35.820  21.589  26.603  1.00  0.00    -0.351 N 
ATOM      4  C   UNL A   1      34.492  21.474  26.397  1.00  0.00     0.281 C 
ATOM      5  O   UNL A   1      33.802  21.628  27.418  1.00  0.00    -0.268 OA
ATOM      6  H   UNL A   1      35.997  21.710  27.564  1.00  0.00     0.163 HD
BRANCH   4   7
ATOM      7  C   UNL A   1      33.835  21.056  25.056  1.00  0.00     0.181 C 
ATOM      8  C   UNL A   1      34.633  21.791  23.971  1.00  0.00     0.085 C 
ATOM      9  C   UNL A   1      32.384  21.459  24.787  1.00  0.00     0.144 C 
ATOM     10  C   UNL A   1      33.755  22.980  23.567  1.00  0.00     0.072 C 
ATOM     11  C   UNL A   1      32.435  22.926  24.421  1.00  0.00     0.191 C 
BRANCH   7  12
ATOM     12  N   UNL A   1      34.030  19.577  24.906  1.00  0.00    -0.334 N 
ATOM     13  H   UNL A   1      34.083  19.354  23.912  1.00  0.00     0.347 HD
ATOM     14  H   UNL A   1      34.891  19.327  25.393  1.00  0.00     0.347 HD
BRANCH  12  15
ATOM     15  C   UNL A   1      32.934  18.803  25.506  1.00  0.00     0.257 C 
ATOM     16  C   UNL A   1      32.487  17.697  24.566  1.00  0.00     0.071 C 
ENDBRANCH  12  15
ENDBRANCH   7  12
BRANCH  11  17
ATOM     17  N   UNL A   1      32.157  23.859  25.556  1.00  0.00    -0.332 N 
ATOM     18  C   UNL A   1      30.487  24.546  25.358  1.00  0.00     0.262 C 
ATOM     19  C   UNL A   1      33.515  24.952  26.203  1.00  0.00     0.262 C 
ATOM     20  H   UNL A   1      32.163  23.299  26.409  1.00  0.00     0.348 HD
ATOM     21  C   UNL A   1      30.181  26.429  25.165  1.00  0.00     0.066 C 
ATOM     22  C   UNL A   1      33.333  26.937  26.168  1.00  0.00     0.066 C 
ATOM     23  C   UNL A   1      31.577  27.689  25.683  1.00  0.00     0.005 C 
BRANCH  23  24
ATOM     24  C   UNL A   1      31.593  28.930  24.660  1.00  0.00    -0.035 C 
ATOM     25  C   UNL A   1      31.627  30.225  25.504  1.00  0.00     0.011 C 
ATOM     26  C   UNL A   1      32.844  28.865  23.776  1.00  0.00     0.011 C 
ATOM     27  C   UNL A   1      30.373  29.092  23.710  1.00  0.00     0.011 C 
ENDBRANCH  23  24
ENDBRANCH  11  17
ENDBRANCH   4   7
ENDBRANCH   2   3
ENDBRANCH   1   2
BRANCH   1  28
ATOM     28  C   UNL A   1      39.947  23.571  26.917  1.00  0.00     0.118 C 
BRANCH  28  29
ATOM     29  N   UNL A   1      40.967  24.216  26.080  1.00  0.00    -0.352 N 
ATOM     30  C   UNL A   1      41.290  25.540  25.999  1.00  0.00     0.251 C 
ATOM     31  H   UNL A   1      41.487  23.614  25.501  1.00  0.00     0.163 HD
ATOM     32  O   UNL A   1      41.825  25.999  24.983  1.00  0.00    -0.269 OA
BRANCH  30  33
ATOM     33  C   UNL A   1      41.050  26.388  27.170  1.00  0.00     0.039 A 
ATOM     34  C   UNL A   1      40.097  26.032  28.124  1.00  0.00     0.014 A 
ATOM     35  C   UNL A   1      41.796  27.566  27.293  1.00  0.00     0.014 A 
ATOM     36  C   UNL A   1      39.911  26.861  29.228  1.00  0.00     0.010 A 
ATOM     37  C   UNL A   1      41.680  28.329  28.437  1.00  0.00     0.010 A 
ATOM     38  C   UNL A   1      40.712  28.004  29.394  1.00  0.00    -0.014 A 
BRANCH  38  39
ATOM     39  C   UNL A   1      40.528  28.920  30.538  1.00  0.00     0.031 A 
ATOM     40  C   UNL A   1      41.407  28.768  31.750  1.00  0.00     0.074 A 
ATOM     41  C   UNL A   1      39.528  29.817  30.507  1.00  0.00     0.049 A 
ATOM     42  N   UNL A   1      41.371  29.421  32.880  1.00  0.00    -0.248 NA
ATOM     43  C   UNL A   1      42.433  27.711  31.700  1.00  0.00     0.031 C 
ATOM     44  C   UNL A   1      38.587  29.999  29.398  1.00  0.00     0.029 A 
ATOM     45  N   UNL A   1      39.136  30.747  31.431  1.00  0.00    -0.354 N 
ATOM     46  C   UNL A   1      42.345  28.834  33.680  1.00  0.00     0.074 A 
ATOM     47  C   UNL A   1      42.900  27.728  32.937  1.00  0.00     0.031 C 
ATOM     48  C   UNL A   1      37.761  31.017  29.686  1.00  0.00     0.029 A 
ATOM     49  C   UNL A   1      38.084  31.526  31.014  1.00  0.00     0.049 A 
ATOM     50  H   UNL A   1      39.567  30.849  32.311  1.00  0.00     0.167 HD
ATOM     51  C   UNL A   1      42.760  29.205  34.915  1.00  0.00     0.031 A 
ATOM     52  C   UNL A   1      37.460  32.543  31.635  1.00  0.00     0.031 A 
ATOM     53  C   UNL A   1      42.202  30.322  35.627  1.00  0.00     0.049 A 
ATOM     54  C   UNL A   1      37.942  32.949  32.999  1.00  0.00     0.074 A 
ATOM     55  C   UNL A   1      42.576  30.840  36.852  1.00  0.00     0.029 A 
ATOM     56  N   UNL A   1      41.144  31.096  35.168  1.00  0.00    -0.354 N 
ATOM     57  N   UNL A   1      38.913  32.433  33.717  1.00  0.00    -0.248 NA
ATOM     58  C   UNL A   1      37.256  34.081  33.631  1.00  0.00     0.031 C 
ATOM     59  C   UNL A   1      41.706  31.892  37.160  1.00  0.00     0.029 A 
ATOM     60  C   UNL A   1      40.833  32.073  36.097  1.00  0.00     0.049 A 
ATOM     61  H   UNL A   1      40.682  30.968  34.308  1.00  0.00     0.167 HD
ATOM     62  C   UNL A   1      38.972  33.195  34.878  1.00  0.00     0.074 A 
ATOM     63  C   UNL A   1      37.948  34.215  34.756  1.00  0.00     0.031 C 
ATOM     64  C   UNL A   1      39.798  33.067  35.947  1.00  0.00     0.031 A 
BRANCH  51  65
ATOM     65  C   UNL A   1      43.851  28.384  35.554  1.00  0.00    -0.014 A 
ATOM     66  C   UNL A   1      45.212  28.678  35.339  1.00  0.00     0.010 A 
ATOM     67  C   UNL A   1      43.515  27.287  36.367  1.00  0.00     0.010 A 
ATOM     68  C   UNL A   1      46.210  27.851  35.861  1.00  0.00     0.020 A 
ATOM     69  C   UNL A   1      44.512  26.478  36.923  1.00  0.00     0.020 A 
ATOM     70  C   UNL A   1      45.853  26.750  36.643  1.00  0.00     0.054 A 
BRANCH  70  71
ATOM     71  S   UNL A   1      47.167  25.684  37.295  1.00  0.00     0.124 S 
ATOM     72  O   UNL A   1      46.407  24.531  37.775  1.00  0.00    -0.237 OA
ATOM     73  O   UNL A   1      47.996  25.441  36.116  1.00  0.00    -0.237 OA
ATOM     74  O   UNL A   1      47.791  26.496  38.335  1.00  0.00    -0.744 OA
ENDBRANCH  70  71
ENDBRANCH  51  65
BRANCH  52  75
ATOM     75  C   UNL A   1      36.365  33.269  30.939  1.00  0.00    -0.014 A 
ATOM     76  C   UNL A   1      35.104  33.398  31.548  1.00  0.00     0.010 A 
ATOM     77  C   UNL A   1      36.591  33.892  29.698  1.00  0.00     0.010 A 
ATOM     78  C   UNL A   1      34.090  34.136  30.930  1.00  0.00     0.020 A 
ATOM     79  C   UNL A   1      35.588  34.654  29.090  1.00  0.00     0.020 A 
ATOM     80  C   UNL A   1      34.342  34.766  29.708  1.00  0.00     0.054 A 
BRANCH  80  81
ATOM     81  S   UNL A   1      33.035  35.786  28.968  1.00  0.00     0.124 S 
ATOM     82  O   UNL A   1      32.282  36.215  30.143  1.00  0.00    -0.237 OA
ATOM     83  O   UNL A   1      33.800  36.829  28.289  1.00  0.00    -0.237 OA
ATOM     84  O   UNL A   1      32.338  34.858  28.081  1.00  0.00    -0.744 OA
ENDBRANCH  80  81
ENDBRANCH  52  75
BRANCH  64  85
ATOM     85  C   UNL A   1      39.642  34.071  37.056  1.00  0.00    -0.014 A 
ATOM     86  C   UNL A   1      38.905  33.769  38.214  1.00  0.00     0.010 A 
ATOM     87  C   UNL A   1      40.297  35.313  36.958  1.00  0.00     0.010 A 
ATOM     88  C   UNL A   1      38.798  34.707  39.243  1.00  0.00     0.020 A 
ATOM     89  C   UNL A   1      40.219  36.239  37.999  1.00  0.00     0.020 A 
ATOM     90  C   UNL A   1      39.459  35.935  39.129  1.00  0.00     0.054 A 
BRANCH  90  91
ATOM     91  S   UNL A   1      39.343  37.114  40.502  1.00  0.00     0.124 S 
ATOM     92  O   UNL A   1      38.624  38.227  39.885  1.00  0.00    -0.237 OA
ATOM     93  O   UNL A   1      38.597  36.362  41.507  1.00  0.00    -0.237 OA
ATOM     94  O   UNL A   1      40.738  37.386  40.843  1.00  0.00    -0.744 OA
ENDBRANCH  90  91
ENDBRANCH  64  85
ENDBRANCH  38  39
ENDBRANCH  30  33
ENDBRANCH  28  29
ENDBRANCH   1  28
TORSDOF 17
ENDMDL
MODEL 2
REMARK VINA RESULT:     -12.8      5.126      6.702
REMARK SMILES CC[NH2+][C@@]1(C(=O)NCCCNC(=O)c2ccc(-c3c4nc(c(-c5ccc(S(=O)(=O)[O-])cc5)c5ccc([nH]5)c(-c5ccc(S(=O)(=O)[O-])cc5)c5nc(c(-c6ccc(S(=O)(=O)[O-])cc6)c6ccc3[nH]6)C=C5)C=C4)cc2)CC[C@H]([NH+]2CCC(C(C)(C)C)CC2)C1
REMARK SMILES IDX 9 1 8 2 7 3 5 4 6 5 4 7 74 8 87 9 75 10 76 11 3 12 2 15 1 16
REMARK SMILES IDX 77 17 78 18 86 19 79 21 85 22 80 23 81 24 82 25 83 26 84 27
REMARK SMILES IDX 10 28 11 29 12 30 13 32 14 33 15 34 73 35 16 36 72 37 17 38
REMARK SMILES IDX 18 39 19 40 66 41 20 42 71 43 65 44 67 45 21 46 70 47 64 48
REMARK SMILES IDX 63 49 22 51 52 52 33 53 51 54 34 55 37 56 50 57 68 58 35 59
REMARK SMILES IDX 36 60 49 62 69 63 38 64 23 65 24 66 32 67 25 68 31 69 26 70
REMARK SMILES IDX 27 71 28 72 29 73 30 74 53 75 54 76 62 77 55 78 61 79 56 80
REMARK SMILES IDX 57 81 58 82 59 83 60 84 39 85 40 86 48 87 41 88 47 89 42 90
REMARK SMILES IDX 43 91 44 92 45 93 46 94
REMARK H PARENT 7 6 3 13 3 14 77 20 11 31 67 50 37 61
REMARK Flexibility Score: inf
ROOT
ATOM      1  C   UNL A   1      36.175  23.132  24.500  1.00  0.00     0.042 C 
ENDROOT
BRANCH   1   2
ATOM      2  C   UNL A   1      34.749  24.222  23.390  1.00  0.00     0.118 C 
BRANCH   2   3
ATOM      3  N   UNL A   1      33.187  24.076  23.184  1.00  0.00    -0.351 N 
ATOM      4  C   UNL A   1      32.055  23.889  23.893  1.00  0.00     0.281 C 
ATOM      5  O   UNL A   1      31.034  23.760  23.198  1.00  0.00    -0.268 OA
ATOM      6  H   UNL A   1      32.971  24.143  22.225  1.00  0.00     0.163 HD
BRANCH   4   7
ATOM      7  C   UNL A   1      31.956  23.955  25.439  1.00  0.00     0.181 C 
ATOM      8  C   UNL A   1      30.456  24.067  25.742  1.00  0.00     0.085 C 
ATOM      9  C   UNL A   1      32.573  25.150  26.168  1.00  0.00     0.144 C 
ATOM     10  C   UNL A   1      30.224  25.546  26.066  1.00  0.00     0.072 C 
ATOM     11  C   UNL A   1      31.605  26.294  25.956  1.00  0.00     0.191 C 
BRANCH   7  12
ATOM     12  N   UNL A   1      32.479  22.657  25.975  1.00  0.00    -0.334 N 
ATOM     13  H   UNL A   1      31.832  21.912  25.718  1.00  0.00     0.347 HD
ATOM     14  H   UNL A   1      33.405  22.505  25.571  1.00  0.00     0.347 HD
BRANCH  12  15
ATOM     15  C   UNL A   1      32.627  22.671  27.437  1.00  0.00     0.257 C 
ATOM     16  C   UNL A   1      34.015  22.198  27.836  1.00  0.00     0.071 C 
ENDBRANCH  12  15
ENDBRANCH   7  12
BRANCH  11  17
ATOM     17  N   UNL A   1      31.955  27.202  24.821  1.00  0.00    -0.332 N 
ATOM     18  C   UNL A   1      31.830  28.924  25.386  1.00  0.00     0.262 C 
ATOM     19  C   UNL A   1      31.409  26.773  23.097  1.00  0.00     0.262 C 
ATOM     20  H   UNL A   1      32.931  27.022  24.588  1.00  0.00     0.348 HD
ATOM     21  C   UNL A   1      30.616  30.170  24.579  1.00  0.00     0.066 C 
ATOM     22  C   UNL A   1      30.219  27.995  22.066  1.00  0.00     0.066 C 
ATOM     23  C   UNL A   1      29.863  29.780  22.822  1.00  0.00     0.005 C 
BRANCH  23  24
ATOM     24  C   UNL A   1      28.336  30.285  22.763  1.00  0.00    -0.035 C 
ATOM     25  C   UNL A   1      28.047  30.713  21.306  1.00  0.00     0.011 C 
ATOM     26  C   UNL A   1      27.391  29.145  23.157  1.00  0.00     0.011 C 
ATOM     27  C   UNL A   1      27.954  31.515  23.635  1.00  0.00     0.011 C 
ENDBRANCH  23  24
ENDBRANCH  11  17
ENDBRANCH   4   7
ENDBRANCH   2   3
ENDBRANCH   1   2
BRANCH   1  28
ATOM     28  C   UNL A   1      37.097  23.283  25.917  1.00  0.00     0.118 C 
BRANCH  28  29
ATOM     29  N   UNL A   1      38.023  22.191  26.246  1.00  0.00    -0.352 N 
ATOM     30  C   UNL A   1      39.377  22.245  26.419  1.00  0.00     0.251 C 
ATOM     31  H   UNL A   1      37.614  21.303  26.356  1.00  0.00     0.163 HD
ATOM     32  O   UNL A   1      40.076  21.239  26.254  1.00  0.00    -0.269 OA
BRANCH  30  33
ATOM     33  C   UNL A   1      39.971  23.507  26.870  1.00  0.00     0.039 A 
ATOM     34  C   UNL A   1      40.658  23.579  28.081  1.00  0.00     0.014 A 
ATOM     35  C   UNL A   1      39.816  24.634  26.055  1.00  0.00     0.014 A 
ATOM     36  C   UNL A   1      41.219  24.795  28.464  1.00  0.00     0.010 A 
ATOM     37  C   UNL A   1      40.458  25.809  26.389  1.00  0.00     0.010 A 
ATOM     38  C   UNL A   1      41.132  25.910  27.612  1.00  0.00    -0.014 A 
BRANCH  38  39
ATOM     39  C   UNL A   1      41.692  27.222  27.994  1.00  0.00     0.031 A 
ATOM     40  C   UNL A   1      43.168  27.465  27.837  1.00  0.00     0.074 A 
ATOM     41  C   UNL A   1      40.885  28.144  28.548  1.00  0.00     0.049 A 
ATOM     42  N   UNL A   1      43.870  28.516  28.168  1.00  0.00    -0.248 NA
ATOM     43  C   UNL A   1      43.968  26.362  27.274  1.00  0.00     0.031 C 
ATOM     44  C   UNL A   1      39.450  27.977  28.793  1.00  0.00     0.029 A 
ATOM     45  N   UNL A   1      41.156  29.406  29.003  1.00  0.00    -0.354 N 
ATOM     46  C   UNL A   1      45.190  28.187  27.882  1.00  0.00     0.074 A 
ATOM     47  C   UNL A   1      45.201  26.818  27.423  1.00  0.00     0.031 C 
ATOM     48  C   UNL A   1      38.957  29.116  29.305  1.00  0.00     0.029 A 
ATOM     49  C   UNL A   1      40.047  30.072  29.466  1.00  0.00     0.049 A 
ATOM     50  H   UNL A   1      42.059  29.799  29.000  1.00  0.00     0.167 HD
ATOM     51  C   UNL A   1      46.292  28.969  27.966  1.00  0.00     0.031 A 
ATOM     52  C   UNL A   1      39.928  31.319  29.956  1.00  0.00     0.031 A 
ATOM     53  C   UNL A   1      46.252  30.336  28.410  1.00  0.00     0.049 A 
ATOM     54  C   UNL A   1      41.159  32.177  30.030  1.00  0.00     0.074 A 
ATOM     55  C   UNL A   1      47.284  31.252  28.480  1.00  0.00     0.029 A 
ATOM     56  N   UNL A   1      45.108  30.981  28.862  1.00  0.00    -0.354 N 
ATOM     57  N   UNL A   1      42.392  31.880  29.688  1.00  0.00    -0.248 NA
ATOM     58  C   UNL A   1      40.983  33.540  30.542  1.00  0.00     0.031 C 
ATOM     59  C   UNL A   1      46.774  32.435  29.027  1.00  0.00     0.029 A 
ATOM     60  C   UNL A   1      45.411  32.277  29.236  1.00  0.00     0.049 A 
ATOM     61  H   UNL A   1      44.212  30.574  28.909  1.00  0.00     0.167 HD
ATOM     62  C   UNL A   1      43.137  33.030  29.920  1.00  0.00     0.074 A 
ATOM     63  C   UNL A   1      42.211  34.030  30.417  1.00  0.00     0.031 C 
ATOM     64  C   UNL A   1      44.464  33.244  29.737  1.00  0.00     0.031 A 
BRANCH  51  65
ATOM     65  C   UNL A   1      47.612  28.349  27.582  1.00  0.00    -0.014 A 
ATOM     66  C   UNL A   1      48.072  28.370  26.250  1.00  0.00     0.010 A 
ATOM     67  C   UNL A   1      48.398  27.716  28.561  1.00  0.00     0.010 A 
ATOM     68  C   UNL A   1      49.250  27.709  25.894  1.00  0.00     0.020 A 
ATOM     69  C   UNL A   1      49.598  27.085  28.215  1.00  0.00     0.020 A 
ATOM     70  C   UNL A   1      50.002  27.062  26.878  1.00  0.00     0.054 A 
BRANCH  70  71
ATOM     71  S   UNL A   1      51.518  26.198  26.386  1.00  0.00     0.124 S 
ATOM     72  O   UNL A   1      51.490  26.346  24.932  1.00  0.00    -0.237 OA
ATOM     73  O   UNL A   1      52.558  26.960  27.073  1.00  0.00    -0.237 OA
ATOM     74  O   UNL A   1      51.319  24.838  26.878  1.00  0.00    -0.744 OA
ENDBRANCH  70  71
ENDBRANCH  51  65
BRANCH  52  75
ATOM     75  C   UNL A   1      38.588  31.830  30.348  1.00  0.00    -0.014 A 
ATOM     76  C   UNL A   1      38.182  31.790  31.694  1.00  0.00     0.010 A 
ATOM     77  C   UNL A   1      37.737  32.420  29.396  1.00  0.00     0.010 A 
ATOM     78  C   UNL A   1      36.952  32.330  32.080  1.00  0.00     0.020 A 
ATOM     79  C   UNL A   1      36.517  32.986  29.782  1.00  0.00     0.020 A 
ATOM     80  C   UNL A   1      36.131  32.932  31.122  1.00  0.00     0.054 A 
BRANCH  80  81
ATOM     81  S   UNL A   1      34.577  33.697  31.664  1.00  0.00     0.124 S 
ATOM     82  O   UNL A   1      33.907  33.958  30.393  1.00  0.00    -0.237 OA
ATOM     83  O   UNL A   1      33.983  32.649  32.490  1.00  0.00    -0.237 OA
ATOM     84  O   UNL A   1      35.016  34.883  32.396  1.00  0.00    -0.744 OA
ENDBRANCH  80  81
ENDBRANCH  52  75
BRANCH  64  85
ATOM     85  C   UNL A   1      44.986  34.618  30.053  1.00  0.00    -0.014 A 
ATOM     86  C   UNL A   1      45.095  35.604  29.057  1.00  0.00     0.010 A 
ATOM     87  C   UNL A   1      45.312  34.942  31.383  1.00  0.00     0.010 A 
ATOM     88  C   UNL A   1      45.554  36.882  29.380  1.00  0.00     0.020 A 
ATOM     89  C   UNL A   1      45.741  36.228  31.715  1.00  0.00     0.020 A 
ATOM     90  C   UNL A   1      45.872  37.186  30.709  1.00  0.00     0.054 A 
BRANCH  90  91
ATOM     91  S   UNL A   1      46.420  38.868  31.108  1.00  0.00     0.124 S 
ATOM     92  O   UNL A   1      45.261  39.665  30.715  1.00  0.00    -0.237 OA
ATOM     93  O   UNL A   1      46.671  38.788  32.545  1.00  0.00    -0.237 OA
ATOM     94  O   UNL A   1      47.612  39.049  30.282  1.00  0.00    -0.744 OA
ENDBRANCH  90  91
ENDBRANCH  64  85
ENDBRANCH  38  39
ENDBRANCH  30  33
ENDBRANCH  28  29
ENDBRANCH   1  28
TORSDOF 17
ENDMDL
MODEL 3
REMARK VINA RESULT:     -12.8      6.482     10.478
REMARK SMILES CC[NH2+][C@@]1(C(=O)NCCCNC(=O)c2ccc(-c3c4nc(c(-c5ccc(S(=O)(=O)[O-])cc5)c5ccc([nH]5)c(-c5ccc(S(=O)(=O)[O-])cc5)c5nc(c(-c6ccc(S(=O)(=O)[O-])cc6)c6ccc3[nH]6)C=C5)C=C4)cc2)CC[C@H]([NH+]2CCC(C(C)(C)C)CC2)C1
REMARK SMILES IDX 9 1 8 2 7 3 5 4 6 5 4 7 74 8 87 9 75 10 76 11 3 12 2 15 1 16
REMARK SMILES IDX 77 17 78 18 86 19 79 21 85 22 80 23 81 24 82 25 83 26 84 27
REMARK SMILES IDX 10 28 11 29 12 30 13 32 14 33 15 34 73 35 16 36 72 37 17 38
REMARK SMILES IDX 18 39 19 40 66 41 20 42 71 43 65 44 67 45 21 46 70 47 64 48
REMARK SMILES IDX 63 49 22 51 52 52 33 53 51 54 34 55 37 56 50 57 68 58 35 59
REMARK SMILES IDX 36 60 49 62 69 63 38 64 23 65 24 66 32 67 25 68 31 69 26 70
REMARK SMILES IDX 27 71 28 72 29 73 30 74 53 75 54 76 62 77 55 78 61 79 56 80
REMARK SMILES IDX 57 81 58 82 59 83 60 84 39 85 40 86 48 87 41 88 47 89 42 90
REMARK SMILES IDX 43 91 44 92 45 93 46 94
REMARK H PARENT 7 6 3 13 3 14 77 20 11 31 67 50 37 61
REMARK Flexibility Score: inf
ROOT
ATOM      1  C   UNL A   1      39.356  20.695  25.738  1.00  0.00     0.042 C 
ENDROOT
BRANCH   1   2
ATOM      2  C   UNL A   1      37.676  21.969  25.671  1.00  0.00     0.118 C 
BRANCH   2   3
ATOM      3  N   UNL A   1      36.313  22.017  26.474  1.00  0.00    -0.351 N 
ATOM      4  C   UNL A   1      34.990  21.822  26.296  1.00  0.00     0.281 C 
ATOM      5  O   UNL A   1      34.297  22.084  27.292  1.00  0.00    -0.268 OA
ATOM      6  H   UNL A   1      36.487  22.273  27.409  1.00  0.00     0.163 HD
BRANCH   4   7
ATOM      7  C   UNL A   1      34.349  21.201  25.028  1.00  0.00     0.181 C 
ATOM      8  C   UNL A   1      34.976  21.957  23.849  1.00  0.00     0.085 C 
ATOM      9  C   UNL A   1      32.842  21.359  24.810  1.00  0.00     0.144 C 
ATOM     10  C   UNL A   1      33.909  22.963  23.406  1.00  0.00     0.072 C 
ATOM     11  C   UNL A   1      32.651  22.782  24.334  1.00  0.00     0.191 C 
BRANCH   7  12
ATOM     12  N   UNL A   1      34.762  19.762  24.978  1.00  0.00    -0.334 N 
ATOM     13  H   UNL A   1      35.646  19.692  24.474  1.00  0.00     0.347 HD
ATOM     14  H   UNL A   1      34.852  19.431  25.940  1.00  0.00     0.347 HD
BRANCH  12  15
ATOM     15  C   UNL A   1      33.767  18.914  24.305  1.00  0.00     0.257 C 
ATOM     16  C   UNL A   1      34.304  17.505  24.124  1.00  0.00     0.071 C 
ENDBRANCH  12  15
ENDBRANCH   7  12
BRANCH  11  17
ATOM     17  N   UNL A   1      32.282  23.753  25.410  1.00  0.00    -0.332 N 
ATOM     18  C   UNL A   1      30.539  24.222  25.206  1.00  0.00     0.262 C 
ATOM     19  C   UNL A   1      33.510  25.041  25.947  1.00  0.00     0.262 C 
ATOM     20  H   UNL A   1      32.369  23.258  26.298  1.00  0.00     0.348 HD
ATOM     21  C   UNL A   1      30.007  26.037  24.894  1.00  0.00     0.066 C 
ATOM     22  C   UNL A   1      33.092  26.983  25.784  1.00  0.00     0.066 C 
ATOM     23  C   UNL A   1      31.251  27.487  25.292  1.00  0.00     0.005 C 
BRANCH  23  24
ATOM     24  C   UNL A   1      31.102  28.646  24.187  1.00  0.00    -0.035 C 
ATOM     25  C   UNL A   1      31.269  30.001  24.913  1.00  0.00     0.011 C 
ATOM     26  C   UNL A   1      32.196  28.500  23.123  1.00  0.00     0.011 C 
ATOM     27  C   UNL A   1      29.746  28.750  23.434  1.00  0.00     0.011 C 
ENDBRANCH  23  24
ENDBRANCH  11  17
ENDBRANCH   4   7
ENDBRANCH   2   3
ENDBRANCH   1   2
BRANCH   1  28
ATOM     28  C   UNL A   1      40.721  20.408  26.706  1.00  0.00     0.118 C 
BRANCH  28  29
ATOM     29  N   UNL A   1      41.827  19.645  26.114  1.00  0.00    -0.352 N 
ATOM     30  C   UNL A   1      42.931  20.114  25.460  1.00  0.00     0.251 C 
ATOM     31  H   UNL A   1      41.766  18.667  26.199  1.00  0.00     0.163 HD
ATOM     32  O   UNL A   1      43.535  19.401  24.649  1.00  0.00    -0.269 OA
BRANCH  30  33
ATOM     33  C   UNL A   1      43.420  21.455  25.792  1.00  0.00     0.039 A 
ATOM     34  C   UNL A   1      43.058  22.557  25.019  1.00  0.00     0.014 A 
ATOM     35  C   UNL A   1      44.267  21.590  26.898  1.00  0.00     0.014 A 
ATOM     36  C   UNL A   1      43.534  23.815  25.380  1.00  0.00     0.010 A 
ATOM     37  C   UNL A   1      44.653  22.849  27.310  1.00  0.00     0.010 A 
ATOM     38  C   UNL A   1      44.322  23.966  26.534  1.00  0.00    -0.014 A 
BRANCH  38  39
ATOM     39  C   UNL A   1      44.867  25.280  26.934  1.00  0.00     0.031 A 
ATOM     40  C   UNL A   1      44.036  26.185  27.802  1.00  0.00     0.074 A 
ATOM     41  C   UNL A   1      46.058  25.672  26.451  1.00  0.00     0.049 A 
ATOM     42  N   UNL A   1      44.296  27.398  28.214  1.00  0.00    -0.248 NA
ATOM     43  C   UNL A   1      42.719  25.678  28.226  1.00  0.00     0.031 C 
ATOM     44  C   UNL A   1      46.910  24.884  25.556  1.00  0.00     0.029 A 
ATOM     45  N   UNL A   1      46.761  26.830  26.646  1.00  0.00    -0.354 N 
ATOM     46  C   UNL A   1      43.166  27.803  28.915  1.00  0.00     0.074 A 
ATOM     47  C   UNL A   1      42.193  26.742  28.810  1.00  0.00     0.031 C 
ATOM     48  C   UNL A   1      48.045  25.561  25.323  1.00  0.00     0.029 A 
ATOM     49  C   UNL A   1      47.980  26.845  26.013  1.00  0.00     0.049 A 
ATOM     50  H   UNL A   1      46.425  27.580  27.188  1.00  0.00     0.167 HD
ATOM     51  C   UNL A   1      42.970  28.948  29.612  1.00  0.00     0.031 A 
ATOM     52  C   UNL A   1      48.938  27.789  26.001  1.00  0.00     0.031 A 
ATOM     53  C   UNL A   1      43.963  29.982  29.716  1.00  0.00     0.049 A 
ATOM     54  C   UNL A   1      48.708  29.048  26.790  1.00  0.00     0.074 A 
ATOM     55  C   UNL A   1      43.914  31.157  30.441  1.00  0.00     0.029 A 
ATOM     56  N   UNL A   1      45.192  29.958  29.069  1.00  0.00    -0.354 N 
ATOM     57  N   UNL A   1      47.665  29.389  27.510  1.00  0.00    -0.248 NA
ATOM     58  C   UNL A   1      49.788  30.040  26.777  1.00  0.00     0.031 C 
ATOM     59  C   UNL A   1      45.091  31.871  30.187  1.00  0.00     0.029 A 
ATOM     60  C   UNL A   1      45.902  31.110  29.357  1.00  0.00     0.049 A 
ATOM     61  H   UNL A   1      45.511  29.228  28.490  1.00  0.00     0.167 HD
ATOM     62  C   UNL A   1      47.973  30.629  28.058  1.00  0.00     0.074 A 
ATOM     63  C   UNL A   1      49.306  30.966  27.596  1.00  0.00     0.031 C 
ATOM     64  C   UNL A   1      47.225  31.417  28.871  1.00  0.00     0.031 A 
BRANCH  51  65
ATOM     65  C   UNL A   1      41.636  29.126  30.290  1.00  0.00    -0.014 A 
ATOM     66  C   UNL A   1      41.397  28.621  31.583  1.00  0.00     0.010 A 
ATOM     67  C   UNL A   1      40.593  29.789  29.619  1.00  0.00     0.010 A 
ATOM     68  C   UNL A   1      40.127  28.710  32.159  1.00  0.00     0.020 A 
ATOM     69  C   UNL A   1      39.330  29.915  30.207  1.00  0.00     0.020 A 
ATOM     70  C   UNL A   1      39.099  29.349  31.463  1.00  0.00     0.054 A 
BRANCH  70  71
ATOM     71  S   UNL A   1      37.456  29.437  32.226  1.00  0.00     0.124 S 
ATOM     72  O   UNL A   1      36.578  29.306  31.065  1.00  0.00    -0.237 OA
ATOM     73  O   UNL A   1      37.464  28.295  33.137  1.00  0.00    -0.237 OA
ATOM     74  O   UNL A   1      37.442  30.747  32.873  1.00  0.00    -0.744 OA
ENDBRANCH  70  71
ENDBRANCH  51  65
BRANCH  52  75
ATOM     75  C   UNL A   1      50.207  27.539  25.269  1.00  0.00    -0.014 A 
ATOM     76  C   UNL A   1      50.316  27.876  23.908  1.00  0.00     0.010 A 
ATOM     77  C   UNL A   1      51.335  27.029  25.939  1.00  0.00     0.010 A 
ATOM     78  C   UNL A   1      51.527  27.707  23.230  1.00  0.00     0.020 A 
ATOM     79  C   UNL A   1      52.555  26.884  25.271  1.00  0.00     0.020 A 
ATOM     80  C   UNL A   1      52.642  27.220  23.919  1.00  0.00     0.054 A 
BRANCH  80  81
ATOM     81  S   UNL A   1      54.222  27.087  23.037  1.00  0.00     0.124 S 
ATOM     82  O   UNL A   1      55.029  26.309  23.972  1.00  0.00    -0.237 OA
ATOM     83  O   UNL A   1      53.837  26.399  21.807  1.00  0.00    -0.237 OA
ATOM     84  O   UNL A   1      54.633  28.478  22.860  1.00  0.00    -0.744 OA
ENDBRANCH  80  81
ENDBRANCH  52  75
BRANCH  64  85
ATOM     85  C   UNL A   1      47.845  32.708  29.331  1.00  0.00    -0.014 A 
ATOM     86  C   UNL A   1      47.505  33.934  28.733  1.00  0.00     0.010 A 
ATOM     87  C   UNL A   1      48.736  32.695  30.421  1.00  0.00     0.010 A 
ATOM     88  C   UNL A   1      48.072  35.123  29.197  1.00  0.00     0.020 A 
ATOM     89  C   UNL A   1      49.278  33.884  30.907  1.00  0.00     0.020 A 
ATOM     90  C   UNL A   1      48.953  35.090  30.283  1.00  0.00     0.054 A 
BRANCH  90  91
ATOM     91  S   UNL A   1      49.636  36.654  30.896  1.00  0.00     0.124 S 
ATOM     92  O   UNL A   1      50.814  36.823  30.048  1.00  0.00    -0.237 OA
ATOM     93  O   UNL A   1      48.546  37.595  30.655  1.00  0.00    -0.237 OA
ATOM     94  O   UNL A   1      49.916  36.381  32.304  1.00  0.00    -0.744 OA
ENDBRANCH  90  91
ENDBRANCH  64  85
ENDBRANCH  38  39
ENDBRANCH  30  33
ENDBRANCH  28  29
ENDBRANCH   1  28
TORSDOF 17
ENDMDL
