MODEL 1
REMARK VINA RESULT:     -11.0      0.000      0.000
REMARK SMILES Cc1cc2occ(CC(=O)NCCC(=O)NCCCNC(=O)c3ccc(-c4c5nc(c(-c6ccc(S(=O)(=O)[O-])cc6)c6ccc([nH]6)c(-c6ccc(S(=O)(=O)[O-])cc6)c6nc(c(-c7ccc(S(=O)(=O)[O-])cc7)c7ccc4[nH]7)C=C6)C=C5)cc3)c2cc1C
REMARK SMILES IDX 17 1 16 2 14 3 15 4 13 6 12 7 11 8 9 9 10 10 8 12 7 13 1 14
REMARK SMILES IDX 2 15 3 16 85 17 4 18 84 19 86 20 5 21 83 22 6 23 18 24 19 25
REMARK SMILES IDX 20 26 21 27 22 29 23 30 24 31 82 32 25 33 81 34 26 35 27 36
REMARK SMILES IDX 28 37 75 38 29 39 80 40 74 41 76 42 30 43 79 44 73 45 72 46
REMARK SMILES IDX 31 48 61 49 42 50 60 51 43 52 46 53 59 54 77 55 44 56 45 57
REMARK SMILES IDX 58 59 78 60 47 61 32 62 33 63 41 64 34 65 40 66 35 67 36 68
REMARK SMILES IDX 37 69 38 70 39 71 62 72 63 73 71 74 64 75 70 76 65 77 66 78
REMARK SMILES IDX 67 79 68 80 69 81 48 82 49 83 57 84 50 85 56 86 51 87 52 88
REMARK SMILES IDX 53 89 54 90 55 91
REMARK H PARENT 16 5 11 11 20 28 76 47 46 58
REMARK Flexibility Score: inf
ROOT
ATOM      1  C   UNL A   1      33.455  26.657  24.969  1.00  0.00     0.117 C 
ENDROOT
BRANCH   1   2
ATOM      2  N   UNL A   1      33.223  26.630  23.530  1.00  0.00    -0.356 N 
ATOM      3  C   UNL A   1      32.074  26.453  22.821  1.00  0.00     0.221 C 
ATOM      4  O   UNL A   1      32.146  26.416  21.590  1.00  0.00    -0.275 OA
ATOM      5  H   UNL A   1      34.029  26.764  22.981  1.00  0.00     0.163 HD
BRANCH   3   6
ATOM      6  C   UNL A   1      30.742  26.298  23.519  1.00  0.00     0.121 C 
BRANCH   6   7
ATOM      7  C   UNL A   1      30.468  24.850  23.915  1.00  0.00     0.125 C 
BRANCH   7   8
ATOM      8  N   UNL A   1      29.885  24.742  25.239  1.00  0.00    -0.355 N 
ATOM      9  C   UNL A   1      30.418  24.251  26.395  1.00  0.00     0.224 C 
ATOM     10  O   UNL A   1      29.637  23.936  27.297  1.00  0.00    -0.275 OA
ATOM     11  H   UNL A   1      28.963  25.074  25.315  1.00  0.00     0.163 HD
BRANCH   9  12
ATOM     12  C   UNL A   1      31.917  24.197  26.604  1.00  0.00     0.139 C 
BRANCH  12  13
ATOM     13  C   UNL A   1      32.595  22.967  26.112  1.00  0.00     0.008 A 
ATOM     14  C   UNL A   1      37.769  20.831  24.951  1.00  0.00     0.045 C 
ATOM     15  C   UNL A   1      36.473  21.507  25.313  1.00  0.00    -0.044 A 
ATOM     16  C   UNL A   1      35.281  20.787  25.121  1.00  0.00     0.051 A 
ATOM     17  C   UNL A   1      36.430  22.827  25.814  1.00  0.00    -0.047 A 
ATOM     18  C   UNL A   1      34.086  21.426  25.434  1.00  0.00     0.134 A 
ATOM     19  C   UNL A   1      35.189  23.432  26.133  1.00  0.00     0.016 A 
ATOM     20  C   UNL A   1      37.671  23.659  26.020  1.00  0.00     0.044 C 
ATOM     21  O   UNL A   1      32.850  20.880  25.285  1.00  0.00    -0.464 OA
ATOM     22  C   UNL A   1      33.992  22.716  25.934  1.00  0.00     0.024 A 
ATOM     23  C   UNL A   1      31.958  21.821  25.671  1.00  0.00     0.200 A 
ENDBRANCH  12  13
ENDBRANCH   9  12
ENDBRANCH   7   8
ENDBRANCH   6   7
ENDBRANCH   3   6
ENDBRANCH   1   2
BRANCH   1  24
ATOM     24  C   UNL A   1      33.830  28.053  25.460  1.00  0.00     0.042 C 
BRANCH  24  25
ATOM     25  C   UNL A   1      33.721  28.242  26.968  1.00  0.00     0.118 C 
BRANCH  25  26
ATOM     26  N   UNL A   1      33.587  29.639  27.346  1.00  0.00    -0.352 N 
ATOM     27  C   UNL A   1      34.446  30.451  28.043  1.00  0.00     0.251 C 
ATOM     28  H   UNL A   1      32.749  30.070  27.057  1.00  0.00     0.163 HD
ATOM     29  O   UNL A   1      34.041  31.546  28.439  1.00  0.00    -0.269 OA
BRANCH  27  30
ATOM     30  C   UNL A   1      35.837  30.033  28.342  1.00  0.00     0.039 A 
ATOM     31  C   UNL A   1      36.790  30.078  27.318  1.00  0.00     0.014 A 
ATOM     32  C   UNL A   1      36.206  29.547  29.600  1.00  0.00     0.014 A 
ATOM     33  C   UNL A   1      38.111  29.690  27.569  1.00  0.00     0.010 A 
ATOM     34  C   UNL A   1      37.541  29.244  29.872  1.00  0.00     0.010 A 
ATOM     35  C   UNL A   1      38.507  29.296  28.857  1.00  0.00    -0.014 A 
BRANCH  35  36
ATOM     36  C   UNL A   1      39.914  28.913  29.155  1.00  0.00     0.031 A 
ATOM     37  C   UNL A   1      40.850  29.903  29.800  1.00  0.00     0.074 A 
ATOM     38  C   UNL A   1      40.372  27.696  28.799  1.00  0.00     0.049 A 
ATOM     39  N   UNL A   1      42.124  29.777  30.075  1.00  0.00    -0.248 NA
ATOM     40  C   UNL A   1      40.288  31.216  30.157  1.00  0.00     0.031 C 
ATOM     41  C   UNL A   1      39.586  26.655  28.133  1.00  0.00     0.029 A 
ATOM     42  N   UNL A   1      41.616  27.131  28.940  1.00  0.00    -0.354 N 
ATOM     43  C   UNL A   1      42.519  30.999  30.610  1.00  0.00     0.074 A 
ATOM     44  C   UNL A   1      41.363  31.866  30.579  1.00  0.00     0.031 C 
ATOM     45  C   UNL A   1      40.357  25.570  27.949  1.00  0.00     0.029 A 
ATOM     46  C   UNL A   1      41.701  25.850  28.445  1.00  0.00     0.049 A 
ATOM     47  H   UNL A   1      42.376  27.598  29.356  1.00  0.00     0.167 HD
ATOM     48  C   UNL A   1      43.729  31.364  31.101  1.00  0.00     0.031 A 
ATOM     49  C   UNL A   1      42.742  24.996  28.388  1.00  0.00     0.031 A 
ATOM     50  C   UNL A   1      44.875  30.495  31.156  1.00  0.00     0.049 A 
ATOM     51  C   UNL A   1      44.072  25.418  28.948  1.00  0.00     0.074 A 
ATOM     52  C   UNL A   1      46.125  30.754  31.689  1.00  0.00     0.029 A 
ATOM     53  N   UNL A   1      44.910  29.200  30.662  1.00  0.00    -0.354 N 
ATOM     54  N   UNL A   1      44.409  26.558  29.501  1.00  0.00    -0.248 NA
ATOM     55  C   UNL A   1      45.160  24.431  28.888  1.00  0.00     0.031 C 
ATOM     56  C   UNL A   1      46.930  29.628  31.480  1.00  0.00     0.029 A 
ATOM     57  C   UNL A   1      46.166  28.652  30.863  1.00  0.00     0.049 A 
ATOM     58  H   UNL A   1      44.154  28.738  30.233  1.00  0.00     0.167 HD
ATOM     59  C   UNL A   1      45.741  26.418  29.876  1.00  0.00     0.074 A 
ATOM     60  C   UNL A   1      46.144  25.078  29.499  1.00  0.00     0.031 C 
ATOM     61  C   UNL A   1      46.554  27.318  30.482  1.00  0.00     0.031 A 
BRANCH  48  62
ATOM     62  C   UNL A   1      43.873  32.773  31.614  1.00  0.00    -0.014 A 
ATOM     63  C   UNL A   1      44.286  33.817  30.768  1.00  0.00     0.010 A 
ATOM     64  C   UNL A   1      43.569  33.062  32.957  1.00  0.00     0.010 A 
ATOM     65  C   UNL A   1      44.443  35.114  31.265  1.00  0.00     0.020 A 
ATOM     66  C   UNL A   1      43.696  34.364  33.453  1.00  0.00     0.020 A 
ATOM     67  C   UNL A   1      44.155  35.377  32.608  1.00  0.00     0.054 A 
BRANCH  67  68
ATOM     68  S   UNL A   1      44.363  37.069  33.228  1.00  0.00     0.124 S 
ATOM     69  O   UNL A   1      45.601  36.956  33.995  1.00  0.00    -0.237 OA
ATOM     70  O   UNL A   1      44.455  37.854  32.001  1.00  0.00    -0.237 OA
ATOM     71  O   UNL A   1      43.157  37.297  34.021  1.00  0.00    -0.744 OA
ENDBRANCH  67  68
ENDBRANCH  48  62
BRANCH  49  72
ATOM     72  C   UNL A   1      42.557  23.644  27.795  1.00  0.00    -0.014 A 
ATOM     73  C   UNL A   1      43.065  23.353  26.517  1.00  0.00     0.010 A 
ATOM     74  C   UNL A   1      41.896  22.632  28.515  1.00  0.00     0.010 A 
ATOM     75  C   UNL A   1      42.906  22.077  25.965  1.00  0.00     0.020 A 
ATOM     76  C   UNL A   1      41.757  21.350  27.978  1.00  0.00     0.020 A 
ATOM     77  C   UNL A   1      42.256  21.083  26.701  1.00  0.00     0.054 A 
BRANCH  77  78
ATOM     78  S   UNL A   1      42.119  19.418  25.993  1.00  0.00     0.124 S 
ATOM     79  O   UNL A   1      40.678  19.289  25.796  1.00  0.00    -0.237 OA
ATOM     80  O   UNL A   1      42.917  19.525  24.774  1.00  0.00    -0.237 OA
ATOM     81  O   UNL A   1      42.691  18.558  27.028  1.00  0.00    -0.744 OA
ENDBRANCH  77  78
ENDBRANCH  49  72
BRANCH  61  82
ATOM     82  C   UNL A   1      47.956  26.877  30.806  1.00  0.00    -0.014 A 
ATOM     83  C   UNL A   1      49.034  27.197  29.962  1.00  0.00     0.010 A 
ATOM     84  C   UNL A   1      48.205  26.183  32.004  1.00  0.00     0.010 A 
ATOM     85  C   UNL A   1      50.334  26.806  30.299  1.00  0.00     0.020 A 
ATOM     86  C   UNL A   1      49.505  25.812  32.356  1.00  0.00     0.020 A 
ATOM     87  C   UNL A   1      50.560  26.115  31.494  1.00  0.00     0.054 A 
BRANCH  87  88
ATOM     88  S   UNL A   1      52.261  25.660  31.932  1.00  0.00     0.124 S 
ATOM     89  O   UNL A   1      52.102  24.276  32.369  1.00  0.00    -0.237 OA
ATOM     90  O   UNL A   1      52.979  25.843  30.672  1.00  0.00    -0.237 OA
ATOM     91  O   UNL A   1      52.613  26.611  32.984  1.00  0.00    -0.744 OA
ENDBRANCH  87  88
ENDBRANCH  61  82
ENDBRANCH  35  36
ENDBRANCH  27  30
ENDBRANCH  25  26
ENDBRANCH  24  25
ENDBRANCH   1  24
TORSDOF 17
ENDMDL
MODEL 2
REMARK VINA RESULT:     -10.8      1.080      2.841
REMARK SMILES Cc1cc2occ(CC(=O)NCCC(=O)NCCCNC(=O)c3ccc(-c4c5nc(c(-c6ccc(S(=O)(=O)[O-])cc6)c6ccc([nH]6)c(-c6ccc(S(=O)(=O)[O-])cc6)c6nc(c(-c7ccc(S(=O)(=O)[O-])cc7)c7ccc4[nH]7)C=C6)C=C5)cc3)c2cc1C
REMARK SMILES IDX 17 1 16 2 14 3 15 4 13 6 12 7 11 8 9 9 10 10 8 12 7 13 1 14
REMARK SMILES IDX 2 15 3 16 85 17 4 18 84 19 86 20 5 21 83 22 6 23 18 24 19 25
REMARK SMILES IDX 20 26 21 27 22 29 23 30 24 31 82 32 25 33 81 34 26 35 27 36
REMARK SMILES IDX 28 37 75 38 29 39 80 40 74 41 76 42 30 43 79 44 73 45 72 46
REMARK SMILES IDX 31 48 61 49 42 50 60 51 43 52 46 53 59 54 77 55 44 56 45 57
REMARK SMILES IDX 58 59 78 60 47 61 32 62 33 63 41 64 34 65 40 66 35 67 36 68
REMARK SMILES IDX 37 69 38 70 39 71 62 72 63 73 71 74 64 75 70 76 65 77 66 78
REMARK SMILES IDX 67 79 68 80 69 81 48 82 49 83 57 84 50 85 56 86 51 87 52 88
REMARK SMILES IDX 53 89 54 90 55 91
REMARK H PARENT 16 5 11 11 20 28 76 47 46 58
REMARK Flexibility Score: inf
ROOT
ATOM      1  C   UNL A   1      33.891  26.329  25.640  1.00  0.00     0.117 C 
ENDROOT
BRANCH   1   2
ATOM      2  N   UNL A   1      33.967  25.954  24.234  1.00  0.00    -0.356 N 
ATOM      3  C   UNL A   1      34.396  24.804  23.645  1.00  0.00     0.221 C 
ATOM      4  O   UNL A   1      34.415  24.748  22.413  1.00  0.00    -0.275 OA
ATOM      5  H   UNL A   1      33.655  26.645  23.606  1.00  0.00     0.163 HD
BRANCH   3   6
ATOM      6  C   UNL A   1      34.847  23.623  24.475  1.00  0.00     0.121 C 
BRANCH   6   7
ATOM      7  C   UNL A   1      34.422  22.293  23.858  1.00  0.00     0.125 C 
BRANCH   7   8
ATOM      8  N   UNL A   1      34.217  21.263  24.859  1.00  0.00    -0.355 N 
ATOM      9  C   UNL A   1      33.109  20.962  25.596  1.00  0.00     0.224 C 
ATOM     10  O   UNL A   1      33.267  20.291  26.618  1.00  0.00    -0.275 OA
ATOM     11  H   UNL A   1      34.999  20.692  25.033  1.00  0.00     0.163 HD
BRANCH   9  12
ATOM     12  C   UNL A   1      31.724  21.346  25.117  1.00  0.00     0.139 C 
BRANCH  12  13
ATOM     13  C   UNL A   1      31.202  22.645  25.622  1.00  0.00     0.008 A 
ATOM     14  C   UNL A   1      30.007  27.977  23.943  1.00  0.00     0.045 C 
ATOM     15  C   UNL A   1      30.345  26.542  24.247  1.00  0.00    -0.044 A 
ATOM     16  C   UNL A   1      30.174  26.094  25.569  1.00  0.00     0.051 A 
ATOM     17  C   UNL A   1      30.837  25.661  23.258  1.00  0.00    -0.047 A 
ATOM     18  C   UNL A   1      30.512  24.773  25.848  1.00  0.00     0.134 A 
ATOM     19  C   UNL A   1      31.153  24.319  23.588  1.00  0.00     0.016 A 
ATOM     20  C   UNL A   1      31.063  26.088  21.830  1.00  0.00     0.044 C 
ATOM     21  O   UNL A   1      30.427  24.192  27.074  1.00  0.00    -0.464 OA
ATOM     22  C   UNL A   1      30.991  23.869  24.912  1.00  0.00     0.024 A 
ATOM     23  C   UNL A   1      30.868  22.921  26.935  1.00  0.00     0.200 A 
ENDBRANCH  12  13
ENDBRANCH   9  12
ENDBRANCH   7   8
ENDBRANCH   6   7
ENDBRANCH   3   6
ENDBRANCH   1   2
BRANCH   1  24
ATOM     24  C   UNL A   1      33.623  27.821  25.819  1.00  0.00     0.042 C 
BRANCH  24  25
ATOM     25  C   UNL A   1      33.377  28.250  27.259  1.00  0.00     0.118 C 
BRANCH  25  26
ATOM     26  N   UNL A   1      33.297  29.694  27.405  1.00  0.00    -0.352 N 
ATOM     27  C   UNL A   1      34.203  30.579  27.935  1.00  0.00     0.251 C 
ATOM     28  H   UNL A   1      32.464  30.101  27.071  1.00  0.00     0.163 HD
ATOM     29  O   UNL A   1      33.844  31.738  28.154  1.00  0.00    -0.269 OA
BRANCH  27  30
ATOM     30  C   UNL A   1      35.590  30.167  28.261  1.00  0.00     0.039 A 
ATOM     31  C   UNL A   1      36.543  30.138  27.238  1.00  0.00     0.014 A 
ATOM     32  C   UNL A   1      35.952  29.758  29.547  1.00  0.00     0.014 A 
ATOM     33  C   UNL A   1      37.860  29.754  27.514  1.00  0.00     0.010 A 
ATOM     34  C   UNL A   1      37.284  29.459  29.840  1.00  0.00     0.010 A 
ATOM     35  C   UNL A   1      38.251  29.437  28.825  1.00  0.00    -0.014 A 
BRANCH  35  36
ATOM     36  C   UNL A   1      39.654  29.060  29.149  1.00  0.00     0.031 A 
ATOM     37  C   UNL A   1      40.579  30.058  29.798  1.00  0.00     0.074 A 
ATOM     38  C   UNL A   1      40.120  27.841  28.811  1.00  0.00     0.049 A 
ATOM     39  N   UNL A   1      41.849  29.938  30.094  1.00  0.00    -0.248 NA
ATOM     40  C   UNL A   1      40.009  31.373  30.133  1.00  0.00     0.031 C 
ATOM     41  C   UNL A   1      39.346  26.791  28.144  1.00  0.00     0.029 A 
ATOM     42  N   UNL A   1      41.363  27.279  28.977  1.00  0.00    -0.354 N 
ATOM     43  C   UNL A   1      42.233  31.166  30.622  1.00  0.00     0.074 A 
ATOM     44  C   UNL A   1      41.076  32.030  30.565  1.00  0.00     0.031 C 
ATOM     45  C   UNL A   1      40.122  25.707  27.982  1.00  0.00     0.029 A 
ATOM     46  C   UNL A   1      41.457  25.994  28.496  1.00  0.00     0.049 A 
ATOM     47  H   UNL A   1      42.115  27.752  29.400  1.00  0.00     0.167 HD
ATOM     48  C   UNL A   1      43.435  31.538  31.128  1.00  0.00     0.031 A 
ATOM     49  C   UNL A   1      42.501  25.141  28.464  1.00  0.00     0.031 A 
ATOM     50  C   UNL A   1      44.581  30.671  31.210  1.00  0.00     0.049 A 
ATOM     51  C   UNL A   1      43.822  25.571  29.040  1.00  0.00     0.074 A 
ATOM     52  C   UNL A   1      45.823  30.938  31.759  1.00  0.00     0.029 A 
ATOM     53  N   UNL A   1      44.626  29.372  30.729  1.00  0.00    -0.354 N 
ATOM     54  N   UNL A   1      44.148  26.717  29.587  1.00  0.00    -0.248 NA
ATOM     55  C   UNL A   1      44.912  24.585  29.007  1.00  0.00     0.031 C 
ATOM     56  C   UNL A   1      46.633  29.812  31.574  1.00  0.00     0.029 A 
ATOM     57  C   UNL A   1      45.880  28.828  30.954  1.00  0.00     0.049 A 
ATOM     58  H   UNL A   1      43.878  28.904  30.293  1.00  0.00     0.167 HD
ATOM     59  C   UNL A   1      45.474  26.583  29.983  1.00  0.00     0.074 A 
ATOM     60  C   UNL A   1      45.885  25.241  29.626  1.00  0.00     0.031 C 
ATOM     61  C   UNL A   1      46.276  27.491  30.593  1.00  0.00     0.031 A 
BRANCH  48  62
ATOM     62  C   UNL A   1      43.568  32.952  31.630  1.00  0.00    -0.014 A 
ATOM     63  C   UNL A   1      43.387  33.262  32.990  1.00  0.00     0.010 A 
ATOM     64  C   UNL A   1      43.901  33.984  30.733  1.00  0.00     0.010 A 
ATOM     65  C   UNL A   1      43.485  34.583  33.436  1.00  0.00     0.020 A 
ATOM     66  C   UNL A   1      44.029  35.303  31.180  1.00  0.00     0.020 A 
ATOM     67  C   UNL A   1      43.797  35.596  32.525  1.00  0.00     0.054 A 
BRANCH  67  68
ATOM     68  S   UNL A   1      43.922  37.302  33.130  1.00  0.00     0.124 S 
ATOM     69  O   UNL A   1      43.869  38.064  31.885  1.00  0.00    -0.237 OA
ATOM     70  O   UNL A   1      42.749  37.427  33.991  1.00  0.00    -0.237 OA
ATOM     71  O   UNL A   1      45.206  37.330  33.824  1.00  0.00    -0.744 OA
ENDBRANCH  67  68
ENDBRANCH  48  62
BRANCH  49  72
ATOM     72  C   UNL A   1      42.327  23.783  27.881  1.00  0.00    -0.014 A 
ATOM     73  C   UNL A   1      42.437  23.585  26.494  1.00  0.00     0.010 A 
ATOM     74  C   UNL A   1      42.078  22.676  28.713  1.00  0.00     0.010 A 
ATOM     75  C   UNL A   1      42.291  22.306  25.947  1.00  0.00     0.020 A 
ATOM     76  C   UNL A   1      41.956  21.393  28.172  1.00  0.00     0.020 A 
ATOM     77  C   UNL A   1      42.055  21.217  26.790  1.00  0.00     0.054 A 
BRANCH  77  78
ATOM     78  S   UNL A   1      41.934  19.558  26.066  1.00  0.00     0.124 S 
ATOM     79  O   UNL A   1      42.858  19.650  24.940  1.00  0.00    -0.237 OA
ATOM     80  O   UNL A   1      42.361  18.700  27.168  1.00  0.00    -0.237 OA
ATOM     81  O   UNL A   1      40.520  19.443  25.710  1.00  0.00    -0.744 OA
ENDBRANCH  77  78
ENDBRANCH  49  72
BRANCH  61  82
ATOM     82  C   UNL A   1      47.674  27.056  30.943  1.00  0.00    -0.014 A 
ATOM     83  C   UNL A   1      47.933  26.296  32.098  1.00  0.00     0.010 A 
ATOM     84  C   UNL A   1      48.734  27.363  30.071  1.00  0.00     0.010 A 
ATOM     85  C   UNL A   1      49.235  25.875  32.387  1.00  0.00     0.020 A 
ATOM     86  C   UNL A   1      50.032  26.922  30.345  1.00  0.00     0.020 A 
ATOM     87  C   UNL A   1      50.275  26.191  31.509  1.00  0.00     0.054 A 
BRANCH  87  88
ATOM     88  S   UNL A   1      51.947  25.592  31.881  1.00  0.00     0.124 S 
ATOM     89  O   UNL A   1      52.312  26.408  33.036  1.00  0.00    -0.237 OA
ATOM     90  O   UNL A   1      51.727  24.175  32.158  1.00  0.00    -0.237 OA
ATOM     91  O   UNL A   1      52.695  25.872  30.658  1.00  0.00    -0.744 OA
ENDBRANCH  87  88
ENDBRANCH  61  82
ENDBRANCH  35  36
ENDBRANCH  27  30
ENDBRANCH  25  26
ENDBRANCH  24  25
ENDBRANCH   1  24
TORSDOF 17
ENDMDL
MODEL 3
REMARK VINA RESULT:     -10.6      5.058     11.058
REMARK SMILES Cc1cc2occ(CC(=O)NCCC(=O)NCCCNC(=O)c3ccc(-c4c5nc(c(-c6ccc(S(=O)(=O)[O-])cc6)c6ccc([nH]6)c(-c6ccc(S(=O)(=O)[O-])cc6)c6nc(c(-c7ccc(S(=O)(=O)[O-])cc7)c7ccc4[nH]7)C=C6)C=C5)cc3)c2cc1C
REMARK SMILES IDX 17 1 16 2 14 3 15 4 13 6 12 7 11 8 9 9 10 10 8 12 7 13 1 14
REMARK SMILES IDX 2 15 3 16 85 17 4 18 84 19 86 20 5 21 83 22 6 23 18 24 19 25
REMARK SMILES IDX 20 26 21 27 22 29 23 30 24 31 82 32 25 33 81 34 26 35 27 36
REMARK SMILES IDX 28 37 75 38 29 39 80 40 74 41 76 42 30 43 79 44 73 45 72 46
REMARK SMILES IDX 31 48 61 49 42 50 60 51 43 52 46 53 59 54 77 55 44 56 45 57
REMARK SMILES IDX 58 59 78 60 47 61 32 62 33 63 41 64 34 65 40 66 35 67 36 68
REMARK SMILES IDX 37 69 38 70 39 71 62 72 63 73 71 74 64 75 70 76 65 77 66 78
REMARK SMILES IDX 67 79 68 80 69 81 48 82 49 83 57 84 50 85 56 86 51 87 52 88
REMARK SMILES IDX 53 89 54 90 55 91
REMARK H PARENT 16 5 11 11 20 28 76 47 46 58
REMARK Flexibility Score: inf
ROOT
ATOM      1  C   UNL A   1      46.215  23.873  24.297  1.00  0.00     0.117 C 
ENDROOT
BRANCH   1   2
ATOM      2  N   UNL A   1      46.528  22.473  24.553  1.00  0.00    -0.356 N 
ATOM      3  C   UNL A   1      45.917  21.562  25.360  1.00  0.00     0.221 C 
ATOM      4  O   UNL A   1      46.411  20.436  25.450  1.00  0.00    -0.275 OA
ATOM      5  H   UNL A   1      47.308  22.129  24.062  1.00  0.00     0.163 HD
BRANCH   3   6
ATOM      6  C   UNL A   1      44.667  21.918  26.133  1.00  0.00     0.121 C 
BRANCH   6   7
ATOM      7  C   UNL A   1      43.398  21.619  25.340  1.00  0.00     0.125 C 
BRANCH   7   8
ATOM      8  N   UNL A   1      43.205  20.197  25.127  1.00  0.00    -0.355 N 
ATOM      9  C   UNL A   1      42.525  19.281  25.875  1.00  0.00     0.224 C 
ATOM     10  O   UNL A   1      42.786  18.089  25.697  1.00  0.00    -0.275 OA
ATOM     11  H   UNL A   1      43.630  19.837  24.316  1.00  0.00     0.163 HD
BRANCH   9  12
ATOM     12  C   UNL A   1      41.412  19.707  26.811  1.00  0.00     0.139 C 
BRANCH  12  13
ATOM     13  C   UNL A   1      40.111  20.029  26.164  1.00  0.00     0.008 A 
ATOM     14  C   UNL A   1      36.356  24.282  25.466  1.00  0.00     0.045 C 
ATOM     15  C   UNL A   1      37.433  23.258  25.711  1.00  0.00    -0.044 A 
ATOM     16  C   UNL A   1      37.246  21.970  25.178  1.00  0.00     0.051 A 
ATOM     17  C   UNL A   1      38.591  23.553  26.463  1.00  0.00    -0.047 A 
ATOM     18  C   UNL A   1      38.232  21.022  25.429  1.00  0.00     0.134 A 
ATOM     19  C   UNL A   1      39.576  22.557  26.679  1.00  0.00     0.016 A 
ATOM     20  C   UNL A   1      38.838  24.907  27.079  1.00  0.00     0.044 C 
ATOM     21  O   UNL A   1      38.194  19.730  25.007  1.00  0.00    -0.464 OA
ATOM     22  C   UNL A   1      39.389  21.264  26.155  1.00  0.00     0.024 A 
ATOM     23  C   UNL A   1      39.314  19.133  25.474  1.00  0.00     0.200 A 
ENDBRANCH  12  13
ENDBRANCH   9  12
ENDBRANCH   7   8
ENDBRANCH   6   7
ENDBRANCH   3   6
ENDBRANCH   1   2
BRANCH   1  24
ATOM     24  C   UNL A   1      46.590  24.767  25.477  1.00  0.00     0.042 C 
BRANCH  24  25
ATOM     25  C   UNL A   1      45.411  25.473  26.133  1.00  0.00     0.118 C 
BRANCH  25  26
ATOM     26  N   UNL A   1      44.207  25.421  25.319  1.00  0.00    -0.352 N 
ATOM     27  C   UNL A   1      42.924  25.809  25.615  1.00  0.00     0.251 C 
ATOM     28  H   UNL A   1      44.332  25.050  24.415  1.00  0.00     0.163 HD
ATOM     29  O   UNL A   1      42.012  25.479  24.854  1.00  0.00    -0.269 OA
BRANCH  27  30
ATOM     30  C   UNL A   1      42.614  26.597  26.832  1.00  0.00     0.039 A 
ATOM     31  C   UNL A   1      43.016  27.936  26.889  1.00  0.00     0.014 A 
ATOM     32  C   UNL A   1      41.981  26.024  27.939  1.00  0.00     0.014 A 
ATOM     33  C   UNL A   1      42.738  28.706  28.025  1.00  0.00     0.010 A 
ATOM     34  C   UNL A   1      41.627  26.815  29.033  1.00  0.00     0.010 A 
ATOM     35  C   UNL A   1      42.015  28.161  29.097  1.00  0.00    -0.014 A 
BRANCH  35  36
ATOM     36  C   UNL A   1      41.676  28.972  30.299  1.00  0.00     0.031 A 
ATOM     37  C   UNL A   1      42.498  28.845  31.557  1.00  0.00     0.074 A 
ATOM     38  C   UNL A   1      40.599  29.782  30.285  1.00  0.00     0.049 A 
ATOM     39  N   UNL A   1      42.319  29.414  32.722  1.00  0.00    -0.248 NA
ATOM     40  C   UNL A   1      43.657  27.937  31.506  1.00  0.00     0.031 C 
ATOM     41  C   UNL A   1      39.694  29.971  29.149  1.00  0.00     0.029 A 
ATOM     42  N   UNL A   1      40.077  30.594  31.262  1.00  0.00    -0.354 N 
ATOM     43  C   UNL A   1      43.322  28.914  33.547  1.00  0.00     0.074 A 
ATOM     44  C   UNL A   1      44.077  27.963  32.763  1.00  0.00     0.031 C 
ATOM     45  C   UNL A   1      38.746  30.862  29.485  1.00  0.00     0.029 A 
ATOM     46  C   UNL A   1      38.950  31.278  30.869  1.00  0.00     0.049 A 
ATOM     47  H   UNL A   1      40.472  30.679  32.160  1.00  0.00     0.167 HD
ATOM     48  C   UNL A   1      43.603  29.230  34.835  1.00  0.00     0.031 A 
ATOM     49  C   UNL A   1      38.163  32.138  31.545  1.00  0.00     0.031 A 
ATOM     50  C   UNL A   1      42.869  30.195  35.609  1.00  0.00     0.049 A 
ATOM     51  C   UNL A   1      38.499  32.483  32.969  1.00  0.00     0.074 A 
ATOM     52  C   UNL A   1      43.114  30.627  36.901  1.00  0.00     0.029 A 
ATOM     53  N   UNL A   1      41.748  30.879  35.164  1.00  0.00    -0.354 N 
ATOM     54  N   UNL A   1      39.485  32.042  33.712  1.00  0.00    -0.248 NA
ATOM     55  C   UNL A   1      37.622  33.452  33.642  1.00  0.00     0.031 C 
ATOM     56  C   UNL A   1      42.115  31.542  37.253  1.00  0.00     0.029 A 
ATOM     57  C   UNL A   1      41.279  31.717  36.162  1.00  0.00     0.049 A 
ATOM     58  H   UNL A   1      41.344  30.783  34.272  1.00  0.00     0.167 HD
ATOM     59  C   UNL A   1      39.362  32.697  34.932  1.00  0.00     0.074 A 
ATOM     60  C   UNL A   1      38.215  33.574  34.823  1.00  0.00     0.031 C 
ATOM     61  C   UNL A   1      40.135  32.584  36.041  1.00  0.00     0.031 A 
BRANCH  48  62
ATOM     62  C   UNL A   1      44.758  28.516  35.488  1.00  0.00    -0.014 A 
ATOM     63  C   UNL A   1      46.069  29.019  35.399  1.00  0.00     0.010 A 
ATOM     64  C   UNL A   1      44.528  27.337  36.219  1.00  0.00     0.010 A 
ATOM     65  C   UNL A   1      47.134  28.330  35.985  1.00  0.00     0.020 A 
ATOM     66  C   UNL A   1      45.586  26.659  36.831  1.00  0.00     0.020 A 
ATOM     67  C   UNL A   1      46.887  27.149  36.690  1.00  0.00     0.054 A 
BRANCH  67  68
ATOM     68  S   UNL A   1      48.286  26.275  37.445  1.00  0.00     0.124 S 
ATOM     69  O   UNL A   1      48.362  25.069  36.625  1.00  0.00    -0.237 OA
ATOM     70  O   UNL A   1      49.386  27.220  37.275  1.00  0.00    -0.237 OA
ATOM     71  O   UNL A   1      47.859  26.064  38.826  1.00  0.00    -0.744 OA
ENDBRANCH  67  68
ENDBRANCH  48  62
BRANCH  49  72
ATOM     72  C   UNL A   1      36.987  32.750  30.868  1.00  0.00    -0.014 A 
ATOM     73  C   UNL A   1      35.683  32.352  31.209  1.00  0.00     0.010 A 
ATOM     74  C   UNL A   1      37.164  33.755  29.899  1.00  0.00     0.010 A 
ATOM     75  C   UNL A   1      34.577  32.939  30.586  1.00  0.00     0.020 A 
ATOM     76  C   UNL A   1      36.061  34.362  29.292  1.00  0.00     0.020 A 
ATOM     77  C   UNL A   1      34.773  33.943  29.633  1.00  0.00     0.054 A 
BRANCH  77  78
ATOM     78  S   UNL A   1      33.323  34.736  28.885  1.00  0.00     0.124 S 
ATOM     79  O   UNL A   1      32.507  35.044  30.056  1.00  0.00    -0.237 OA
ATOM     80  O   UNL A   1      33.909  35.886  28.201  1.00  0.00    -0.237 OA
ATOM     81  O   UNL A   1      32.787  33.704  28.000  1.00  0.00    -0.744 OA
ENDBRANCH  77  78
ENDBRANCH  49  72
BRANCH  61  82
ATOM     82  C   UNL A   1      39.786  33.453  37.220  1.00  0.00    -0.014 A 
ATOM     83  C   UNL A   1      38.960  32.979  38.255  1.00  0.00     0.010 A 
ATOM     84  C   UNL A   1      40.342  34.741  37.321  1.00  0.00     0.010 A 
ATOM     85  C   UNL A   1      38.675  33.791  39.357  1.00  0.00     0.020 A 
ATOM     86  C   UNL A   1      40.079  35.545  38.432  1.00  0.00     0.020 A 
ATOM     87  C   UNL A   1      39.236  35.069  39.438  1.00  0.00     0.054 A 
BRANCH  87  88
ATOM     88  S   UNL A   1      38.891  36.085  40.901  1.00  0.00     0.124 S 
ATOM     89  O   UNL A   1      37.722  35.416  41.467  1.00  0.00    -0.237 OA
ATOM     90  O   UNL A   1      40.122  35.961  41.677  1.00  0.00    -0.237 OA
ATOM     91  O   UNL A   1      38.642  37.414  40.348  1.00  0.00    -0.744 OA
ENDBRANCH  87  88
ENDBRANCH  61  82
ENDBRANCH  35  36
ENDBRANCH  27  30
ENDBRANCH  25  26
ENDBRANCH  24  25
ENDBRANCH   1  24
TORSDOF 17
ENDMDL
