MODEL 1
REMARK VINA RESULT:     -13.5      0.000      0.000
REMARK SMILES O=C(NCCCNC(=O)[C@@H]1CCCC[C@H]1C(=O)Nc1ccccc1C(=O)N1CCOCC1)c1ccc(-c2c3nc(c(-c4ccc(S(=O)(=O)[O-])cc4)c4ccc([nH]4)c(-c4ccc(S(=O)(=O)[O-])cc4)c4nc(c(-c5ccc(S(=O)(=O)[O-])cc5)c5ccc2[nH]5)C=C4)C=C3)cc1
REMARK SMILES IDX 5 1 4 2 3 3 1 4 2 5 33 7 34 8 92 9 35 10 91 11 36 12 37 13
REMARK SMILES IDX 38 14 85 15 39 16 90 17 84 18 86 19 40 20 89 21 83 22 82 23
REMARK SMILES IDX 41 25 71 26 52 27 70 28 53 29 56 30 69 31 87 32 54 33 55 34
REMARK SMILES IDX 68 36 88 37 57 38 42 39 43 40 51 41 44 42 50 43 45 44 46 45
REMARK SMILES IDX 47 46 48 47 49 48 72 49 73 50 81 51 74 52 80 53 75 54 76 55
REMARK SMILES IDX 77 56 78 57 79 58 58 59 59 60 67 61 60 62 66 63 61 64 62 65
REMARK SMILES IDX 63 66 64 67 65 68 6 69 7 70 8 71 9 73 10 74 11 75 15 76
REMARK SMILES IDX 12 77 14 78 13 79 16 80 17 81 18 82 19 84 20 85 24 86 21 87
REMARK SMILES IDX 23 88 22 89 25 90 26 91 27 92 28 93 32 94 29 95 31 96 30 97
REMARK H PARENT 3 6 86 24 56 35 7 72 18 83
REMARK Flexibility Score: inf
ROOT
ATOM      1  C   UNL A   1      34.057  30.248  27.060  1.00  0.00     0.042 C 
ENDROOT
BRANCH   1   2
ATOM      2  C   UNL A   1      34.908  31.180  27.951  1.00  0.00     0.118 C 
BRANCH   2   3
ATOM      3  N   UNL A   1      35.121  30.754  29.340  1.00  0.00    -0.352 N 
ATOM      4  O   UNL A   1      35.931  30.141  31.312  1.00  0.00    -0.269 OA
ATOM      5  C   UNL A   1      36.161  30.245  30.101  1.00  0.00     0.251 C 
ATOM      6  H   UNL A   1      34.303  30.859  29.876  1.00  0.00     0.163 HD
BRANCH   5   7
ATOM      7  C   UNL A   1      37.515  29.809  29.617  1.00  0.00     0.039 A 
ATOM      8  C   UNL A   1      37.931  29.843  28.293  1.00  0.00     0.014 A 
ATOM      9  C   UNL A   1      38.476  29.404  30.574  1.00  0.00     0.014 A 
ATOM     10  C   UNL A   1      39.200  29.377  27.918  1.00  0.00     0.010 A 
ATOM     11  C   UNL A   1      39.790  29.034  30.210  1.00  0.00     0.010 A 
ATOM     12  C   UNL A   1      40.169  29.003  28.865  1.00  0.00    -0.014 A 
BRANCH  12  13
ATOM     13  C   UNL A   1      41.563  28.707  28.398  1.00  0.00     0.031 A 
ATOM     14  C   UNL A   1      42.665  29.738  28.432  1.00  0.00     0.074 A 
ATOM     15  C   UNL A   1      41.857  27.449  27.995  1.00  0.00     0.049 A 
ATOM     16  N   UNL A   1      43.938  29.592  28.144  1.00  0.00    -0.248 NA
ATOM     17  C   UNL A   1      42.301  31.106  28.831  1.00  0.00     0.031 C 
ATOM     18  C   UNL A   1      40.884  26.356  27.887  1.00  0.00     0.029 A 
ATOM     19  N   UNL A   1      43.048  26.856  27.647  1.00  0.00    -0.354 N 
ATOM     20  C   UNL A   1      44.520  30.847  28.305  1.00  0.00     0.074 A 
ATOM     21  C   UNL A   1      43.456  31.747  28.697  1.00  0.00     0.031 C 
ATOM     22  C   UNL A   1      41.526  25.217  27.598  1.00  0.00     0.029 A 
ATOM     23  C   UNL A   1      42.941  25.505  27.400  1.00  0.00     0.049 A 
ATOM     24  H   UNL A   1      43.897  27.350  27.580  1.00  0.00     0.167 HD
ATOM     25  C   UNL A   1      45.817  31.215  28.142  1.00  0.00     0.031 A 
ATOM     26  C   UNL A   1      43.860  24.590  27.035  1.00  0.00     0.031 A 
ATOM     27  C   UNL A   1      46.875  30.317  27.746  1.00  0.00     0.049 A 
ATOM     28  C   UNL A   1      45.283  25.029  26.837  1.00  0.00     0.074 A 
ATOM     29  C   UNL A   1      48.223  30.594  27.577  1.00  0.00     0.029 A 
ATOM     30  N   UNL A   1      46.710  28.971  27.449  1.00  0.00    -0.354 N 
ATOM     31  N   UNL A   1      45.808  26.216  27.024  1.00  0.00    -0.248 NA
ATOM     32  C   UNL A   1      46.232  24.011  26.370  1.00  0.00     0.031 C 
ATOM     33  C   UNL A   1      48.858  29.433  27.123  1.00  0.00     0.029 A 
ATOM     34  C   UNL A   1      47.922  28.413  27.074  1.00  0.00     0.049 A 
ATOM     35  H   UNL A   1      45.856  28.484  27.499  1.00  0.00     0.167 HD
ATOM     36  C   UNL A   1      47.153  26.086  26.704  1.00  0.00     0.074 A 
ATOM     37  C   UNL A   1      47.366  24.699  26.342  1.00  0.00     0.031 C 
ATOM     38  C   UNL A   1      48.123  27.034  26.705  1.00  0.00     0.031 A 
BRANCH  25  39
ATOM     39  C   UNL A   1      46.171  32.669  28.359  1.00  0.00    -0.014 A 
ATOM     40  C   UNL A   1      46.142  33.598  27.304  1.00  0.00     0.010 A 
ATOM     41  C   UNL A   1      46.485  33.124  29.654  1.00  0.00     0.010 A 
ATOM     42  C   UNL A   1      46.464  34.941  27.530  1.00  0.00     0.020 A 
ATOM     43  C   UNL A   1      46.780  34.471  29.891  1.00  0.00     0.020 A 
ATOM     44  C   UNL A   1      46.788  35.368  28.822  1.00  0.00     0.054 A 
BRANCH  44  45
ATOM     45  S   UNL A   1      47.194  37.118  29.081  1.00  0.00     0.124 S 
ATOM     46  O   UNL A   1      48.624  37.141  28.790  1.00  0.00    -0.237 OA
ATOM     47  O   UNL A   1      46.343  37.793  28.108  1.00  0.00    -0.237 OA
ATOM     48  O   UNL A   1      46.841  37.352  30.484  1.00  0.00    -0.744 OA
ENDBRANCH  44  45
ENDBRANCH  25  39
BRANCH  26  49
ATOM     49  C   UNL A   1      43.450  23.177  26.796  1.00  0.00    -0.014 A 
ATOM     50  C   UNL A   1      43.629  22.572  25.539  1.00  0.00     0.010 A 
ATOM     51  C   UNL A   1      42.896  22.417  27.843  1.00  0.00     0.010 A 
ATOM     52  C   UNL A   1      43.256  21.238  25.335  1.00  0.00     0.020 A 
ATOM     53  C   UNL A   1      42.555  21.076  27.655  1.00  0.00     0.020 A 
ATOM     54  C   UNL A   1      42.727  20.497  26.396  1.00  0.00     0.054 A 
BRANCH  54  55
ATOM     55  S   UNL A   1      42.306  18.753  26.127  1.00  0.00     0.124 S 
ATOM     56  O   UNL A   1      40.895  18.834  25.764  1.00  0.00    -0.237 OA
ATOM     57  O   UNL A   1      43.218  18.371  25.052  1.00  0.00    -0.237 OA
ATOM     58  O   UNL A   1      42.587  18.131  27.420  1.00  0.00    -0.744 OA
ENDBRANCH  54  55
ENDBRANCH  26  49
BRANCH  38  59
ATOM     59  C   UNL A   1      49.512  26.595  26.325  1.00  0.00    -0.014 A 
ATOM     60  C   UNL A   1      50.365  25.979  27.259  1.00  0.00     0.010 A 
ATOM     61  C   UNL A   1      49.959  26.773  25.003  1.00  0.00     0.010 A 
ATOM     62  C   UNL A   1      51.651  25.579  26.885  1.00  0.00     0.020 A 
ATOM     63  C   UNL A   1      51.233  26.347  24.617  1.00  0.00     0.020 A 
ATOM     64  C   UNL A   1      52.076  25.766  25.566  1.00  0.00     0.054 A 
BRANCH  64  65
ATOM     65  S   UNL A   1      53.735  25.202  25.095  1.00  0.00     0.124 S 
ATOM     66  O   UNL A   1      53.875  25.756  23.752  1.00  0.00    -0.237 OA
ATOM     67  O   UNL A   1      54.581  25.811  26.119  1.00  0.00    -0.237 OA
ATOM     68  O   UNL A   1      53.638  23.746  25.162  1.00  0.00    -0.744 OA
ENDBRANCH  64  65
ENDBRANCH  38  59
ENDBRANCH  12  13
ENDBRANCH   5   7
ENDBRANCH   2   3
ENDBRANCH   1   2
BRANCH   1  69
ATOM     69  C   UNL A   1      33.780  28.782  27.550  1.00  0.00     0.117 C 
BRANCH  69  70
ATOM     70  N   UNL A   1      33.484  27.787  26.455  1.00  0.00    -0.356 N 
ATOM     71  C   UNL A   1      32.381  26.934  26.419  1.00  0.00     0.223 C 
ATOM     72  H   UNL A   1      34.120  27.737  25.705  1.00  0.00     0.163 HD
ATOM     73  O   UNL A   1      31.433  27.155  27.177  1.00  0.00    -0.275 OA
BRANCH  71  74
ATOM     74  C   UNL A   1      32.329  25.672  25.384  1.00  0.00     0.091 C 
ATOM     75  C   UNL A   1      31.793  26.349  24.064  1.00  0.00     0.014 C 
ATOM     76  C   UNL A   1      31.357  24.420  25.714  1.00  0.00     0.091 C 
ATOM     77  C   UNL A   1      31.380  25.428  22.919  1.00  0.00     0.001 C 
ATOM     78  C   UNL A   1      31.006  23.578  24.461  1.00  0.00     0.014 C 
ATOM     79  C   UNL A   1      30.363  24.410  23.386  1.00  0.00     0.001 C 
BRANCH  76  80
ATOM     80  C   UNL A   1      31.408  23.251  26.776  1.00  0.00     0.228 C 
ATOM     81  O   UNL A   1      30.443  23.136  27.549  1.00  0.00    -0.274 OA
ATOM     82  N   UNL A   1      32.288  22.203  26.794  1.00  0.00    -0.325 N 
ATOM     83  H   UNL A   1      32.000  21.421  27.318  1.00  0.00     0.169 HD
BRANCH  82  84
ATOM     84  C   UNL A   1      33.530  22.082  26.176  1.00  0.00     0.054 A 
ATOM     85  C   UNL A   1      34.394  23.180  26.218  1.00  0.00     0.027 A 
ATOM     86  C   UNL A   1      33.950  20.896  25.593  1.00  0.00     0.063 A 
ATOM     87  C   UNL A   1      35.758  22.993  25.991  1.00  0.00     0.002 A 
ATOM     88  C   UNL A   1      35.332  20.678  25.456  1.00  0.00     0.016 A 
ATOM     89  C   UNL A   1      36.238  21.716  25.705  1.00  0.00     0.001 A 
BRANCH  86  90
ATOM     90  C   UNL A   1      32.965  19.931  24.995  1.00  0.00     0.256 C 
ATOM     91  O   UNL A   1      31.807  20.313  24.836  1.00  0.00    -0.269 OA
ATOM     92  N   UNL A   1      33.372  18.601  24.764  1.00  0.00    -0.334 N 
ATOM     93  C   UNL A   1      32.903  17.653  25.763  1.00  0.00     0.148 C 
ATOM     94  C   UNL A   1      33.432  17.994  23.410  1.00  0.00     0.148 C 
ATOM     95  C   UNL A   1      33.561  16.281  25.596  1.00  0.00     0.181 C 
ATOM     96  C   UNL A   1      34.009  16.592  23.322  1.00  0.00     0.181 C 
ATOM     97  O   UNL A   1      33.360  15.753  24.279  1.00  0.00    -0.378 OA
ENDBRANCH  86  90
ENDBRANCH  82  84
ENDBRANCH  76  80
ENDBRANCH  71  74
ENDBRANCH  69  70
ENDBRANCH   1  69
TORSDOF 16
ENDMDL
MODEL 2
REMARK VINA RESULT:     -13.1      6.378     12.011
REMARK SMILES O=C(NCCCNC(=O)[C@@H]1CCCC[C@H]1C(=O)Nc1ccccc1C(=O)N1CCOCC1)c1ccc(-c2c3nc(c(-c4ccc(S(=O)(=O)[O-])cc4)c4ccc([nH]4)c(-c4ccc(S(=O)(=O)[O-])cc4)c4nc(c(-c5ccc(S(=O)(=O)[O-])cc5)c5ccc2[nH]5)C=C4)C=C3)cc1
REMARK SMILES IDX 5 1 4 2 3 3 1 4 2 5 33 7 34 8 92 9 35 10 91 11 36 12 37 13
REMARK SMILES IDX 38 14 85 15 39 16 90 17 84 18 86 19 40 20 89 21 83 22 82 23
REMARK SMILES IDX 41 25 71 26 52 27 70 28 53 29 56 30 69 31 87 32 54 33 55 34
REMARK SMILES IDX 68 36 88 37 57 38 42 39 43 40 51 41 44 42 50 43 45 44 46 45
REMARK SMILES IDX 47 46 48 47 49 48 72 49 73 50 81 51 74 52 80 53 75 54 76 55
REMARK SMILES IDX 77 56 78 57 79 58 58 59 59 60 67 61 60 62 66 63 61 64 62 65
REMARK SMILES IDX 63 66 64 67 65 68 6 69 7 70 8 71 9 73 10 74 11 75 15 76
REMARK SMILES IDX 12 77 14 78 13 79 16 80 17 81 18 82 19 84 20 85 24 86 21 87
REMARK SMILES IDX 23 88 22 89 25 90 26 91 27 92 28 93 32 94 29 95 31 96 30 97
REMARK H PARENT 3 6 86 24 56 35 7 72 18 83
REMARK Flexibility Score: inf
ROOT
ATOM      1  C   UNL A   1      37.123  23.718  25.078  1.00  0.00     0.042 C 
ENDROOT
BRANCH   1   2
ATOM      2  C   UNL A   1      38.065  23.592  26.296  1.00  0.00     0.118 C 
BRANCH   2   3
ATOM      3  N   UNL A   1      39.487  23.875  26.065  1.00  0.00    -0.352 N 
ATOM      4  O   UNL A   1      41.613  24.499  26.182  1.00  0.00    -0.269 OA
ATOM      5  C   UNL A   1      40.473  24.667  26.633  1.00  0.00     0.251 C 
ATOM      6  H   UNL A   1      39.835  23.364  25.300  1.00  0.00     0.163 HD
BRANCH   5   7
ATOM      7  C   UNL A   1      40.305  25.694  27.716  1.00  0.00     0.039 A 
ATOM      8  C   UNL A   1      39.361  25.625  28.732  1.00  0.00     0.014 A 
ATOM      9  C   UNL A   1      41.215  26.777  27.767  1.00  0.00     0.014 A 
ATOM     10  C   UNL A   1      39.242  26.649  29.683  1.00  0.00     0.010 A 
ATOM     11  C   UNL A   1      41.164  27.754  28.787  1.00  0.00     0.010 A 
ATOM     12  C   UNL A   1      40.160  27.710  29.759  1.00  0.00    -0.014 A 
BRANCH  12  13
ATOM     13  C   UNL A   1      40.084  28.655  30.921  1.00  0.00     0.031 A 
ATOM     14  C   UNL A   1      41.043  28.585  32.086  1.00  0.00     0.074 A 
ATOM     15  C   UNL A   1      39.165  29.647  30.890  1.00  0.00     0.049 A 
ATOM     16  N   UNL A   1      41.149  29.395  33.114  1.00  0.00    -0.248 NA
ATOM     17  C   UNL A   1      41.999  27.468  32.111  1.00  0.00     0.031 C 
ATOM     18  C   UNL A   1      38.156  29.820  29.839  1.00  0.00     0.029 A 
ATOM     19  N   UNL A   1      38.947  30.717  31.725  1.00  0.00    -0.354 N 
ATOM     20  C   UNL A   1      42.163  28.876  33.915  1.00  0.00     0.074 A 
ATOM     21  C   UNL A   1      42.627  27.670  33.262  1.00  0.00     0.031 C 
ATOM     22  C   UNL A   1      37.501  30.971  30.036  1.00  0.00     0.029 A 
ATOM     23  C   UNL A   1      37.965  31.575  31.279  1.00  0.00     0.049 A 
ATOM     24  H   UNL A   1      39.445  30.858  32.562  1.00  0.00     0.167 HD
ATOM     25  C   UNL A   1      42.661  29.358  35.083  1.00  0.00     0.031 A 
ATOM     26  C   UNL A   1      37.467  32.711  31.807  1.00  0.00     0.031 A 
ATOM     27  C   UNL A   1      42.193  30.558  35.734  1.00  0.00     0.049 A 
ATOM     28  C   UNL A   1      38.018  33.208  33.112  1.00  0.00     0.074 A 
ATOM     29  C   UNL A   1      42.652  31.137  36.908  1.00  0.00     0.029 A 
ATOM     30  N   UNL A   1      41.157  31.362  35.278  1.00  0.00    -0.354 N 
ATOM     31  N   UNL A   1      38.996  32.712  33.832  1.00  0.00    -0.248 NA
ATOM     32  C   UNL A   1      37.394  34.409  33.681  1.00  0.00     0.031 C 
ATOM     33  C   UNL A   1      41.856  32.253  37.189  1.00  0.00     0.029 A 
ATOM     34  C   UNL A   1      40.946  32.413  36.157  1.00  0.00     0.049 A 
ATOM     35  H   UNL A   1      40.648  31.208  34.449  1.00  0.00     0.167 HD
ATOM     36  C   UNL A   1      39.110  33.545  34.937  1.00  0.00     0.074 A 
ATOM     37  C   UNL A   1      38.123  34.593  34.774  1.00  0.00     0.031 C 
ATOM     38  C   UNL A   1      39.954  33.446  35.994  1.00  0.00     0.031 A 
BRANCH  25  39
ATOM     39  C   UNL A   1      43.757  28.569  35.762  1.00  0.00    -0.014 A 
ATOM     40  C   UNL A   1      43.464  27.503  36.631  1.00  0.00     0.010 A 
ATOM     41  C   UNL A   1      45.105  28.865  35.483  1.00  0.00     0.010 A 
ATOM     42  C   UNL A   1      44.495  26.780  37.242  1.00  0.00     0.020 A 
ATOM     43  C   UNL A   1      46.139  28.127  36.069  1.00  0.00     0.020 A 
ATOM     44  C   UNL A   1      45.827  27.101  36.962  1.00  0.00     0.054 A 
BRANCH  44  45
ATOM     45  S   UNL A   1      47.139  26.139  37.766  1.00  0.00     0.124 S 
ATOM     46  O   UNL A   1      48.200  27.131  37.902  1.00  0.00    -0.237 OA
ATOM     47  O   UNL A   1      46.510  25.714  39.011  1.00  0.00    -0.237 OA
ATOM     48  O   UNL A   1      47.414  25.061  36.811  1.00  0.00    -0.744 OA
ENDBRANCH  44  45
ENDBRANCH  25  39
BRANCH  26  49
ATOM     49  C   UNL A   1      36.359  33.429  31.115  1.00  0.00    -0.014 A 
ATOM     50  C   UNL A   1      35.127  33.652  31.755  1.00  0.00     0.010 A 
ATOM     51  C   UNL A   1      36.545  33.919  29.808  1.00  0.00     0.010 A 
ATOM     52  C   UNL A   1      34.103  34.345  31.099  1.00  0.00     0.020 A 
ATOM     53  C   UNL A   1      35.539  34.641  29.163  1.00  0.00     0.020 A 
ATOM     54  C   UNL A   1      34.317  34.840  29.809  1.00  0.00     0.054 A 
BRANCH  54  55
ATOM     55  S   UNL A   1      32.999  35.787  29.000  1.00  0.00     0.124 S 
ATOM     56  O   UNL A   1      32.364  34.772  28.166  1.00  0.00    -0.237 OA
ATOM     57  O   UNL A   1      32.209  36.262  30.134  1.00  0.00    -0.237 OA
ATOM     58  O   UNL A   1      33.723  36.831  28.276  1.00  0.00    -0.744 OA
ENDBRANCH  54  55
ENDBRANCH  26  49
BRANCH  38  59
ATOM     59  C   UNL A   1      39.863  34.517  37.048  1.00  0.00    -0.014 A 
ATOM     60  C   UNL A   1      39.045  34.359  38.182  1.00  0.00     0.010 A 
ATOM     61  C   UNL A   1      40.635  35.686  36.917  1.00  0.00     0.010 A 
ATOM     62  C   UNL A   1      38.977  35.365  39.148  1.00  0.00     0.020 A 
ATOM     63  C   UNL A   1      40.592  36.681  37.897  1.00  0.00     0.020 A 
ATOM     64  C   UNL A   1      39.751  36.520  38.999  1.00  0.00     0.054 A 
BRANCH  64  65
ATOM     65  S   UNL A   1      39.675  37.795  40.287  1.00  0.00     0.124 S 
ATOM     66  O   UNL A   1      38.667  38.707  39.754  1.00  0.00    -0.237 OA
ATOM     67  O   UNL A   1      39.273  37.033  41.467  1.00  0.00    -0.237 OA
ATOM     68  O   UNL A   1      41.035  38.327  40.331  1.00  0.00    -0.744 OA
ENDBRANCH  64  65
ENDBRANCH  38  59
ENDBRANCH  12  13
ENDBRANCH   5   7
ENDBRANCH   2   3
ENDBRANCH   1   2
BRANCH   1  69
ATOM     69  C   UNL A   1      36.986  22.496  24.101  1.00  0.00     0.117 C 
BRANCH  69  70
ATOM     70  N   UNL A   1      35.609  21.886  24.030  1.00  0.00    -0.356 N 
ATOM     71  C   UNL A   1      35.029  21.089  25.018  1.00  0.00     0.223 C 
ATOM     72  H   UNL A   1      35.076  22.066  23.221  1.00  0.00     0.163 HD
ATOM     73  O   UNL A   1      35.537  21.072  26.142  1.00  0.00    -0.275 OA
BRANCH  71  74
ATOM     74  C   UNL A   1      33.692  20.205  24.705  1.00  0.00     0.091 C 
ATOM     75  C   UNL A   1      34.230  18.729  24.852  1.00  0.00     0.014 C 
ATOM     76  C   UNL A   1      32.992  20.321  23.250  1.00  0.00     0.091 C 
ATOM     77  C   UNL A   1      33.313  17.598  24.394  1.00  0.00     0.001 C 
ATOM     78  C   UNL A   1      32.101  19.100  22.906  1.00  0.00     0.014 C 
ATOM     79  C   UNL A   1      32.870  17.809  22.963  1.00  0.00     0.001 C 
BRANCH  76  80
ATOM     80  C   UNL A   1      32.137  21.444  22.539  1.00  0.00     0.228 C 
ATOM     81  O   UNL A   1      31.786  21.241  21.365  1.00  0.00    -0.274 OA
ATOM     82  N   UNL A   1      31.536  22.515  23.141  1.00  0.00    -0.325 N 
ATOM     83  H   UNL A   1      30.806  22.932  22.629  1.00  0.00     0.169 HD
BRANCH  82  84
ATOM     84  C   UNL A   1      31.807  23.101  24.375  1.00  0.00     0.054 A 
ATOM     85  C   UNL A   1      31.058  22.684  25.479  1.00  0.00     0.027 A 
ATOM     86  C   UNL A   1      32.832  24.020  24.546  1.00  0.00     0.063 A 
ATOM     87  C   UNL A   1      31.541  22.917  26.767  1.00  0.00     0.002 A 
ATOM     88  C   UNL A   1      33.374  24.177  25.833  1.00  0.00     0.016 A 
ATOM     89  C   UNL A   1      32.754  23.582  26.937  1.00  0.00     0.001 A 
BRANCH  86  90
ATOM     90  C   UNL A   1      33.260  24.925  23.425  1.00  0.00     0.256 C 
ATOM     91  O   UNL A   1      34.146  24.529  22.669  1.00  0.00    -0.269 OA
ATOM     92  N   UNL A   1      32.726  26.228  23.362  1.00  0.00    -0.334 N 
ATOM     93  C   UNL A   1      33.626  27.264  23.847  1.00  0.00     0.148 C 
ATOM     94  C   UNL A   1      31.884  26.709  22.237  1.00  0.00     0.148 C 
ATOM     95  C   UNL A   1      32.919  28.615  23.976  1.00  0.00     0.181 C 
ATOM     96  C   UNL A   1      31.286  28.097  22.383  1.00  0.00     0.181 C 
ATOM     97  O   UNL A   1      32.317  29.020  22.739  1.00  0.00    -0.378 OA
ENDBRANCH  86  90
ENDBRANCH  82  84
ENDBRANCH  76  80
ENDBRANCH  71  74
ENDBRANCH  69  70
ENDBRANCH   1  69
TORSDOF 16
ENDMDL
MODEL 3
REMARK VINA RESULT:     -12.9      6.580     12.355
REMARK SMILES O=C(NCCCNC(=O)[C@@H]1CCCC[C@H]1C(=O)Nc1ccccc1C(=O)N1CCOCC1)c1ccc(-c2c3nc(c(-c4ccc(S(=O)(=O)[O-])cc4)c4ccc([nH]4)c(-c4ccc(S(=O)(=O)[O-])cc4)c4nc(c(-c5ccc(S(=O)(=O)[O-])cc5)c5ccc2[nH]5)C=C4)C=C3)cc1
REMARK SMILES IDX 5 1 4 2 3 3 1 4 2 5 33 7 34 8 92 9 35 10 91 11 36 12 37 13
REMARK SMILES IDX 38 14 85 15 39 16 90 17 84 18 86 19 40 20 89 21 83 22 82 23
REMARK SMILES IDX 41 25 71 26 52 27 70 28 53 29 56 30 69 31 87 32 54 33 55 34
REMARK SMILES IDX 68 36 88 37 57 38 42 39 43 40 51 41 44 42 50 43 45 44 46 45
REMARK SMILES IDX 47 46 48 47 49 48 72 49 73 50 81 51 74 52 80 53 75 54 76 55
REMARK SMILES IDX 77 56 78 57 79 58 58 59 59 60 67 61 60 62 66 63 61 64 62 65
REMARK SMILES IDX 63 66 64 67 65 68 6 69 7 70 8 71 9 73 10 74 11 75 15 76
REMARK SMILES IDX 12 77 14 78 13 79 16 80 17 81 18 82 19 84 20 85 24 86 21 87
REMARK SMILES IDX 23 88 22 89 25 90 26 91 27 92 28 93 32 94 29 95 31 96 30 97
REMARK H PARENT 3 6 86 24 56 35 7 72 18 83
REMARK Flexibility Score: inf
ROOT
ATOM      1  C   UNL A   1      38.138  23.268  26.543  1.00  0.00     0.042 C 
ENDROOT
BRANCH   1   2
ATOM      2  C   UNL A   1      39.680  23.241  26.624  1.00  0.00     0.118 C 
BRANCH   2   3
ATOM      3  N   UNL A   1      40.402  24.253  25.842  1.00  0.00    -0.352 N 
ATOM      4  O   UNL A   1      41.623  25.957  25.116  1.00  0.00    -0.269 OA
ATOM      5  C   UNL A   1      40.987  25.488  26.068  1.00  0.00     0.251 C 
ATOM      6  H   UNL A   1      40.496  23.978  24.901  1.00  0.00     0.163 HD
BRANCH   5   7
ATOM      7  C   UNL A   1      40.927  26.308  27.326  1.00  0.00     0.039 A 
ATOM      8  C   UNL A   1      41.720  27.417  27.586  1.00  0.00     0.014 A 
ATOM      9  C   UNL A   1      39.944  25.989  28.293  1.00  0.00     0.014 A 
ATOM     10  C   UNL A   1      41.631  28.104  28.806  1.00  0.00     0.010 A 
ATOM     11  C   UNL A   1      39.782  26.745  29.477  1.00  0.00     0.010 A 
ATOM     12  C   UNL A   1      40.638  27.813  29.757  1.00  0.00    -0.014 A 
BRANCH  12  13
ATOM     13  C   UNL A   1      40.482  28.717  30.944  1.00  0.00     0.031 A 
ATOM     14  C   UNL A   1      41.409  28.660  32.134  1.00  0.00     0.074 A 
ATOM     15  C   UNL A   1      39.514  29.662  30.914  1.00  0.00     0.049 A 
ATOM     16  N   UNL A   1      41.445  29.442  33.188  1.00  0.00    -0.248 NA
ATOM     17  C   UNL A   1      42.419  27.591  32.155  1.00  0.00     0.031 C 
ATOM     18  C   UNL A   1      38.529  29.817  29.838  1.00  0.00     0.029 A 
ATOM     19  N   UNL A   1      39.219  30.695  31.772  1.00  0.00    -0.354 N 
ATOM     20  C   UNL A   1      42.461  28.950  34.004  1.00  0.00     0.074 A 
ATOM     21  C   UNL A   1      43.003  27.789  33.331  1.00  0.00     0.031 C 
ATOM     22  C   UNL A   1      37.811  30.928  30.049  1.00  0.00     0.029 A 
ATOM     23  C   UNL A   1      38.209  31.516  31.322  1.00  0.00     0.049 A 
ATOM     24  H   UNL A   1      39.686  30.835  32.628  1.00  0.00     0.167 HD
ATOM     25  C   UNL A   1      42.900  29.421  35.199  1.00  0.00     0.031 A 
ATOM     26  C   UNL A   1      37.640  32.609  31.867  1.00  0.00     0.031 A 
ATOM     27  C   UNL A   1      42.354  30.576  35.870  1.00  0.00     0.049 A 
ATOM     28  C   UNL A   1      38.128  33.094  33.202  1.00  0.00     0.074 A 
ATOM     29  C   UNL A   1      42.750  31.141  37.073  1.00  0.00     0.029 A 
ATOM     30  N   UNL A   1      41.293  31.341  35.406  1.00  0.00    -0.354 N 
ATOM     31  N   UNL A   1      39.108  32.625  33.936  1.00  0.00    -0.248 NA
ATOM     32  C   UNL A   1      37.428  34.244  33.786  1.00  0.00     0.031 C 
ATOM     33  C   UNL A   1      41.892  32.208  37.362  1.00  0.00     0.029 A 
ATOM     34  C   UNL A   1      41.004  32.353  36.309  1.00  0.00     0.049 A 
ATOM     35  H   UNL A   1      40.815  31.187  34.559  1.00  0.00     0.167 HD
ATOM     36  C   UNL A   1      39.149  33.430  35.067  1.00  0.00     0.074 A 
ATOM     37  C   UNL A   1      38.115  34.432  34.906  1.00  0.00     0.031 C 
ATOM     38  C   UNL A   1      39.966  33.341  36.145  1.00  0.00     0.031 A 
BRANCH  25  39
ATOM     39  C   UNL A   1      44.015  28.667  35.888  1.00  0.00    -0.014 A 
ATOM     40  C   UNL A   1      43.752  27.748  36.919  1.00  0.00     0.010 A 
ATOM     41  C   UNL A   1      45.344  28.841  35.458  1.00  0.00     0.010 A 
ATOM     42  C   UNL A   1      44.799  27.054  37.537  1.00  0.00     0.020 A 
ATOM     43  C   UNL A   1      46.392  28.129  36.053  1.00  0.00     0.020 A 
ATOM     44  C   UNL A   1      46.114  27.253  37.104  1.00  0.00     0.054 A 
BRANCH  44  45
ATOM     45  S   UNL A   1      47.446  26.332  37.922  1.00  0.00     0.124 S 
ATOM     46  O   UNL A   1      46.698  25.410  38.770  1.00  0.00    -0.237 OA
ATOM     47  O   UNL A   1      48.152  25.723  36.800  1.00  0.00    -0.237 OA
ATOM     48  O   UNL A   1      48.195  27.368  38.638  1.00  0.00    -0.744 OA
ENDBRANCH  44  45
ENDBRANCH  25  39
BRANCH  26  49
ATOM     49  C   UNL A   1      36.516  33.293  31.163  1.00  0.00    -0.014 A 
ATOM     50  C   UNL A   1      35.224  33.322  31.716  1.00  0.00     0.010 A 
ATOM     51  C   UNL A   1      36.747  33.944  29.937  1.00  0.00     0.010 A 
ATOM     52  C   UNL A   1      34.184  33.984  31.052  1.00  0.00     0.020 A 
ATOM     53  C   UNL A   1      35.721  34.636  29.288  1.00  0.00     0.020 A 
ATOM     54  C   UNL A   1      34.441  34.641  29.845  1.00  0.00     0.054 A 
BRANCH  54  55
ATOM     55  S   UNL A   1      33.095  35.544  29.032  1.00  0.00     0.124 S 
ATOM     56  O   UNL A   1      32.453  34.492  28.250  1.00  0.00    -0.237 OA
ATOM     57  O   UNL A   1      32.325  36.051  30.165  1.00  0.00    -0.237 OA
ATOM     58  O   UNL A   1      33.791  36.568  28.254  1.00  0.00    -0.744 OA
ENDBRANCH  54  55
ENDBRANCH  26  49
BRANCH  38  59
ATOM     59  C   UNL A   1      39.791  34.373  37.227  1.00  0.00    -0.014 A 
ATOM     60  C   UNL A   1      39.078  34.085  38.404  1.00  0.00     0.010 A 
ATOM     61  C   UNL A   1      40.380  35.642  37.075  1.00  0.00     0.010 A 
ATOM     62  C   UNL A   1      38.929  35.058  39.396  1.00  0.00     0.020 A 
ATOM     63  C   UNL A   1      40.259  36.608  38.078  1.00  0.00     0.020 A 
ATOM     64  C   UNL A   1      39.521  36.314  39.226  1.00  0.00     0.054 A 
BRANCH  64  65
ATOM     65  S   UNL A   1      39.346  37.548  40.544  1.00  0.00     0.124 S 
ATOM     66  O   UNL A   1      40.690  38.116  40.610  1.00  0.00    -0.237 OA
ATOM     67  O   UNL A   1      38.313  38.435  40.016  1.00  0.00    -0.237 OA
ATOM     68  O   UNL A   1      38.946  36.758  41.707  1.00  0.00    -0.744 OA
ENDBRANCH  64  65
ENDBRANCH  38  59
ENDBRANCH  12  13
ENDBRANCH   5   7
ENDBRANCH   2   3
ENDBRANCH   1   2
BRANCH   1  69
ATOM     69  C   UNL A   1      37.453  23.102  25.139  1.00  0.00     0.117 C 
BRANCH  69  70
ATOM     70  N   UNL A   1      35.966  23.351  25.120  1.00  0.00    -0.356 N 
ATOM     71  C   UNL A   1      35.217  23.667  23.985  1.00  0.00     0.223 C 
ATOM     72  H   UNL A   1      35.484  23.285  25.976  1.00  0.00     0.163 HD
ATOM     73  O   UNL A   1      35.718  23.487  22.872  1.00  0.00    -0.275 OA
BRANCH  71  74
ATOM     74  C   UNL A   1      33.696  24.249  24.119  1.00  0.00     0.091 C 
ATOM     75  C   UNL A   1      32.906  22.989  24.647  1.00  0.00     0.014 C 
ATOM     76  C   UNL A   1      32.934  24.776  22.792  1.00  0.00     0.091 C 
ATOM     77  C   UNL A   1      31.382  23.074  24.669  1.00  0.00     0.001 C 
ATOM     78  C   UNL A   1      31.392  24.798  22.946  1.00  0.00     0.014 C 
ATOM     79  C   UNL A   1      30.843  23.445  23.305  1.00  0.00     0.001 C 
BRANCH  76  80
ATOM     80  C   UNL A   1      33.097  26.054  21.877  1.00  0.00     0.228 C 
ATOM     81  O   UNL A   1      33.299  25.870  20.665  1.00  0.00    -0.274 OA
ATOM     82  N   UNL A   1      32.810  27.346  22.222  1.00  0.00    -0.325 N 
ATOM     83  H   UNL A   1      32.671  27.963  21.468  1.00  0.00     0.169 HD
BRANCH  82  84
ATOM     84  C   UNL A   1      32.683  27.915  23.487  1.00  0.00     0.054 A 
ATOM     85  C   UNL A   1      33.675  27.641  24.433  1.00  0.00     0.027 A 
ATOM     86  C   UNL A   1      31.653  28.787  23.802  1.00  0.00     0.063 A 
ATOM     87  C   UNL A   1      33.822  28.478  25.539  1.00  0.00     0.002 A 
ATOM     88  C   UNL A   1      31.850  29.691  24.860  1.00  0.00     0.016 A 
ATOM     89  C   UNL A   1      32.964  29.564  25.698  1.00  0.00     0.001 A 
BRANCH  86  90
ATOM     90  C   UNL A   1      30.311  28.682  23.132  1.00  0.00     0.256 C 
ATOM     91  O   UNL A   1      29.985  27.593  22.661  1.00  0.00    -0.269 OA
ATOM     92  N   UNL A   1      29.545  29.852  22.957  1.00  0.00    -0.334 N 
ATOM     93  C   UNL A   1      29.594  30.400  21.610  1.00  0.00     0.148 C 
ATOM     94  C   UNL A   1      28.216  30.055  23.590  1.00  0.00     0.148 C 
ATOM     95  C   UNL A   1      28.943  31.783  21.536  1.00  0.00     0.181 C 
ATOM     96  C   UNL A   1      27.579  31.421  23.401  1.00  0.00     0.181 C 
ATOM     97  O   UNL A   1      27.592  31.761  22.014  1.00  0.00    -0.378 OA
ENDBRANCH  86  90
ENDBRANCH  82  84
ENDBRANCH  76  80
ENDBRANCH  71  74
ENDBRANCH  69  70
ENDBRANCH   1  69
TORSDOF 16
ENDMDL
