MODEL 1
REMARK VINA RESULT:     -11.4      0.000      0.000
REMARK SMILES COc1cc(NS(=O)(=O)c2cc(C)c(C(=O)NCCCNC(=O)c3ccc(-c4c5nc(c(-c6ccc(S(=O)(=O)[O-])cc6)c6ccc([nH]6)c(-c6ccc(S(=O)(=O)[O-])cc6)c6nc(c(-c7ccc(S(=O)(=O)[O-])cc7)c7ccc4[nH]7)C=C6)C=C5)cc3)s2)cc(OC)c1
REMARK SMILES IDX 18 1 17 2 15 3 16 4 14 6 10 7 11 8 84 9 12 10 13 11 7 12
REMARK SMILES IDX 8 13 9 14 6 15 5 17 3 18 4 19 89 20 86 21 85 22 2 23 1 24
REMARK SMILES IDX 87 25 88 26 19 27 20 28 21 29 22 30 23 32 24 33 25 34 83 35
REMARK SMILES IDX 26 36 82 37 27 38 28 39 29 40 76 41 30 42 81 43 75 44 77 45
REMARK SMILES IDX 31 46 80 47 74 48 73 49 32 51 62 52 43 53 61 54 44 55 47 56
REMARK SMILES IDX 60 57 78 58 45 59 46 60 59 62 79 63 48 64 33 65 34 66 42 67
REMARK SMILES IDX 35 68 41 69 36 70 37 71 38 72 39 73 40 74 63 75 64 76 72 77
REMARK SMILES IDX 65 78 71 79 66 80 67 81 68 82 69 83 70 84 49 85 50 86 58 87
REMARK SMILES IDX 51 88 57 89 52 90 53 91 54 92 55 93 56 94
REMARK H PARENT 17 5 6 16 21 31 77 50 47 61
REMARK Flexibility Score: inf
ROOT
ATOM      1  C   UNL A   1      31.696  29.188  25.092  1.00  0.00     0.118 C 
ENDROOT
BRANCH   1   2
ATOM      2  N   UNL A   1      31.207  29.453  23.759  1.00  0.00    -0.351 N 
ATOM      3  C   UNL A   1      30.674  28.673  22.766  1.00  0.00     0.261 C 
ATOM      4  O   UNL A   1      30.276  29.344  21.804  1.00  0.00    -0.268 OA
ATOM      5  H   UNL A   1      31.270  30.402  23.509  1.00  0.00     0.163 HD
BRANCH   3   6
ATOM      6  C   UNL A   1      30.585  27.206  22.774  1.00  0.00     0.096 A 
ATOM      7  C   UNL A   1      31.693  24.984  22.738  1.00  0.00     0.141 A 
ATOM      8  C   UNL A   1      30.433  24.917  23.280  1.00  0.00     0.038 A 
ATOM      9  S   UNL A   1      31.855  26.417  21.838  1.00  0.00    -0.116 S 
ATOM     10  C   UNL A   1      29.833  26.222  23.428  1.00  0.00    -0.026 A 
ATOM     11  C   UNL A   1      28.677  26.342  24.359  1.00  0.00     0.046 C 
BRANCH   7  12
ATOM     12  S   UNL A   1      33.096  23.920  22.911  1.00  0.00     0.271 S 
ATOM     13  O   UNL A   1      34.268  24.759  22.836  1.00  0.00    -0.200 OA
ATOM     14  O   UNL A   1      32.883  22.872  21.928  1.00  0.00    -0.200 OA
BRANCH  12  15
ATOM     15  N   UNL A   1      33.113  23.163  24.443  1.00  0.00    -0.279 N 
ATOM     16  H   UNL A   1      32.820  23.663  25.238  1.00  0.00     0.180 HD
BRANCH  15  17
ATOM     17  C   UNL A   1      33.553  21.795  24.579  1.00  0.00     0.056 A 
ATOM     18  C   UNL A   1      33.075  19.477  25.119  1.00  0.00     0.124 A 
ATOM     19  C   UNL A   1      32.655  20.784  24.899  1.00  0.00     0.073 A 
ATOM     20  C   UNL A   1      34.425  19.161  25.094  1.00  0.00     0.093 A 
ATOM     21  C   UNL A   1      35.354  20.179  24.870  1.00  0.00     0.124 A 
ATOM     22  C   UNL A   1      34.915  21.486  24.584  1.00  0.00     0.073 A 
BRANCH  18  23
ATOM     23  O   UNL A   1      32.101  18.531  25.293  1.00  0.00    -0.497 OA
ATOM     24  C   UNL A   1      32.643  17.211  25.303  1.00  0.00     0.278 C 
ENDBRANCH  18  23
BRANCH  21  25
ATOM     25  O   UNL A   1      36.715  20.016  24.908  1.00  0.00    -0.497 OA
ATOM     26  C   UNL A   1      37.492  21.206  24.786  1.00  0.00     0.278 C 
ENDBRANCH  21  25
ENDBRANCH  15  17
ENDBRANCH  12  15
ENDBRANCH   7  12
ENDBRANCH   3   6
ENDBRANCH   1   2
BRANCH   1  27
ATOM     27  C   UNL A   1      32.887  28.227  25.069  1.00  0.00     0.042 C 
BRANCH  27  28
ATOM     28  C   UNL A   1      34.005  28.573  26.047  1.00  0.00     0.118 C 
BRANCH  28  29
ATOM     29  N   UNL A   1      33.802  29.878  26.656  1.00  0.00    -0.352 N 
ATOM     30  C   UNL A   1      34.525  30.534  27.622  1.00  0.00     0.251 C 
ATOM     31  H   UNL A   1      33.018  30.372  26.322  1.00  0.00     0.163 HD
ATOM     32  O   UNL A   1      34.019  31.509  28.174  1.00  0.00    -0.269 OA
BRANCH  30  33
ATOM     33  C   UNL A   1      35.887  30.093  28.012  1.00  0.00     0.039 A 
ATOM     34  C   UNL A   1      36.092  29.617  29.312  1.00  0.00     0.014 A 
ATOM     35  C   UNL A   1      36.978  30.221  27.147  1.00  0.00     0.014 A 
ATOM     36  C   UNL A   1      37.370  29.232  29.727  1.00  0.00     0.010 A 
ATOM     37  C   UNL A   1      38.239  29.770  27.538  1.00  0.00     0.010 A 
ATOM     38  C   UNL A   1      38.453  29.284  28.835  1.00  0.00    -0.014 A 
BRANCH  38  39
ATOM     39  C   UNL A   1      39.815  28.853  29.247  1.00  0.00     0.031 A 
ATOM     40  C   UNL A   1      40.712  29.792  30.007  1.00  0.00     0.074 A 
ATOM     41  C   UNL A   1      40.266  27.635  28.886  1.00  0.00     0.049 A 
ATOM     42  N   UNL A   1      41.951  29.620  30.393  1.00  0.00    -0.248 NA
ATOM     43  C   UNL A   1      40.153  31.108  30.357  1.00  0.00     0.031 C 
ATOM     44  C   UNL A   1      39.509  26.643  28.120  1.00  0.00     0.029 A 
ATOM     45  N   UNL A   1      41.476  27.027  29.110  1.00  0.00    -0.354 N 
ATOM     46  C   UNL A   1      42.327  30.810  31.007  1.00  0.00     0.074 A 
ATOM     47  C   UNL A   1      41.199  31.710  30.905  1.00  0.00     0.031 C 
ATOM     48  C   UNL A   1      40.261  25.542  27.961  1.00  0.00     0.029 A 
ATOM     49  C   UNL A   1      41.565  25.763  28.577  1.00  0.00     0.049 A 
ATOM     50  H   UNL A   1      42.211  27.457  29.605  1.00  0.00     0.167 HD
ATOM     51  C   UNL A   1      43.497  31.121  31.617  1.00  0.00     0.031 A 
ATOM     52  C   UNL A   1      42.582  24.880  28.581  1.00  0.00     0.031 A 
ATOM     53  C   UNL A   1      44.611  30.219  31.732  1.00  0.00     0.049 A 
ATOM     54  C   UNL A   1      43.869  25.242  29.267  1.00  0.00     0.074 A 
ATOM     55  C   UNL A   1      45.819  30.419  32.378  1.00  0.00     0.029 A 
ATOM     56  N   UNL A   1      44.654  28.942  31.191  1.00  0.00    -0.354 N 
ATOM     57  N   UNL A   1      44.186  26.354  29.886  1.00  0.00    -0.248 NA
ATOM     58  C   UNL A   1      44.931  24.227  29.264  1.00  0.00     0.031 C 
ATOM     59  C   UNL A   1      46.609  29.279  32.191  1.00  0.00     0.029 A 
ATOM     60  C   UNL A   1      45.874  28.350  31.470  1.00  0.00     0.049 A 
ATOM     61  H   UNL A   1      43.925  28.519  30.683  1.00  0.00     0.167 HD
ATOM     62  C   UNL A   1      45.476  26.164  30.366  1.00  0.00     0.074 A 
ATOM     63  C   UNL A   1      45.876  24.827  29.976  1.00  0.00     0.031 C 
ATOM     64  C   UNL A   1      46.259  27.020  31.068  1.00  0.00     0.031 A 
BRANCH  51  65
ATOM     65  C   UNL A   1      43.629  32.506  32.193  1.00  0.00    -0.014 A 
ATOM     66  C   UNL A   1      43.297  32.771  33.536  1.00  0.00     0.010 A 
ATOM     67  C   UNL A   1      44.103  33.558  31.388  1.00  0.00     0.010 A 
ATOM     68  C   UNL A   1      43.382  34.070  34.043  1.00  0.00     0.020 A 
ATOM     69  C   UNL A   1      44.217  34.854  31.901  1.00  0.00     0.020 A 
ATOM     70  C   UNL A   1      43.832  35.105  33.219  1.00  0.00     0.054 A 
BRANCH  70  71
ATOM     71  S   UNL A   1      43.927  36.784  33.900  1.00  0.00     0.124 S 
ATOM     72  O   UNL A   1      44.320  37.561  32.727  1.00  0.00    -0.237 OA
ATOM     73  O   UNL A   1      42.566  37.015  34.379  1.00  0.00    -0.237 OA
ATOM     74  O   UNL A   1      44.941  36.677  34.946  1.00  0.00    -0.744 OA
ENDBRANCH  70  71
ENDBRANCH  51  65
BRANCH  52  75
ATOM     75  C   UNL A   1      42.405  23.553  27.932  1.00  0.00    -0.014 A 
ATOM     76  C   UNL A   1      43.003  23.287  26.688  1.00  0.00     0.010 A 
ATOM     77  C   UNL A   1      41.672  22.537  28.571  1.00  0.00     0.010 A 
ATOM     78  C   UNL A   1      42.869  22.030  26.092  1.00  0.00     0.020 A 
ATOM     79  C   UNL A   1      41.555  21.271  27.990  1.00  0.00     0.020 A 
ATOM     80  C   UNL A   1      42.150  21.028  26.750  1.00  0.00     0.054 A 
BRANCH  80  81
ATOM     81  S   UNL A   1      42.052  19.380  25.995  1.00  0.00     0.124 S 
ATOM     82  O   UNL A   1      40.617  19.227  25.786  1.00  0.00    -0.237 OA
ATOM     83  O   UNL A   1      42.855  19.539  24.785  1.00  0.00    -0.237 OA
ATOM     84  O   UNL A   1      42.637  18.507  27.010  1.00  0.00    -0.744 OA
ENDBRANCH  80  81
ENDBRANCH  52  75
BRANCH  64  85
ATOM     85  C   UNL A   1      47.619  26.528  31.483  1.00  0.00    -0.014 A 
ATOM     86  C   UNL A   1      47.780  25.709  32.614  1.00  0.00     0.010 A 
ATOM     87  C   UNL A   1      48.743  26.851  30.701  1.00  0.00     0.010 A 
ATOM     88  C   UNL A   1      49.049  25.246  32.974  1.00  0.00     0.020 A 
ATOM     89  C   UNL A   1      50.008  26.368  31.043  1.00  0.00     0.020 A 
ATOM     90  C   UNL A   1      50.155  25.580  32.187  1.00  0.00     0.054 A 
BRANCH  90  91
ATOM     91  S   UNL A   1      51.785  24.932  32.648  1.00  0.00     0.124 S 
ATOM     92  O   UNL A   1      52.665  25.636  31.719  1.00  0.00    -0.237 OA
ATOM     93  O   UNL A   1      51.905  25.328  34.049  1.00  0.00    -0.237 OA
ATOM     94  O   UNL A   1      51.662  23.494  32.421  1.00  0.00    -0.744 OA
ENDBRANCH  90  91
ENDBRANCH  64  85
ENDBRANCH  38  39
ENDBRANCH  30  33
ENDBRANCH  28  29
ENDBRANCH  27  28
ENDBRANCH   1  27
TORSDOF 18
ENDMDL
MODEL 2
REMARK VINA RESULT:     -11.1      4.236     10.341
REMARK SMILES COc1cc(NS(=O)(=O)c2cc(C)c(C(=O)NCCCNC(=O)c3ccc(-c4c5nc(c(-c6ccc(S(=O)(=O)[O-])cc6)c6ccc([nH]6)c(-c6ccc(S(=O)(=O)[O-])cc6)c6nc(c(-c7ccc(S(=O)(=O)[O-])cc7)c7ccc4[nH]7)C=C6)C=C5)cc3)s2)cc(OC)c1
REMARK SMILES IDX 18 1 17 2 15 3 16 4 14 6 10 7 11 8 84 9 12 10 13 11 7 12
REMARK SMILES IDX 8 13 9 14 6 15 5 17 3 18 4 19 89 20 86 21 85 22 2 23 1 24
REMARK SMILES IDX 87 25 88 26 19 27 20 28 21 29 22 30 23 32 24 33 25 34 83 35
REMARK SMILES IDX 26 36 82 37 27 38 28 39 29 40 76 41 30 42 81 43 75 44 77 45
REMARK SMILES IDX 31 46 80 47 74 48 73 49 32 51 62 52 43 53 61 54 44 55 47 56
REMARK SMILES IDX 60 57 78 58 45 59 46 60 59 62 79 63 48 64 33 65 34 66 42 67
REMARK SMILES IDX 35 68 41 69 36 70 37 71 38 72 39 73 40 74 63 75 64 76 72 77
REMARK SMILES IDX 65 78 71 79 66 80 67 81 68 82 69 83 70 84 49 85 50 86 58 87
REMARK SMILES IDX 51 88 57 89 52 90 53 91 54 92 55 93 56 94
REMARK H PARENT 17 5 6 16 21 31 77 50 47 61
REMARK Flexibility Score: inf
ROOT
ATOM      1  C   UNL A   1      37.265  22.259  25.194  1.00  0.00     0.118 C 
ENDROOT
BRANCH   1   2
ATOM      2  N   UNL A   1      36.547  22.764  24.047  1.00  0.00    -0.351 N 
ATOM      3  C   UNL A   1      35.224  22.990  23.774  1.00  0.00     0.261 C 
ATOM      4  O   UNL A   1      35.058  23.549  22.681  1.00  0.00    -0.268 OA
ATOM      5  H   UNL A   1      37.139  22.996  23.296  1.00  0.00     0.163 HD
BRANCH   3   6
ATOM      6  C   UNL A   1      34.088  22.610  24.626  1.00  0.00     0.096 A 
ATOM      7  C   UNL A   1      32.071  23.243  25.928  1.00  0.00     0.141 A 
ATOM      8  C   UNL A   1      32.044  21.921  25.556  1.00  0.00     0.038 A 
ATOM      9  S   UNL A   1      33.658  23.839  25.817  1.00  0.00    -0.116 S 
ATOM     10  C   UNL A   1      33.146  21.577  24.688  1.00  0.00    -0.026 A 
ATOM     11  C   UNL A   1      33.023  20.326  23.889  1.00  0.00     0.046 C 
BRANCH   7  12
ATOM     12  S   UNL A   1      30.769  24.355  26.377  1.00  0.00     0.271 S 
ATOM     13  O   UNL A   1      31.399  25.561  26.858  1.00  0.00    -0.200 OA
ATOM     14  O   UNL A   1      29.911  23.578  27.253  1.00  0.00    -0.200 OA
BRANCH  12  15
ATOM     15  N   UNL A   1      29.826  24.784  25.018  1.00  0.00    -0.279 N 
ATOM     16  H   UNL A   1      29.003  24.284  24.817  1.00  0.00     0.180 HD
BRANCH  15  17
ATOM     17  C   UNL A   1      30.227  25.876  24.164  1.00  0.00     0.056 A 
ATOM     18  C   UNL A   1      29.714  27.971  23.049  1.00  0.00     0.124 A 
ATOM     19  C   UNL A   1      29.380  26.954  23.936  1.00  0.00     0.073 A 
ATOM     20  C   UNL A   1      30.883  27.897  22.307  1.00  0.00     0.093 A 
ATOM     21  C   UNL A   1      31.704  26.776  22.446  1.00  0.00     0.124 A 
ATOM     22  C   UNL A   1      31.389  25.784  23.395  1.00  0.00     0.073 A 
BRANCH  18  23
ATOM     23  O   UNL A   1      28.878  29.053  22.997  1.00  0.00    -0.497 OA
ATOM     24  C   UNL A   1      27.510  28.669  23.124  1.00  0.00     0.278 C 
ENDBRANCH  18  23
BRANCH  21  25
ATOM     25  O   UNL A   1      32.836  26.541  21.710  1.00  0.00    -0.497 OA
ATOM     26  C   UNL A   1      32.715  25.580  20.662  1.00  0.00     0.278 C 
ENDBRANCH  21  25
ENDBRANCH  15  17
ENDBRANCH  12  15
ENDBRANCH   7  12
ENDBRANCH   3   6
ENDBRANCH   1   2
BRANCH   1  27
ATOM     27  C   UNL A   1      37.166  23.219  26.382  1.00  0.00     0.042 C 
BRANCH  27  28
ATOM     28  C   UNL A   1      38.063  24.448  26.285  1.00  0.00     0.118 C 
BRANCH  28  29
ATOM     29  N   UNL A   1      39.461  24.082  26.118  1.00  0.00    -0.352 N 
ATOM     30  C   UNL A   1      40.602  24.674  26.600  1.00  0.00     0.251 C 
ATOM     31  H   UNL A   1      39.614  23.279  25.569  1.00  0.00     0.163 HD
ATOM     32  O   UNL A   1      41.684  24.349  26.114  1.00  0.00    -0.269 OA
BRANCH  30  33
ATOM     33  C   UNL A   1      40.558  25.688  27.682  1.00  0.00     0.039 A 
ATOM     34  C   UNL A   1      39.573  25.573  28.670  1.00  0.00     0.014 A 
ATOM     35  C   UNL A   1      41.416  26.792  27.692  1.00  0.00     0.014 A 
ATOM     36  C   UNL A   1      39.475  26.533  29.682  1.00  0.00     0.010 A 
ATOM     37  C   UNL A   1      41.364  27.711  28.741  1.00  0.00     0.010 A 
ATOM     38  C   UNL A   1      40.385  27.600  29.739  1.00  0.00    -0.014 A 
BRANCH  38  39
ATOM     39  C   UNL A   1      40.318  28.616  30.822  1.00  0.00     0.031 A 
ATOM     40  C   UNL A   1      41.206  28.498  32.032  1.00  0.00     0.074 A 
ATOM     41  C   UNL A   1      39.415  29.614  30.745  1.00  0.00     0.049 A 
ATOM     42  N   UNL A   1      41.244  29.247  33.105  1.00  0.00    -0.248 NA
ATOM     43  C   UNL A   1      42.159  27.377  32.049  1.00  0.00     0.031 C 
ATOM     44  C   UNL A   1      38.474  29.822  29.643  1.00  0.00     0.029 A 
ATOM     45  N   UNL A   1      39.138  30.639  31.616  1.00  0.00    -0.354 N 
ATOM     46  C   UNL A   1      42.204  28.676  33.934  1.00  0.00     0.074 A 
ATOM     47  C   UNL A   1      42.693  27.494  33.257  1.00  0.00     0.031 C 
ATOM     48  C   UNL A   1      37.741  30.919  29.891  1.00  0.00     0.029 A 
ATOM     49  C   UNL A   1      38.132  31.471  31.184  1.00  0.00     0.049 A 
ATOM     50  H   UNL A   1      39.613  30.764  32.468  1.00  0.00     0.167 HD
ATOM     51  C   UNL A   1      42.651  29.103  35.140  1.00  0.00     0.031 A 
ATOM     52  C   UNL A   1      37.583  32.556  31.764  1.00  0.00     0.031 A 
ATOM     53  C   UNL A   1      42.175  30.287  35.804  1.00  0.00     0.049 A 
ATOM     54  C   UNL A   1      38.097  33.016  33.099  1.00  0.00     0.074 A 
ATOM     55  C   UNL A   1      42.602  30.835  37.001  1.00  0.00     0.029 A 
ATOM     56  N   UNL A   1      41.165  31.110  35.325  1.00  0.00    -0.354 N 
ATOM     57  N   UNL A   1      39.040  32.489  33.843  1.00  0.00    -0.248 NA
ATOM     58  C   UNL A   1      37.479  34.221  33.668  1.00  0.00     0.031 C 
ATOM     59  C   UNL A   1      41.822  31.965  37.268  1.00  0.00     0.029 A 
ATOM     60  C   UNL A   1      40.941  32.149  36.211  1.00  0.00     0.049 A 
ATOM     61  H   UNL A   1      40.680  30.974  34.480  1.00  0.00     0.167 HD
ATOM     62  C   UNL A   1      39.144  33.313  34.958  1.00  0.00     0.074 A 
ATOM     63  C   UNL A   1      38.178  34.378  34.785  1.00  0.00     0.031 C 
ATOM     64  C   UNL A   1      39.969  33.198  36.028  1.00  0.00     0.031 A 
BRANCH  51  65
ATOM     65  C   UNL A   1      43.702  28.267  35.823  1.00  0.00    -0.014 A 
ATOM     66  C   UNL A   1      45.071  28.450  35.546  1.00  0.00     0.010 A 
ATOM     67  C   UNL A   1      43.321  27.294  36.764  1.00  0.00     0.010 A 
ATOM     68  C   UNL A   1      46.031  27.638  36.153  1.00  0.00     0.020 A 
ATOM     69  C   UNL A   1      44.282  26.498  37.396  1.00  0.00     0.020 A 
ATOM     70  C   UNL A   1      45.629  26.660  37.067  1.00  0.00     0.054 A 
BRANCH  70  71
ATOM     71  S   UNL A   1      46.895  25.613  37.837  1.00  0.00     0.124 S 
ATOM     72  O   UNL A   1      47.096  24.587  36.816  1.00  0.00    -0.237 OA
ATOM     73  O   UNL A   1      48.010  26.538  38.024  1.00  0.00    -0.237 OA
ATOM     74  O   UNL A   1      46.260  25.151  39.069  1.00  0.00    -0.744 OA
ENDBRANCH  70  71
ENDBRANCH  51  65
BRANCH  52  75
ATOM     75  C   UNL A   1      36.498  33.294  31.063  1.00  0.00    -0.014 A 
ATOM     76  C   UNL A   1      36.723  33.844  29.790  1.00  0.00     0.010 A 
ATOM     77  C   UNL A   1      35.224  33.417  31.647  1.00  0.00     0.010 A 
ATOM     78  C   UNL A   1      35.696  34.506  29.113  1.00  0.00     0.020 A 
ATOM     79  C   UNL A   1      34.187  34.058  30.964  1.00  0.00     0.020 A 
ATOM     80  C   UNL A   1      34.432  34.604  29.703  1.00  0.00     0.054 A 
BRANCH  80  81
ATOM     81  S   UNL A   1      33.092  35.402  28.774  1.00  0.00     0.124 S 
ATOM     82  O   UNL A   1      33.814  36.404  27.998  1.00  0.00    -0.237 OA
ATOM     83  O   UNL A   1      32.532  34.291  28.010  1.00  0.00    -0.237 OA
ATOM     84  O   UNL A   1      32.219  35.928  29.822  1.00  0.00    -0.744 OA
ENDBRANCH  80  81
ENDBRANCH  52  75
BRANCH  64  85
ATOM     85  C   UNL A   1      39.880  34.264  37.085  1.00  0.00    -0.014 A 
ATOM     86  C   UNL A   1      40.494  35.517  36.905  1.00  0.00     0.010 A 
ATOM     87  C   UNL A   1      39.132  34.026  38.252  1.00  0.00     0.010 A 
ATOM     88  C   UNL A   1      40.384  36.503  37.890  1.00  0.00     0.020 A 
ATOM     89  C   UNL A   1      39.000  35.018  39.226  1.00  0.00     0.020 A 
ATOM     90  C   UNL A   1      39.640  36.246  39.045  1.00  0.00     0.054 A 
BRANCH  90  91
ATOM     91  S   UNL A   1      39.476  37.556  40.289  1.00  0.00     0.124 S 
ATOM     92  O   UNL A   1      38.888  36.832  41.414  1.00  0.00    -0.237 OA
ATOM     93  O   UNL A   1      40.856  37.995  40.477  1.00  0.00    -0.237 OA
ATOM     94  O   UNL A   1      38.599  38.533  39.649  1.00  0.00    -0.744 OA
ENDBRANCH  90  91
ENDBRANCH  64  85
ENDBRANCH  38  39
ENDBRANCH  30  33
ENDBRANCH  28  29
ENDBRANCH  27  28
ENDBRANCH   1  27
TORSDOF 18
ENDMDL
MODEL 3
REMARK VINA RESULT:     -11.1      2.752      9.427
REMARK SMILES COc1cc(NS(=O)(=O)c2cc(C)c(C(=O)NCCCNC(=O)c3ccc(-c4c5nc(c(-c6ccc(S(=O)(=O)[O-])cc6)c6ccc([nH]6)c(-c6ccc(S(=O)(=O)[O-])cc6)c6nc(c(-c7ccc(S(=O)(=O)[O-])cc7)c7ccc4[nH]7)C=C6)C=C5)cc3)s2)cc(OC)c1
REMARK SMILES IDX 18 1 17 2 15 3 16 4 14 6 10 7 11 8 84 9 12 10 13 11 7 12
REMARK SMILES IDX 8 13 9 14 6 15 5 17 3 18 4 19 89 20 86 21 85 22 2 23 1 24
REMARK SMILES IDX 87 25 88 26 19 27 20 28 21 29 22 30 23 32 24 33 25 34 83 35
REMARK SMILES IDX 26 36 82 37 27 38 28 39 29 40 76 41 30 42 81 43 75 44 77 45
REMARK SMILES IDX 31 46 80 47 74 48 73 49 32 51 62 52 43 53 61 54 44 55 47 56
REMARK SMILES IDX 60 57 78 58 45 59 46 60 59 62 79 63 48 64 33 65 34 66 42 67
REMARK SMILES IDX 35 68 41 69 36 70 37 71 38 72 39 73 40 74 63 75 64 76 72 77
REMARK SMILES IDX 65 78 71 79 66 80 67 81 68 82 69 83 70 84 49 85 50 86 58 87
REMARK SMILES IDX 51 88 57 89 52 90 53 91 54 92 55 93 56 94
REMARK H PARENT 17 5 6 16 21 31 77 50 47 61
REMARK Flexibility Score: inf
ROOT
ATOM      1  C   UNL A   1      35.619  22.172  24.034  1.00  0.00     0.118 C 
ENDROOT
BRANCH   1   2
ATOM      2  N   UNL A   1      34.827  21.180  24.724  1.00  0.00    -0.351 N 
ATOM      3  C   UNL A   1      33.482  20.981  24.892  1.00  0.00     0.261 C 
ATOM      4  O   UNL A   1      33.233  19.918  25.477  1.00  0.00    -0.268 OA
ATOM      5  H   UNL A   1      35.375  20.497  25.174  1.00  0.00     0.163 HD
BRANCH   3   6
ATOM      6  C   UNL A   1      32.414  21.901  24.473  1.00  0.00     0.096 A 
ATOM      7  C   UNL A   1      30.846  23.754  24.994  1.00  0.00     0.141 A 
ATOM      8  C   UNL A   1      31.085  23.651  23.646  1.00  0.00     0.038 A 
ATOM      9  S   UNL A   1      31.284  22.305  25.766  1.00  0.00    -0.116 S 
ATOM     10  C   UNL A   1      32.096  22.665  23.344  1.00  0.00    -0.026 A 
ATOM     11  C   UNL A   1      32.743  22.735  22.005  1.00  0.00     0.046 C 
BRANCH   7  12
ATOM     12  S   UNL A   1      30.282  25.111  25.980  1.00  0.00     0.271 S 
ATOM     13  O   UNL A   1      29.368  24.567  26.955  1.00  0.00    -0.200 OA
ATOM     14  O   UNL A   1      29.822  26.096  25.016  1.00  0.00    -0.200 OA
BRANCH  12  15
ATOM     15  N   UNL A   1      31.573  25.829  26.840  1.00  0.00    -0.279 N 
ATOM     16  H   UNL A   1      31.772  25.534  27.757  1.00  0.00     0.180 HD
BRANCH  15  17
ATOM     17  C   UNL A   1      32.373  26.863  26.231  1.00  0.00     0.056 A 
ATOM     18  C   UNL A   1      33.581  27.732  24.312  1.00  0.00     0.124 A 
ATOM     19  C   UNL A   1      32.740  26.790  24.892  1.00  0.00     0.073 A 
ATOM     20  C   UNL A   1      34.141  28.740  25.083  1.00  0.00     0.093 A 
ATOM     21  C   UNL A   1      33.865  28.778  26.451  1.00  0.00     0.124 A 
ATOM     22  C   UNL A   1      32.960  27.859  27.015  1.00  0.00     0.073 A 
BRANCH  18  23
ATOM     23  O   UNL A   1      33.772  27.648  22.960  1.00  0.00    -0.497 OA
ATOM     24  C   UNL A   1      33.511  26.334  22.470  1.00  0.00     0.278 C 
ENDBRANCH  18  23
BRANCH  21  25
ATOM     25  O   UNL A   1      34.422  29.666  27.335  1.00  0.00    -0.497 OA
ATOM     26  C   UNL A   1      33.791  30.943  27.423  1.00  0.00     0.278 C 
ENDBRANCH  21  25
ENDBRANCH  15  17
ENDBRANCH  12  15
ENDBRANCH   7  12
ENDBRANCH   3   6
ENDBRANCH   1   2
BRANCH   1  27
ATOM     27  C   UNL A   1      35.559  23.527  24.743  1.00  0.00     0.042 C 
BRANCH  27  28
ATOM     28  C   UNL A   1      36.315  23.590  26.065  1.00  0.00     0.118 C 
BRANCH  28  29
ATOM     29  N   UNL A   1      37.457  22.689  26.075  1.00  0.00    -0.352 N 
ATOM     30  C   UNL A   1      38.786  22.935  26.315  1.00  0.00     0.251 C 
ATOM     31  H   UNL A   1      37.241  21.748  25.878  1.00  0.00     0.163 HD
ATOM     32  O   UNL A   1      39.608  22.073  26.009  1.00  0.00    -0.269 OA
BRANCH  30  33
ATOM     33  C   UNL A   1      39.247  24.206  26.926  1.00  0.00     0.039 A 
ATOM     34  C   UNL A   1      39.963  25.111  26.133  1.00  0.00     0.014 A 
ATOM     35  C   UNL A   1      39.058  24.482  28.284  1.00  0.00     0.014 A 
ATOM     36  C   UNL A   1      40.448  26.300  26.686  1.00  0.00     0.010 A 
ATOM     37  C   UNL A   1      39.480  25.700  28.817  1.00  0.00     0.010 A 
ATOM     38  C   UNL A   1      40.191  26.617  28.029  1.00  0.00    -0.014 A 
BRANCH  38  39
ATOM     39  C   UNL A   1      40.673  27.888  28.629  1.00  0.00     0.031 A 
ATOM     40  C   UNL A   1      42.098  28.016  29.097  1.00  0.00     0.074 A 
ATOM     41  C   UNL A   1      39.812  28.910  28.807  1.00  0.00     0.049 A 
ATOM     42  N   UNL A   1      42.682  29.019  29.704  1.00  0.00    -0.248 NA
ATOM     43  C   UNL A   1      42.976  26.855  28.878  1.00  0.00     0.031 C 
ATOM     44  C   UNL A   1      38.398  28.902  28.429  1.00  0.00     0.029 A 
ATOM     45  N   UNL A   1      40.001  30.152  29.360  1.00  0.00    -0.354 N 
ATOM     46  C   UNL A   1      43.984  28.602  29.960  1.00  0.00     0.074 A 
ATOM     47  C   UNL A   1      44.091  27.241  29.481  1.00  0.00     0.031 C 
ATOM     48  C   UNL A   1      37.854  30.091  28.736  1.00  0.00     0.029 A 
ATOM     49  C   UNL A   1      38.867  30.930  29.367  1.00  0.00     0.049 A 
ATOM     50  H   UNL A   1      40.865  30.457  29.718  1.00  0.00     0.167 HD
ATOM     51  C   UNL A   1      45.003  29.294  30.526  1.00  0.00     0.031 A 
ATOM     52  C   UNL A   1      38.663  32.178  29.831  1.00  0.00     0.031 A 
ATOM     53  C   UNL A   1      44.899  30.652  30.986  1.00  0.00     0.049 A 
ATOM     54  C   UNL A   1      39.808  32.929  30.450  1.00  0.00     0.074 A 
ATOM     55  C   UNL A   1      45.887  31.459  31.523  1.00  0.00     0.029 A 
ATOM     56  N   UNL A   1      43.736  31.408  30.961  1.00  0.00    -0.354 N 
ATOM     57  N   UNL A   1      41.044  32.534  30.637  1.00  0.00    -0.248 NA
ATOM     58  C   UNL A   1      39.532  34.296  30.911  1.00  0.00     0.031 C 
ATOM     59  C   UNL A   1      45.312  32.689  31.863  1.00  0.00     0.029 A 
ATOM     60  C   UNL A   1      43.976  32.665  31.491  1.00  0.00     0.049 A 
ATOM     61  H   UNL A   1      42.868  31.098  30.617  1.00  0.00     0.167 HD
ATOM     62  C   UNL A   1      41.700  33.614  31.218  1.00  0.00     0.074 A 
ATOM     63  C   UNL A   1      40.727  34.680  31.339  1.00  0.00     0.031 C 
ATOM     64  C   UNL A   1      42.994  33.713  31.612  1.00  0.00     0.031 A 
BRANCH  51  65
ATOM     65  C   UNL A   1      46.318  28.577  30.689  1.00  0.00    -0.014 A 
ATOM     66  C   UNL A   1      46.606  27.840  31.854  1.00  0.00     0.010 A 
ATOM     67  C   UNL A   1      47.276  28.628  29.660  1.00  0.00     0.010 A 
ATOM     68  C   UNL A   1      47.847  27.217  32.009  1.00  0.00     0.020 A 
ATOM     69  C   UNL A   1      48.508  27.982  29.800  1.00  0.00     0.020 A 
ATOM     70  C   UNL A   1      48.794  27.300  30.985  1.00  0.00     0.054 A 
BRANCH  70  71
ATOM     71  S   UNL A   1      50.401  26.489  31.215  1.00  0.00     0.124 S 
ATOM     72  O   UNL A   1      50.693  26.796  32.613  1.00  0.00    -0.237 OA
ATOM     73  O   UNL A   1      50.099  25.089  30.929  1.00  0.00    -0.237 OA
ATOM     74  O   UNL A   1      51.264  27.149  30.238  1.00  0.00    -0.744 OA
ENDBRANCH  70  71
ENDBRANCH  51  65
BRANCH  52  75
ATOM     75  C   UNL A   1      37.318  32.800  29.699  1.00  0.00    -0.014 A 
ATOM     76  C   UNL A   1      36.394  32.723  30.755  1.00  0.00     0.010 A 
ATOM     77  C   UNL A   1      36.969  33.507  28.534  1.00  0.00     0.010 A 
ATOM     78  C   UNL A   1      35.143  33.337  30.648  1.00  0.00     0.020 A 
ATOM     79  C   UNL A   1      35.729  34.143  28.432  1.00  0.00     0.020 A 
ATOM     80  C   UNL A   1      34.821  34.048  29.488  1.00  0.00     0.054 A 
BRANCH  80  81
ATOM     81  S   UNL A   1      33.221  34.902  29.401  1.00  0.00     0.124 S 
ATOM     82  O   UNL A   1      32.819  34.937  30.803  1.00  0.00    -0.237 OA
ATOM     83  O   UNL A   1      33.582  36.189  28.813  1.00  0.00    -0.237 OA
ATOM     84  O   UNL A   1      32.421  34.035  28.538  1.00  0.00    -0.744 OA
ENDBRANCH  80  81
ENDBRANCH  52  75
BRANCH  64  85
ATOM     85  C   UNL A   1      43.439  35.028  32.191  1.00  0.00    -0.014 A 
ATOM     86  C   UNL A   1      43.366  35.275  33.573  1.00  0.00     0.010 A 
ATOM     87  C   UNL A   1      43.983  36.011  31.344  1.00  0.00     0.010 A 
ATOM     88  C   UNL A   1      43.803  36.496  34.095  1.00  0.00     0.020 A 
ATOM     89  C   UNL A   1      44.443  37.222  31.866  1.00  0.00     0.020 A 
ATOM     90  C   UNL A   1      44.336  37.462  33.238  1.00  0.00     0.054 A 
BRANCH  90  91
ATOM     91  S   UNL A   1      44.936  39.022  33.943  1.00  0.00     0.124 S 
ATOM     92  O   UNL A   1      43.818  39.419  34.795  1.00  0.00    -0.237 OA
ATOM     93  O   UNL A   1      46.148  38.612  34.647  1.00  0.00    -0.237 OA
ATOM     94  O   UNL A   1      45.159  39.868  32.772  1.00  0.00    -0.744 OA
ENDBRANCH  90  91
ENDBRANCH  64  85
ENDBRANCH  38  39
ENDBRANCH  30  33
ENDBRANCH  28  29
ENDBRANCH  27  28
ENDBRANCH   1  27
TORSDOF 18
ENDMDL
