MODEL 1
REMARK VINA RESULT:     -10.4      0.000      0.000
REMARK SMILES CCCC(O)(CCC)[C@@]1(C)CC[C@@H](C(=O)NCCCNC(=O)c2ccc(-c3c4nc(c(-c5ccc(S(=O)(=O)[O-])cc5)c5ccc([nH]5)c(-c5ccc(S(=O)(=O)[O-])cc5)c5nc(c(-c6ccc(S(=O)(=O)[O-])cc6)c6ccc3[nH]6)C=C5)C=C4)cc2)C(C)(C)O1
REMARK SMILES IDX 18 1 17 2 16 3 14 4 15 5 13 7 9 8 10 9 11 10 86 11 12 12
REMARK SMILES IDX 83 13 84 14 85 15 4 16 3 17 2 18 1 19 5 20 6 22 7 23 8 24
REMARK SMILES IDX 19 25 20 26 21 27 22 29 23 30 24 31 82 32 25 33 81 34 26 35
REMARK SMILES IDX 27 36 28 37 75 38 29 39 80 40 74 41 76 42 30 43 79 44 73 45
REMARK SMILES IDX 72 46 31 48 61 49 42 50 60 51 43 52 46 53 59 54 77 55 44 56
REMARK SMILES IDX 45 57 58 59 78 60 47 61 32 62 33 63 41 64 34 65 40 66 35 67
REMARK SMILES IDX 36 68 37 69 38 70 39 71 62 72 63 73 71 74 64 75 70 76 65 77
REMARK SMILES IDX 66 78 67 79 68 80 69 81 48 82 49 83 57 84 50 85 56 86 51 87
REMARK SMILES IDX 52 88 53 89 54 90 55 91
REMARK H PARENT 16 6 5 21 20 28 76 47 46 58
REMARK Flexibility Score: inf
ROOT
ATOM      1  C   UNL A   1      34.136  28.622  24.722  1.00  0.00     0.042 C 
ENDROOT
BRANCH   1   2
ATOM      2  C   UNL A   1      32.935  28.119  23.937  1.00  0.00     0.117 C 
BRANCH   2   3
ATOM      3  N   UNL A   1      33.231  27.070  22.983  1.00  0.00    -0.356 N 
ATOM      4  C   UNL A   1      33.471  25.743  23.177  1.00  0.00     0.226 C 
ATOM      5  O   UNL A   1      33.647  25.056  22.165  1.00  0.00    -0.275 OA
ATOM      6  H   UNL A   1      33.263  27.362  22.043  1.00  0.00     0.163 HD
BRANCH   4   7
ATOM      7  C   UNL A   1      33.503  25.074  24.562  1.00  0.00     0.110 C 
ATOM      8  C   UNL A   1      33.485  22.637  26.299  1.00  0.00     0.095 C 
ATOM      9  C   UNL A   1      33.295  22.539  27.834  1.00  0.00     0.045 C 
ATOM     10  C   UNL A   1      34.719  23.518  26.098  1.00  0.00     0.039 C 
ATOM     11  O   UNL A   1      32.247  23.313  25.943  1.00  0.00    -0.366 OA
ATOM     12  C   UNL A   1      34.746  24.228  24.766  1.00  0.00     0.019 C 
ATOM     13  C   UNL A   1      32.168  24.475  25.091  1.00  0.00     0.075 C 
ATOM     14  C   UNL A   1      31.128  24.086  24.039  1.00  0.00     0.043 C 
ATOM     15  C   UNL A   1      31.462  25.591  25.904  1.00  0.00     0.043 C 
BRANCH   8  16
ATOM     16  C   UNL A   1      33.542  21.159  25.567  1.00  0.00     0.093 C 
BRANCH  16  17
ATOM     17  C   UNL A   1      32.280  20.560  24.842  1.00  0.00     0.038 C 
BRANCH  17  18
ATOM     18  C   UNL A   1      32.324  19.989  23.421  1.00  0.00    -0.000 C 
ATOM     19  C   UNL A   1      32.024  21.018  22.337  1.00  0.00     0.004 C 
ENDBRANCH  17  18
ENDBRANCH  16  17
BRANCH  16  20
ATOM     20  O   UNL A   1      33.849  20.218  26.625  1.00  0.00    -0.387 OA
ATOM     21  H   UNL A   1      34.360  19.478  26.262  1.00  0.00     0.211 HD
ENDBRANCH  16  20
BRANCH  16  22
ATOM     22  C   UNL A   1      34.753  20.987  24.556  1.00  0.00     0.038 C 
BRANCH  22  23
ATOM     23  C   UNL A   1      36.035  20.254  25.021  1.00  0.00    -0.000 C 
ATOM     24  C   UNL A   1      37.357  20.992  24.898  1.00  0.00     0.004 C 
ENDBRANCH  22  23
ENDBRANCH  16  22
ENDBRANCH   8  16
ENDBRANCH   4   7
ENDBRANCH   2   3
ENDBRANCH   1   2
BRANCH   1  25
ATOM     25  C   UNL A   1      34.011  28.488  26.221  1.00  0.00     0.118 C 
BRANCH  25  26
ATOM     26  N   UNL A   1      33.677  29.746  26.867  1.00  0.00    -0.352 N 
ATOM     27  C   UNL A   1      34.375  30.474  27.799  1.00  0.00     0.251 C 
ATOM     28  H   UNL A   1      32.816  30.138  26.594  1.00  0.00     0.163 HD
ATOM     29  O   UNL A   1      33.810  31.422  28.359  1.00  0.00    -0.269 OA
BRANCH  27  30
ATOM     30  C   UNL A   1      35.773  30.134  28.166  1.00  0.00     0.039 A 
ATOM     31  C   UNL A   1      36.035  29.599  29.431  1.00  0.00     0.014 A 
ATOM     32  C   UNL A   1      36.838  30.362  27.291  1.00  0.00     0.014 A 
ATOM     33  C   UNL A   1      37.341  29.242  29.786  1.00  0.00     0.010 A 
ATOM     34  C   UNL A   1      38.111  29.889  27.594  1.00  0.00     0.010 A 
ATOM     35  C   UNL A   1      38.388  29.349  28.857  1.00  0.00    -0.014 A 
BRANCH  35  36
ATOM     36  C   UNL A   1      39.782  28.949  29.193  1.00  0.00     0.031 A 
ATOM     37  C   UNL A   1      40.711  29.935  29.858  1.00  0.00     0.074 A 
ATOM     38  C   UNL A   1      40.238  27.728  28.846  1.00  0.00     0.049 A 
ATOM     39  N   UNL A   1      41.977  29.801  30.167  1.00  0.00    -0.248 NA
ATOM     40  C   UNL A   1      40.157  31.260  30.189  1.00  0.00     0.031 C 
ATOM     41  C   UNL A   1      39.461  26.698  28.153  1.00  0.00     0.029 A 
ATOM     42  N   UNL A   1      41.470  27.148  29.023  1.00  0.00    -0.354 N 
ATOM     43  C   UNL A   1      42.371  31.025  30.695  1.00  0.00     0.074 A 
ATOM     44  C   UNL A   1      41.229  31.909  30.614  1.00  0.00     0.031 C 
ATOM     45  C   UNL A   1      40.224  25.605  27.991  1.00  0.00     0.029 A 
ATOM     46  C   UNL A   1      41.556  25.867  28.528  1.00  0.00     0.049 A 
ATOM     47  H   UNL A   1      42.222  27.606  29.463  1.00  0.00     0.167 HD
ATOM     48  C   UNL A   1      43.567  31.381  31.224  1.00  0.00     0.031 A 
ATOM     49  C   UNL A   1      42.589  25.003  28.500  1.00  0.00     0.031 A 
ATOM     50  C   UNL A   1      44.693  30.493  31.331  1.00  0.00     0.049 A 
ATOM     51  C   UNL A   1      43.904  25.413  29.105  1.00  0.00     0.074 A 
ATOM     52  C   UNL A   1      45.924  30.731  31.917  1.00  0.00     0.029 A 
ATOM     53  N   UNL A   1      44.728  29.196  30.841  1.00  0.00    -0.354 N 
ATOM     54  N   UNL A   1      44.232  26.550  29.670  1.00  0.00    -0.248 NA
ATOM     55  C   UNL A   1      44.985  24.417  29.084  1.00  0.00     0.031 C 
ATOM     56  C   UNL A   1      46.722  29.598  31.733  1.00  0.00     0.029 A 
ATOM     57  C   UNL A   1      45.967  28.631  31.088  1.00  0.00     0.049 A 
ATOM     58  H   UNL A   1      43.981  28.744  30.386  1.00  0.00     0.167 HD
ATOM     59  C   UNL A   1      45.548  26.398  30.093  1.00  0.00     0.074 A 
ATOM     60  C   UNL A   1      45.949  25.053  29.734  1.00  0.00     0.031 C 
ATOM     61  C   UNL A   1      46.352  27.290  30.724  1.00  0.00     0.031 A 
BRANCH  48  62
ATOM     62  C   UNL A   1      43.718  32.795  31.723  1.00  0.00    -0.014 A 
ATOM     63  C   UNL A   1      43.482  33.125  33.072  1.00  0.00     0.010 A 
ATOM     64  C   UNL A   1      44.134  33.807  30.838  1.00  0.00     0.010 A 
ATOM     65  C   UNL A   1      43.611  34.444  33.513  1.00  0.00     0.020 A 
ATOM     66  C   UNL A   1      44.295  35.123  31.283  1.00  0.00     0.020 A 
ATOM     67  C   UNL A   1      44.013  35.436  32.614  1.00  0.00     0.054 A 
BRANCH  67  68
ATOM     68  S   UNL A   1      44.188  37.138  33.218  1.00  0.00     0.124 S 
ATOM     69  O   UNL A   1      42.860  37.399  33.769  1.00  0.00    -0.237 OA
ATOM     70  O   UNL A   1      45.262  37.020  34.201  1.00  0.00    -0.237 OA
ATOM     71  O   UNL A   1      44.525  37.900  32.019  1.00  0.00    -0.744 OA
ENDBRANCH  67  68
ENDBRANCH  48  62
BRANCH  49  72
ATOM     72  C   UNL A   1      42.414  23.657  27.888  1.00  0.00    -0.014 A 
ATOM     73  C   UNL A   1      42.659  23.456  26.517  1.00  0.00     0.010 A 
ATOM     74  C   UNL A   1      42.019  22.561  28.677  1.00  0.00     0.010 A 
ATOM     75  C   UNL A   1      42.498  22.189  25.947  1.00  0.00     0.020 A 
ATOM     76  C   UNL A   1      41.887  21.288  28.117  1.00  0.00     0.020 A 
ATOM     77  C   UNL A   1      42.117  21.111  26.751  1.00  0.00     0.054 A 
BRANCH  77  78
ATOM     78  S   UNL A   1      41.972  19.465  26.001  1.00  0.00     0.124 S 
ATOM     79  O   UNL A   1      42.844  19.585  24.836  1.00  0.00    -0.237 OA
ATOM     80  O   UNL A   1      42.455  18.590  27.067  1.00  0.00    -0.237 OA
ATOM     81  O   UNL A   1      40.546  19.348  25.707  1.00  0.00    -0.744 OA
ENDBRANCH  77  78
ENDBRANCH  49  72
BRANCH  61  82
ATOM     82  C   UNL A   1      47.737  26.835  31.099  1.00  0.00    -0.014 A 
ATOM     83  C   UNL A   1      47.980  26.144  32.298  1.00  0.00     0.010 A 
ATOM     84  C   UNL A   1      48.801  27.050  30.203  1.00  0.00     0.010 A 
ATOM     85  C   UNL A   1      49.269  25.704  32.610  1.00  0.00     0.020 A 
ATOM     86  C   UNL A   1      50.085  26.585  30.497  1.00  0.00     0.020 A 
ATOM     87  C   UNL A   1      50.314  25.927  31.707  1.00  0.00     0.054 A 
BRANCH  87  88
ATOM     88  S   UNL A   1      51.968  25.305  32.114  1.00  0.00     0.124 S 
ATOM     89  O   UNL A   1      52.232  25.958  33.393  1.00  0.00    -0.237 OA
ATOM     90  O   UNL A   1      51.761  23.860  32.177  1.00  0.00    -0.237 OA
ATOM     91  O   UNL A   1      52.794  25.761  30.999  1.00  0.00    -0.744 OA
ENDBRANCH  87  88
ENDBRANCH  61  82
ENDBRANCH  35  36
ENDBRANCH  27  30
ENDBRANCH  25  26
ENDBRANCH   1  25
TORSDOF 19
ENDMDL
MODEL 2
REMARK VINA RESULT:     -10.3      2.632      9.195
REMARK SMILES CCCC(O)(CCC)[C@@]1(C)CC[C@@H](C(=O)NCCCNC(=O)c2ccc(-c3c4nc(c(-c5ccc(S(=O)(=O)[O-])cc5)c5ccc([nH]5)c(-c5ccc(S(=O)(=O)[O-])cc5)c5nc(c(-c6ccc(S(=O)(=O)[O-])cc6)c6ccc3[nH]6)C=C5)C=C4)cc2)C(C)(C)O1
REMARK SMILES IDX 18 1 17 2 16 3 14 4 15 5 13 7 9 8 10 9 11 10 86 11 12 12
REMARK SMILES IDX 83 13 84 14 85 15 4 16 3 17 2 18 1 19 5 20 6 22 7 23 8 24
REMARK SMILES IDX 19 25 20 26 21 27 22 29 23 30 24 31 82 32 25 33 81 34 26 35
REMARK SMILES IDX 27 36 28 37 75 38 29 39 80 40 74 41 76 42 30 43 79 44 73 45
REMARK SMILES IDX 72 46 31 48 61 49 42 50 60 51 43 52 46 53 59 54 77 55 44 56
REMARK SMILES IDX 45 57 58 59 78 60 47 61 32 62 33 63 41 64 34 65 40 66 35 67
REMARK SMILES IDX 36 68 37 69 38 70 39 71 62 72 63 73 71 74 64 75 70 76 65 77
REMARK SMILES IDX 66 78 67 79 68 80 69 81 48 82 49 83 57 84 50 85 56 86 51 87
REMARK SMILES IDX 52 88 53 89 54 90 55 91
REMARK H PARENT 16 6 5 21 20 28 76 47 46 58
REMARK Flexibility Score: inf
ROOT
ATOM      1  C   UNL A   1      35.462  23.219  25.509  1.00  0.00     0.042 C 
ENDROOT
BRANCH   1   2
ATOM      2  C   UNL A   1      34.706  22.584  24.352  1.00  0.00     0.117 C 
BRANCH   2   3
ATOM      3  N   UNL A   1      33.906  21.430  24.711  1.00  0.00    -0.356 N 
ATOM      4  C   UNL A   1      32.561  21.311  24.891  1.00  0.00     0.226 C 
ATOM      5  O   UNL A   1      32.132  20.182  25.147  1.00  0.00    -0.275 OA
ATOM      6  H   UNL A   1      34.416  20.599  24.847  1.00  0.00     0.163 HD
BRANCH   4   7
ATOM      7  C   UNL A   1      31.575  22.486  24.763  1.00  0.00     0.110 C 
ATOM      8  C   UNL A   1      30.991  25.419  24.649  1.00  0.00     0.095 C 
ATOM      9  C   UNL A   1      29.621  26.141  24.737  1.00  0.00     0.045 C 
ATOM     10  C   UNL A   1      30.881  24.491  23.437  1.00  0.00     0.039 C 
ATOM     11  O   UNL A   1      30.968  24.699  25.912  1.00  0.00    -0.366 OA
ATOM     12  C   UNL A   1      31.805  23.299  23.503  1.00  0.00     0.019 C 
ATOM     13  C   UNL A   1      31.264  23.293  26.056  1.00  0.00     0.075 C 
ATOM     14  C   UNL A   1      32.323  23.254  27.159  1.00  0.00     0.043 C 
ATOM     15  C   UNL A   1      30.026  22.632  26.717  1.00  0.00     0.043 C 
BRANCH   8  16
ATOM     16  C   UNL A   1      32.265  26.467  24.627  1.00  0.00     0.093 C 
BRANCH  16  17
ATOM     17  C   UNL A   1      33.217  26.616  25.872  1.00  0.00     0.038 C 
BRANCH  17  18
ATOM     18  C   UNL A   1      33.115  27.774  26.870  1.00  0.00    -0.000 C 
ATOM     19  C   UNL A   1      34.282  28.751  26.799  1.00  0.00     0.004 C 
ENDBRANCH  17  18
ENDBRANCH  16  17
BRANCH  16  20
ATOM     20  O   UNL A   1      31.680  27.779  24.442  1.00  0.00    -0.387 OA
ATOM     21  H   UNL A   1      30.740  27.686  24.224  1.00  0.00     0.211 HD
ENDBRANCH  16  20
BRANCH  16  22
ATOM     22  C   UNL A   1      33.213  26.303  23.365  1.00  0.00     0.038 C 
BRANCH  22  23
ATOM     23  C   UNL A   1      33.211  27.393  22.265  1.00  0.00    -0.000 C 
ATOM     24  C   UNL A   1      34.259  28.488  22.351  1.00  0.00     0.004 C 
ENDBRANCH  22  23
ENDBRANCH  16  22
ENDBRANCH   8  16
ENDBRANCH   4   7
ENDBRANCH   2   3
ENDBRANCH   1   2
BRANCH   1  25
ATOM     25  C   UNL A   1      36.852  23.701  25.165  1.00  0.00     0.118 C 
BRANCH  25  26
ATOM     26  N   UNL A   1      37.876  22.723  25.491  1.00  0.00    -0.352 N 
ATOM     27  C   UNL A   1      39.081  22.884  26.130  1.00  0.00     0.251 C 
ATOM     28  H   UNL A   1      37.675  21.801  25.210  1.00  0.00     0.163 HD
ATOM     29  O   UNL A   1      39.886  21.945  26.127  1.00  0.00    -0.269 OA
BRANCH  27  30
ATOM     30  C   UNL A   1      39.446  24.160  26.795  1.00  0.00     0.039 A 
ATOM     31  C   UNL A   1      39.042  24.380  28.117  1.00  0.00     0.014 A 
ATOM     32  C   UNL A   1      40.156  25.160  26.127  1.00  0.00     0.014 A 
ATOM     33  C   UNL A   1      39.402  25.562  28.773  1.00  0.00     0.010 A 
ATOM     34  C   UNL A   1      40.623  26.274  26.819  1.00  0.00     0.010 A 
ATOM     35  C   UNL A   1      40.228  26.506  28.143  1.00  0.00    -0.014 A 
BRANCH  35  36
ATOM     36  C   UNL A   1      40.654  27.759  28.825  1.00  0.00     0.031 A 
ATOM     37  C   UNL A   1      42.022  27.847  29.458  1.00  0.00     0.074 A 
ATOM     38  C   UNL A   1      39.797  28.793  28.937  1.00  0.00     0.049 A 
ATOM     39  N   UNL A   1      42.550  28.822  30.156  1.00  0.00    -0.248 NA
ATOM     40  C   UNL A   1      42.900  26.672  29.320  1.00  0.00     0.031 C 
ATOM     41  C   UNL A   1      38.427  28.821  28.416  1.00  0.00     0.029 A 
ATOM     42  N   UNL A   1      39.947  30.022  29.532  1.00  0.00    -0.354 N 
ATOM     43  C   UNL A   1      43.799  28.366  30.560  1.00  0.00     0.074 A 
ATOM     44  C   UNL A   1      43.931  27.008  30.081  1.00  0.00     0.031 C 
ATOM     45  C   UNL A   1      37.877  30.015  28.688  1.00  0.00     0.029 A 
ATOM     46  C   UNL A   1      38.833  30.823  29.438  1.00  0.00     0.049 A 
ATOM     47  H   UNL A   1      40.775  30.303  29.983  1.00  0.00     0.167 HD
ATOM     48  C   UNL A   1      44.765  29.022  31.248  1.00  0.00     0.031 A 
ATOM     49  C   UNL A   1      38.600  32.064  29.909  1.00  0.00     0.031 A 
ATOM     50  C   UNL A   1      44.645  30.382  31.699  1.00  0.00     0.049 A 
ATOM     51  C   UNL A   1      39.691  32.781  30.657  1.00  0.00     0.074 A 
ATOM     52  C   UNL A   1      45.593  31.163  32.338  1.00  0.00     0.029 A 
ATOM     53  N   UNL A   1      43.510  31.166  31.560  1.00  0.00    -0.354 N 
ATOM     54  N   UNL A   1      40.895  32.359  30.963  1.00  0.00    -0.248 NA
ATOM     55  C   UNL A   1      39.398  34.147  31.113  1.00  0.00     0.031 C 
ATOM     56  C   UNL A   1      45.011  32.399  32.635  1.00  0.00     0.029 A 
ATOM     57  C   UNL A   1      43.723  32.411  32.124  1.00  0.00     0.049 A 
ATOM     58  H   UNL A   1      42.675  30.878  31.123  1.00  0.00     0.167 HD
ATOM     59  C   UNL A   1      41.511  33.416  31.623  1.00  0.00     0.074 A 
ATOM     60  C   UNL A   1      40.553  34.502  31.658  1.00  0.00     0.031 C 
ATOM     61  C   UNL A   1      42.759  33.483  32.152  1.00  0.00     0.031 A 
BRANCH  48  62
ATOM     62  C   UNL A   1      46.035  28.272  31.559  1.00  0.00    -0.014 A 
ATOM     63  C   UNL A   1      47.144  28.320  30.692  1.00  0.00     0.010 A 
ATOM     64  C   UNL A   1      46.135  27.533  32.752  1.00  0.00     0.010 A 
ATOM     65  C   UNL A   1      48.307  27.604  30.988  1.00  0.00     0.020 A 
ATOM     66  C   UNL A   1      47.308  26.841  33.068  1.00  0.00     0.020 A 
ATOM     67  C   UNL A   1      48.381  26.866  32.173  1.00  0.00     0.054 A 
BRANCH  67  68
ATOM     68  S   UNL A   1      49.909  25.960  32.539  1.00  0.00     0.124 S 
ATOM     69  O   UNL A   1      50.923  26.996  32.360  1.00  0.00    -0.237 OA
ATOM     70  O   UNL A   1      49.698  25.520  33.916  1.00  0.00    -0.237 OA
ATOM     71  O   UNL A   1      49.927  24.892  31.543  1.00  0.00    -0.744 OA
ENDBRANCH  67  68
ENDBRANCH  48  62
BRANCH  49  72
ATOM     72  C   UNL A   1      37.281  32.713  29.670  1.00  0.00    -0.014 A 
ATOM     73  C   UNL A   1      36.278  32.680  30.656  1.00  0.00     0.010 A 
ATOM     74  C   UNL A   1      37.026  33.386  28.462  1.00  0.00     0.010 A 
ATOM     75  C   UNL A   1      35.042  33.295  30.431  1.00  0.00     0.020 A 
ATOM     76  C   UNL A   1      35.804  34.027  28.245  1.00  0.00     0.020 A 
ATOM     77  C   UNL A   1      34.814  33.969  29.228  1.00  0.00     0.054 A 
BRANCH  77  78
ATOM     78  S   UNL A   1      33.224  34.809  28.982  1.00  0.00     0.124 S 
ATOM     79  O   UNL A   1      33.646  36.134  28.537  1.00  0.00    -0.237 OA
ATOM     80  O   UNL A   1      32.581  33.975  27.969  1.00  0.00    -0.237 OA
ATOM     81  O   UNL A   1      32.603  34.760  30.304  1.00  0.00    -0.744 OA
ENDBRANCH  77  78
ENDBRANCH  49  72
BRANCH  61  82
ATOM     82  C   UNL A   1      43.177  34.782  32.785  1.00  0.00    -0.014 A 
ATOM     83  C   UNL A   1      43.714  35.830  32.019  1.00  0.00     0.010 A 
ATOM     84  C   UNL A   1      42.969  34.977  34.165  1.00  0.00     0.010 A 
ATOM     85  C   UNL A   1      44.066  37.039  32.625  1.00  0.00     0.020 A 
ATOM     86  C   UNL A   1      43.291  36.195  34.768  1.00  0.00     0.020 A 
ATOM     87  C   UNL A   1      43.852  37.214  33.996  1.00  0.00     0.054 A 
BRANCH  87  88
ATOM     88  S   UNL A   1      44.273  38.809  34.750  1.00  0.00     0.124 S 
ATOM     89  O   UNL A   1      43.365  39.721  34.060  1.00  0.00    -0.237 OA
ATOM     90  O   UNL A   1      43.982  38.582  36.163  1.00  0.00    -0.237 OA
ATOM     91  O   UNL A   1      45.689  38.980  34.432  1.00  0.00    -0.744 OA
ENDBRANCH  87  88
ENDBRANCH  61  82
ENDBRANCH  35  36
ENDBRANCH  27  30
ENDBRANCH  25  26
ENDBRANCH   1  25
TORSDOF 19
ENDMDL
MODEL 3
REMARK VINA RESULT:     -10.1      3.003      3.859
REMARK SMILES CCCC(O)(CCC)[C@@]1(C)CC[C@@H](C(=O)NCCCNC(=O)c2ccc(-c3c4nc(c(-c5ccc(S(=O)(=O)[O-])cc5)c5ccc([nH]5)c(-c5ccc(S(=O)(=O)[O-])cc5)c5nc(c(-c6ccc(S(=O)(=O)[O-])cc6)c6ccc3[nH]6)C=C5)C=C4)cc2)C(C)(C)O1
REMARK SMILES IDX 18 1 17 2 16 3 14 4 15 5 13 7 9 8 10 9 11 10 86 11 12 12
REMARK SMILES IDX 83 13 84 14 85 15 4 16 3 17 2 18 1 19 5 20 6 22 7 23 8 24
REMARK SMILES IDX 19 25 20 26 21 27 22 29 23 30 24 31 82 32 25 33 81 34 26 35
REMARK SMILES IDX 27 36 28 37 75 38 29 39 80 40 74 41 76 42 30 43 79 44 73 45
REMARK SMILES IDX 72 46 31 48 61 49 42 50 60 51 43 52 46 53 59 54 77 55 44 56
REMARK SMILES IDX 45 57 58 59 78 60 47 61 32 62 33 63 41 64 34 65 40 66 35 67
REMARK SMILES IDX 36 68 37 69 38 70 39 71 62 72 63 73 71 74 64 75 70 76 65 77
REMARK SMILES IDX 66 78 67 79 68 80 69 81 48 82 49 83 57 84 50 85 56 86 51 87
REMARK SMILES IDX 52 88 53 89 54 90 55 91
REMARK H PARENT 16 6 5 21 20 28 76 47 46 58
REMARK Flexibility Score: inf
ROOT
ATOM      1  C   UNL A   1      34.487  29.679  27.675  1.00  0.00     0.042 C 
ENDROOT
BRANCH   1   2
ATOM      2  C   UNL A   1      33.456  30.103  26.642  1.00  0.00     0.117 C 
BRANCH   2   3
ATOM      3  N   UNL A   1      33.723  29.642  25.294  1.00  0.00    -0.356 N 
ATOM      4  C   UNL A   1      33.652  28.391  24.760  1.00  0.00     0.226 C 
ATOM      5  O   UNL A   1      33.887  28.289  23.551  1.00  0.00    -0.275 OA
ATOM      6  H   UNL A   1      33.999  30.346  24.664  1.00  0.00     0.163 HD
BRANCH   4   7
ATOM      7  C   UNL A   1      33.274  27.137  25.567  1.00  0.00     0.110 C 
ATOM      8  C   UNL A   1      32.207  24.346  25.730  1.00  0.00     0.095 C 
ATOM      9  C   UNL A   1      31.795  23.535  26.985  1.00  0.00     0.045 C 
ATOM     10  C   UNL A   1      33.681  24.698  25.941  1.00  0.00     0.039 C 
ATOM     11  O   UNL A   1      31.329  25.494  25.883  1.00  0.00    -0.366 OA
ATOM     12  C   UNL A   1      34.121  25.935  25.196  1.00  0.00     0.019 C 
ATOM     13  C   UNL A   1      31.758  26.869  25.791  1.00  0.00     0.075 C 
ATOM     14  C   UNL A   1      30.796  27.485  24.773  1.00  0.00     0.043 C 
ATOM     15  C   UNL A   1      31.368  27.559  27.124  1.00  0.00     0.043 C 
BRANCH   8  16
ATOM     16  C   UNL A   1      31.860  23.561  24.321  1.00  0.00     0.093 C 
BRANCH  16  17
ATOM     17  C   UNL A   1      32.556  23.970  22.969  1.00  0.00     0.038 C 
BRANCH  17  18
ATOM     18  C   UNL A   1      32.283  25.300  22.257  1.00  0.00    -0.000 C 
ATOM     19  C   UNL A   1      32.669  25.297  20.783  1.00  0.00     0.004 C 
ENDBRANCH  17  18
ENDBRANCH  16  17
BRANCH  16  20
ATOM     20  O   UNL A   1      30.446  23.781  24.097  1.00  0.00    -0.387 OA
ATOM     21  H   UNL A   1      29.958  23.606  24.917  1.00  0.00     0.211 HD
ENDBRANCH  16  20
BRANCH  16  22
ATOM     22  C   UNL A   1      31.979  21.982  24.416  1.00  0.00     0.038 C 
BRANCH  22  23
ATOM     23  C   UNL A   1      33.289  21.288  23.969  1.00  0.00    -0.000 C 
ATOM     24  C   UNL A   1      34.521  21.475  24.838  1.00  0.00     0.004 C 
ENDBRANCH  22  23
ENDBRANCH  16  22
ENDBRANCH   8  16
ENDBRANCH   4   7
ENDBRANCH   2   3
ENDBRANCH   1   2
BRANCH   1  25
ATOM     25  C   UNL A   1      35.408  30.784  28.137  1.00  0.00     0.118 C 
BRANCH  25  26
ATOM     26  N   UNL A   1      35.402  30.946  29.581  1.00  0.00    -0.352 N 
ATOM     27  C   UNL A   1      36.380  30.673  30.506  1.00  0.00     0.251 C 
ATOM     28  H   UNL A   1      34.566  31.308  29.956  1.00  0.00     0.163 HD
ATOM     29  O   UNL A   1      36.088  30.703  31.708  1.00  0.00    -0.269 OA
BRANCH  27  30
ATOM     30  C   UNL A   1      37.761  30.316  30.096  1.00  0.00     0.039 A 
ATOM     31  C   UNL A   1      38.653  29.828  31.057  1.00  0.00     0.014 A 
ATOM     32  C   UNL A   1      38.204  30.483  28.782  1.00  0.00     0.014 A 
ATOM     33  C   UNL A   1      39.950  29.456  30.687  1.00  0.00     0.010 A 
ATOM     34  C   UNL A   1      39.447  29.994  28.391  1.00  0.00     0.010 A 
ATOM     35  C   UNL A   1      40.349  29.500  29.342  1.00  0.00    -0.014 A 
BRANCH  35  36
ATOM     36  C   UNL A   1      41.712  29.083  28.911  1.00  0.00     0.031 A 
ATOM     37  C   UNL A   1      42.829  30.096  28.850  1.00  0.00     0.074 A 
ATOM     38  C   UNL A   1      41.936  27.814  28.512  1.00  0.00     0.049 A 
ATOM     39  N   UNL A   1      44.062  29.945  28.436  1.00  0.00    -0.248 NA
ATOM     40  C   UNL A   1      42.510  31.470  29.277  1.00  0.00     0.031 C 
ATOM     41  C   UNL A   1      40.933  26.747  28.472  1.00  0.00     0.029 A 
ATOM     42  N   UNL A   1      43.081  27.207  28.056  1.00  0.00    -0.354 N 
ATOM     43  C   UNL A   1      44.650  31.202  28.525  1.00  0.00     0.074 A 
ATOM     44  C   UNL A   1      43.625  32.117  28.978  1.00  0.00     0.031 C 
ATOM     45  C   UNL A   1      41.513  25.613  28.046  1.00  0.00     0.029 A 
ATOM     46  C   UNL A   1      42.915  25.878  27.742  1.00  0.00     0.049 A 
ATOM     47  H   UNL A   1      43.940  27.679  27.964  1.00  0.00     0.167 HD
ATOM     48  C   UNL A   1      45.931  31.564  28.277  1.00  0.00     0.031 A 
ATOM     49  C   UNL A   1      43.789  24.975  27.256  1.00  0.00     0.031 A 
ATOM     50  C   UNL A   1      46.956  30.648  27.856  1.00  0.00     0.049 A 
ATOM     51  C   UNL A   1      45.211  25.393  27.001  1.00  0.00     0.074 A 
ATOM     52  C   UNL A   1      48.302  30.898  27.650  1.00  0.00     0.029 A 
ATOM     53  N   UNL A   1      46.752  29.305  27.575  1.00  0.00    -0.354 N 
ATOM     54  N   UNL A   1      45.765  26.571  27.166  1.00  0.00    -0.248 NA
ATOM     55  C   UNL A   1      46.131  24.358  26.510  1.00  0.00     0.031 C 
ATOM     56  C   UNL A   1      48.900  29.720  27.191  1.00  0.00     0.029 A 
ATOM     57  C   UNL A   1      47.940  28.720  27.173  1.00  0.00     0.049 A 
ATOM     58  H   UNL A   1      45.889  28.837  27.651  1.00  0.00     0.167 HD
ATOM     59  C   UNL A   1      47.104  26.412  26.822  1.00  0.00     0.074 A 
ATOM     60  C   UNL A   1      47.278  25.021  26.457  1.00  0.00     0.031 C 
ATOM     61  C   UNL A   1      48.099  27.334  26.811  1.00  0.00     0.031 A 
BRANCH  48  62
ATOM     62  C   UNL A   1      46.295  33.017  28.452  1.00  0.00    -0.014 A 
ATOM     63  C   UNL A   1      46.142  33.941  27.401  1.00  0.00     0.010 A 
ATOM     64  C   UNL A   1      46.768  33.472  29.696  1.00  0.00     0.010 A 
ATOM     65  C   UNL A   1      46.501  35.280  27.576  1.00  0.00     0.020 A 
ATOM     66  C   UNL A   1      47.098  34.818  29.885  1.00  0.00     0.020 A 
ATOM     67  C   UNL A   1      46.981  35.710  28.817  1.00  0.00     0.054 A 
BRANCH  67  68
ATOM     68  S   UNL A   1      47.423  37.457  29.020  1.00  0.00     0.124 S 
ATOM     69  O   UNL A   1      46.348  37.941  29.881  1.00  0.00    -0.237 OA
ATOM     70  O   UNL A   1      48.742  37.383  29.644  1.00  0.00    -0.237 OA
ATOM     71  O   UNL A   1      47.411  37.980  27.656  1.00  0.00    -0.744 OA
ENDBRANCH  67  68
ENDBRANCH  48  62
BRANCH  49  72
ATOM     72  C   UNL A   1      43.342  23.578  26.992  1.00  0.00    -0.014 A 
ATOM     73  C   UNL A   1      43.135  22.680  28.055  1.00  0.00     0.010 A 
ATOM     74  C   UNL A   1      43.101  23.144  25.676  1.00  0.00     0.010 A 
ATOM     75  C   UNL A   1      42.710  21.371  27.804  1.00  0.00     0.020 A 
ATOM     76  C   UNL A   1      42.647  21.847  25.424  1.00  0.00     0.020 A 
ATOM     77  C   UNL A   1      42.464  20.964  26.490  1.00  0.00     0.054 A 
BRANCH  77  78
ATOM     78  S   UNL A   1      41.857  19.280  26.194  1.00  0.00     0.124 S 
ATOM     79  O   UNL A   1      42.647  18.871  25.037  1.00  0.00    -0.237 OA
ATOM     80  O   UNL A   1      42.176  18.605  27.451  1.00  0.00    -0.237 OA
ATOM     81  O   UNL A   1      40.430  19.470  25.943  1.00  0.00    -0.744 OA
ENDBRANCH  77  78
ENDBRANCH  49  72
BRANCH  61  82
ATOM     82  C   UNL A   1      49.476  26.866  26.424  1.00  0.00    -0.014 A 
ATOM     83  C   UNL A   1      50.303  26.191  27.338  1.00  0.00     0.010 A 
ATOM     84  C   UNL A   1      49.923  27.053  25.102  1.00  0.00     0.010 A 
ATOM     85  C   UNL A   1      51.565  25.738  26.946  1.00  0.00     0.020 A 
ATOM     86  C   UNL A   1      51.172  26.575  24.698  1.00  0.00     0.020 A 
ATOM     87  C   UNL A   1      51.992  25.933  25.628  1.00  0.00     0.054 A 
BRANCH  87  88
ATOM     88  S   UNL A   1      53.615  25.295  25.132  1.00  0.00     0.124 S 
ATOM     89  O   UNL A   1      53.596  25.507  23.687  1.00  0.00    -0.237 OA
ATOM     90  O   UNL A   1      54.537  26.146  25.880  1.00  0.00    -0.237 OA
ATOM     91  O   UNL A   1      53.584  23.898  25.557  1.00  0.00    -0.744 OA
ENDBRANCH  87  88
ENDBRANCH  61  82
ENDBRANCH  35  36
ENDBRANCH  27  30
ENDBRANCH  25  26
ENDBRANCH   1  25
TORSDOF 19
ENDMDL
