MODEL 1
REMARK VINA RESULT:     -10.3      0.000      0.000
REMARK SMILES COC(CNS(=O)(=O)c1ccc(Cl)c(C(=O)NCCCNC(=O)c2ccc(-c3c4nc(c(-c5ccc(S(=O)(=O)[O-])cc5)c5ccc([nH]5)c(-c5ccc(S(=O)(=O)[O-])cc5)c5nc(c(-c6ccc(S(=O)(=O)[O-])cc6)c6ccc3[nH]6)C=C5)C=C4)cc2)c1Cl)OC
REMARK SMILES IDX 18 1 17 2 15 3 16 4 14 6 9 7 10 8 84 9 11 10 85 11 12 12
REMARK SMILES IDX 13 13 6 14 7 15 8 16 5 17 4 19 3 20 2 21 1 22 86 23 87 24
REMARK SMILES IDX 19 25 20 26 21 27 22 28 23 30 24 31 25 32 83 33 26 34 82 35
REMARK SMILES IDX 27 36 28 37 29 38 76 39 30 40 81 41 75 42 77 43 31 44 80 45
REMARK SMILES IDX 74 46 73 47 32 49 62 50 43 51 61 52 44 53 47 54 60 55 78 56
REMARK SMILES IDX 45 57 46 58 59 60 79 61 48 62 33 63 34 64 42 65 35 66 41 67
REMARK SMILES IDX 36 68 37 69 38 70 39 71 40 72 63 73 64 74 72 75 65 76 71 77
REMARK SMILES IDX 66 78 67 79 68 80 69 81 70 82 49 83 50 84 58 85 51 86 57 87
REMARK SMILES IDX 52 88 53 89 54 90 55 91 56 92
REMARK H PARENT 17 5 5 18 21 29 77 48 47 59
REMARK Flexibility Score: inf
ROOT
ATOM      1  C   UNL A   1      31.781  28.274  26.967  1.00  0.00     0.118 C 
ENDROOT
BRANCH   1   2
ATOM      2  N   UNL A   1      31.138  26.972  26.919  1.00  0.00    -0.352 N 
ATOM      3  C   UNL A   1      30.649  26.237  25.871  1.00  0.00     0.254 C 
ATOM      4  O   UNL A   1      29.762  25.417  26.109  1.00  0.00    -0.269 OA
ATOM      5  H   UNL A   1      31.035  26.541  27.798  1.00  0.00     0.163 HD
BRANCH   3   6
ATOM      6  C   UNL A   1      31.198  26.282  24.492  1.00  0.00     0.078 A 
ATOM      7  C   UNL A   1      32.624  25.164  22.864  1.00  0.00     0.101 A 
ATOM      8  C   UNL A   1      32.108  25.972  21.845  1.00  0.00     0.025 A 
ATOM      9  C   UNL A   1      32.263  25.389  24.198  1.00  0.00     0.075 A 
ATOM     10  C   UNL A   1      31.106  26.882  22.134  1.00  0.00     0.023 A 
ATOM     11  Cl  UNL A   1      33.187  24.675  25.488  1.00  0.00    -0.082 Cl
ATOM     12  C   UNL A   1      30.586  26.968  23.430  1.00  0.00     0.055 A 
ATOM     13  Cl  UNL A   1      29.100  27.826  23.530  1.00  0.00    -0.083 Cl
BRANCH   7  14
ATOM     14  S   UNL A   1      33.512  23.727  22.321  1.00  0.00     0.242 S 
ATOM     15  O   UNL A   1      34.793  23.596  22.982  1.00  0.00    -0.207 OA
ATOM     16  O   UNL A   1      33.373  23.646  20.890  1.00  0.00    -0.207 OA
BRANCH  14  17
ATOM     17  N   UNL A   1      32.547  22.476  22.952  1.00  0.00    -0.206 NA
ATOM     18  H   UNL A   1      31.789  22.908  23.478  1.00  0.00     0.141 HD
BRANCH  17  19
ATOM     19  C   UNL A   1      33.216  21.495  23.850  1.00  0.00     0.161 C 
BRANCH  19  20
ATOM     20  C   UNL A   1      32.358  20.991  25.047  1.00  0.00     0.263 C 
BRANCH  20  21
ATOM     21  O   UNL A   1      32.525  21.628  26.314  1.00  0.00    -0.355 OA
ATOM     22  C   UNL A   1      33.709  21.389  27.040  1.00  0.00     0.198 C 
ENDBRANCH  20  21
BRANCH  20  23
ATOM     23  O   UNL A   1      32.153  19.579  25.123  1.00  0.00    -0.355 OA
ATOM     24  C   UNL A   1      33.013  18.753  24.372  1.00  0.00     0.198 C 
ENDBRANCH  20  23
ENDBRANCH  19  20
ENDBRANCH  17  19
ENDBRANCH  14  17
ENDBRANCH   7  14
ENDBRANCH   3   6
ENDBRANCH   1   2
BRANCH   1  25
ATOM     25  C   UNL A   1      33.301  28.103  26.852  1.00  0.00     0.042 C 
BRANCH  25  26
ATOM     26  C   UNL A   1      34.004  29.186  26.043  1.00  0.00     0.118 C 
BRANCH  26  27
ATOM     27  N   UNL A   1      33.691  30.516  26.529  1.00  0.00    -0.352 N 
ATOM     28  C   UNL A   1      34.248  31.230  27.562  1.00  0.00     0.251 C 
ATOM     29  H   UNL A   1      32.970  30.978  26.045  1.00  0.00     0.163 HD
ATOM     30  O   UNL A   1      33.663  32.233  27.966  1.00  0.00    -0.269 OA
BRANCH  28  31
ATOM     31  C   UNL A   1      35.525  30.815  28.200  1.00  0.00     0.039 A 
ATOM     32  C   UNL A   1      35.507  29.724  29.076  1.00  0.00     0.014 A 
ATOM     33  C   UNL A   1      36.714  31.527  28.017  1.00  0.00     0.014 A 
ATOM     34  C   UNL A   1      36.675  29.337  29.742  1.00  0.00     0.010 A 
ATOM     35  C   UNL A   1      37.897  31.091  28.620  1.00  0.00     0.010 A 
ATOM     36  C   UNL A   1      37.886  30.008  29.509  1.00  0.00    -0.014 A 
BRANCH  36  37
ATOM     37  C   UNL A   1      39.130  29.603  30.217  1.00  0.00     0.031 A 
ATOM     38  C   UNL A   1      39.542  30.299  31.491  1.00  0.00     0.074 A 
ATOM     39  C   UNL A   1      39.907  28.629  29.703  1.00  0.00     0.049 A 
ATOM     40  N   UNL A   1      40.591  30.086  32.246  1.00  0.00    -0.248 NA
ATOM     41  C   UNL A   1      38.677  31.391  31.966  1.00  0.00     0.031 C 
ATOM     42  C   UNL A   1      39.644  27.907  28.455  1.00  0.00     0.029 A 
ATOM     43  N   UNL A   1      41.074  28.073  30.166  1.00  0.00    -0.354 N 
ATOM     44  C   UNL A   1      40.521  31.024  33.270  1.00  0.00     0.074 A 
ATOM     45  C   UNL A   1      39.354  31.840  33.013  1.00  0.00     0.031 C 
ATOM     46  C   UNL A   1      40.601  26.985  28.271  1.00  0.00     0.029 A 
ATOM     47  C   UNL A   1      41.563  27.067  29.367  1.00  0.00     0.049 A 
ATOM     48  H   UNL A   1      41.519  28.368  30.994  1.00  0.00     0.167 HD
ATOM     49  C   UNL A   1      41.337  31.183  34.340  1.00  0.00     0.031 A 
ATOM     50  C   UNL A   1      42.657  26.295  29.500  1.00  0.00     0.031 A 
ATOM     51  C   UNL A   1      42.489  30.361  34.603  1.00  0.00     0.049 A 
ATOM     52  C   UNL A   1      43.537  26.472  30.707  1.00  0.00     0.074 A 
ATOM     53  C   UNL A   1      43.354  30.406  35.684  1.00  0.00     0.029 A 
ATOM     54  N   UNL A   1      42.937  29.339  33.778  1.00  0.00    -0.354 N 
ATOM     55  N   UNL A   1      43.419  27.328  31.694  1.00  0.00    -0.248 NA
ATOM     56  C   UNL A   1      44.685  25.564  30.828  1.00  0.00     0.031 C 
ATOM     57  C   UNL A   1      44.347  29.441  35.491  1.00  0.00     0.029 A 
ATOM     58  C   UNL A   1      44.070  28.756  34.319  1.00  0.00     0.049 A 
ATOM     59  H   UNL A   1      42.511  29.069  32.932  1.00  0.00     0.167 HD
ATOM     60  C   UNL A   1      44.461  27.042  32.569  1.00  0.00     0.074 A 
ATOM     61  C   UNL A   1      45.187  25.924  32.001  1.00  0.00     0.031 C 
ATOM     62  C   UNL A   1      44.785  27.646  33.740  1.00  0.00     0.031 A 
BRANCH  49  63
ATOM     63  C   UNL A   1      41.012  32.294  35.307  1.00  0.00    -0.014 A 
ATOM     64  C   UNL A   1      41.529  33.589  35.126  1.00  0.00     0.010 A 
ATOM     65  C   UNL A   1      40.153  32.048  36.394  1.00  0.00     0.010 A 
ATOM     66  C   UNL A   1      41.231  34.606  36.037  1.00  0.00     0.020 A 
ATOM     67  C   UNL A   1      39.828  33.070  37.292  1.00  0.00     0.020 A 
ATOM     68  C   UNL A   1      40.386  34.339  37.118  1.00  0.00     0.054 A 
BRANCH  68  69
ATOM     69  S   UNL A   1      40.002  35.681  38.277  1.00  0.00     0.124 S 
ATOM     70  O   UNL A   1      41.263  35.824  38.998  1.00  0.00    -0.237 OA
ATOM     71  O   UNL A   1      39.660  36.787  37.386  1.00  0.00    -0.237 OA
ATOM     72  O   UNL A   1      38.890  35.153  39.063  1.00  0.00    -0.744 OA
ENDBRANCH  68  69
ENDBRANCH  49  63
BRANCH  50  73
ATOM     73  C   UNL A   1      42.962  25.257  28.476  1.00  0.00    -0.014 A 
ATOM     74  C   UNL A   1      43.859  25.530  27.428  1.00  0.00     0.010 A 
ATOM     75  C   UNL A   1      42.371  23.982  28.557  1.00  0.00     0.010 A 
ATOM     76  C   UNL A   1      44.145  24.554  26.468  1.00  0.00     0.020 A 
ATOM     77  C   UNL A   1      42.676  22.996  27.615  1.00  0.00     0.020 A 
ATOM     78  C   UNL A   1      43.554  23.292  26.569  1.00  0.00     0.054 A 
BRANCH  78  79
ATOM     79  S   UNL A   1      43.984  22.022  25.346  1.00  0.00     0.124 S 
ATOM     80  O   UNL A   1      45.436  21.958  25.472  1.00  0.00    -0.237 OA
ATOM     81  O   UNL A   1      43.252  20.854  25.832  1.00  0.00    -0.237 OA
ATOM     82  O   UNL A   1      43.487  22.578  24.089  1.00  0.00    -0.744 OA
ENDBRANCH  78  79
ENDBRANCH  50  73
BRANCH  62  83
ATOM     83  C   UNL A   1      45.953  27.083  34.503  1.00  0.00    -0.014 A 
ATOM     84  C   UNL A   1      45.785  26.049  35.442  1.00  0.00     0.010 A 
ATOM     85  C   UNL A   1      47.245  27.583  34.259  1.00  0.00     0.010 A 
ATOM     86  C   UNL A   1      46.881  25.562  36.160  1.00  0.00     0.020 A 
ATOM     87  C   UNL A   1      48.347  27.079  34.952  1.00  0.00     0.020 A 
ATOM     88  C   UNL A   1      48.155  26.086  35.914  1.00  0.00     0.054 A 
BRANCH  88  89
ATOM     89  S   UNL A   1      49.565  25.430  36.848  1.00  0.00     0.124 S 
ATOM     90  O   UNL A   1      48.962  25.146  38.147  1.00  0.00    -0.237 OA
ATOM     91  O   UNL A   1      49.954  24.260  36.065  1.00  0.00    -0.237 OA
ATOM     92  O   UNL A   1      50.528  26.529  36.835  1.00  0.00    -0.744 OA
ENDBRANCH  88  89
ENDBRANCH  62  83
ENDBRANCH  36  37
ENDBRANCH  28  31
ENDBRANCH  26  27
ENDBRANCH  25  26
ENDBRANCH   1  25
TORSDOF 19
ENDMDL
MODEL 2
REMARK VINA RESULT:     -10.1      2.995      3.801
REMARK SMILES COC(CNS(=O)(=O)c1ccc(Cl)c(C(=O)NCCCNC(=O)c2ccc(-c3c4nc(c(-c5ccc(S(=O)(=O)[O-])cc5)c5ccc([nH]5)c(-c5ccc(S(=O)(=O)[O-])cc5)c5nc(c(-c6ccc(S(=O)(=O)[O-])cc6)c6ccc3[nH]6)C=C5)C=C4)cc2)c1Cl)OC
REMARK SMILES IDX 18 1 17 2 15 3 16 4 14 6 9 7 10 8 84 9 11 10 85 11 12 12
REMARK SMILES IDX 13 13 6 14 7 15 8 16 5 17 4 19 3 20 2 21 1 22 86 23 87 24
REMARK SMILES IDX 19 25 20 26 21 27 22 28 23 30 24 31 25 32 83 33 26 34 82 35
REMARK SMILES IDX 27 36 28 37 29 38 76 39 30 40 81 41 75 42 77 43 31 44 80 45
REMARK SMILES IDX 74 46 73 47 32 49 62 50 43 51 61 52 44 53 47 54 60 55 78 56
REMARK SMILES IDX 45 57 46 58 59 60 79 61 48 62 33 63 34 64 42 65 35 66 41 67
REMARK SMILES IDX 36 68 37 69 38 70 39 71 40 72 63 73 64 74 72 75 65 76 71 77
REMARK SMILES IDX 66 78 67 79 68 80 69 81 70 82 49 83 50 84 58 85 51 86 57 87
REMARK SMILES IDX 52 88 53 89 54 90 55 91 56 92
REMARK H PARENT 17 5 5 18 21 29 77 48 47 59
REMARK Flexibility Score: inf
ROOT
ATOM      1  C   UNL A   1      34.013  27.160  25.092  1.00  0.00     0.118 C 
ENDROOT
BRANCH   1   2
ATOM      2  N   UNL A   1      33.908  27.303  23.650  1.00  0.00    -0.352 N 
ATOM      3  C   UNL A   1      33.553  26.413  22.670  1.00  0.00     0.254 C 
ATOM      4  O   UNL A   1      33.976  26.613  21.532  1.00  0.00    -0.269 OA
ATOM      5  H   UNL A   1      34.134  28.202  23.317  1.00  0.00     0.163 HD
BRANCH   3   6
ATOM      6  C   UNL A   1      32.599  25.292  22.867  1.00  0.00     0.078 A 
ATOM      7  C   UNL A   1      32.289  23.064  23.801  1.00  0.00     0.101 A 
ATOM      8  C   UNL A   1      30.904  23.181  23.642  1.00  0.00     0.025 A 
ATOM      9  C   UNL A   1      33.145  24.060  23.314  1.00  0.00     0.075 A 
ATOM     10  C   UNL A   1      30.368  24.362  23.157  1.00  0.00     0.023 A 
ATOM     11  Cl  UNL A   1      34.847  23.744  23.144  1.00  0.00    -0.082 Cl
ATOM     12  C   UNL A   1      31.203  25.445  22.863  1.00  0.00     0.055 A 
ATOM     13  Cl  UNL A   1      30.370  26.937  22.674  1.00  0.00    -0.083 Cl
BRANCH   7  14
ATOM     14  S   UNL A   1      32.825  21.751  24.868  1.00  0.00     0.242 S 
ATOM     15  O   UNL A   1      34.057  21.147  24.410  1.00  0.00    -0.207 OA
ATOM     16  O   UNL A   1      31.665  20.968  25.208  1.00  0.00    -0.207 OA
BRANCH  14  17
ATOM     17  N   UNL A   1      33.236  22.608  26.278  1.00  0.00    -0.206 NA
ATOM     18  H   UNL A   1      33.960  22.077  26.761  1.00  0.00     0.141 HD
BRANCH  17  19
ATOM     19  C   UNL A   1      32.141  22.867  27.253  1.00  0.00     0.161 C 
BRANCH  19  20
ATOM     20  C   UNL A   1      31.094  23.932  26.816  1.00  0.00     0.263 C 
BRANCH  20  21
ATOM     21  O   UNL A   1      31.514  25.294  26.718  1.00  0.00    -0.355 OA
ATOM     22  C   UNL A   1      30.567  26.267  26.341  1.00  0.00     0.198 C 
ENDBRANCH  20  21
BRANCH  20  23
ATOM     23  O   UNL A   1      29.772  23.762  27.331  1.00  0.00    -0.355 OA
ATOM     24  C   UNL A   1      29.220  22.466  27.299  1.00  0.00     0.198 C 
ENDBRANCH  20  23
ENDBRANCH  19  20
ENDBRANCH  17  19
ENDBRANCH  14  17
ENDBRANCH   7  14
ENDBRANCH   3   6
ENDBRANCH   1   2
BRANCH   1  25
ATOM     25  C   UNL A   1      33.283  28.320  25.780  1.00  0.00     0.042 C 
BRANCH  25  26
ATOM     26  C   UNL A   1      33.673  28.546  27.236  1.00  0.00     0.118 C 
BRANCH  26  27
ATOM     27  N   UNL A   1      33.591  29.945  27.608  1.00  0.00    -0.352 N 
ATOM     28  C   UNL A   1      34.499  30.734  28.272  1.00  0.00     0.251 C 
ATOM     29  H   UNL A   1      32.759  30.399  27.346  1.00  0.00     0.163 HD
ATOM     30  O   UNL A   1      34.125  31.820  28.708  1.00  0.00    -0.269 OA
BRANCH  28  31
ATOM     31  C   UNL A   1      35.906  30.303  28.477  1.00  0.00     0.039 A 
ATOM     32  C   UNL A   1      36.284  29.844  29.745  1.00  0.00     0.014 A 
ATOM     33  C   UNL A   1      36.875  30.420  27.475  1.00  0.00     0.014 A 
ATOM     34  C   UNL A   1      37.612  29.484  29.996  1.00  0.00     0.010 A 
ATOM     35  C   UNL A   1      38.183  29.984  27.704  1.00  0.00     0.010 A 
ATOM     36  C   UNL A   1      38.572  29.536  28.973  1.00  0.00    -0.014 A 
BRANCH  36  37
ATOM     37  C   UNL A   1      39.988  29.158  29.236  1.00  0.00     0.031 A 
ATOM     38  C   UNL A   1      40.931  30.142  29.881  1.00  0.00     0.074 A 
ATOM     39  C   UNL A   1      40.434  27.941  28.869  1.00  0.00     0.049 A 
ATOM     40  N   UNL A   1      42.197  29.994  30.187  1.00  0.00    -0.248 NA
ATOM     41  C   UNL A   1      40.391  31.473  30.204  1.00  0.00     0.031 C 
ATOM     42  C   UNL A   1      39.634  26.913  28.197  1.00  0.00     0.029 A 
ATOM     43  N   UNL A   1      41.668  27.357  29.013  1.00  0.00    -0.354 N 
ATOM     44  C   UNL A   1      42.605  31.212  30.719  1.00  0.00     0.074 A 
ATOM     45  C   UNL A   1      41.469  32.104  30.650  1.00  0.00     0.031 C 
ATOM     46  C   UNL A   1      40.389  25.817  28.018  1.00  0.00     0.029 A 
ATOM     47  C   UNL A   1      41.731  26.070  28.532  1.00  0.00     0.049 A 
ATOM     48  H   UNL A   1      42.436  27.817  29.424  1.00  0.00     0.167 HD
ATOM     49  C   UNL A   1      43.809  31.555  31.239  1.00  0.00     0.031 A 
ATOM     50  C   UNL A   1      42.751  25.191  28.509  1.00  0.00     0.031 A 
ATOM     51  C   UNL A   1      44.935  30.661  31.322  1.00  0.00     0.049 A 
ATOM     52  C   UNL A   1      44.071  25.585  29.112  1.00  0.00     0.074 A 
ATOM     53  C   UNL A   1      46.183  30.895  31.875  1.00  0.00     0.029 A 
ATOM     54  N   UNL A   1      44.949  29.360  30.841  1.00  0.00    -0.354 N 
ATOM     55  N   UNL A   1      44.419  26.724  29.664  1.00  0.00    -0.248 NA
ATOM     56  C   UNL A   1      45.129  24.567  29.109  1.00  0.00     0.031 C 
ATOM     57  C   UNL A   1      46.965  29.749  31.691  1.00  0.00     0.029 A 
ATOM     58  C   UNL A   1      46.186  28.783  31.073  1.00  0.00     0.049 A 
ATOM     59  H   UNL A   1      44.191  28.913  30.399  1.00  0.00     0.167 HD
ATOM     60  C   UNL A   1      45.727  26.549  30.100  1.00  0.00     0.074 A 
ATOM     61  C   UNL A   1      46.101  25.189  29.763  1.00  0.00     0.031 C 
ATOM     62  C   UNL A   1      46.545  27.430  30.728  1.00  0.00     0.031 A 
BRANCH  49  63
ATOM     63  C   UNL A   1      43.970  32.962  31.758  1.00  0.00    -0.014 A 
ATOM     64  C   UNL A   1      44.370  34.009  30.908  1.00  0.00     0.010 A 
ATOM     65  C   UNL A   1      43.685  33.249  33.106  1.00  0.00     0.010 A 
ATOM     66  C   UNL A   1      44.528  35.305  31.404  1.00  0.00     0.020 A 
ATOM     67  C   UNL A   1      43.814  34.551  33.600  1.00  0.00     0.020 A 
ATOM     68  C   UNL A   1      44.253  35.567  32.749  1.00  0.00     0.054 A 
BRANCH  68  69
ATOM     69  S   UNL A   1      44.451  37.263  33.364  1.00  0.00     0.124 S 
ATOM     70  O   UNL A   1      43.065  37.665  33.587  1.00  0.00    -0.237 OA
ATOM     71  O   UNL A   1      45.252  37.076  34.571  1.00  0.00    -0.237 OA
ATOM     72  O   UNL A   1      45.131  37.952  32.270  1.00  0.00    -0.744 OA
ENDBRANCH  68  69
ENDBRANCH  49  63
BRANCH  50  73
ATOM     73  C   UNL A   1      42.550  23.837  27.924  1.00  0.00    -0.014 A 
ATOM     74  C   UNL A   1      42.691  23.630  26.539  1.00  0.00     0.010 A 
ATOM     75  C   UNL A   1      42.237  22.743  28.751  1.00  0.00     0.010 A 
ATOM     76  C   UNL A   1      42.503  22.357  25.991  1.00  0.00     0.020 A 
ATOM     77  C   UNL A   1      42.075  21.464  28.209  1.00  0.00     0.020 A 
ATOM     78  C   UNL A   1      42.199  21.282  26.830  1.00  0.00     0.054 A 
BRANCH  78  79
ATOM     79  S   UNL A   1      42.016  19.629  26.104  1.00  0.00     0.124 S 
ATOM     80  O   UNL A   1      42.954  19.681  24.987  1.00  0.00    -0.237 OA
ATOM     81  O   UNL A   1      42.396  18.753  27.211  1.00  0.00    -0.237 OA
ATOM     82  O   UNL A   1      40.603  19.573  25.735  1.00  0.00    -0.744 OA
ENDBRANCH  78  79
ENDBRANCH  50  73
BRANCH  62  83
ATOM     83  C   UNL A   1      47.910  26.938  31.127  1.00  0.00    -0.014 A 
ATOM     84  C   UNL A   1      48.112  26.227  32.323  1.00  0.00     0.010 A 
ATOM     85  C   UNL A   1      49.005  27.173  30.277  1.00  0.00     0.010 A 
ATOM     86  C   UNL A   1      49.394  25.804  32.686  1.00  0.00     0.020 A 
ATOM     87  C   UNL A   1      50.283  26.727  30.621  1.00  0.00     0.020 A 
ATOM     88  C   UNL A   1      50.473  26.064  31.834  1.00  0.00     0.054 A 
BRANCH  88  89
ATOM     89  S   UNL A   1      52.126  25.497  32.318  1.00  0.00     0.124 S 
ATOM     90  O   UNL A   1      52.849  25.554  31.050  1.00  0.00    -0.237 OA
ATOM     91  O   UNL A   1      52.527  26.485  33.316  1.00  0.00    -0.237 OA
ATOM     92  O   UNL A   1      51.891  24.153  32.842  1.00  0.00    -0.744 OA
ENDBRANCH  88  89
ENDBRANCH  62  83
ENDBRANCH  36  37
ENDBRANCH  28  31
ENDBRANCH  26  27
ENDBRANCH  25  26
ENDBRANCH   1  25
TORSDOF 19
ENDMDL
MODEL 3
REMARK VINA RESULT:     -10.0      2.867      3.509
REMARK SMILES COC(CNS(=O)(=O)c1ccc(Cl)c(C(=O)NCCCNC(=O)c2ccc(-c3c4nc(c(-c5ccc(S(=O)(=O)[O-])cc5)c5ccc([nH]5)c(-c5ccc(S(=O)(=O)[O-])cc5)c5nc(c(-c6ccc(S(=O)(=O)[O-])cc6)c6ccc3[nH]6)C=C5)C=C4)cc2)c1Cl)OC
REMARK SMILES IDX 18 1 17 2 15 3 16 4 14 6 9 7 10 8 84 9 11 10 85 11 12 12
REMARK SMILES IDX 13 13 6 14 7 15 8 16 5 17 4 19 3 20 2 21 1 22 86 23 87 24
REMARK SMILES IDX 19 25 20 26 21 27 22 28 23 30 24 31 25 32 83 33 26 34 82 35
REMARK SMILES IDX 27 36 28 37 29 38 76 39 30 40 81 41 75 42 77 43 31 44 80 45
REMARK SMILES IDX 74 46 73 47 32 49 62 50 43 51 61 52 44 53 47 54 60 55 78 56
REMARK SMILES IDX 45 57 46 58 59 60 79 61 48 62 33 63 34 64 42 65 35 66 41 67
REMARK SMILES IDX 36 68 37 69 38 70 39 71 40 72 63 73 64 74 72 75 65 76 71 77
REMARK SMILES IDX 66 78 67 79 68 80 69 81 70 82 49 83 50 84 58 85 51 86 57 87
REMARK SMILES IDX 52 88 53 89 54 90 55 91 56 92
REMARK H PARENT 17 5 5 18 21 29 77 48 47 59
REMARK Flexibility Score: inf
ROOT
ATOM      1  C   UNL A   1      31.565  28.617  25.945  1.00  0.00     0.118 C 
ENDROOT
BRANCH   1   2
ATOM      2  N   UNL A   1      32.432  28.542  24.783  1.00  0.00    -0.352 N 
ATOM      3  C   UNL A   1      32.948  27.472  24.098  1.00  0.00     0.254 C 
ATOM      4  O   UNL A   1      33.991  27.642  23.468  1.00  0.00    -0.269 OA
ATOM      5  H   UNL A   1      32.699  29.419  24.421  1.00  0.00     0.163 HD
BRANCH   3   6
ATOM      6  C   UNL A   1      32.271  26.156  23.974  1.00  0.00     0.078 A 
ATOM      7  C   UNL A   1      31.917  23.978  25.004  1.00  0.00     0.101 A 
ATOM      8  C   UNL A   1      30.856  23.727  24.129  1.00  0.00     0.025 A 
ATOM      9  C   UNL A   1      32.698  25.131  24.859  1.00  0.00     0.075 A 
ATOM     10  C   UNL A   1      30.466  24.702  23.227  1.00  0.00     0.023 A 
ATOM     11  Cl  UNL A   1      34.237  25.254  25.662  1.00  0.00    -0.082 Cl
ATOM     12  C   UNL A   1      31.107  25.946  23.216  1.00  0.00     0.055 A 
ATOM     13  Cl  UNL A   1      30.256  27.162  22.349  1.00  0.00    -0.083 Cl
BRANCH   7  14
ATOM     14  S   UNL A   1      32.011  22.906  26.415  1.00  0.00     0.242 S 
ATOM     15  O   UNL A   1      31.095  23.302  27.463  1.00  0.00    -0.207 OA
ATOM     16  O   UNL A   1      33.405  22.646  26.671  1.00  0.00    -0.207 OA
BRANCH  14  17
ATOM     17  N   UNL A   1      31.379  21.460  25.784  1.00  0.00    -0.206 NA
ATOM     18  H   UNL A   1      31.221  20.825  26.565  1.00  0.00     0.141 HD
BRANCH  17  19
ATOM     19  C   UNL A   1      32.211  20.740  24.781  1.00  0.00     0.161 C 
BRANCH  19  20
ATOM     20  C   UNL A   1      32.987  19.503  25.320  1.00  0.00     0.263 C 
BRANCH  20  21
ATOM     21  O   UNL A   1      34.298  19.252  24.811  1.00  0.00    -0.355 OA
ATOM     22  C   UNL A   1      35.272  20.264  24.925  1.00  0.00     0.198 C 
ENDBRANCH  20  21
BRANCH  20  23
ATOM     23  O   UNL A   1      32.212  18.325  25.548  1.00  0.00    -0.355 OA
ATOM     24  C   UNL A   1      32.894  17.093  25.595  1.00  0.00     0.198 C 
ENDBRANCH  20  23
ENDBRANCH  19  20
ENDBRANCH  17  19
ENDBRANCH  14  17
ENDBRANCH   7  14
ENDBRANCH   3   6
ENDBRANCH   1   2
BRANCH   1  25
ATOM     25  C   UNL A   1      32.268  27.985  27.153  1.00  0.00     0.042 C 
BRANCH  25  26
ATOM     26  C   UNL A   1      33.634  28.577  27.478  1.00  0.00     0.118 C 
BRANCH  26  27
ATOM     27  N   UNL A   1      33.566  30.008  27.703  1.00  0.00    -0.352 N 
ATOM     28  C   UNL A   1      34.487  30.855  28.269  1.00  0.00     0.251 C 
ATOM     29  H   UNL A   1      32.733  30.438  27.404  1.00  0.00     0.163 HD
ATOM     30  O   UNL A   1      34.125  31.984  28.593  1.00  0.00    -0.269 OA
BRANCH  28  31
ATOM     31  C   UNL A   1      35.894  30.437  28.501  1.00  0.00     0.039 A 
ATOM     32  C   UNL A   1      36.243  29.948  29.765  1.00  0.00     0.014 A 
ATOM     33  C   UNL A   1      36.888  30.595  27.529  1.00  0.00     0.014 A 
ATOM     34  C   UNL A   1      37.569  29.599  30.043  1.00  0.00     0.010 A 
ATOM     35  C   UNL A   1      38.195  30.171  27.782  1.00  0.00     0.010 A 
ATOM     36  C   UNL A   1      38.556  29.693  29.049  1.00  0.00    -0.014 A 
BRANCH  36  37
ATOM     37  C   UNL A   1      39.969  29.327  29.340  1.00  0.00     0.031 A 
ATOM     38  C   UNL A   1      40.890  30.317  30.006  1.00  0.00     0.074 A 
ATOM     39  C   UNL A   1      40.433  28.114  28.982  1.00  0.00     0.049 A 
ATOM     40  N   UNL A   1      42.150  30.180  30.338  1.00  0.00    -0.248 NA
ATOM     41  C   UNL A   1      40.333  31.643  30.320  1.00  0.00     0.031 C 
ATOM     42  C   UNL A   1      39.657  27.080  28.291  1.00  0.00     0.029 A 
ATOM     43  N   UNL A   1      41.669  27.540  29.150  1.00  0.00    -0.354 N 
ATOM     44  C   UNL A   1      42.537  31.400  30.880  1.00  0.00     0.074 A 
ATOM     45  C   UNL A   1      41.395  32.282  30.789  1.00  0.00     0.031 C 
ATOM     46  C   UNL A   1      40.424  25.991  28.126  1.00  0.00     0.029 A 
ATOM     47  C   UNL A   1      41.753  26.255  28.668  1.00  0.00     0.049 A 
ATOM     48  H   UNL A   1      42.425  28.006  29.577  1.00  0.00     0.167 HD
ATOM     49  C   UNL A   1      43.727  31.753  31.426  1.00  0.00     0.031 A 
ATOM     50  C   UNL A   1      42.780  25.385  28.665  1.00  0.00     0.031 A 
ATOM     51  C   UNL A   1      44.859  30.869  31.530  1.00  0.00     0.049 A 
ATOM     52  C   UNL A   1      44.085  25.789  29.296  1.00  0.00     0.074 A 
ATOM     53  C   UNL A   1      46.093  31.112  32.109  1.00  0.00     0.029 A 
ATOM     54  N   UNL A   1      44.894  29.569  31.048  1.00  0.00    -0.354 N 
ATOM     55  N   UNL A   1      44.411  26.930  29.856  1.00  0.00    -0.248 NA
ATOM     56  C   UNL A   1      45.152  24.780  29.313  1.00  0.00     0.031 C 
ATOM     57  C   UNL A   1      46.888  29.973  31.940  1.00  0.00     0.029 A 
ATOM     58  C   UNL A   1      46.131  29.001  31.305  1.00  0.00     0.049 A 
ATOM     59  H   UNL A   1      44.150  29.116  30.589  1.00  0.00     0.167 HD
ATOM     60  C   UNL A   1      45.712  26.765  30.319  1.00  0.00     0.074 A 
ATOM     61  C   UNL A   1      46.104  25.410  29.988  1.00  0.00     0.031 C 
ATOM     62  C   UNL A   1      46.508  27.653  30.965  1.00  0.00     0.031 A 
BRANCH  49  63
ATOM     63  C   UNL A   1      43.865  33.160  31.950  1.00  0.00    -0.014 A 
ATOM     64  C   UNL A   1      44.323  34.202  31.123  1.00  0.00     0.010 A 
ATOM     65  C   UNL A   1      43.501  33.453  33.277  1.00  0.00     0.010 A 
ATOM     66  C   UNL A   1      44.458  35.499  31.625  1.00  0.00     0.020 A 
ATOM     67  C   UNL A   1      43.607  34.755  33.775  1.00  0.00     0.020 A 
ATOM     68  C   UNL A   1      44.104  35.767  32.950  1.00  0.00     0.054 A 
BRANCH  68  69
ATOM     69  S   UNL A   1      44.275  37.463  33.572  1.00  0.00     0.124 S 
ATOM     70  O   UNL A   1      42.889  37.816  33.864  1.00  0.00    -0.237 OA
ATOM     71  O   UNL A   1      45.139  37.293  34.737  1.00  0.00    -0.237 OA
ATOM     72  O   UNL A   1      44.878  38.183  32.453  1.00  0.00    -0.744 OA
ENDBRANCH  68  69
ENDBRANCH  49  63
BRANCH  50  73
ATOM     73  C   UNL A   1      42.604  24.030  28.073  1.00  0.00    -0.014 A 
ATOM     74  C   UNL A   1      42.131  22.964  28.860  1.00  0.00     0.010 A 
ATOM     75  C   UNL A   1      42.888  23.804  26.714  1.00  0.00     0.010 A 
ATOM     76  C   UNL A   1      41.965  21.692  28.303  1.00  0.00     0.020 A 
ATOM     77  C   UNL A   1      42.697  22.540  26.148  1.00  0.00     0.020 A 
ATOM     78  C   UNL A   1      42.246  21.489  26.950  1.00  0.00     0.054 A 
BRANCH  78  79
ATOM     79  S   UNL A   1      41.968  19.844  26.234  1.00  0.00     0.124 S 
ATOM     80  O   UNL A   1      40.535  19.870  25.959  1.00  0.00    -0.237 OA
ATOM     81  O   UNL A   1      42.840  19.859  25.061  1.00  0.00    -0.237 OA
ATOM     82  O   UNL A   1      42.387  18.934  27.298  1.00  0.00    -0.744 OA
ENDBRANCH  78  79
ENDBRANCH  50  73
BRANCH  62  83
ATOM     83  C   UNL A   1      47.869  27.172  31.392  1.00  0.00    -0.014 A 
ATOM     84  C   UNL A   1      48.066  26.529  32.627  1.00  0.00     0.010 A 
ATOM     85  C   UNL A   1      48.966  27.346  30.528  1.00  0.00     0.010 A 
ATOM     86  C   UNL A   1      49.344  26.116  33.013  1.00  0.00     0.020 A 
ATOM     87  C   UNL A   1      50.239  26.909  30.897  1.00  0.00     0.020 A 
ATOM     88  C   UNL A   1      50.424  26.316  32.147  1.00  0.00     0.054 A 
BRANCH  88  89
ATOM     89  S   UNL A   1      52.073  25.762  32.663  1.00  0.00     0.124 S 
ATOM     90  O   UNL A   1      52.547  26.905  33.438  1.00  0.00    -0.237 OA
ATOM     91  O   UNL A   1      51.781  24.556  33.434  1.00  0.00    -0.237 OA
ATOM     92  O   UNL A   1      52.771  25.532  31.400  1.00  0.00    -0.744 OA
ENDBRANCH  88  89
ENDBRANCH  62  83
ENDBRANCH  36  37
ENDBRANCH  28  31
ENDBRANCH  26  27
ENDBRANCH  25  26
ENDBRANCH   1  25
TORSDOF 19
ENDMDL
