MODEL 1
REMARK VINA RESULT:     -10.7      0.000      0.000
REMARK SMILES O=C1NC[C@@H](CSc2ccnc(C(=O)NCCCNC(=O)c3ccc(-c4c5nc(c(-c6ccc(S(=O)(=O)[O-])cc6)c6ccc([nH]6)c(-c6ccc(S(=O)(=O)[O-])cc6)c6nc(c(-c7ccc(S(=O)(=O)[O-])cc7)c7ccc4[nH]7)C=C6)C=C5)cc3)c2)O1
REMARK SMILES IDX 17 1 16 2 15 3 13 4 14 5 12 7 8 8 9 9 82 10 10 11 11 12 7 13
REMARK SMILES IDX 6 14 5 15 1 16 2 17 3 18 83 19 4 20 18 22 19 23 20 24 21 26
REMARK SMILES IDX 22 27 23 28 81 29 24 30 80 31 25 32 26 33 27 34 74 35 28 36
REMARK SMILES IDX 79 37 73 38 75 39 29 40 78 41 72 42 71 43 30 45 60 46 41 47
REMARK SMILES IDX 59 48 42 49 45 50 58 51 76 52 43 53 44 54 57 56 77 57 46 58
REMARK SMILES IDX 31 59 32 60 40 61 33 62 39 63 34 64 35 65 36 66 37 67 38 68
REMARK SMILES IDX 61 69 62 70 70 71 63 72 69 73 64 74 65 75 66 76 67 77 68 78
REMARK SMILES IDX 47 79 48 80 56 81 49 82 55 83 50 84 51 85 52 86 53 87 54 88
REMARK H PARENT 15 6 3 21 19 25 75 44 45 55
REMARK Flexibility Score: inf
ROOT
ATOM      1  C   UNL A   1      35.101  33.354  27.994  1.00  0.00     0.042 C 
ENDROOT
BRANCH   1   2
ATOM      2  C   UNL A   1      35.293  34.771  28.530  1.00  0.00     0.118 C 
BRANCH   2   3
ATOM      3  N   UNL A   1      34.074  35.539  28.344  1.00  0.00    -0.351 N 
ATOM      4  C   UNL A   1      33.144  36.028  29.232  1.00  0.00     0.269 C 
ATOM      5  O   UNL A   1      32.157  36.593  28.757  1.00  0.00    -0.268 OA
ATOM      6  H   UNL A   1      33.876  35.750  27.403  1.00  0.00     0.163 HD
BRANCH   4   7
ATOM      7  C   UNL A   1      33.344  35.979  30.718  1.00  0.00     0.129 A 
ATOM      8  C   UNL A   1      33.998  34.891  32.737  1.00  0.00     0.011 A 
ATOM      9  C   UNL A   1      34.200  36.145  33.305  1.00  0.00     0.035 A 
ATOM     10  C   UNL A   1      33.521  34.802  31.433  1.00  0.00     0.049 A 
ATOM     11  C   UNL A   1      33.851  37.261  32.575  1.00  0.00     0.113 A 
ATOM     12  N   UNL A   1      33.440  37.205  31.298  1.00  0.00    -0.251 NA
BRANCH   8  13
ATOM     13  S   UNL A   1      34.551  33.434  33.596  1.00  0.00    -0.122 SA
BRANCH  13  14
ATOM     14  C   UNL A   1      36.280  33.862  34.033  1.00  0.00     0.122 C 
BRANCH  14  15
ATOM     15  C   UNL A   1      37.387  32.941  33.496  1.00  0.00     0.208 C 
ATOM     16  O   UNL A   1      38.500  30.386  35.538  1.00  0.00    -0.225 OA
ATOM     17  C   UNL A   1      38.044  31.096  34.655  1.00  0.00     0.407 C 
ATOM     18  N   UNL A   1      37.276  30.651  33.623  1.00  0.00    -0.318 N 
ATOM     19  O   UNL A   1      38.226  32.442  34.556  1.00  0.00    -0.443 OA
ATOM     20  C   UNL A   1      36.912  31.710  32.750  1.00  0.00     0.165 C 
ATOM     21  H   UNL A   1      37.006  29.712  33.497  1.00  0.00     0.167 HD
ENDBRANCH  14  15
ENDBRANCH  13  14
ENDBRANCH   8  13
ENDBRANCH   4   7
ENDBRANCH   2   3
ENDBRANCH   1   2
BRANCH   1  22
ATOM     22  C   UNL A   1      34.440  32.431  29.014  1.00  0.00     0.118 C 
BRANCH  22  23
ATOM     23  N   UNL A   1      33.847  31.267  28.371  1.00  0.00    -0.352 N 
ATOM     24  C   UNL A   1      34.448  30.160  27.832  1.00  0.00     0.251 C 
ATOM     25  H   UNL A   1      32.865  31.276  28.316  1.00  0.00     0.163 HD
ATOM     26  O   UNL A   1      33.806  29.435  27.077  1.00  0.00    -0.269 OA
BRANCH  24  27
ATOM     27  C   UNL A   1      35.853  29.840  28.157  1.00  0.00     0.039 A 
ATOM     28  C   UNL A   1      36.153  29.330  29.422  1.00  0.00     0.014 A 
ATOM     29  C   UNL A   1      36.879  30.089  27.240  1.00  0.00     0.014 A 
ATOM     30  C   UNL A   1      37.477  29.035  29.751  1.00  0.00     0.010 A 
ATOM     31  C   UNL A   1      38.182  29.707  27.535  1.00  0.00     0.010 A 
ATOM     32  C   UNL A   1      38.499  29.197  28.800  1.00  0.00    -0.014 A 
BRANCH  32  33
ATOM     33  C   UNL A   1      39.902  28.841  29.123  1.00  0.00     0.031 A 
ATOM     34  C   UNL A   1      40.782  29.808  29.869  1.00  0.00     0.074 A 
ATOM     35  C   UNL A   1      40.390  27.655  28.714  1.00  0.00     0.049 A 
ATOM     36  N   UNL A   1      42.022  29.661  30.259  1.00  0.00    -0.248 NA
ATOM     37  C   UNL A   1      40.202  31.121  30.196  1.00  0.00     0.031 C 
ATOM     38  C   UNL A   1      39.644  26.652  27.949  1.00  0.00     0.029 A 
ATOM     39  N   UNL A   1      41.622  27.084  28.896  1.00  0.00    -0.354 N 
ATOM     40  C   UNL A   1      42.370  30.861  30.871  1.00  0.00     0.074 A 
ATOM     41  C   UNL A   1      41.237  31.748  30.733  1.00  0.00     0.031 C 
ATOM     42  C   UNL A   1      40.413  25.566  27.782  1.00  0.00     0.029 A 
ATOM     43  C   UNL A   1      41.719  25.811  28.383  1.00  0.00     0.049 A 
ATOM     44  H   UNL A   1      42.368  27.539  29.350  1.00  0.00     0.167 HD
ATOM     45  C   UNL A   1      43.519  31.187  31.513  1.00  0.00     0.031 A 
ATOM     46  C   UNL A   1      42.741  24.936  28.406  1.00  0.00     0.031 A 
ATOM     47  C   UNL A   1      44.648  30.301  31.630  1.00  0.00     0.049 A 
ATOM     48  C   UNL A   1      44.018  25.329  29.094  1.00  0.00     0.074 A 
ATOM     49  C   UNL A   1      45.848  30.514  32.286  1.00  0.00     0.029 A 
ATOM     50  N   UNL A   1      44.721  29.034  31.068  1.00  0.00    -0.354 N 
ATOM     51  N   UNL A   1      44.309  26.444  29.722  1.00  0.00    -0.248 NA
ATOM     52  C   UNL A   1      45.098  24.336  29.090  1.00  0.00     0.031 C 
ATOM     53  C   UNL A   1      46.669  29.400  32.067  1.00  0.00     0.029 A 
ATOM     54  C   UNL A   1      45.954  28.463  31.336  1.00  0.00     0.049 A 
ATOM     55  H   UNL A   1      44.000  28.603  30.553  1.00  0.00     0.167 HD
ATOM     56  C   UNL A   1      45.599  26.277  30.211  1.00  0.00     0.074 A 
ATOM     57  C   UNL A   1      46.019  24.944  29.824  1.00  0.00     0.031 C 
ATOM     58  C   UNL A   1      46.365  27.144  30.921  1.00  0.00     0.031 A 
BRANCH  45  59
ATOM     59  C   UNL A   1      43.602  32.569  32.116  1.00  0.00    -0.014 A 
ATOM     60  C   UNL A   1      43.235  32.805  33.455  1.00  0.00     0.010 A 
ATOM     61  C   UNL A   1      44.039  33.651  31.331  1.00  0.00     0.010 A 
ATOM     62  C   UNL A   1      43.233  34.102  33.974  1.00  0.00     0.020 A 
ATOM     63  C   UNL A   1      44.074  34.947  31.858  1.00  0.00     0.020 A 
ATOM     64  C   UNL A   1      43.644  35.167  33.168  1.00  0.00     0.054 A 
BRANCH  64  65
ATOM     65  S   UNL A   1      43.609  36.843  33.860  1.00  0.00     0.124 S 
ATOM     66  O   UNL A   1      43.785  37.665  32.665  1.00  0.00    -0.237 OA
ATOM     67  O   UNL A   1      42.287  36.908  34.478  1.00  0.00    -0.237 OA
ATOM     68  O   UNL A   1      44.732  36.856  34.794  1.00  0.00    -0.744 OA
ENDBRANCH  64  65
ENDBRANCH  45  59
BRANCH  46  69
ATOM     69  C   UNL A   1      42.571  23.587  27.802  1.00  0.00    -0.014 A 
ATOM     70  C   UNL A   1      43.084  23.315  26.522  1.00  0.00     0.010 A 
ATOM     71  C   UNL A   1      41.933  22.556  28.517  1.00  0.00     0.010 A 
ATOM     72  C   UNL A   1      42.960  22.038  25.965  1.00  0.00     0.020 A 
ATOM     73  C   UNL A   1      41.833  21.271  27.975  1.00  0.00     0.020 A 
ATOM     74  C   UNL A   1      42.343  21.023  26.700  1.00  0.00     0.054 A 
BRANCH  74  75
ATOM     75  S   UNL A   1      42.262  19.356  25.987  1.00  0.00     0.124 S 
ATOM     76  O   UNL A   1      40.835  19.210  25.714  1.00  0.00    -0.237 OA
ATOM     77  O   UNL A   1      43.123  19.476  24.813  1.00  0.00    -0.237 OA
ATOM     78  O   UNL A   1      42.788  18.503  27.051  1.00  0.00    -0.744 OA
ENDBRANCH  74  75
ENDBRANCH  46  69
BRANCH  58  79
ATOM     79  C   UNL A   1      47.730  26.661  31.342  1.00  0.00    -0.014 A 
ATOM     80  C   UNL A   1      47.911  25.905  32.515  1.00  0.00     0.010 A 
ATOM     81  C   UNL A   1      48.849  26.962  30.544  1.00  0.00     0.010 A 
ATOM     82  C   UNL A   1      49.190  25.509  32.911  1.00  0.00     0.020 A 
ATOM     83  C   UNL A   1      50.126  26.536  30.917  1.00  0.00     0.020 A 
ATOM     84  C   UNL A   1      50.292  25.833  32.111  1.00  0.00     0.054 A 
BRANCH  84  85
ATOM     85  S   UNL A   1      51.942  25.304  32.644  1.00  0.00     0.124 S 
ATOM     86  O   UNL A   1      51.658  24.019  33.279  1.00  0.00    -0.237 OA
ATOM     87  O   UNL A   1      52.678  25.233  31.385  1.00  0.00    -0.237 OA
ATOM     88  O   UNL A   1      52.370  26.366  33.552  1.00  0.00    -0.744 OA
ENDBRANCH  84  85
ENDBRANCH  58  79
ENDBRANCH  32  33
ENDBRANCH  24  27
ENDBRANCH  22  23
ENDBRANCH   1  22
TORSDOF 16
ENDMDL
MODEL 2
REMARK VINA RESULT:     -10.3      1.082      8.435
REMARK SMILES O=C1NC[C@@H](CSc2ccnc(C(=O)NCCCNC(=O)c3ccc(-c4c5nc(c(-c6ccc(S(=O)(=O)[O-])cc6)c6ccc([nH]6)c(-c6ccc(S(=O)(=O)[O-])cc6)c6nc(c(-c7ccc(S(=O)(=O)[O-])cc7)c7ccc4[nH]7)C=C6)C=C5)cc3)c2)O1
REMARK SMILES IDX 17 1 16 2 15 3 13 4 14 5 12 7 8 8 9 9 82 10 10 11 11 12 7 13
REMARK SMILES IDX 6 14 5 15 1 16 2 17 3 18 83 19 4 20 18 22 19 23 20 24 21 26
REMARK SMILES IDX 22 27 23 28 81 29 24 30 80 31 25 32 26 33 27 34 74 35 28 36
REMARK SMILES IDX 79 37 73 38 75 39 29 40 78 41 72 42 71 43 30 45 60 46 41 47
REMARK SMILES IDX 59 48 42 49 45 50 58 51 76 52 43 53 44 54 57 56 77 57 46 58
REMARK SMILES IDX 31 59 32 60 40 61 33 62 39 63 34 64 35 65 36 66 37 67 38 68
REMARK SMILES IDX 61 69 62 70 70 71 63 72 69 73 64 74 65 75 66 76 67 77 68 78
REMARK SMILES IDX 47 79 48 80 56 81 49 82 55 83 50 84 51 85 52 86 53 87 54 88
REMARK H PARENT 15 6 3 21 19 25 75 44 45 55
REMARK Flexibility Score: inf
ROOT
ATOM      1  C   UNL A   1      34.491  33.634  27.943  1.00  0.00     0.042 C 
ENDROOT
BRANCH   1   2
ATOM      2  C   UNL A   1      33.162  34.223  28.410  1.00  0.00     0.118 C 
BRANCH   2   3
ATOM      3  N   UNL A   1      33.221  35.673  28.368  1.00  0.00    -0.351 N 
ATOM      4  C   UNL A   1      33.262  36.627  29.359  1.00  0.00     0.269 C 
ATOM      5  O   UNL A   1      33.234  37.807  29.005  1.00  0.00    -0.268 OA
ATOM      6  H   UNL A   1      33.234  36.046  27.457  1.00  0.00     0.163 HD
BRANCH   4   7
ATOM      7  C   UNL A   1      33.432  36.277  30.808  1.00  0.00     0.129 A 
ATOM      8  C   UNL A   1      34.297  34.935  32.581  1.00  0.00     0.011 A 
ATOM      9  C   UNL A   1      34.155  36.028  33.429  1.00  0.00     0.035 A 
ATOM     10  C   UNL A   1      33.890  35.044  31.254  1.00  0.00     0.049 A 
ATOM     11  C   UNL A   1      33.547  37.165  32.941  1.00  0.00     0.113 A 
ATOM     12  N   UNL A   1      33.195  37.315  31.653  1.00  0.00    -0.251 NA
BRANCH   8  13
ATOM     13  S   UNL A   1      35.186  33.497  33.135  1.00  0.00    -0.122 SA
BRANCH  13  14
ATOM     14  C   UNL A   1      35.751  33.998  34.806  1.00  0.00     0.122 C 
BRANCH  14  15
ATOM     15  C   UNL A   1      37.204  33.669  35.183  1.00  0.00     0.208 C 
ATOM     16  O   UNL A   1      38.141  30.345  35.267  1.00  0.00    -0.225 OA
ATOM     17  C   UNL A   1      37.995  31.539  35.057  1.00  0.00     0.407 C 
ATOM     18  N   UNL A   1      38.503  32.203  33.983  1.00  0.00    -0.318 N 
ATOM     19  O   UNL A   1      37.305  32.400  35.857  1.00  0.00    -0.443 OA
ATOM     20  C   UNL A   1      38.179  33.585  34.026  1.00  0.00     0.165 C 
ATOM     21  H   UNL A   1      39.028  31.780  33.266  1.00  0.00     0.167 HD
ENDBRANCH  14  15
ENDBRANCH  13  14
ENDBRANCH   8  13
ENDBRANCH   4   7
ENDBRANCH   2   3
ENDBRANCH   1   2
BRANCH   1  22
ATOM     22  C   UNL A   1      34.951  32.471  28.818  1.00  0.00     0.118 C 
BRANCH  22  23
ATOM     23  N   UNL A   1      34.264  31.237  28.465  1.00  0.00    -0.352 N 
ATOM     24  C   UNL A   1      34.776  30.021  28.097  1.00  0.00     0.251 C 
ATOM     25  H   UNL A   1      33.281  31.283  28.498  1.00  0.00     0.163 HD
ATOM     26  O   UNL A   1      34.042  29.198  27.556  1.00  0.00    -0.269 OA
BRANCH  24  27
ATOM     27  C   UNL A   1      36.195  29.700  28.351  1.00  0.00     0.039 A 
ATOM     28  C   UNL A   1      37.111  29.811  27.302  1.00  0.00     0.014 A 
ATOM     29  C   UNL A   1      36.616  29.242  29.603  1.00  0.00     0.014 A 
ATOM     30  C   UNL A   1      38.453  29.499  27.521  1.00  0.00     0.010 A 
ATOM     31  C   UNL A   1      37.968  29.023  29.845  1.00  0.00     0.010 A 
ATOM     32  C   UNL A   1      38.896  29.127  28.801  1.00  0.00    -0.014 A 
BRANCH  32  33
ATOM     33  C   UNL A   1      40.329  28.840  29.056  1.00  0.00     0.031 A 
ATOM     34  C   UNL A   1      40.917  27.505  28.686  1.00  0.00     0.074 A 
ATOM     35  C   UNL A   1      41.091  29.776  29.652  1.00  0.00     0.049 A 
ATOM     36  N   UNL A   1      42.149  27.085  28.810  1.00  0.00    -0.248 NA
ATOM     37  C   UNL A   1      39.995  26.503  28.127  1.00  0.00     0.031 C 
ATOM     38  C   UNL A   1      40.622  31.093  30.094  1.00  0.00     0.029 A 
ATOM     39  N   UNL A   1      42.422  29.773  29.977  1.00  0.00    -0.354 N 
ATOM     40  C   UNL A   1      42.149  25.771  28.352  1.00  0.00     0.074 A 
ATOM     41  C   UNL A   1      40.781  25.443  28.017  1.00  0.00     0.031 C 
ATOM     42  C   UNL A   1      41.662  31.791  30.574  1.00  0.00     0.029 A 
ATOM     43  C   UNL A   1      42.859  30.958  30.519  1.00  0.00     0.049 A 
ATOM     44  H   UNL A   1      43.011  28.996  29.836  1.00  0.00     0.167 HD
ATOM     45  C   UNL A   1      43.196  24.923  28.197  1.00  0.00     0.031 A 
ATOM     46  C   UNL A   1      44.088  31.337  30.916  1.00  0.00     0.031 A 
ATOM     47  C   UNL A   1      44.552  25.255  28.549  1.00  0.00     0.049 A 
ATOM     48  C   UNL A   1      45.229  30.371  30.767  1.00  0.00     0.074 A 
ATOM     49  C   UNL A   1      45.694  24.487  28.403  1.00  0.00     0.029 A 
ATOM     50  N   UNL A   1      44.948  26.453  29.127  1.00  0.00    -0.354 N 
ATOM     51  N   UNL A   1      45.222  29.155  30.273  1.00  0.00    -0.248 NA
ATOM     52  C   UNL A   1      46.546  30.836  31.215  1.00  0.00     0.031 C 
ATOM     53  C   UNL A   1      46.770  25.197  28.952  1.00  0.00     0.029 A 
ATOM     54  C   UNL A   1      46.311  26.436  29.372  1.00  0.00     0.049 A 
ATOM     55  H   UNL A   1      44.347  27.206  29.333  1.00  0.00     0.167 HD
ATOM     56  C   UNL A   1      46.541  28.718  30.327  1.00  0.00     0.074 A 
ATOM     57  C   UNL A   1      47.317  29.811  30.880  1.00  0.00     0.031 C 
ATOM     58  C   UNL A   1      47.064  27.524  29.948  1.00  0.00     0.031 A 
BRANCH  45  59
ATOM     59  C   UNL A   1      42.894  23.553  27.638  1.00  0.00    -0.014 A 
ATOM     60  C   UNL A   1      42.383  22.527  28.456  1.00  0.00     0.010 A 
ATOM     61  C   UNL A   1      43.136  23.281  26.279  1.00  0.00     0.010 A 
ATOM     62  C   UNL A   1      42.190  21.240  27.947  1.00  0.00     0.020 A 
ATOM     63  C   UNL A   1      42.909  22.003  25.756  1.00  0.00     0.020 A 
ATOM     64  C   UNL A   1      42.464  20.984  26.601  1.00  0.00     0.054 A 
BRANCH  64  65
ATOM     65  S   UNL A   1      42.228  19.299  25.972  1.00  0.00     0.124 S 
ATOM     66  O   UNL A   1      42.683  18.491  27.101  1.00  0.00    -0.237 OA
ATOM     67  O   UNL A   1      40.793  19.255  25.706  1.00  0.00    -0.237 OA
ATOM     68  O   UNL A   1      43.081  19.248  24.788  1.00  0.00    -0.744 OA
ENDBRANCH  64  65
ENDBRANCH  45  59
BRANCH  46  69
ATOM     69  C   UNL A   1      44.302  32.713  31.441  1.00  0.00    -0.014 A 
ATOM     70  C   UNL A   1      44.211  32.966  32.821  1.00  0.00     0.010 A 
ATOM     71  C   UNL A   1      44.638  33.768  30.572  1.00  0.00     0.010 A 
ATOM     72  C   UNL A   1      44.449  34.249  33.323  1.00  0.00     0.020 A 
ATOM     73  C   UNL A   1      44.905  35.045  31.074  1.00  0.00     0.020 A 
ATOM     74  C   UNL A   1      44.803  35.278  32.447  1.00  0.00     0.054 A 
BRANCH  74  75
ATOM     75  S   UNL A   1      45.181  36.915  33.131  1.00  0.00     0.124 S 
ATOM     76  O   UNL A   1      44.039  37.705  32.682  1.00  0.00    -0.237 OA
ATOM     77  O   UNL A   1      45.242  36.648  34.566  1.00  0.00    -0.237 OA
ATOM     78  O   UNL A   1      46.461  37.257  32.514  1.00  0.00    -0.744 OA
ENDBRANCH  74  75
ENDBRANCH  46  69
BRANCH  58  79
ATOM     79  C   UNL A   1      48.554  27.354  30.100  1.00  0.00    -0.014 A 
ATOM     80  C   UNL A   1      49.110  26.746  31.241  1.00  0.00     0.010 A 
ATOM     81  C   UNL A   1      49.412  27.801  29.078  1.00  0.00     0.010 A 
ATOM     82  C   UNL A   1      50.496  26.642  31.382  1.00  0.00     0.020 A 
ATOM     83  C   UNL A   1      50.796  27.665  29.199  1.00  0.00     0.020 A 
ATOM     84  C   UNL A   1      51.331  27.108  30.361  1.00  0.00     0.054 A 
BRANCH  84  85
ATOM     85  S   UNL A   1      53.126  26.958  30.567  1.00  0.00     0.124 S 
ATOM     86  O   UNL A   1      53.520  26.308  29.320  1.00  0.00    -0.237 OA
ATOM     87  O   UNL A   1      53.549  28.348  30.712  1.00  0.00    -0.237 OA
ATOM     88  O   UNL A   1      53.270  26.139  31.769  1.00  0.00    -0.744 OA
ENDBRANCH  84  85
ENDBRANCH  58  79
ENDBRANCH  32  33
ENDBRANCH  24  27
ENDBRANCH  22  23
ENDBRANCH   1  22
TORSDOF 16
ENDMDL
MODEL 3
REMARK VINA RESULT:     -10.2      3.196     11.488
REMARK SMILES O=C1NC[C@@H](CSc2ccnc(C(=O)NCCCNC(=O)c3ccc(-c4c5nc(c(-c6ccc(S(=O)(=O)[O-])cc6)c6ccc([nH]6)c(-c6ccc(S(=O)(=O)[O-])cc6)c6nc(c(-c7ccc(S(=O)(=O)[O-])cc7)c7ccc4[nH]7)C=C6)C=C5)cc3)c2)O1
REMARK SMILES IDX 17 1 16 2 15 3 13 4 14 5 12 7 8 8 9 9 82 10 10 11 11 12 7 13
REMARK SMILES IDX 6 14 5 15 1 16 2 17 3 18 83 19 4 20 18 22 19 23 20 24 21 26
REMARK SMILES IDX 22 27 23 28 81 29 24 30 80 31 25 32 26 33 27 34 74 35 28 36
REMARK SMILES IDX 79 37 73 38 75 39 29 40 78 41 72 42 71 43 30 45 60 46 41 47
REMARK SMILES IDX 59 48 42 49 45 50 58 51 76 52 43 53 44 54 57 56 77 57 46 58
REMARK SMILES IDX 31 59 32 60 40 61 33 62 39 63 34 64 35 65 36 66 37 67 38 68
REMARK SMILES IDX 61 69 62 70 70 71 63 72 69 73 64 74 65 75 66 76 67 77 68 78
REMARK SMILES IDX 47 79 48 80 56 81 49 82 55 83 50 84 51 85 52 86 53 87 54 88
REMARK H PARENT 15 6 3 21 19 25 75 44 45 55
REMARK Flexibility Score: inf
ROOT
ATOM      1  C   UNL A   1      41.712  21.033  26.610  1.00  0.00     0.042 C 
ENDROOT
BRANCH   1   2
ATOM      2  C   UNL A   1      42.601  22.245  26.339  1.00  0.00     0.118 C 
BRANCH   2   3
ATOM      3  N   UNL A   1      43.286  22.082  25.069  1.00  0.00    -0.351 N 
ATOM      4  C   UNL A   1      44.228  22.848  24.420  1.00  0.00     0.269 C 
ATOM      5  O   UNL A   1      44.574  22.479  23.297  1.00  0.00    -0.268 OA
ATOM      6  H   UNL A   1      43.027  21.270  24.577  1.00  0.00     0.163 HD
BRANCH   4   7
ATOM      7  C   UNL A   1      44.894  24.026  25.068  1.00  0.00     0.129 A 
ATOM      8  C   UNL A   1      44.918  26.266  25.887  1.00  0.00     0.011 A 
ATOM      9  C   UNL A   1      45.965  25.909  26.730  1.00  0.00     0.035 A 
ATOM     10  C   UNL A   1      44.397  25.321  25.008  1.00  0.00     0.049 A 
ATOM     11  C   UNL A   1      46.501  24.643  26.614  1.00  0.00     0.113 A 
ATOM     12  N   UNL A   1      45.983  23.697  25.813  1.00  0.00    -0.251 NA
BRANCH   8  13
ATOM     13  S   UNL A   1      44.120  27.843  26.091  1.00  0.00    -0.122 SA
BRANCH  13  14
ATOM     14  C   UNL A   1      45.489  28.909  26.684  1.00  0.00     0.122 C 
BRANCH  14  15
ATOM     15  C   UNL A   1      45.105  30.240  27.348  1.00  0.00     0.208 C 
ATOM     16  O   UNL A   1      46.039  33.167  25.769  1.00  0.00    -0.225 OA
ATOM     17  C   UNL A   1      45.469  32.225  26.296  1.00  0.00     0.407 C 
ATOM     18  N   UNL A   1      44.134  31.974  26.198  1.00  0.00    -0.318 N 
ATOM     19  O   UNL A   1      46.068  31.274  27.067  1.00  0.00    -0.443 OA
ATOM     20  C   UNL A   1      43.766  30.818  26.934  1.00  0.00     0.165 C 
ATOM     21  H   UNL A   1      43.503  32.526  25.681  1.00  0.00     0.167 HD
ENDBRANCH  14  15
ENDBRANCH  13  14
ENDBRANCH   8  13
ENDBRANCH   4   7
ENDBRANCH   2   3
ENDBRANCH   1   2
BRANCH   1  22
ATOM     22  C   UNL A   1      40.382  21.418  27.253  1.00  0.00     0.118 C 
BRANCH  22  23
ATOM     23  N   UNL A   1      39.405  21.819  26.251  1.00  0.00    -0.352 N 
ATOM     24  C   UNL A   1      38.727  23.001  26.109  1.00  0.00     0.251 C 
ATOM     25  H   UNL A   1      39.201  21.137  25.571  1.00  0.00     0.163 HD
ATOM     26  O   UNL A   1      37.735  23.042  25.386  1.00  0.00    -0.269 OA
BRANCH  24  27
ATOM     27  C   UNL A   1      39.187  24.214  26.815  1.00  0.00     0.039 A 
ATOM     28  C   UNL A   1      39.999  25.124  26.135  1.00  0.00     0.014 A 
ATOM     29  C   UNL A   1      38.862  24.432  28.157  1.00  0.00     0.014 A 
ATOM     30  C   UNL A   1      40.453  26.268  26.792  1.00  0.00     0.010 A 
ATOM     31  C   UNL A   1      39.235  25.617  28.780  1.00  0.00     0.010 A 
ATOM     32  C   UNL A   1      40.053  26.537  28.111  1.00  0.00    -0.014 A 
BRANCH  32  33
ATOM     33  C   UNL A   1      40.490  27.775  28.802  1.00  0.00     0.031 A 
ATOM     34  C   UNL A   1      41.891  27.893  29.341  1.00  0.00     0.074 A 
ATOM     35  C   UNL A   1      39.610  28.780  28.969  1.00  0.00     0.049 A 
ATOM     36  N   UNL A   1      42.456  28.903  29.950  1.00  0.00    -0.248 NA
ATOM     37  C   UNL A   1      42.760  26.713  29.203  1.00  0.00     0.031 C 
ATOM     38  C   UNL A   1      38.214  28.764  28.526  1.00  0.00     0.029 A 
ATOM     39  N   UNL A   1      39.762  30.015  29.544  1.00  0.00    -0.354 N 
ATOM     40  C   UNL A   1      43.742  28.480  30.270  1.00  0.00     0.074 A 
ATOM     41  C   UNL A   1      43.846  27.099  29.854  1.00  0.00     0.031 C 
ATOM     42  C   UNL A   1      37.657  29.955  28.788  1.00  0.00     0.029 A 
ATOM     43  C   UNL A   1      38.637  30.801  29.460  1.00  0.00     0.049 A 
ATOM     44  H   UNL A   1      40.596  30.312  29.975  1.00  0.00     0.167 HD
ATOM     45  C   UNL A   1      44.755  29.184  30.834  1.00  0.00     0.031 A 
ATOM     46  C   UNL A   1      38.423  32.066  29.867  1.00  0.00     0.031 A 
ATOM     47  C   UNL A   1      44.635  30.555  31.259  1.00  0.00     0.049 A 
ATOM     48  C   UNL A   1      39.548  32.818  30.519  1.00  0.00     0.074 A 
ATOM     49  C   UNL A   1      45.604  31.375  31.810  1.00  0.00     0.029 A 
ATOM     50  N   UNL A   1      43.470  31.305  31.188  1.00  0.00    -0.354 N 
ATOM     51  N   UNL A   1      40.777  32.424  30.758  1.00  0.00    -0.248 NA
ATOM     52  C   UNL A   1      39.260  34.193  30.943  1.00  0.00     0.031 C 
ATOM     53  C   UNL A   1      45.007  32.601  32.130  1.00  0.00     0.029 A 
ATOM     54  C   UNL A   1      43.686  32.570  31.712  1.00  0.00     0.049 A 
ATOM     55  H   UNL A   1      42.614  30.986  30.819  1.00  0.00     0.167 HD
ATOM     56  C   UNL A   1      41.418  33.513  31.337  1.00  0.00     0.074 A 
ATOM     57  C   UNL A   1      40.444  34.586  31.390  1.00  0.00     0.031 C 
ATOM     58  C   UNL A   1      42.697  33.619  31.780  1.00  0.00     0.031 A 
BRANCH  45  59
ATOM     59  C   UNL A   1      46.066  28.463  31.033  1.00  0.00    -0.014 A 
ATOM     60  C   UNL A   1      46.296  27.665  32.170  1.00  0.00     0.010 A 
ATOM     61  C   UNL A   1      47.090  28.594  30.078  1.00  0.00     0.010 A 
ATOM     62  C   UNL A   1      47.544  27.074  32.385  1.00  0.00     0.020 A 
ATOM     63  C   UNL A   1      48.330  27.973  30.270  1.00  0.00     0.020 A 
ATOM     64  C   UNL A   1      48.556  27.240  31.437  1.00  0.00     0.054 A 
BRANCH  64  65
ATOM     65  S   UNL A   1      50.174  26.482  31.752  1.00  0.00     0.124 S 
ATOM     66  O   UNL A   1      51.089  27.524  31.291  1.00  0.00    -0.237 OA
ATOM     67  O   UNL A   1      50.149  26.262  33.196  1.00  0.00    -0.237 OA
ATOM     68  O   UNL A   1      50.153  25.269  30.939  1.00  0.00    -0.744 OA
ENDBRANCH  64  65
ENDBRANCH  45  59
BRANCH  46  69
ATOM     69  C   UNL A   1      37.105  32.708  29.617  1.00  0.00    -0.014 A 
ATOM     70  C   UNL A   1      36.140  32.764  30.638  1.00  0.00     0.010 A 
ATOM     71  C   UNL A   1      36.820  33.304  28.374  1.00  0.00     0.010 A 
ATOM     72  C   UNL A   1      34.913  33.400  30.420  1.00  0.00     0.020 A 
ATOM     73  C   UNL A   1      35.608  33.966  28.163  1.00  0.00     0.020 A 
ATOM     74  C   UNL A   1      34.660  34.004  29.187  1.00  0.00     0.054 A 
BRANCH  74  75
ATOM     75  S   UNL A   1      33.093  34.888  28.955  1.00  0.00     0.124 S 
ATOM     76  O   UNL A   1      32.400  34.036  27.994  1.00  0.00    -0.237 OA
ATOM     77  O   UNL A   1      32.538  34.901  30.306  1.00  0.00    -0.237 OA
ATOM     78  O   UNL A   1      33.509  36.195  28.448  1.00  0.00    -0.744 OA
ENDBRANCH  74  75
ENDBRANCH  46  69
BRANCH  58  79
ATOM     79  C   UNL A   1      43.117  34.954  32.339  1.00  0.00    -0.014 A 
ATOM     80  C   UNL A   1      43.021  35.237  33.714  1.00  0.00     0.010 A 
ATOM     81  C   UNL A   1      43.625  35.940  31.472  1.00  0.00     0.010 A 
ATOM     82  C   UNL A   1      43.371  36.499  34.202  1.00  0.00     0.020 A 
ATOM     83  C   UNL A   1      44.011  37.189  31.962  1.00  0.00     0.020 A 
ATOM     84  C   UNL A   1      43.859  37.469  33.320  1.00  0.00     0.054 A 
BRANCH  84  85
ATOM     85  S   UNL A   1      44.311  39.097  33.979  1.00  0.00     0.124 S 
ATOM     86  O   UNL A   1      43.099  39.872  33.730  1.00  0.00    -0.237 OA
ATOM     87  O   UNL A   1      44.595  38.806  35.383  1.00  0.00    -0.237 OA
ATOM     88  O   UNL A   1      45.473  39.483  33.182  1.00  0.00    -0.744 OA
ENDBRANCH  84  85
ENDBRANCH  58  79
ENDBRANCH  32  33
ENDBRANCH  24  27
ENDBRANCH  22  23
ENDBRANCH   1  22
TORSDOF 16
ENDMDL
